data_PCOD9136709
_publ_section_title
;
Structure prediction by ZEFSAII (Michael W. Deem and Ramdas Pophale) SiO2 
 PCOD9136709
Probable space group: C C
;
_chemical_formula_sum "Si O2"
_cell_formula_units_Z 24
_cell_length_a 7.294431
_cell_length_b 29.161799
_cell_length_c 5.117662
_cell_angle_alpha 90.000000
_cell_angle_beta 96.838499
_cell_angle_gamma 90.000000
_cell_volume 1080.877803
_symmetry_space_group_name_H-M "C C"
_symmetry_group_IT_number 9
_symmetry_cell_setting 'monoclinic'
loop_
_space_group_symop_operation_xyz
x,y,z
x,-y,1/2+z
1/2+x,1/2+y,z
1/2+x,1/2-y,1/2+z
loop_
_atom_site_type_symbol
_atom_site_label
_atom_site_fract_x
_atom_site_fract_y
_atom_site_fract_z
Si Si1 0.870460 0.897079 0.211740
Si Si2 0.672931 0.529948 0.920060
Si Si3 0.979471 0.602447 0.835677
Si Si4 0.284804 0.350971 0.694220
Si Si5 0.337504 0.198212 0.652695
Si Si6 0.550848 0.232589 0.191651
O O1 0.654926 0.911850 0.190711
O O2 0.881364 0.856826 0.431220
O O3 0.999527 0.937922 0.322539
O O4 0.899658 0.877587 0.930118
O O5 0.670259 0.488097 0.714640
O O6 0.850507 0.561153 0.893129
O O7 0.866649 0.643557 0.676999
O O8 0.086892 0.624186 0.103793
O O9 0.227966 0.300625 0.772970
O O10 0.403850 0.220108 0.390001
O O11 0.135584 0.216974 0.688090
O O12 0.473669 0.217532 0.898988
#
# Coordination Sequence:
#
# PCOD9136709 Si02
#       6
#     4   4   4   4   4   4
#     4  10  21  43  66  87 126 166 206 258 317 380
#     4  12  28  42  64 100 124 155 218 271 323 385
#     4   9  24  43  68  88 127 170 210 253 324 380
#     4   9  19  40  66  85 125 172 204 244 314 372
#     4  11  23  39  63  95 133 170 217 256 316 371
#     4  11  21  39  61  97 131 165 217 260 296 380
#
# _framework density 22.204176
#
# number of rings (size 3 to 8) (size 9 to 14) (size 15 to 20)
#    1.000    0.667    1.667    2.000    2.333    4.000 
#    0.000    0.000    0.000    0.000    0.000    0.000 
#    0.000    0.000    0.000    0.000    0.000    0.000 
#
# Total GULP energy -67006.142086 kJ/mol
# GULP energy per Si atom -5583.845174 kJ/mol
# Density = 2.215364 g / cm^3
# Si number density = 22.204176 Si / 1000 Ang^3
#
#
#
# Elastic Constant Matrix: (Units=GPa)
#
#
# Indices 1 2 3 4 5 6 
#
# 1 40.2444 32.9351 3.2027 0.0000 -2.4165 0.0000
# 2 32.9351 50.5051 -4.8205 0.0000 4.6944 0.0000
# 3 3.2027 -4.8205 55.1250 0.0000 -15.4244 0.0000
# 4 0.0000 0.0000 0.0000 22.4019 0.0000 3.0299
# 5 -2.4165 4.6944 -15.4244 0.0000 25.9577 0.0000
# 6 0.0000 0.0000 0.0000 3.0299 0.0000 52.1702
#
#
#
# Elastic Compliance Matrix: (Units=1/GPa)
#
#
# Indices 1 2 3 4 5 6 
#
# 1 0.057546 -0.038835 -0.003928 0.000000 0.010046 0.000000
# 2 -0.038835 0.046383 0.003543 0.000000 -0.009899 0.000000
# 3 -0.003928 0.003543 0.022066 0.000000 0.012105 0.000000
# 4 0.000000 0.000000 0.000000 0.044992 0.000000 -0.002613
# 5 0.010046 -0.009899 0.012105 0.000000 0.048443 0.000000
# 6 0.000000 0.000000 0.000000 -0.002613 0.000000 0.019320
#
#
# Mechanical properties :
#
#
# Convention : Reuss Voigt Hill
#
# Bulk Modulus (GPa) = 21.02918 23.16767 22.09842
# Shear Modulus (GPa) = 15.01313 27.74312 21.37813
#
# Velocity S-wave (km/s) = 2.60309 3.53860 3.10626
# Velocity P-wave (km/s) = 4.30420 5.21077 4.77903
#
# Compressibility (1/GPa) = 0.04755297
#
# Stress axis : x y z
#
# Youngs Moduli (GPa) = 17.37751 21.55964 45.31903
#
# Poissons Ratio (x) = 0.83727 0.17803
# Poissons Ratio (y) = 0.67486 -0.16055
# Poissons Ratio (z) = 0.06827 -0.07638
#
# Static dielectric constant tensor:
#      x y z
#    x 1.834690 0.000000 0.008820 
#    y 0.000000 1.846130 0.000000 
#    z 0.008820 0.000000 1.801290 
# 
# From -- ./inp_files/787.got.cif
#   From: 2010.05.17/outbox.cif.g08.bks.cpg/sg9_1_cif.got.tgz:787.got - 2010.06.03 20:04:27.
