data_PCOD9136127
_publ_section_title
;
Structure prediction by ZEFSAII (Michael W. Deem and Ramdas Pophale) SiO2 
 PCOD9136127
Probable space group: C C
;
_chemical_formula_sum "Si O2"
_cell_formula_units_Z 28
_cell_length_a 6.873125
_cell_length_b 29.904929
_cell_length_c 5.241240
_cell_angle_alpha 90.000000
_cell_angle_beta 82.872631
_cell_angle_gamma 90.000000
_cell_volume 1068.961697
_symmetry_space_group_name_H-M "C C"
_symmetry_group_IT_number 9
_symmetry_cell_setting 'monoclinic'
loop_
_space_group_symop_operation_xyz
x,y,z
x,-y,1/2+z
1/2+x,1/2+y,z
1/2+x,1/2-y,1/2+z
loop_
_atom_site_type_symbol
_atom_site_label
_atom_site_fract_x
_atom_site_fract_y
_atom_site_fract_z
Si Si1 0.683470 0.268072 0.165770
Si Si2 0.625438 0.521533 0.303717
Si Si3 0.961682 0.889910 0.587254
Si Si4 0.412161 0.657390 0.601933
Si Si5 0.899333 0.302258 0.631994
Si Si6 0.063672 0.387143 0.400601
Si Si7 0.059423 0.485093 0.231731
O O1 0.476205 0.294142 0.182599
O O2 0.787569 0.277947 0.416027
O O3 0.621119 0.217245 0.122105
O O4 0.804730 0.290608 0.918317
O O5 0.562556 0.515741 0.606044
O O6 0.568377 0.567789 0.185749
O O7 0.861884 0.515147 0.265711
O O8 0.022385 0.874258 0.293641
O O9 0.730753 0.900165 0.579504
O O10 0.970183 0.852032 0.802939
O O11 0.186190 0.643966 0.682369
O O12 0.909339 0.354665 0.559017
O O13 0.006498 0.433230 0.275750
O O14 0.171093 0.503978 0.456841
#
# Coordination Sequence:
#
# PCOD9136127 Si02
#       7
#     4   4   4   4   4   4   4
#     4  12  27  47  76 112 147 194 242 292 372 428
#     4  10  21  39  62  95 132 184 237 297 350 428
#     4  10  23  40  69  96 140 186 235 299 360 427
#     4  10  24  44  71 100 143 183 243 291 368 430
#     4  12  28  46  79 107 154 190 243 301 358 447
#     4  10  27  45  72 102 149 184 247 298 376 414
#     4  10  24  41  65  94 141 183 239 300 358 424
#
# _framework density 26.193642000000001
#
# number of rings (size 3 to 8) (size 9 to 14) (size 15 to 20)
#    0.857    0.571    0.000    3.429    6.000    8.000 
#    0.000    0.000    0.000    0.000    0.000    0.000 
#    0.000    0.000    0.000    0.000    0.000    0.000 
#
# Total GULP energy -78345.263023 kJ/mol
# GULP energy per Si atom -5596.090216 kJ/mol
# Density = 2.613402 g / cm^3
# Si number density = 26.193642 Si / 1000 Ang^3
#
#
#
# Elastic Constant Matrix: (Units=GPa)
#
#
# Indices 1 2 3 4 5 6 
#
# 1 79.7151 10.1906 18.4101 0.0000 4.1570 0.0000
# 2 10.1906 102.6184 17.0089 0.0000 5.8047 0.0000
# 3 18.4101 17.0089 166.9679 0.0000 4.8483 0.0000
# 4 0.0000 0.0000 0.0000 42.6332 0.0000 15.1944
# 5 4.1570 5.8047 4.8483 0.0000 43.7606 0.0000
# 6 0.0000 0.0000 0.0000 15.1944 0.0000 51.3697
#
#
#
# Elastic Compliance Matrix: (Units=1/GPa)
#
#
# Indices 1 2 3 4 5 6 
#
# 1 0.013027 -0.001023 -0.001304 0.000000 -0.000957 0.000000
# 2 -0.001023 0.010057 -0.000879 0.000000 -0.001139 0.000000
# 3 -0.001304 -0.000879 0.006236 0.000000 -0.000450 0.000000
# 4 0.000000 0.000000 0.000000 0.026220 0.000000 -0.007755
# 5 -0.000957 -0.001139 -0.000450 0.000000 0.023144 0.000000
# 6 0.000000 0.000000 0.000000 -0.007755 0.000000 0.021761
#
#
# Mechanical properties :
#
#
# Convention : Reuss Voigt Hill
#
# Bulk Modulus (GPa) = 43.65576 48.94672 46.30124
# Shear Modulus (GPa) = 43.67169 47.79883 45.73526
#
# Velocity S-wave (km/s) = 4.08764 4.27643 4.18310
# Velocity P-wave (km/s) = 6.24349 6.56589 6.40672
#
# Compressibility (1/GPa) = 0.02290648
#
# Stress axis : x y z
#
# Youngs Moduli (GPa) = 76.76585 99.43785 160.37048
#
# Poissons Ratio (x) = 0.10175 0.20917
# Poissons Ratio (y) = 0.07855 0.14089
# Poissons Ratio (z) = 0.10013 0.08736
#
# Static dielectric constant tensor:
#      x y z
#    x 2.118090 0.000000 -0.029180 
#    y 0.000000 2.048610 0.000000 
#    z -0.029180 0.000000 2.098540 
# 
# From -- ./inp_files/1155.got.cif
#   From: 2010.05.17/outbox.cif.g08.bks.cpg/sg9_1_cif.got.tgz:1155.got - 2010.06.03 20:04:27.
