data_PCOD9136666
_publ_section_title
;
Structure prediction by ZEFSAII (Michael W. Deem and Ramdas Pophale) SiO2 
 PCOD9136666
Probable space group: C C
;
_chemical_formula_sum "Si O2"
_cell_formula_units_Z 32
_cell_length_a 8.976595
_cell_length_b 27.458069
_cell_length_c 5.262389
_cell_angle_alpha 90.000000
_cell_angle_beta 101.888616
_cell_angle_gamma 90.000000
_cell_volume 1269.251148
_symmetry_space_group_name_H-M "C C"
_symmetry_group_IT_number 9
_symmetry_cell_setting 'monoclinic'
loop_
_space_group_symop_operation_xyz
x,y,z
x,-y,1/2+z
1/2+x,1/2+y,z
1/2+x,1/2-y,1/2+z
loop_
_atom_site_type_symbol
_atom_site_label
_atom_site_fract_x
_atom_site_fract_y
_atom_site_fract_z
Si Si1 0.141630 0.122962 0.248780
Si Si2 0.657121 0.113345 0.868251
Si Si3 0.107034 0.014154 0.093481
Si Si4 0.843199 0.124031 0.466419
Si Si5 0.945187 0.474742 0.226536
Si Si6 0.152913 0.202401 0.882146
Si Si7 0.869350 0.229678 0.723798
Si Si8 0.404055 0.182271 0.592539
O O1 0.153584 0.070302 0.124973
O O2 0.308307 0.145835 0.369947
O O3 0.019481 0.117268 0.436358
O O4 0.070264 0.162319 0.027343
O O5 0.768883 0.094780 0.678404
O O6 0.519665 0.074750 0.845120
O O7 0.564525 0.160860 0.736096
O O8 0.745089 0.120391 0.168399
O O9 0.018203 0.000020 0.313123
O O10 0.260116 0.980055 0.155230
O O11 0.836345 0.176507 0.599403
O O12 0.993090 0.513677 0.456609
O O13 0.290949 0.178806 0.788143
O O14 0.039330 0.232417 0.663619
O O15 0.228092 0.240818 0.086427
O O16 0.901806 0.261320 0.995285
#
# Coordination Sequence:
#
# PCOD9136666 Si02
#       8
#     4   4   4   4   4   4   4   4
#     4  11  26  48  75 112 150 202 253 316 388 449
#     4  12  28  47  77 115 151 207 252 314 392 457
#     4  10  23  41  75 108 142 184 244 316 369 446
#     4  12  28  50  75 107 163 203 251 318 391 461
#     4  10  21  42  73 107 147 187 245 317 367 450
#     4  11  26  43  76 106 152 195 261 311 371 454
#     4  11  26  46  67 108 145 202 247 317 370 430
#     4  11  26  45  78 107 146 202 267 311 360 467
#
# _framework density 25.211715999999999
#
# number of rings (size 3 to 8) (size 9 to 14) (size 15 to 20)
#    0.000    1.000    1.250    3.750   14.000    0.000 
#    0.000    3.750    0.000    0.000    0.000    0.000 
#    0.000    0.000    0.000    0.000    0.000    0.000 
#
# Total GULP energy -89092.965422 kJ/mol
# GULP energy per Si atom -5568.310339 kJ/mol
# Density = 2.515433 g / cm^3
# Si number density = 25.211716 Si / 1000 Ang^3
#
#
#
# Elastic Constant Matrix: (Units=GPa)
#
#
# Indices 1 2 3 4 5 6 
#
# 1 103.7678 13.6479 24.8089 0.0000 3.0708 0.0000
# 2 13.6479 83.9785 8.0783 0.0000 2.4483 0.0000
# 3 24.8089 8.0783 119.7898 0.0000 9.8461 0.0000
# 4 0.0000 0.0000 0.0000 67.8802 0.0000 15.8298
# 5 3.0708 2.4483 9.8461 0.0000 35.6750 0.0000
# 6 0.0000 0.0000 0.0000 15.8298 0.0000 41.3179
#
#
#
# Elastic Compliance Matrix: (Units=1/GPa)
#
#
# Indices 1 2 3 4 5 6 
#
# 1 0.010321 -0.001476 -0.002019 0.000000 -0.000230 0.000000
# 2 -0.001476 0.012210 -0.000470 0.000000 -0.000581 0.000000
# 3 -0.002019 -0.000470 0.008985 0.000000 -0.002274 0.000000
# 4 0.000000 0.000000 0.000000 0.016177 0.000000 -0.006198
# 5 -0.000230 -0.000581 -0.002274 0.000000 0.028718 0.000000
# 6 0.000000 0.000000 0.000000 -0.006198 0.000000 0.026577
#
#
# Mechanical properties :
#
#
# Convention : Reuss Voigt Hill
#
# Bulk Modulus (GPa) = 42.40031 44.51180 43.45606
# Shear Modulus (GPa) = 42.09482 46.37468 44.23475
#
# Velocity S-wave (km/s) = 4.09057 4.29349 4.19326
# Velocity P-wave (km/s) = 6.25816 6.50171 6.38110
#
# Compressibility (1/GPa) = 0.02358473
#
# Stress axis : x y z
#
# Youngs Moduli (GPa) = 96.89383 81.90084 111.30075
#
# Poissons Ratio (x) = 0.12091 0.22471
# Poissons Ratio (y) = 0.14305 0.05230
# Poissons Ratio (z) = 0.19563 0.03848
#
# Static dielectric constant tensor:
#      x y z
#    x 2.003870 0.000000 -0.017140 
#    y 0.000000 2.060890 0.000000 
#    z -0.017140 0.000000 2.195530 
# 
# From -- ./inp_files/1328.got.cif
#   From: 2010.05.17/outbox.cif.g08.bks.cpg/sg9_1_cif.got.tgz:1328.got - 2010.06.03 20:04:27.
