data_PCOD9136428
_publ_section_title
;
Structure prediction by ZEFSAII (Michael W. Deem and Ramdas Pophale) SiO2 
 PCOD9136428
Probable space group: C C
;
_chemical_formula_sum "Si O2"
_cell_formula_units_Z 32
_cell_length_a 12.090450
_cell_length_b 12.371669
_cell_length_c 12.155590
_cell_angle_alpha 90.000000
_cell_angle_beta 140.456915
_cell_angle_gamma 90.000000
_cell_volume 1157.585809
_symmetry_space_group_name_H-M "C C"
_symmetry_group_IT_number 9
_symmetry_cell_setting 'monoclinic'
loop_
_space_group_symop_operation_xyz
x,y,z
x,-y,1/2+z
1/2+x,1/2+y,z
1/2+x,1/2-y,1/2+z
loop_
_atom_site_type_symbol
_atom_site_label
_atom_site_fract_x
_atom_site_fract_y
_atom_site_fract_z
Si Si1 0.414950 0.409357 0.243060
Si Si2 0.476530 0.357139 0.833503
Si Si3 0.610879 0.627566 0.681358
Si Si4 0.754214 0.685589 0.126530
Si Si5 0.804965 0.314411 0.925530
Si Si6 0.644229 0.090643 0.809000
Si Si7 0.082649 0.357139 0.718557
Si Si8 0.448300 0.872434 0.370702
O O1 0.375251 0.531808 0.242569
O O2 0.489440 0.421582 0.178096
O O3 0.574469 0.364123 0.441879
O O4 0.267287 0.317528 0.127076
O O5 0.643386 0.354434 0.878931
O O6 0.389156 0.238804 0.761312
O O7 0.527686 0.356712 0.000108
O O8 0.670023 0.738804 0.790748
O O9 0.779590 0.562205 0.776030
O O10 0.779589 0.666414 0.276030
O O11 0.915793 0.645566 0.173128
O O12 0.791892 0.182472 0.924983
O O13 0.984710 0.364123 0.110181
O O14 0.569739 0.078418 0.873964
O O15 0.683928 0.968192 0.809491
O O16 0.031493 0.356712 0.551952
#
# Coordination Sequence:
#
# PCOD9136428 Si02
#       8
#     4   4   4   4   4   4   4   4
#     4  11  24  42  66  95 128 172 210 267 322 372
#     4  10  23  40  65  93 127 173 211 260 323 376
#     4  10  21  41  63  95 128 161 221 265 307 388
#     4  11  24  42  62  96 130 165 216 260 315 388
#     4  11  24  42  62  96 130 165 216 260 315 388
#     4  11  24  42  66  95 128 172 210 267 322 372
#     4  10  23  40  65  93 127 173 211 260 323 376
#     4  10  21  41  63  95 128 161 221 265 307 388
#
# _framework density 27.643739
#
# number of rings (size 3 to 8) (size 9 to 14) (size 15 to 20)
#    0.000    1.500    2.500    1.500    3.500    1.000 
#    0.000    5.000    0.000    0.000    0.000    0.000 
#    0.000    0.000    0.000    0.000    0.000    0.000 
#
# Total GULP energy -89564.791563 kJ/mol
# GULP energy per Si atom -5597.799473 kJ/mol
# Density = 2.758082 g / cm^3
# Si number density = 27.643739 Si / 1000 Ang^3
#
#
#
# Elastic Constant Matrix: (Units=GPa)
#
#
# Indices 1 2 3 4 5 6 
#
# 1 190.5026 28.7041 62.8417 0.0000 -43.0318 0.0001
# 2 28.7041 201.3799 32.2812 0.0000 -1.1374 0.0000
# 3 62.8417 32.2812 149.1019 0.0000 -25.7649 0.0000
# 4 0.0000 0.0000 0.0000 38.5809 0.0000 7.4652
# 5 -43.0318 -1.1374 -25.7649 0.0000 57.1242 0.0000
# 6 0.0001 0.0000 0.0000 7.4652 0.0000 -7.4987
#
#
#
# Elastic Compliance Matrix: (Units=1/GPa)
#
#
# Indices 1 2 3 4 5 6 
#
# 1 0.007006 -0.000643 -0.002065 0.000000 0.004334 0.000000
# 2 -0.000643 0.005213 -0.001001 0.000000 -0.000832 0.000000
# 3 -0.002065 -0.001001 0.008157 0.000000 0.002104 0.000000
# 4 0.000000 0.000000 0.000000 0.021733 0.000000 0.021636
# 5 0.004334 -0.000832 0.002104 0.000000 0.021703 0.000000
# 6 0.000000 0.000000 0.000000 0.021636 0.000000 -0.111818
#
#
# Mechanical properties :
#
#
# Convention : Reuss Voigt Hill
#
# Bulk Modulus (GPa) = 77.17191 87.62648 82.39920
# Shear Modulus (GPa) = -137.86772 45.45178 -46.20797
#
# Velocity S-wave (km/s) = -7.06975 4.05927 -4.09290
# Velocity P-wave (km/s) = 6.21808 7.33059 2.74527
#
# Compressibility (1/GPa) = 0.01295808
#
# Stress axis : x y z
#
# Youngs Moduli (GPa) = 142.73031 191.81900 122.58746
#
# Poissons Ratio (x) = 0.12338 0.25312
# Poissons Ratio (y) = 0.09180 0.12276
# Poissons Ratio (z) = 0.29471 0.19210
#
# Static dielectric constant tensor:
#      x y z
#    x 2.140140 0.000000 0.045150 
#    y 0.000000 2.180640 0.000000 
#    z 0.045150 0.000000 2.192800 
# 
# From -- ./inp_files/18298.got.cif
#   From: 2010.05.17/outbox.cif.g08.bks.cpg/sg9_10_cif.got.tgz:18298.got - 2010.06.03 20:04:27.
