data_PCOD9136791
_publ_section_title
;
Structure prediction by ZEFSAII (Michael W. Deem and Ramdas Pophale) SiO2 
 PCOD9136791
Probable space group: C C
;
_chemical_formula_sum "Si O2"
_cell_formula_units_Z 24
_cell_length_a 12.283584
_cell_length_b 6.818075
_cell_length_c 22.103190
_cell_angle_alpha 90.000000
_cell_angle_beta 33.072527
_cell_angle_gamma 90.000000
_cell_volume 1010.173468
_symmetry_space_group_name_H-M "C C"
_symmetry_group_IT_number 9
_symmetry_cell_setting 'monoclinic'
loop_
_space_group_symop_operation_xyz
x,y,z
x,-y,1/2+z
1/2+x,1/2+y,z
1/2+x,1/2-y,1/2+z
loop_
_atom_site_type_symbol
_atom_site_label
_atom_site_fract_x
_atom_site_fract_y
_atom_site_fract_z
Si Si1 0.238970 0.963270 0.197130
Si Si2 0.527723 0.235188 0.388405
Si Si3 0.994505 0.673450 0.234850
Si Si4 0.592063 0.185956 0.049549
Si Si5 0.126488 0.031894 0.956509
Si Si6 0.523997 0.865007 0.320674
O O1 0.464989 0.018768 0.075197
O O2 0.138330 0.164549 0.265882
O O3 0.219327 0.818367 0.263508
O O4 0.103530 0.868974 0.207840
O O5 0.332542 0.304700 0.441028
O O6 0.516251 0.335825 0.458863
O O7 0.537324 0.001811 0.373957
O O8 0.032635 0.660228 0.146826
O O9 0.086840 0.500759 0.233863
O O10 0.760974 0.631551 0.357407
O O11 0.523266 0.395218 0.054151
O O12 0.289324 0.162830 0.915921
#
# Coordination Sequence:
#
# PCOD9136791 Si02
#       6
#     4   4   4   4   4   4
#     4  11  20  42  67  93 130 172 226 272 331 393
#     4  10  21  44  64  90 138 168 221 282 316 398
#     4   9  21  42  60  92 134 167 216 283 317 388
#     4  11  22  40  67  98 133 178 218 271 342 387
#     4   9  20  42  63  90 134 171 218 277 322 390
#     4   8  20  38  63  91 119 178 215 269 332 376
#
# _framework density 23.758295
#
# number of rings (size 3 to 8) (size 9 to 14) (size 15 to 20)
#    1.000    1.333    3.333    0.000    2.333    1.333 
#    9.000    1.667    0.000    0.000    0.000    0.000 
#    0.000    0.000    0.000    0.000    0.000    0.000 
#
# Total GULP energy -66894.115790 kJ/mol
# GULP energy per Si atom -5574.509649 kJ/mol
# Density = 2.370422 g / cm^3
# Si number density = 23.758295 Si / 1000 Ang^3
#
#
#
# Elastic Constant Matrix: (Units=GPa)
#
#
# Indices 1 2 3 4 5 6 
#
# 1 104.9361 47.8913 4.3924 0.0000 -2.4216 0.0000
# 2 47.8913 95.1399 23.6521 0.0000 -21.3035 0.0001
# 3 4.3924 23.6521 44.3569 0.0000 -13.5274 0.0000
# 4 0.0000 0.0000 0.0000 38.9623 0.0000 -6.3710
# 5 -2.4216 -21.3035 -13.5274 0.0000 39.4520 0.0000
# 6 0.0000 0.0001 0.0000 -6.3710 0.0000 39.7192
#
#
#
# Elastic Compliance Matrix: (Units=1/GPa)
#
#
# Indices 1 2 3 4 5 6 
#
# 1 0.012821 -0.007521 0.001946 0.000000 -0.002607 0.000000
# 2 -0.007521 0.017415 -0.006493 0.000000 0.006716 0.000000
# 3 0.001946 -0.006493 0.027675 0.000000 0.006103 0.000000
# 4 0.000000 0.000000 0.000000 0.026357 0.000000 0.004228
# 5 -0.002607 0.006716 0.006103 0.000000 0.030906 0.000000
# 6 0.000000 0.000000 0.000000 0.004228 0.000000 0.025855
#
#
# Mechanical properties :
#
#
# Convention : Reuss Voigt Hill
#
# Bulk Modulus (GPa) = 29.60902 44.03383 36.82142
# Shear Modulus (GPa) = 28.34098 34.85984 31.60041
#
# Velocity S-wave (km/s) = 3.45757 3.83465 3.65098
# Velocity P-wave (km/s) = 5.33192 6.17903 5.77104
#
# Compressibility (1/GPa) = 0.03377349
#
# Stress axis : x y z
#
# Youngs Moduli (GPa) = 78.00007 57.42264 36.13362
#
# Poissons Ratio (x) = 0.43188 -0.07031
# Poissons Ratio (y) = 0.58664 0.23462
# Poissons Ratio (z) = -0.15177 0.37285
#
# Static dielectric constant tensor:
#      x y z
#    x 1.914280 0.000000 -0.038170 
#    y 0.000000 1.884290 0.000000 
#    z -0.038170 0.000000 2.022980 
# 
# From -- ./inp_files/37344.got.cif
#   From: 2010.05.17/outbox.cif.g08.bks.cpg/sg9_19_cif.got.tgz:37344.got - 2010.06.03 20:04:27.
