data_PCOD9136830
_publ_section_title
;
Structure prediction by ZEFSAII (Michael W. Deem and Ramdas Pophale) SiO2 
 PCOD9136830
Probable space group: C C
;
_chemical_formula_sum "Si O2"
_cell_formula_units_Z 32
_cell_length_a 7.096352
_cell_length_b 12.686356
_cell_length_c 16.640773
_cell_angle_alpha 90.000000
_cell_angle_beta 60.611638
_cell_angle_gamma 90.000000
_cell_volume 1305.328999
_symmetry_space_group_name_H-M "C C"
_symmetry_group_IT_number 9
_symmetry_cell_setting 'monoclinic'
loop_
_space_group_symop_operation_xyz
x,y,z
x,-y,1/2+z
1/2+x,1/2+y,z
1/2+x,1/2-y,1/2+z
loop_
_atom_site_type_symbol
_atom_site_label
_atom_site_fract_x
_atom_site_fract_y
_atom_site_fract_z
Si Si1 0.958470 0.266230 0.020680
Si Si2 0.980813 0.043019 0.278924
Si Si3 0.119048 0.826332 0.319672
Si Si4 0.667505 0.805870 0.384526
Si Si5 0.071553 0.050339 0.073874
Si Si6 0.489189 0.333525 0.046157
Si Si7 0.072031 0.487769 0.962486
Si Si8 0.583833 0.225100 0.735576
O O1 0.712569 0.298486 0.045624
O O2 0.990544 0.167999 0.073610
O O3 0.083381 0.217859 0.916725
O O4 0.055340 0.382754 0.019958
O O5 0.728057 0.049962 0.356742
O O6 0.087017 0.156265 0.267946
O O7 0.090610 0.950606 0.307838
O O8 0.016823 0.020179 0.177259
O O9 0.355109 0.794674 0.241994
O O10 0.915126 0.774003 0.317083
O O11 0.517571 0.718379 0.453725
O O12 0.586824 0.845690 0.315576
O O13 0.679329 0.896912 0.451185
O O14 0.964311 0.958895 0.043647
O O15 0.325777 0.029397 0.003805
O O16 0.286961 0.291944 0.137378
#
# Coordination Sequence:
#
# PCOD9136830 Si02
#       8
#     4   4   4   4   4   4   4   4
#     4  10  22  44  71 105 141 201 243 296 382 435
#     4  11  25  43  68 110 146 193 252 310 363 451
#     4  10  23  45  68 100 143 189 242 297 368 436
#     4  10  23  45  70 101 148 185 246 309 366 446
#     4  11  24  43  73 107 150 197 246 309 378 434
#     4  10  24  44  65 106 148 191 248 308 367 451
#     4  10  21  44  68  99 149 186 244 307 363 438
#     4  12  24  44  71 108 143 198 247 304 379 435
#
# _framework density 24.514892
#
# number of rings (size 3 to 8) (size 9 to 14) (size 15 to 20)
#    0.000    1.500    1.250    3.000    1.750    4.000 
#    4.500    1.250    0.000    0.000    0.000    0.000 
#    0.000    0.000    0.000    0.000    0.000    0.000 
#
# Total GULP energy -89279.947669 kJ/mol
# GULP energy per Si atom -5579.996729 kJ/mol
# Density = 2.445909 g / cm^3
# Si number density = 24.514892 Si / 1000 Ang^3
#
#
#
# Elastic Constant Matrix: (Units=GPa)
#
#
# Indices 1 2 3 4 5 6 
#
# 1 78.5101 34.8807 47.4900 0.0000 -29.3922 0.0000
# 2 34.8807 154.8598 42.5613 0.0000 4.2450 0.0000
# 3 47.4900 42.5613 140.1804 0.0000 -38.5812 0.0000
# 4 0.0000 0.0000 0.0000 37.5392 0.0000 1.9436
# 5 -29.3922 4.2450 -38.5812 0.0000 37.8978 0.0000
# 6 0.0000 0.0000 0.0000 1.9436 0.0000 41.6417
#
#
#
# Elastic Compliance Matrix: (Units=1/GPa)
#
#
# Indices 1 2 3 4 5 6 
#
# 1 0.021804 -0.004935 -0.001503 0.000000 0.015932 0.000000
# 2 -0.004935 0.008658 -0.003164 0.000000 -0.008018 0.000000
# 3 -0.001503 -0.003164 0.011642 0.000000 0.011041 0.000000
# 4 0.000000 0.000000 0.000000 0.026703 0.000000 -0.001246
# 5 0.015932 -0.008018 0.011041 0.000000 0.050881 0.000000
# 6 0.000000 0.000000 0.000000 -0.001246 0.000000 0.024073
#
#
# Mechanical properties :
#
#
# Convention : Reuss Voigt Hill
#
# Bulk Modulus (GPa) = 43.66693 69.26827 56.46760
# Shear Modulus (GPa) = 29.30867 39.99029 34.64948
#
# Velocity S-wave (km/s) = 3.46142 4.04327 3.76361
# Velocity P-wave (km/s) = 5.81604 7.07915 6.47845
#
# Compressibility (1/GPa) = 0.02290062
#
# Stress axis : x y z
#
# Youngs Moduli (GPa) = 45.86395 115.49713 85.89464
#
# Poissons Ratio (x) = 0.56993 0.12913
# Poissons Ratio (y) = 0.22632 0.27175
# Poissons Ratio (z) = 0.06895 0.36540
#
# Static dielectric constant tensor:
#      x y z
#    x 2.055450 0.000000 0.043210 
#    y 0.000000 2.014580 0.000000 
#    z 0.043210 0.000000 1.939780 
# 
# From -- ./inp_files/32556.got.cif
#   From: 2010.05.17/outbox.cif.g08.bks.cpg/sg9_17_cif.got.tgz:32556.got - 2010.06.03 20:04:27.
