data_PCOD9136615
_publ_section_title
;
Structure prediction by ZEFSAII (Michael W. Deem and Ramdas Pophale) SiO2 
 PCOD9136615
Probable space group: C C
;
_chemical_formula_sum "Si O2"
_cell_formula_units_Z 32
_cell_length_a 7.838924
_cell_length_b 17.476085
_cell_length_c 15.108585
_cell_angle_alpha 90.000000
_cell_angle_beta 37.269687
_cell_angle_gamma 90.000000
_cell_volume 1253.392021
_symmetry_space_group_name_H-M "C C"
_symmetry_group_IT_number 9
_symmetry_cell_setting 'monoclinic'
loop_
_space_group_symop_operation_xyz
x,y,z
x,-y,1/2+z
1/2+x,1/2+y,z
1/2+x,1/2-y,1/2+z
loop_
_atom_site_type_symbol
_atom_site_label
_atom_site_fract_x
_atom_site_fract_y
_atom_site_fract_z
Si Si1 0.084260 0.560901 0.403780
Si Si2 0.831589 0.269466 0.979964
Si Si3 0.662596 0.643025 0.161641
Si Si4 0.376771 0.772997 0.169060
Si Si5 0.963177 0.007877 0.986132
Si Si6 0.426937 0.089974 0.884385
Si Si7 0.843710 0.158826 0.574271
Si Si8 0.357235 0.021754 0.175425
O O1 0.415640 0.578918 0.270288
O O2 0.936629 0.523242 0.551871
O O3 0.939886 0.641675 0.440647
O O4 0.059027 0.493053 0.343774
O O5 0.061041 0.215128 0.836835
O O6 0.828095 0.249209 0.086835
O O7 0.548898 0.278262 0.035712
O O8 0.495567 0.715135 0.195725
O O9 0.820448 0.614285 0.183211
O O10 0.894289 0.631061 0.990554
O O11 0.654583 0.828212 0.062450
O O12 0.103879 0.017630 0.832011
O O13 0.111470 0.070752 0.984421
O O14 0.016648 0.919751 0.990705
O O15 0.632964 0.013329 0.119940
O O16 0.603615 0.140035 0.745137
#
# Coordination Sequence:
#
# PCOD9136615 Si02
#       8
#     4   4   4   4   4   4   4   4
#     4  10  21  42  68 100 144 185 234 304 385 449
#     4  11  26  49  76 102 147 200 252 315 379 446
#     4  10  23  43  66 100 142 195 242 306 367 451
#     4  11  27  50  71 107 148 203 261 309 368 461
#     4  12  23  42  68 112 143 188 236 312 384 460
#     4  11  23  40  69 105 143 181 245 311 381 454
#     4  12  26  47  76 106 152 200 250 318 381 456
#     4  11  23  39  68 106 143 188 238 301 385 453
#
# _framework density 25.530719000000001
#
# number of rings (size 3 to 8) (size 9 to 14) (size 15 to 20)
#    0.000    1.000    3.750    2.250    3.500    2.000 
#    4.500    0.000    0.000    0.000    0.000    0.000 
#    0.000    0.000    0.000    0.000    0.000    0.000 
#
# Total GULP energy -89235.097570 kJ/mol
# GULP energy per Si atom -5577.193598 kJ/mol
# Density = 2.547261 g / cm^3
# Si number density = 25.530719 Si / 1000 Ang^3
#
#
#
# Elastic Constant Matrix: (Units=GPa)
#
#
# Indices 1 2 3 4 5 6 
#
# 1 105.6117 18.6377 18.2759 -0.0008 7.1474 0.0002
# 2 18.6377 82.5168 2.9503 0.0009 -9.8235 0.0002
# 3 18.2759 2.9503 85.9846 -0.0040 23.0641 0.0007
# 4 -0.0008 0.0009 -0.0040 20.5544 -0.0008 -2.7593
# 5 7.1474 -9.8235 23.0641 -0.0008 25.2379 0.0002
# 6 0.0002 0.0002 0.0007 -2.7593 0.0002 23.8661
#
#
#
# Elastic Compliance Matrix: (Units=1/GPa)
#
#
# Indices 1 2 3 4 5 6 
#
# 1 0.010351 -0.002606 -0.001394 0.000000 -0.002672 0.000000
# 2 -0.002606 0.013728 -0.002051 -0.000001 0.007956 0.000000
# 3 -0.001394 -0.002051 0.016036 0.000003 -0.015058 0.000000
# 4 0.000000 -0.000001 0.000003 0.049418 -0.000001 0.005714
# 5 -0.002672 0.007956 -0.015058 -0.000001 0.057238 0.000000
# 6 0.000000 0.000000 0.000000 0.005714 0.000000 0.042561
#
#
# Mechanical properties :
#
#
# Convention : Reuss Voigt Hill
#
# Bulk Modulus (GPa) = 35.69909 39.31566 37.50738
# Shear Modulus (GPa) = 23.72245 29.54829 26.63537
#
# Velocity S-wave (km/s) = 3.05154 3.40569 3.23347
# Velocity P-wave (km/s) = 5.14092 5.55858 5.35382
#
# Compressibility (1/GPa) = 0.02801192
#
# Stress axis : x y z
#
# Youngs Moduli (GPa) = 96.61292 72.84463 62.36047
#
# Poissons Ratio (x) = 0.18984 0.08692
# Poissons Ratio (y) = 0.25178 0.12791
# Poissons Ratio (z) = 0.13467 0.14942
#
# Static dielectric constant tensor:
#      x y z
#    x 2.095730 0.000000 -0.029300 
#    y 0.000000 2.192540 0.000000 
#    z -0.029300 0.000000 2.006230 
# 
# From -- ./inp_files/29571.got.cif
#   From: 2010.05.17/outbox.cif.g08.bks.cpg/sg9_15_cif.got.tgz:29571.got - 2010.06.03 20:04:27.
