data_PCOD9136002
_publ_section_title
;
Structure prediction by ZEFSAII (Michael W. Deem and Ramdas Pophale) SiO2 
 PCOD9136002
Probable space group: C C
;
_chemical_formula_sum "Si O2"
_cell_formula_units_Z 32
_cell_length_a 13.643492
_cell_length_b 6.988685
_cell_length_c 15.420578
_cell_angle_alpha 90.000000
_cell_angle_beta 96.172021
_cell_angle_gamma 90.000000
_cell_volume 1461.830381
_symmetry_space_group_name_H-M "C C"
_symmetry_group_IT_number 9
_symmetry_cell_setting 'monoclinic'
loop_
_space_group_symop_operation_xyz
x,y,z
x,-y,1/2+z
1/2+x,1/2+y,z
1/2+x,1/2-y,1/2+z
loop_
_atom_site_type_symbol
_atom_site_label
_atom_site_fract_x
_atom_site_fract_y
_atom_site_fract_z
Si Si1 0.033850 0.419870 0.117860
Si Si2 0.660244 0.534045 0.778135
Si Si3 0.611776 0.838424 0.480979
Si Si4 0.342879 0.930638 0.514375
Si Si5 0.815577 0.820006 0.852517
Si Si6 0.011156 0.711488 0.802807
Si Si7 0.296591 0.742908 0.884032
Si Si8 0.126081 0.970518 0.577816
O O1 0.048351 0.399833 0.221725
O O2 0.051449 0.204999 0.083867
O O3 0.930907 0.528047 0.089179
O O4 0.110282 0.534856 0.065984
O O5 0.707784 0.725617 0.824384
O O6 0.563750 0.422443 0.806108
O O7 0.742590 0.372695 0.807185
O O8 0.643543 0.557600 0.674915
O O9 0.542431 0.892856 0.394299
O O10 0.717043 0.829228 0.446917
O O11 0.582414 0.627701 0.509741
O O12 0.356149 0.107344 0.447607
O O13 0.345768 0.746567 0.452301
O O14 0.234986 0.926448 0.548841
O O15 0.893870 0.730424 0.792833
O O16 0.830762 0.046210 0.846341
#
# Coordination Sequence:
#
# PCOD9136002 Si02
#       8
#     4   4   4   4   4   4   4   4
#     4  11  22  39  63  91 125 171 205 262 325 376
#     4   9  21  40  58  91 124 162 215 262 318 383
#     4  10  21  41  60  87 124 162 214 261 314 384
#     4  10  21  38  60  92 124 162 214 258 315 386
#     4  11  20  40  63  87 128 170 201 272 323 369
#     4  10  22  39  61  92 126 158 219 259 305 396
#     4   9  21  38  63  89 119 166 209 256 320 385
#     4  10  22  39  60  87 126 163 211 272 310 381
#
# _framework density 21.890364999999999
#
# number of rings (size 3 to 8) (size 9 to 14) (size 15 to 20)
#    0.000    2.000    1.250    2.250    1.750    3.000 
#    0.000   10.000    0.000    0.000    0.000    0.000 
#    0.000    0.000    0.000    0.000    0.000    0.000 
#
# Total GULP energy -89157.652561 kJ/mol
# GULP energy per Si atom -5572.353285 kJ/mol
# Density = 2.184054 g / cm^3
# Si number density = 21.890365 Si / 1000 Ang^3
#
#
#
# Elastic Constant Matrix: (Units=GPa)
#
#
# Indices 1 2 3 4 5 6 
#
# 1 45.4964 -0.4363 13.6066 0.0000 -0.9211 0.0000
# 2 -0.4363 48.4387 12.4846 0.0000 2.8116 0.0000
# 3 13.6066 12.4846 109.4410 0.0000 -6.0300 0.0000
# 4 0.0000 0.0000 0.0000 24.0556 0.0000 -0.1844
# 5 -0.9211 2.8116 -6.0300 0.0000 22.5667 0.0000
# 6 0.0000 0.0000 0.0000 -0.1844 0.0000 13.4994
#
#
#
# Elastic Compliance Matrix: (Units=1/GPa)
#
#
# Indices 1 2 3 4 5 6 
#
# 1 0.022873 0.000966 -0.002953 0.000000 0.000024 0.000000
# 2 0.000966 0.021563 -0.002766 0.000000 -0.003386 0.000000
# 3 -0.002953 -0.002766 0.009979 0.000000 0.002891 0.000000
# 4 0.000000 0.000000 0.000000 0.041575 0.000000 0.000568
# 5 0.000024 -0.003386 0.002891 0.000000 0.045508 0.000000
# 6 0.000000 0.000000 0.000000 0.000568 0.000000 0.074085
#
#
# Mechanical properties :
#
#
# Convention : Reuss Voigt Hill
#
# Bulk Modulus (GPa) = 22.26776 28.29845 25.28310
# Shear Modulus (GPa) = 20.82819 23.87240 22.35030
#
# Velocity S-wave (km/s) = 3.08795 3.30592 3.19879
# Velocity P-wave (km/s) = 4.78627 5.24667 5.02175
#
# Compressibility (1/GPa) = 0.04490797
#
# Stress axis : x y z
#
# Youngs Moduli (GPa) = 43.72061 46.37588 100.20757
#
# Poissons Ratio (x) = -0.04478 0.29586
# Poissons Ratio (y) = -0.04222 0.27722
# Poissons Ratio (z) = 0.12909 0.12830
#
# Static dielectric constant tensor:
#      x y z
#    x 1.861300 0.000000 0.024750 
#    y 0.000000 1.886600 0.000000 
#    z 0.024750 0.000000 1.796470 
# 
# From -- ./inp_files/26473.got.cif
#   From: 2010.05.17/outbox.cif.g08.bks.cpg/sg9_14_cif.got.tgz:26473.got - 2010.06.03 20:04:27.
