data_PCOD9136531
_publ_section_title
;
Structure prediction by ZEFSAII (Michael W. Deem and Ramdas Pophale) SiO2 
 PCOD9136531
Probable space group: C C
;
_chemical_formula_sum "Si O2"
_cell_formula_units_Z 28
_cell_length_a 23.175147
_cell_length_b 11.278820
_cell_length_c 9.007646
_cell_angle_alpha 90.000000
_cell_angle_beta 148.704978
_cell_angle_gamma 90.000000
_cell_volume 1223.029513
_symmetry_space_group_name_H-M "C C"
_symmetry_group_IT_number 9
_symmetry_cell_setting 'monoclinic'
loop_
_space_group_symop_operation_xyz
x,y,z
x,-y,1/2+z
1/2+x,1/2+y,z
1/2+x,1/2-y,1/2+z
loop_
_atom_site_type_symbol
_atom_site_label
_atom_site_fract_x
_atom_site_fract_y
_atom_site_fract_z
Si Si1 0.901660 0.743730 0.843190
Si Si2 0.679444 0.503444 0.550238
Si Si3 0.333040 0.017986 0.628740
Si Si4 0.582211 0.343566 0.082031
Si Si5 0.434977 0.766800 0.762888
Si Si6 0.671216 0.863959 0.391718
Si Si7 0.723657 0.884263 0.852857
O O1 0.928417 0.613537 0.835997
O O2 0.773867 0.778648 0.577714
O O3 0.954063 0.824590 0.831177
O O4 0.948077 0.751303 0.113457
O O5 0.790781 0.530373 0.703193
O O6 0.613365 0.606508 0.488958
O O7 0.732156 0.435792 0.805182
O O8 0.612414 0.433545 0.280851
O O9 0.364938 0.886123 0.652400
O O10 0.654670 0.225985 0.269722
O O11 0.354237 0.658857 0.639557
O O12 0.555678 0.798681 0.095414
O O13 0.682029 0.887655 0.591034
O O14 0.694760 0.990265 0.363568
#
# Coordination Sequence:
#
# PCOD9136531 Si02
#       7
#     4   4   4   4   4   4   4
#     4  11  26  45  69 111 152 199 250 313 393 476
#     4  10  21  41  72 103 137 188 246 320 367 454
#     4  11  20  43  73 104 139 187 263 307 374 455
#     4  11  24  46  71 106 151 189 256 317 389 463
#     4  11  24  47  76 106 150 202 252 327 383 462
#     4  11  28  48  75 110 156 200 257 313 399 475
#     4  11  25  52  72 114 153 199 258 323 389 469
#
# _framework density 22.893969999999999
#
# number of rings (size 3 to 8) (size 9 to 14) (size 15 to 20)
#    0.000    1.143    4.286    1.714    6.000    3.429 
#    7.714    0.000    0.000    0.000    0.000    0.000 
#    0.000    0.000    0.000    0.000    0.000    0.000 
#
# Total GULP energy -78037.940348 kJ/mol
# GULP energy per Si atom -5574.138596 kJ/mol
# Density = 2.284186 g / cm^3
# Si number density = 22.893970 Si / 1000 Ang^3
#
#
#
# Elastic Constant Matrix: (Units=GPa)
#
#
# Indices 1 2 3 4 5 6 
#
# 1 105.4030 41.8320 45.3773 0.0000 -1.0172 0.0000
# 2 41.8320 85.2718 34.9107 0.0000 -11.6234 0.0000
# 3 45.3773 34.9107 100.9829 0.0000 4.6922 0.0000
# 4 0.0000 0.0000 0.0000 27.5523 0.0000 -7.4892
# 5 -1.0172 -11.6234 4.6922 0.0000 27.3746 0.0000
# 6 0.0000 0.0000 0.0000 -7.4892 0.0000 41.0725
#
#
#
# Elastic Compliance Matrix: (Units=1/GPa)
#
#
# Indices 1 2 3 4 5 6 
#
# 1 0.013233 -0.004881 -0.004219 0.000000 -0.000858 0.000000
# 2 -0.004881 0.016784 -0.003963 0.000000 0.007624 0.000000
# 3 -0.004219 -0.003963 0.013360 0.000000 -0.004130 0.000000
# 4 0.000000 0.000000 0.000000 0.038187 0.000000 0.006963
# 5 -0.000858 0.007624 -0.004130 0.000000 0.040443 0.000000
# 6 0.000000 0.000000 0.000000 0.006963 0.000000 0.025617
#
#
# Mechanical properties :
#
#
# Convention : Reuss Voigt Hill
#
# Bulk Modulus (GPa) = 57.97010 59.54419 58.75715
# Shear Modulus (GPa) = 27.85505 30.50240 29.17873
#
# Velocity S-wave (km/s) = 3.49190 3.65407 3.57391
# Velocity P-wave (km/s) = 6.45244 6.62330 6.53843
#
# Compressibility (1/GPa) = 0.01725027
#
# Stress axis : x y z
#
# Youngs Moduli (GPa) = 75.57074 59.58198 74.84831
#
# Poissons Ratio (x) = 0.29084 0.31577
# Poissons Ratio (y) = 0.36888 0.29663
# Poissons Ratio (z) = 0.31882 0.23613
#
# Static dielectric constant tensor:
#      x y z
#    x 1.919670 0.000000 0.082430 
#    y 0.000000 2.108830 0.000000 
#    z 0.082430 0.000000 1.876560 
# 
# From -- ./inp_files/12211.got.cif
#   From: 2010.05.17/outbox.cif.g08.bks.cpg/sg9_7_cif.got.tgz:12211.got - 2010.06.03 20:04:27.
