data_PCOD9136064
_publ_section_title
;
Structure prediction by ZEFSAII (Michael W. Deem and Ramdas Pophale) SiO2 
 PCOD9136064
Probable space group: C C
;
_chemical_formula_sum "Si O2"
_cell_formula_units_Z 24
_cell_length_a 5.238369
_cell_length_b 13.775472
_cell_length_c 13.653927
_cell_angle_alpha 90.000000
_cell_angle_beta 100.232031
_cell_angle_gamma 90.000000
_cell_volume 969.611639
_symmetry_space_group_name_H-M "C C"
_symmetry_group_IT_number 9
_symmetry_cell_setting 'monoclinic'
loop_
_space_group_symop_operation_xyz
x,y,z
x,-y,1/2+z
1/2+x,1/2+y,z
1/2+x,1/2-y,1/2+z
loop_
_atom_site_type_symbol
_atom_site_label
_atom_site_fract_x
_atom_site_fract_y
_atom_site_fract_z
Si Si1 0.295950 0.719278 0.419380
Si Si2 0.866057 0.026417 0.104952
Si Si3 0.490557 0.308184 0.149471
Si Si4 0.522211 0.285177 0.733180
Si Si5 0.024719 0.076885 0.903389
Si Si6 0.528525 0.013290 0.409906
O O1 0.429897 0.721067 0.533709
O O2 0.510641 0.713285 0.349520
O O3 0.122210 0.814748 0.395803
O O4 0.122207 0.622609 0.402807
O O5 0.929506 0.922055 0.153322
O O6 0.913417 0.113756 0.181729
O O7 0.591993 0.016504 0.027672
O O8 0.035749 0.049865 0.019624
O O9 0.791065 0.288973 0.189483
O O10 0.291978 0.246366 0.202845
O O11 0.234110 0.008101 0.866603
O O12 0.726050 0.053421 0.860469
#
# Coordination Sequence:
#
# PCOD9136064 Si02
#       6
#     4   4   4   4   4   4
#     4  11  25  44  73  99 137 181 225 278 340 397
#     4   9  23  40  68  91 136 176 218 276 335 392
#     4  11  26  46  68  98 143 174 224 282 338 394
#     4  12  27  43  70 105 133 179 232 273 334 412
#     4  10  21  38  66  94 128 178 215 270 335 389
#     4   9  22  39  67  93 127 174 220 271 334 394
#
# _framework density 24.752181
#
# number of rings (size 3 to 8) (size 9 to 14) (size 15 to 20)
#    1.000    0.667    1.667    1.000    4.667    8.000 
#    0.000    0.000    0.000    0.000    0.000    0.000 
#    0.000    0.000    0.000    0.000    0.000    0.000 
#
# Total GULP energy -67182.178502 kJ/mol
# GULP energy per Si atom -5598.514875 kJ/mol
# Density = 2.469584 g / cm^3
# Si number density = 24.752181 Si / 1000 Ang^3
#
#
#
# Elastic Constant Matrix: (Units=GPa)
#
#
# Indices 1 2 3 4 5 6 
#
# 1 87.6135 -1.3927 33.6195 0.0000 -2.9134 0.0000
# 2 -1.3927 96.5976 18.3944 0.0000 -2.3464 0.0000
# 3 33.6195 18.3944 121.8186 0.0000 -13.3205 0.0000
# 4 0.0000 0.0000 0.0000 13.1661 0.0000 -1.2587
# 5 -2.9134 -2.3464 -13.3205 0.0000 27.8590 0.0000
# 6 0.0000 0.0000 0.0000 -1.2587 0.0000 24.5303
#
#
#
# Elastic Compliance Matrix: (Units=1/GPa)
#
#
# Indices 1 2 3 4 5 6 
#
# 1 0.012842 0.000884 -0.003717 0.000000 -0.000360 0.000000
# 2 0.000884 0.010720 -0.001851 0.000000 0.000110 0.000000
# 3 -0.003717 -0.001851 0.009976 0.000000 0.004225 0.000000
# 4 0.000000 0.000000 0.000000 0.076327 0.000000 0.003916
# 5 -0.000360 0.000110 0.004225 0.000000 0.037887 0.000000
# 6 0.000000 0.000000 0.000000 0.003916 0.000000 0.040967
#
#
# Mechanical properties :
#
#
# Convention : Reuss Voigt Hill
#
# Bulk Modulus (GPa) = 41.37100 45.25246 43.31173
# Shear Modulus (GPa) = 24.25492 30.13830 27.19661
#
# Velocity S-wave (km/s) = 3.13375 3.49320 3.31835
# Velocity P-wave (km/s) = 5.46299 5.88148 5.67609
#
# Compressibility (1/GPa) = 0.02417152
#
# Stress axis : x y z
#
# Youngs Moduli (GPa) = 77.86835 93.28303 100.23806
#
# Poissons Ratio (x) = -0.08248 0.37259
# Poissons Ratio (y) = -0.06885 0.18551
# Poissons Ratio (z) = 0.28944 0.17263
#
# Static dielectric constant tensor:
#      x y z
#    x 1.909880 0.000000 0.031280 
#    y 0.000000 1.947890 0.000000 
#    z 0.031280 0.000000 2.012680 
# 
# From -- ./inp_files/21736.got.cif
#   From: 2010.05.17/outbox.cif.g08.bks.cpg/sg9_11_cif.got.tgz:21736.got - 2010.06.03 20:04:27.
