data_PCOD9136385
_publ_section_title
;
Structure prediction by ZEFSAII (Michael W. Deem and Ramdas Pophale) SiO2 
 PCOD9136385
Probable space group: C C
;
_chemical_formula_sum "Si O2"
_cell_formula_units_Z 24
_cell_length_a 9.628362
_cell_length_b 15.563039
_cell_length_c 11.547856
_cell_angle_alpha 90.000000
_cell_angle_beta 41.397989
_cell_angle_gamma 90.000000
_cell_volume 1144.292891
_symmetry_space_group_name_H-M "C C"
_symmetry_group_IT_number 9
_symmetry_cell_setting 'monoclinic'
loop_
_space_group_symop_operation_xyz
x,y,z
x,-y,1/2+z
1/2+x,1/2+y,z
1/2+x,1/2-y,1/2+z
loop_
_atom_site_type_symbol
_atom_site_label
_atom_site_fract_x
_atom_site_fract_y
_atom_site_fract_z
Si Si1 0.236060 0.811556 0.943860
Si Si2 0.927099 0.133710 0.834001
Si Si3 0.664080 0.322101 0.729040
Si Si4 0.728251 0.216013 0.465903
Si Si5 0.483471 0.061499 0.148238
Si Si6 0.322641 0.125002 0.742774
O O1 0.332911 0.725336 0.934798
O O2 0.156173 0.786637 0.865212
O O3 0.417558 0.879806 0.799717
O O4 0.046821 0.848908 0.137820
O O5 0.115001 0.106495 0.799912
O O6 0.725090 0.072594 0.962074
O O7 0.713959 0.246964 0.607844
O O8 0.834937 0.397796 0.638613
O O9 0.429430 0.346574 0.835142
O O10 0.516000 0.171441 0.556319
O O11 0.764253 0.304898 0.375703
O O12 0.417109 0.965697 0.220825
#
# Coordination Sequence:
#
# PCOD9136385 Si02
#       6
#     4   4   4   4   4   4
#     4  10  21  40  70  99 123 177 213 268 325 374
#     4  12  21  42  69  97 136 165 221 268 327 391
#     4   9  20  39  64  96 120 172 220 253 317 382
#     4  10  21  42  67  84 141 173 208 266 325 398
#     4  10  25  41  66 100 125 170 227 272 311 384
#     4  11  26  42  62 102 127 177 213 267 339 377
#
# _framework density 20.973652000000001
#
# number of rings (size 3 to 8) (size 9 to 14) (size 15 to 20)
#    1.000    0.667    1.667    3.000    2.333    2.667 
#    3.000    0.000    0.000    0.000    0.000    0.000 
#    0.000    0.000    0.000    0.000    0.000    0.000 
#
# Total GULP energy -66826.649182 kJ/mol
# GULP energy per Si atom -5568.887432 kJ/mol
# Density = 2.092592 g / cm^3
# Si number density = 20.973652 Si / 1000 Ang^3
#
#
#
# Elastic Constant Matrix: (Units=GPa)
#
#
# Indices 1 2 3 4 5 6 
#
# 1 60.6192 5.6131 38.9400 0.0001 -19.2973 -0.0002
# 2 5.6131 81.1879 19.4100 0.0001 -16.4533 0.0000
# 3 38.9400 19.4100 122.5525 -0.0003 -33.9927 0.0001
# 4 0.0001 0.0001 -0.0003 32.3565 0.0001 -3.6679
# 5 -19.2973 -16.4533 -33.9927 0.0001 30.2177 0.0001
# 6 -0.0002 0.0000 0.0001 -3.6679 0.0001 14.1993
#
#
#
# Elastic Compliance Matrix: (Units=1/GPa)
#
#
# Indices 1 2 3 4 5 6 
#
# 1 0.022514 0.001583 -0.004618 0.000000 0.010044 0.000000
# 2 0.001583 0.013958 -0.000473 0.000000 0.008079 0.000000
# 3 -0.004618 -0.000473 0.012809 0.000000 0.011203 0.000000
# 4 0.000000 0.000000 0.000000 0.031838 0.000000 0.008224
# 5 0.010044 0.008079 0.011203 0.000000 0.056509 0.000000
# 6 0.000000 0.000000 0.000000 0.008224 0.000000 0.072550
#
#
# Mechanical properties :
#
#
# Convention : Reuss Voigt Hill
#
# Bulk Modulus (GPa) = 23.65993 43.58730 33.62361
# Shear Modulus (GPa) = 21.61849 28.71447 25.16648
#
# Velocity S-wave (km/s) = 3.21401 3.70411 3.46773
# Velocity P-wave (km/s) = 5.00783 6.25468 5.66566
#
# Compressibility (1/GPa) = 0.04226555
#
# Stress axis : x y z
#
# Youngs Moduli (GPa) = 44.41677 71.64358 78.06718
#
# Poissons Ratio (x) = -0.11342 0.36054
# Poissons Ratio (y) = -0.07032 0.03691
# Poissons Ratio (z) = 0.20513 0.03387
#
# Static dielectric constant tensor:
#      x y z
#    x 1.773040 0.000000 -0.025550 
#    y 0.000000 1.714740 0.000000 
#    z -0.025550 0.000000 1.819000 
# 
# From -- ./inp_files/24881.got.cif
#   From: 2010.05.17/outbox.cif.g08.bks.cpg/sg9_13_cif.got.tgz:24881.got - 2010.06.03 20:04:27.
