data_PCOD9136059
_publ_section_title
;
Structure prediction by ZEFSAII (Michael W. Deem and Ramdas Pophale) SiO2 
 PCOD9136059
Probable space group: C C
;
_chemical_formula_sum "Si O2"
_cell_formula_units_Z 32
_cell_length_a 18.062295
_cell_length_b 17.735180
_cell_length_c 10.061722
_cell_angle_alpha 90.000000
_cell_angle_beta 158.082898
_cell_angle_gamma 90.000000
_cell_volume 1203.089067
_symmetry_space_group_name_H-M "C C"
_symmetry_group_IT_number 9
_symmetry_cell_setting 'monoclinic'
loop_
_space_group_symop_operation_xyz
x,y,z
x,-y,1/2+z
1/2+x,1/2+y,z
1/2+x,1/2-y,1/2+z
loop_
_atom_site_type_symbol
_atom_site_label
_atom_site_fract_x
_atom_site_fract_y
_atom_site_fract_z
Si Si1 0.846350 0.090859 0.760500
Si Si2 0.380808 0.472883 0.042530
Si Si3 0.292189 0.142210 0.496476
Si Si4 0.800821 0.447886 0.269845
Si Si5 0.357309 0.190394 0.003974
Si Si6 0.710242 0.198392 0.759285
Si Si7 0.556376 0.674182 0.707841
Si Si8 0.950973 0.606775 0.500505
O O1 0.772655 0.061894 0.493128
O O2 0.798829 0.166013 0.769101
O O3 0.077228 0.105622 0.108052
O O4 0.799505 0.028165 0.793256
O O5 0.575319 0.522331 0.416613
O O6 0.441791 0.400544 0.056706
O O7 0.309170 0.118274 0.675631
O O8 0.448051 0.106085 0.654911
O O9 0.304857 0.229976 0.484721
O O10 0.901080 0.399209 0.554684
O O11 0.902153 0.521758 0.380370
O O12 0.137399 0.184415 0.693724
O O13 0.493546 0.223399 0.348269
O O14 0.417850 0.253351 0.000127
O O15 0.652682 0.135832 0.771989
O O16 0.758798 0.657826 0.135003
#
# Coordination Sequence:
#
# PCOD9136059 Si02
#       8
#     4   4   4   4   4   4   4   4
#     4  11  22  40  69  93 127 173 220 267 324 396
#     4  10  21  42  68  96 126 173 223 267 329 394
#     4  11  21  42  69  90 128 171 220 263 328 397
#     4  10  23  41  68  95 125 174 220 272 320 397
#     4  11  23  40  64  95 126 168 218 268 329 386
#     4  11  24  39  65  95 131 167 212 269 330 388
#     4  10  21  38  66  89 123 166 215 268 318 395
#     4  10  21  40  65  95 122 170 218 262 322 387
#
# _framework density 26.598196000000002
#
# number of rings (size 3 to 8) (size 9 to 14) (size 15 to 20)
#    0.000    1.500    3.750    1.500    8.750    1.000 
#    9.000    0.000    0.000    0.000    0.000    0.000 
#    0.000    0.000    0.000    0.000    0.000    0.000 
#
# Total GULP energy -89243.567380 kJ/mol
# GULP energy per Si atom -5577.722961 kJ/mol
# Density = 2.653766 g / cm^3
# Si number density = 26.598196 Si / 1000 Ang^3
#
#
#
# Elastic Constant Matrix: (Units=GPa)
#
#
# Indices 1 2 3 4 5 6 
#
# 1 117.9837 74.5341 26.0263 0.0000 39.7311 0.0000
# 2 74.5341 205.8433 35.5953 0.0000 11.2739 0.0000
# 3 26.0263 35.5953 53.9643 0.0000 3.6837 0.0000
# 4 0.0000 0.0000 0.0000 22.1615 0.0000 2.3174
# 5 39.7311 11.2739 3.6837 0.0000 22.6518 0.0000
# 6 0.0000 0.0000 0.0000 2.3174 0.0000 55.4877
#
#
#
# Elastic Compliance Matrix: (Units=1/GPa)
#
#
# Indices 1 2 3 4 5 6 
#
# 1 0.032174 -0.007623 -0.006973 0.000000 -0.051505 0.000000
# 2 -0.007623 0.007397 -0.001885 0.000000 0.009996 0.000000
# 3 -0.006973 -0.001885 0.022488 0.000000 0.009511 0.000000
# 4 0.000000 0.000000 0.000000 0.045321 0.000000 -0.001893
# 5 -0.051505 0.009996 0.009511 0.000000 0.127963 0.000000
# 6 0.000000 0.000000 0.000000 -0.001893 0.000000 0.018101
#
#
# Mechanical properties :
#
#
# Convention : Reuss Voigt Hill
#
# Bulk Modulus (GPa) = 34.36827 72.23364 53.30095
# Shear Modulus (GPa) = 16.88590 36.16924 26.52757
#
# Velocity S-wave (km/s) = 2.52236 3.69160 3.16150
# Velocity P-wave (km/s) = 4.62951 6.73698 5.78011
#
# Compressibility (1/GPa) = 0.02909661
#
# Stress axis : x y z
#
# Youngs Moduli (GPa) = 31.08098 135.19335 44.46879
#
# Poissons Ratio (x) = 1.03061 0.31008
# Poissons Ratio (y) = 0.23694 0.08381
# Poissons Ratio (z) = 0.21673 0.25481
#
# Static dielectric constant tensor:
#      x y z
#    x 2.199610 0.000000 -0.028280 
#    y 0.000000 2.146030 0.000000 
#    z -0.028280 0.000000 2.195880 
# 
# From -- ./inp_files/19419.got.cif
#   From: 2010.05.17/outbox.cif.g08.bks.cpg/sg9_10_cif.got.tgz:19419.got - 2010.06.03 20:04:27.
