data_PCOD9136133
_publ_section_title
;
Structure prediction by ZEFSAII (Michael W. Deem and Ramdas Pophale) SiO2 
 PCOD9136133
Probable space group: C C
;
_chemical_formula_sum "Si O2"
_cell_formula_units_Z 32
_cell_length_a 19.285304
_cell_length_b 8.962512
_cell_length_c 11.511013
_cell_angle_alpha 90.000000
_cell_angle_beta 127.969438
_cell_angle_gamma 90.000000
_cell_volume 1568.493842
_symmetry_space_group_name_H-M "C C"
_symmetry_group_IT_number 9
_symmetry_cell_setting 'monoclinic'
loop_
_space_group_symop_operation_xyz
x,y,z
x,-y,1/2+z
1/2+x,1/2+y,z
1/2+x,1/2-y,1/2+z
loop_
_atom_site_type_symbol
_atom_site_label
_atom_site_fract_x
_atom_site_fract_y
_atom_site_fract_z
Si Si1 0.217090 0.162065 0.433500
Si Si2 0.241224 0.606021 0.762284
Si Si3 0.078291 0.963230 0.149433
Si Si4 0.584513 0.274715 0.487637
Si Si5 0.213605 0.741077 0.198112
Si Si6 0.852020 0.464695 0.435375
Si Si7 0.894697 0.723790 0.321950
Si Si8 0.970066 0.243682 0.658606
O O1 0.222787 0.316504 0.367008
O O2 0.214015 0.205747 0.564417
O O3 0.134013 0.065195 0.298144
O O4 0.302096 0.062882 0.482031
O O5 0.175145 0.697897 0.610621
O O6 0.220816 0.434012 0.725261
O O7 0.340183 0.647482 0.827998
O O8 0.128178 0.811345 0.169347
O O9 0.984078 0.905433 0.097889
O O10 0.082168 0.058234 0.034696
O O11 0.497541 0.209953 0.462181
O O12 0.558780 0.255475 0.327651
O O13 0.294266 0.821916 0.344831
O O14 0.853081 0.570567 0.323559
O O15 0.945623 0.394716 0.566733
O O16 0.897743 0.758506 0.188017
#
# Coordination Sequence:
#
# PCOD9136133 Si02
#       8
#     4   4   4   4   4   4   4   4
#     4   9  21  43  62  86 122 169 201 251 324 348
#     4  10  22  42  62  92 120 162 212 256 304 372
#     4  10  21  39  63  89 125 162 205 252 308 372
#     4   9  22  42  62  87 128 162 200 255 309 362
#     4  11  23  37  66  92 120 161 213 257 300 374
#     4  10  21  39  63  89 125 162 205 252 308 372
#     4   9  22  42  62  87 128 162 200 255 309 362
#     4  10  22  36  64  90 120 164 206 246 310 358
#
# _framework density 20.401738999999999
#
# number of rings (size 3 to 8) (size 9 to 14) (size 15 to 20)
#    0.750    1.500    0.000    2.250    3.500    4.000 
#    4.500    0.000    5.500    0.000    0.000    0.000 
#    0.000    0.000    0.000    0.000    0.000    0.000 
#
# Total GULP energy -89083.002702 kJ/mol
# GULP energy per Si atom -5567.687669 kJ/mol
# Density = 2.035530 g / cm^3
# Si number density = 20.401739 Si / 1000 Ang^3
#
#
#
# Elastic Constant Matrix: (Units=GPa)
#
#
# Indices 1 2 3 4 5 6 
#
# 1 83.6953 51.1024 25.1419 0.0000 -20.5465 0.0000
# 2 51.1024 140.2568 34.9559 0.0000 -20.2020 0.0000
# 3 25.1419 34.9559 83.4481 0.0000 -19.1962 0.0000
# 4 0.0000 0.0000 0.0000 24.4202 0.0000 4.7613
# 5 -20.5465 -20.2020 -19.1962 0.0000 26.0639 0.0000
# 6 0.0000 0.0000 0.0000 4.7613 0.0000 20.9603
#
#
#
# Elastic Compliance Matrix: (Units=1/GPa)
#
#
# Indices 1 2 3 4 5 6 
#
# 1 0.017458 -0.004744 -0.001147 0.000000 0.009240 0.000000
# 2 -0.004744 0.009708 -0.002127 0.000000 0.002218 0.000000
# 3 -0.001147 -0.002127 0.015210 0.000000 0.008649 0.000000
# 4 0.000000 0.000000 0.000000 0.042847 0.000000 -0.009733
# 5 0.009240 0.002218 0.008649 0.000000 0.053741 0.000000
# 6 0.000000 0.000000 0.000000 -0.009733 0.000000 0.049920
#
#
# Mechanical properties :
#
#
# Convention : Reuss Voigt Hill
#
# Bulk Modulus (GPa) = 37.96582 58.86673 48.41627
# Shear Modulus (GPa) = 23.39737 27.36887 25.38312
#
# Velocity S-wave (km/s) = 3.39016 3.66662 3.53110
# Velocity P-wave (km/s) = 5.82870 6.84411 6.35672
#
# Compressibility (1/GPa) = 0.02633948
#
# Stress axis : x y z
#
# Youngs Moduli (GPa) = 57.28183 103.00977 65.74749
#
# Poissons Ratio (x) = 0.48866 0.07541
# Poissons Ratio (y) = 0.27174 0.13984
# Poissons Ratio (z) = 0.06570 0.21910
#
# Static dielectric constant tensor:
#      x y z
#    x 1.781220 0.000000 0.015370 
#    y 0.000000 1.719860 0.000000 
#    z 0.015370 0.000000 1.773170 
# 
# From -- ./inp_files/20120.got.cif
#   From: 2010.05.17/outbox.cif.g08.bks.cpg/sg9_11_cif.got.tgz:20120.got - 2010.06.03 20:04:27.
