data_PCOD9136998
_publ_section_title
;
Structure prediction by ZEFSAII (Michael W. Deem and Ramdas Pophale) SiO2 
 PCOD9136998
Probable space group: C C
;
_chemical_formula_sum "Si O2"
_cell_formula_units_Z 28
_cell_length_a 12.462320
_cell_length_b 16.835256
_cell_length_c 5.286658
_cell_angle_alpha 90.000000
_cell_angle_beta 88.622018
_cell_angle_gamma 90.000000
_cell_volume 1108.853638
_symmetry_space_group_name_H-M "C C"
_symmetry_group_IT_number 9
_symmetry_cell_setting 'monoclinic'
loop_
_space_group_symop_operation_xyz
x,y,z
x,-y,1/2+z
1/2+x,1/2+y,z
1/2+x,1/2-y,1/2+z
loop_
_atom_site_type_symbol
_atom_site_label
_atom_site_fract_x
_atom_site_fract_y
_atom_site_fract_z
Si Si1 0.306050 0.744457 0.116870
Si Si2 0.674355 0.289346 0.535929
Si Si3 0.465040 0.305805 0.244629
Si Si4 0.020376 0.694255 0.852066
Si Si5 0.515812 0.456510 0.937541
Si Si6 0.259396 0.910170 0.886911
Si Si7 0.492284 0.962861 0.022015
O O1 0.227488 0.723843 0.349096
O O2 0.422024 0.761441 0.226594
O O3 0.347778 0.693767 0.877977
O O4 0.264364 0.833037 0.063040
O O5 0.567518 0.325353 0.414680
O O6 0.628912 0.241454 0.781214
O O7 0.751259 0.361996 0.619326
O O8 0.473967 0.370663 0.023883
O O9 0.490715 0.215703 0.143686
O O10 0.020359 0.612226 0.698785
O O11 0.480315 0.514912 0.164809
O O12 0.646095 0.453081 0.926424
O O13 0.363193 0.960035 0.966665
O O14 0.529824 0.030191 0.225661
#
# Coordination Sequence:
#
# PCOD9136998 Si02
#       7
#     4   4   4   4   4   4   4
#     4  10  22  35  67  94 133 175 239 297 352 403
#     4  11  20  39  67 100 132 181 241 303 344 419
#     4  11  23  41  64 101 141 187 247 298 353 430
#     4  10  23  40  68  93 138 183 239 294 350 423
#     4  12  25  40  65  96 144 186 221 286 368 438
#     4  11  22  40  63 102 134 180 229 289 361 428
#     4  11  27  43  66 102 148 186 226 291 372 445
#
# _framework density 25.251303
#
# number of rings (size 3 to 8) (size 9 to 14) (size 15 to 20)
#    0.000    1.143    2.857    2.571   12.000    0.000 
#    0.000    0.000    0.000    1.714    0.000    0.000 
#    0.000    0.000    0.000    0.000    0.000    0.000 
#
# Total GULP energy -78023.116710 kJ/mol
# GULP energy per Si atom -5573.079765 kJ/mol
# Density = 2.519383 g / cm^3
# Si number density = 25.251303 Si / 1000 Ang^3
#
#
#
# Elastic Constant Matrix: (Units=GPa)
#
#
# Indices 1 2 3 4 5 6 
#
# 1 52.8912 11.7174 21.8512 0.0000 -16.1796 0.0000
# 2 11.7174 76.2458 32.8626 0.0000 5.4099 0.0000
# 3 21.8512 32.8626 153.4354 0.0000 -12.0259 0.0000
# 4 0.0000 0.0000 0.0000 39.2524 0.0000 2.1351
# 5 -16.1796 5.4099 -12.0259 0.0000 46.4133 0.0000
# 6 0.0000 0.0000 0.0000 2.1351 0.0000 32.7279
#
#
#
# Elastic Compliance Matrix: (Units=1/GPa)
#
#
# Indices 1 2 3 4 5 6 
#
# 1 0.022819 -0.003223 -0.001946 0.000000 0.007826 0.000000
# 2 -0.003223 0.015204 -0.003087 0.000000 -0.003696 0.000000
# 3 -0.001946 -0.003087 0.007585 0.000000 0.001647 0.000000
# 4 0.000000 0.000000 0.000000 0.025567 0.000000 -0.001668
# 5 0.007826 -0.003696 0.001647 0.000000 0.025131 0.000000
# 6 0.000000 0.000000 0.000000 -0.001668 0.000000 0.030664
#
#
# Mechanical properties :
#
#
# Convention : Reuss Voigt Hill
#
# Bulk Modulus (GPa) = 34.37048 46.15942 40.26495
# Shear Modulus (GPa) = 32.64145 38.08813 35.36479
#
# Velocity S-wave (km/s) = 3.59926 3.88798 3.74640
# Velocity P-wave (km/s) = 5.56002 6.20281 5.89019
#
# Compressibility (1/GPa) = 0.02909474
#
# Stress axis : x y z
#
# Youngs Moduli (GPa) = 43.82346 65.77421 131.84378
#
# Poissons Ratio (x) = 0.21201 0.25656
# Poissons Ratio (y) = 0.14126 0.40698
# Poissons Ratio (z) = 0.08528 0.20304
#
# Static dielectric constant tensor:
#      x y z
#    x 1.973290 0.000000 -0.061890 
#    y 0.000000 2.060130 0.000000 
#    z -0.061890 0.000000 2.369550 
# 
# From -- ./inp_files/1643.got.cif
#   From: 2010.05.17/outbox.cif.g08.bks.cpg/sg9_1_cif.got.tgz:1643.got - 2010.06.03 20:04:27.
