data_PCOD9136689
_publ_section_title
;
Structure prediction by ZEFSAII (Michael W. Deem and Ramdas Pophale) SiO2 
 PCOD9136689
Probable space group: C C
;
_chemical_formula_sum "Si O2"
_cell_formula_units_Z 32
_cell_length_a 18.732508
_cell_length_b 13.259596
_cell_length_c 8.117018
_cell_angle_alpha 90.000000
_cell_angle_beta 44.974682
_cell_angle_gamma 90.000000
_cell_volume 1425.002867
_symmetry_space_group_name_H-M "C C"
_symmetry_group_IT_number 9
_symmetry_cell_setting 'monoclinic'
loop_
_space_group_symop_operation_xyz
x,y,z
x,-y,1/2+z
1/2+x,1/2+y,z
1/2+x,1/2-y,1/2+z
loop_
_atom_site_type_symbol
_atom_site_label
_atom_site_fract_x
_atom_site_fract_y
_atom_site_fract_z
Si Si1 0.033600 0.580259 0.819250
Si Si2 0.492280 0.755328 0.872422
Si Si3 0.405962 0.937924 0.221183
Si Si4 0.120535 0.123019 0.903257
Si Si5 0.285823 0.702895 0.130222
Si Si6 0.676572 0.892453 0.506082
Si Si7 0.183286 0.917948 0.644278
Si Si8 0.717178 0.803576 0.115256
O O1 0.115232 0.496722 0.622388
O O2 0.102103 0.673102 0.751867
O O3 0.947999 0.599583 0.825764
O O4 0.974014 0.533984 0.068845
O O5 0.435740 0.850872 0.046148
O O6 0.405079 0.709909 0.901340
O O7 0.532718 0.677844 0.944547
O O8 0.592298 0.803835 0.632955
O O9 0.288917 0.961512 0.400929
O O10 0.220723 0.193612 0.714349
O O11 0.136266 0.008186 0.822115
O O12 0.110392 0.114801 0.115547
O O13 0.235049 0.627100 0.082153
O O14 0.275203 0.680561 0.345475
O O15 0.739260 0.876250 0.234990
O O16 0.221646 0.813320 0.661314
#
# Coordination Sequence:
#
# PCOD9136689 Si02
#       8
#     4   4   4   4   4   4   4   4
#     4  11  21  38  65  95 127 163 218 276 323 386
#     4  10  21  43  64  90 132 176 211 269 332 384
#     4  11  20  37  64  97 123 166 216 268 329 381
#     4  10  22  39  65  89 133 167 214 272 326 379
#     4  10  22  44  66  90 132 177 215 272 325 387
#     4  10  23  40  67  98 128 169 220 275 326 383
#     4  11  23  39  63  97 129 172 217 271 326 387
#     4  11  22  42  64  96 132 168 219 267 329 391
#
# _framework density 22.456094
#
# number of rings (size 3 to 8) (size 9 to 14) (size 15 to 20)
#    0.000    1.500    3.750    3.750    5.250    0.000 
#    2.250    1.250    0.000    0.000    0.000    0.000 
#    0.000    0.000    0.000    0.000    0.000    0.000 
#
# Total GULP energy -89283.841797 kJ/mol
# GULP energy per Si atom -5580.240112 kJ/mol
# Density = 2.240498 g / cm^3
# Si number density = 22.456094 Si / 1000 Ang^3
#
#
#
# Elastic Constant Matrix: (Units=GPa)
#
#
# Indices 1 2 3 4 5 6 
#
# 1 87.4705 13.4058 14.0019 0.0000 -5.5300 0.0000
# 2 13.4058 67.2857 17.4946 0.0000 6.3014 0.0000
# 3 14.0019 17.4946 43.1999 0.0000 2.8998 0.0000
# 4 0.0000 0.0000 0.0000 12.9759 0.0000 -8.6502
# 5 -5.5300 6.3014 2.8998 0.0000 33.1434 0.0000
# 6 0.0000 0.0000 0.0000 -8.6502 0.0000 18.1977
#
#
#
# Elastic Compliance Matrix: (Units=1/GPa)
#
#
# Indices 1 2 3 4 5 6 
#
# 1 0.012442 -0.001831 -0.003474 0.000000 0.002728 0.000000
# 2 -0.001831 0.017104 -0.006130 0.000000 -0.003021 0.000000
# 3 -0.003474 -0.006130 0.026875 0.000000 -0.001766 0.000000
# 4 0.000000 0.000000 0.000000 0.112814 0.000000 0.053626
# 5 0.002728 -0.003021 -0.001766 0.000000 0.031356 0.000000
# 6 0.000000 0.000000 0.000000 0.053626 0.000000 0.080443
#
#
# Mechanical properties :
#
#
# Convention : Reuss Voigt Hill
#
# Bulk Modulus (GPa) = 29.80644 31.97342 30.88993
# Shear Modulus (GPa) = 15.86860 23.06699 19.46780
#
# Velocity S-wave (km/s) = 2.66117 3.20848 2.94756
# Velocity P-wave (km/s) = 4.76912 5.29102 5.03683
#
# Compressibility (1/GPa) = 0.03354980
#
# Stress axis : x y z
#
# Youngs Moduli (GPa) = 80.37520 58.46724 37.20892
#
# Poissons Ratio (x) = 0.10705 0.12927
# Poissons Ratio (y) = 0.14717 0.22810
# Poissons Ratio (z) = 0.27924 0.35841
#
# Static dielectric constant tensor:
#      x y z
#    x 1.844770 0.000000 0.055200 
#    y 0.000000 1.861450 0.000000 
#    z 0.055200 0.000000 1.894670 
# 
# From -- ./inp_files/9537.got.cif
#   From: 2010.05.17/outbox.cif.g08.bks.cpg/sg9_5_cif.got.tgz:9537.got - 2010.06.03 20:04:27.
