data_PCOD9136952
_publ_section_title
;
Structure prediction by ZEFSAII (Michael W. Deem and Ramdas Pophale) SiO2 
 PCOD9136952
Probable space group: C C
;
_chemical_formula_sum "Si O2"
_cell_formula_units_Z 32
_cell_length_a 5.094248
_cell_length_b 13.247369
_cell_length_c 20.113109
_cell_angle_alpha 90.000000
_cell_angle_beta 68.328443
_cell_angle_gamma 90.000000
_cell_volume 1261.398594
_symmetry_space_group_name_H-M "C C"
_symmetry_group_IT_number 9
_symmetry_cell_setting 'monoclinic'
loop_
_space_group_symop_operation_xyz
x,y,z
x,-y,1/2+z
1/2+x,1/2+y,z
1/2+x,1/2-y,1/2+z
loop_
_atom_site_type_symbol
_atom_site_label
_atom_site_fract_x
_atom_site_fract_y
_atom_site_fract_z
Si Si1 0.757680 0.105287 0.695280
Si Si2 0.835037 0.725550 0.440051
Si Si3 0.272016 0.038680 0.278123
Si Si4 0.957919 0.711227 0.090862
Si Si5 0.592754 0.179965 0.837652
Si Si6 0.468636 0.433398 0.584250
Si Si7 0.635824 0.442388 0.427339
Si Si8 0.238247 0.346085 0.809613
O O1 0.797467 0.210068 0.652999
O O2 0.819287 0.132583 0.766716
O O3 0.449714 0.050790 0.727894
O O4 0.941131 0.021400 0.640613
O O5 0.628622 0.720429 0.521247
O O6 0.674845 0.739874 0.385202
O O7 0.982610 0.833933 0.437887
O O8 0.070008 0.643633 0.396654
O O9 0.511808 0.120928 0.275864
O O10 0.015604 0.091041 0.265493
O O11 0.120547 0.002728 0.360668
O O12 0.729486 0.640616 0.075715
O O13 0.187385 0.636740 0.104082
O O14 0.463131 0.090172 0.893261
O O15 0.368271 0.234534 0.809209
O O16 0.529300 0.484639 0.506553
#
# Coordination Sequence:
#
# PCOD9136952 Si02
#       8
#     4   4   4   4   4   4   4   4
#     4  11  29  47  74 111 151 198 251 303 382 444
#     4  10  21  46  76 106 141 196 248 308 371 432
#     4  11  26  42  69 108 145 188 246 303 367 438
#     4  11  27  50  76 105 154 194 250 304 378 442
#     4  10  21  46  72 106 144 195 239 310 362 436
#     4  11  26  49  74 106 147 198 242 306 374 445
#     4   9  22  43  69 101 143 184 244 305 357 437
#     4  11  24  41  72 105 143 189 246 299 367 432
#
# _framework density 25.368665
#
# number of rings (size 3 to 8) (size 9 to 14) (size 15 to 20)
#    0.000    1.500    2.500    0.000    8.750    2.000 
#    6.750    0.000    0.000    0.000    0.000    0.000 
#    0.000    0.000    0.000    0.000    0.000    0.000 
#
# Total GULP energy -89342.394063 kJ/mol
# GULP energy per Si atom -5583.899629 kJ/mol
# Density = 2.531093 g / cm^3
# Si number density = 25.368665 Si / 1000 Ang^3
#
#
#
# Elastic Constant Matrix: (Units=GPa)
#
#
# Indices 1 2 3 4 5 6 
#
# 1 94.4749 6.5896 9.6552 0.0000 -5.6574 0.0000
# 2 6.5896 87.7583 33.4706 0.0000 -3.8917 0.0000
# 3 9.6552 33.4706 172.3099 0.0000 -11.3558 0.0000
# 4 0.0000 0.0000 0.0000 45.6440 0.0000 -5.3302
# 5 -5.6574 -3.8917 -11.3558 0.0000 18.9337 0.0000
# 6 0.0000 0.0000 0.0000 -5.3302 0.0000 17.7095
#
#
#
# Elastic Compliance Matrix: (Units=1/GPa)
#
#
# Indices 1 2 3 4 5 6 
#
# 1 0.010831 -0.000567 -0.000303 0.000000 0.002938 0.000000
# 2 -0.000567 0.012360 -0.002304 0.000000 0.000989 0.000000
# 3 -0.000303 -0.002304 0.006487 0.000000 0.003327 0.000000
# 4 0.000000 0.000000 0.000000 0.022707 0.000000 0.006834
# 5 0.002938 0.000989 0.003327 0.000000 0.055892 0.000000
# 6 0.000000 0.000000 0.000000 0.006834 0.000000 0.058524
#
#
# Mechanical properties :
#
#
# Convention : Reuss Voigt Hill
#
# Bulk Modulus (GPa) = 42.86360 50.44154 46.65257
# Shear Modulus (GPa) = 27.63544 36.77929 32.20737
#
# Velocity S-wave (km/s) = 3.30412 3.81174 3.56697
# Velocity P-wave (km/s) = 5.61152 6.26890 5.94930
#
# Compressibility (1/GPa) = 0.02332982
#
# Stress axis : x y z
#
# Youngs Moduli (GPa) = 92.32497 80.90543 154.14852
#
# Poissons Ratio (x) = 0.04591 0.04672
# Poissons Ratio (y) = 0.05239 0.35515
# Poissons Ratio (z) = 0.02798 0.18640
#
# Static dielectric constant tensor:
#      x y z
#    x 2.137250 0.000000 -0.014150 
#    y 0.000000 2.047520 0.000000 
#    z -0.014150 0.000000 2.038230 
# 
# From -- ./inp_files/28708.got.cif
#   From: 2010.05.17/outbox.cif.g08.bks.cpg/sg9_15_cif.got.tgz:28708.got - 2010.06.03 20:04:27.
