data_PCOD9136928
_publ_section_title
;
Structure prediction by ZEFSAII (Michael W. Deem and Ramdas Pophale) SiO2 
 PCOD9136928
Probable space group: C C
;
_chemical_formula_sum "Si O2"
_cell_formula_units_Z 32
_cell_length_a 21.666014
_cell_length_b 5.367840
_cell_length_c 10.921389
_cell_angle_alpha 90.000000
_cell_angle_beta 114.020426
_cell_angle_gamma 90.000000
_cell_volume 1160.159376
_symmetry_space_group_name_H-M "C C"
_symmetry_group_IT_number 9
_symmetry_cell_setting 'monoclinic'
loop_
_space_group_symop_operation_xyz
x,y,z
x,-y,1/2+z
1/2+x,1/2+y,z
1/2+x,1/2-y,1/2+z
loop_
_atom_site_type_symbol
_atom_site_label
_atom_site_fract_x
_atom_site_fract_y
_atom_site_fract_z
Si Si1 0.929960 0.238532 0.339880
Si Si2 0.869789 0.157017 0.633772
Si Si3 0.760443 0.995069 0.843858
Si Si4 0.057801 0.165716 0.556950
Si Si5 0.671879 0.179414 0.982530
Si Si6 0.016045 0.365417 0.761146
Si Si7 0.642949 0.315660 0.531545
Si Si8 0.811058 0.493603 0.274450
O O1 0.975654 0.399838 0.284193
O O2 0.886131 0.425975 0.388402
O O3 0.983445 0.081260 0.459873
O O4 0.872617 0.065817 0.236118
O O5 0.821859 0.060794 0.489373
O O6 0.950824 0.186659 0.686574
O O7 0.836498 0.408521 0.661525
O O8 0.762019 0.737587 0.766974
O O9 0.780353 0.261612 0.806738
O O10 0.695122 0.055818 0.875564
O O11 0.095256 0.268005 0.465691
O O12 0.049592 0.372281 0.653747
O O13 0.109316 0.940450 0.625123
O O14 0.691487 0.471292 0.011129
O O15 0.683614 0.939031 0.080533
O O16 0.076596 0.248599 0.893485
#
# Coordination Sequence:
#
# PCOD9136928 Si02
#       8
#     4   4   4   4   4   4   4   4
#     4  11  22  44  68 107 145 169 238 292 343 434
#     4  11  25  43  69 107 143 180 240 292 352 436
#     4  12  26  47  73  99 144 191 236 286 356 416
#     4  10  23  41  68 102 136 180 217 293 341 415
#     4  10  23  47  67  94 141 178 227 291 326 419
#     4  11  22  39  71 104 137 187 219 290 366 408
#     4  10  21  46  63  99 139 169 234 280 334 419
#     4  11  26  45  69 104 135 192 231 294 354 405
#
# _framework density 27.582417
#
# number of rings (size 3 to 8) (size 9 to 14) (size 15 to 20)
#    0.750    0.500    3.750    1.500    5.250    1.000 
#    2.250    1.250    0.000    0.000    0.000    0.000 
#    0.000    0.000    0.000    0.000    0.000    0.000 
#
# Total GULP energy -89119.277601 kJ/mol
# GULP energy per Si atom -5569.954850 kJ/mol
# Density = 2.751964 g / cm^3
# Si number density = 27.582417 Si / 1000 Ang^3
#
#
#
# Elastic Constant Matrix: (Units=GPa)
#
#
# Indices 1 2 3 4 5 6 
#
# 1 144.0403 71.8528 56.0604 0.0000 -4.9490 0.0000
# 2 71.8528 226.0185 38.9028 0.0000 -1.5830 0.0000
# 3 56.0604 38.9028 44.8850 0.0000 12.1916 0.0000
# 4 0.0000 0.0000 0.0000 22.6886 0.0000 5.7228
# 5 -4.9490 -1.5830 12.1916 0.0000 48.7023 0.0000
# 6 0.0000 0.0000 0.0000 5.7228 0.0000 63.7636
#
#
#
# Elastic Compliance Matrix: (Units=1/GPa)
#
#
# Indices 1 2 3 4 5 6 
#
# 1 0.015781 -0.001491 -0.020215 0.000000 0.006616 0.000000
# 2 -0.001491 0.005431 -0.003059 0.000000 0.000791 0.000000
# 3 -0.020215 -0.003059 0.054467 0.000000 -0.015788 0.000000
# 4 0.000000 0.000000 0.000000 0.045096 0.000000 -0.004047
# 5 0.006616 0.000791 -0.015788 0.000000 0.025183 0.000000
# 6 0.000000 0.000000 0.000000 -0.004047 0.000000 0.016046
#
#
# Mechanical properties :
#
#
# Convention : Reuss Voigt Hill
#
# Bulk Modulus (GPa) = 38.24327 83.17507 60.70917
# Shear Modulus (GPa) = 22.70136 43.57276 33.13706
#
# Velocity S-wave (km/s) = 2.87198 3.97889 3.46986
# Velocity P-wave (km/s) = 4.98927 7.16445 6.17342
#
# Compressibility (1/GPa) = 0.02614839
#
# Stress axis : x y z
#
# Youngs Moduli (GPa) = 63.36587 184.14330 18.35968
#
# Poissons Ratio (x) = 0.27460 0.37114
# Poissons Ratio (y) = 0.09449 0.05616
# Poissons Ratio (z) = 1.28095 0.56331
#
# Static dielectric constant tensor:
#      x y z
#    x 2.147040 0.000000 -0.037310 
#    y 0.000000 2.351430 0.000000 
#    z -0.037310 0.000000 2.295270 
# 
# From -- ./inp_files/20488.got.cif
#   From: 2010.05.17/outbox.cif.g08.bks.cpg/sg9_11_cif.got.tgz:20488.got - 2010.06.03 20:04:27.
