data_PCOD9136696
_publ_section_title
;
Structure prediction by ZEFSAII (Michael W. Deem and Ramdas Pophale) SiO2 
 PCOD9136696
Probable space group: C C
;
_chemical_formula_sum "Si O2"
_cell_formula_units_Z 32
_cell_length_a 17.444460
_cell_length_b 8.687136
_cell_length_c 28.462436
_cell_angle_alpha 90.000000
_cell_angle_beta 21.542571
_cell_angle_gamma 90.000000
_cell_volume 1583.798534
_symmetry_space_group_name_H-M "C C"
_symmetry_group_IT_number 9
_symmetry_cell_setting 'monoclinic'
loop_
_space_group_symop_operation_xyz
x,y,z
x,-y,1/2+z
1/2+x,1/2+y,z
1/2+x,1/2-y,1/2+z
loop_
_atom_site_type_symbol
_atom_site_label
_atom_site_fract_x
_atom_site_fract_y
_atom_site_fract_z
Si Si1 0.450810 0.852201 0.982020
Si Si2 0.192446 0.918605 0.215306
Si Si3 0.386829 0.082996 0.195832
Si Si4 0.293111 0.777087 0.974527
Si Si5 0.908563 0.739738 0.715181
Si Si6 0.072491 0.794308 0.719581
Si Si7 0.987510 0.287895 0.438918
Si Si8 0.287096 0.131802 0.953713
O O1 0.292978 0.799472 0.031140
O O2 0.663863 0.763402 0.851164
O O3 0.506103 0.033130 0.943142
O O4 0.353987 0.832605 0.088653
O O5 0.003548 0.811933 0.340090
O O6 0.307940 0.998976 0.193269
O O7 0.100051 0.054236 0.235128
O O8 0.197413 0.190079 0.321466
O O9 0.445662 0.942729 0.196900
O O10 0.591876 0.184600 0.072068
O O11 0.292185 0.949164 0.955158
O O12 0.983849 0.829097 0.718592
O O13 0.050615 0.806368 0.592360
O O14 0.301679 0.725026 0.578033
O O15 0.911824 0.685518 0.837394
O O16 0.905103 0.294367 0.432017
#
# Coordination Sequence:
#
# PCOD9136696 Si02
#       8
#     4   4   4   4   4   4   4   4
#     4  10  23  44  63  96 132 175 219 270 335 393
#     4  11  24  44  70  98 130 176 224 278 334 403
#     4  12  24  43  69 100 131 173 225 276 337 393
#     4  11  25  43  67  94 133 178 220 279 329 401
#     4  11  24  38  68  96 132 173 216 275 334 392
#     4  10  22  42  65  94 132 174 213 270 336 396
#     4   9  21  41  66  91 131 172 212 274 326 393
#     4  10  21  43  64  95 133 173 219 270 333 391
#
# _framework density 20.204591000000001
#
# number of rings (size 3 to 8) (size 9 to 14) (size 15 to 20)
#    0.000    1.500    2.500    2.250    5.250    2.000 
#    6.750    0.000    0.000    0.000    0.000    0.000 
#    0.000    0.000    0.000    0.000    0.000    0.000 
#
# Total GULP energy -89361.826737 kJ/mol
# GULP energy per Si atom -5585.114171 kJ/mol
# Density = 2.015860 g / cm^3
# Si number density = 20.204591 Si / 1000 Ang^3
#
#
#
# Elastic Constant Matrix: (Units=GPa)
#
#
# Indices 1 2 3 4 5 6 
#
# 1 39.7633 28.0570 29.9515 -0.0026 10.7325 0.0004
# 2 28.0570 79.2167 62.9953 0.0000 -1.2800 -0.0006
# 3 29.9515 62.9953 160.9726 -0.0211 15.4212 0.0015
# 4 -0.0026 0.0000 -0.0211 38.0589 0.0003 -4.2269
# 5 10.7325 -1.2800 15.4212 0.0003 30.9415 0.0006
# 6 0.0004 -0.0006 0.0015 -4.2269 0.0006 27.2755
#
#
#
# Elastic Compliance Matrix: (Units=1/GPa)
#
#
# Indices 1 2 3 4 5 6 
#
# 1 0.038833 -0.013463 -0.000644 0.000002 -0.013706 0.000000
# 2 -0.013463 0.023626 -0.007647 -0.000005 0.009459 0.000000
# 3 -0.000644 -0.007647 0.009801 0.000005 -0.004978 0.000000
# 4 0.000002 -0.000005 0.000005 0.026735 -0.000004 0.004143
# 5 -0.013706 0.009459 -0.004978 -0.000004 0.039946 -0.000001
# 6 0.000000 0.000000 0.000000 0.004143 -0.000001 0.037305
#
#
# Mechanical properties :
#
#
# Convention : Reuss Voigt Hill
#
# Bulk Modulus (GPa) = 34.77981 57.99558 46.38770
# Shear Modulus (GPa) = 21.80190 29.85175 25.82683
#
# Velocity S-wave (km/s) = 3.28846 3.84796 3.57916
# Velocity P-wave (km/s) = 5.62760 6.96483 6.33162
#
# Compressibility (1/GPa) = 0.02875231
#
# Stress axis : x y z
#
# Youngs Moduli (GPa) = 25.75143 42.32651 102.02602
#
# Poissons Ratio (x) = 0.56986 0.06567
# Poissons Ratio (y) = 0.34670 0.78018
# Poissons Ratio (z) = 0.01657 0.32366
#
# Static dielectric constant tensor:
#      x y z
#    x 1.729310 0.000000 -0.010610 
#    y 0.000000 1.690630 0.000000 
#    z -0.010610 0.000000 1.714780 
# 
# From -- ./inp_files/26668.got.cif
#   From: 2010.05.17/outbox.cif.g08.bks.cpg/sg9_14_cif.got.tgz:26668.got - 2010.06.03 20:04:27.
