data_PCOD9136641
_publ_section_title
;
Structure prediction by ZEFSAII (Michael W. Deem and Ramdas Pophale) SiO2 
 PCOD9136641
Probable space group: C C
;
_chemical_formula_sum "Si O2"
_cell_formula_units_Z 32
_cell_length_a 29.241481
_cell_length_b 4.819578
_cell_length_c 12.369182
_cell_angle_alpha 90.000000
_cell_angle_beta 129.052859
_cell_angle_gamma 90.000000
_cell_volume 1353.714854
_symmetry_space_group_name_H-M "C C"
_symmetry_group_IT_number 9
_symmetry_cell_setting 'monoclinic'
loop_
_space_group_symop_operation_xyz
x,y,z
x,-y,1/2+z
1/2+x,1/2+y,z
1/2+x,1/2-y,1/2+z
loop_
_atom_site_type_symbol
_atom_site_label
_atom_site_fract_x
_atom_site_fract_y
_atom_site_fract_z
Si Si1 0.936290 0.252549 0.518590
Si Si2 0.653613 0.936757 0.169621
Si Si3 0.654619 0.438049 0.022204
Si Si4 0.856440 0.250067 0.899385
Si Si5 0.522093 0.517915 0.320251
Si Si6 0.520999 0.017863 0.468747
Si Si7 0.275703 0.471536 0.960128
Si Si8 0.777564 0.474653 0.098110
O O1 0.896966 0.503335 0.508037
O O2 0.977294 0.098063 0.666477
O O3 0.975186 0.406881 0.486626
O O4 0.896499 0.001132 0.413729
O O5 0.657981 0.621056 0.136483
O O6 0.707296 0.999379 0.327522
O O7 0.660152 0.122569 0.070877
O O8 0.588005 0.003739 0.112423
O O9 0.709489 0.509353 0.029837
O O10 0.589727 0.499323 0.880169
O O11 0.814531 0.096944 0.922495
O O12 0.817898 0.407490 0.752575
O O13 0.514794 0.829703 0.351792
O O14 0.514884 0.329990 0.417106
O O15 0.288844 0.156173 0.008295
O O16 0.287645 0.656332 0.083786
#
# Coordination Sequence:
#
# PCOD9136641 Si02
#       8
#     4   4   4   4   4   4   4   4
#     4  12  26  44  71  95 133 189 226 269 336 412
#     4  10  21  42  69  98 140 170 212 286 343 391
#     4  10  21  42  69  98 141 168 213 288 339 396
#     4  12  28  46  65  97 143 178 229 285 324 400
#     4  10  23  43  67 101 133 172 221 280 338 395
#     4  10  23  43  68 100 135 171 220 283 334 399
#     4  12  26  43  70 102 133 182 227 278 342 403
#     4  12  26  43  69 103 132 182 228 277 342 402
#
# _framework density 23.638653000000001
#
# number of rings (size 3 to 8) (size 9 to 14) (size 15 to 20)
#    0.000    1.000    1.250    4.500    3.500    6.000 
#    2.250    0.000    0.000    0.000    0.000    0.000 
#    0.000    0.000    0.000    0.000    0.000    0.000 
#
# Total GULP energy -89585.429470 kJ/mol
# GULP energy per Si atom -5599.089342 kJ/mol
# Density = 2.358485 g / cm^3
# Si number density = 23.638653 Si / 1000 Ang^3
#
#
#
# Elastic Constant Matrix: (Units=GPa)
#
#
# Indices 1 2 3 4 5 6 
#
# 1 95.9362 14.0586 40.7260 0.0000 18.9326 0.0000
# 2 14.0586 82.0680 -0.8854 -0.0001 15.0808 -0.0001
# 3 40.7260 -0.8854 80.5319 0.0000 21.2670 0.0000
# 4 0.0000 -0.0001 0.0000 36.9870 0.0000 2.9803
# 5 18.9326 15.0808 21.2670 0.0000 19.0483 0.0000
# 6 0.0000 -0.0001 0.0000 2.9803 0.0000 32.9387
#
#
#
# Elastic Compliance Matrix: (Units=1/GPa)
#
#
# Indices 1 2 3 4 5 6 
#
# 1 0.014297 -0.001147 -0.005289 0.000000 -0.007396 0.000000
# 2 -0.001147 0.015573 0.005256 0.000000 -0.017057 0.000000
# 3 -0.005289 0.005256 0.021074 0.000000 -0.022432 0.000000
# 4 0.000000 0.000000 0.000000 0.027235 0.000000 -0.002464
# 5 -0.007396 -0.017057 -0.022432 0.000000 0.098398 0.000000
# 6 0.000000 0.000000 0.000000 -0.002464 0.000000 0.030582
#
#
# Mechanical properties :
#
#
# Convention : Reuss Voigt Hill
#
# Bulk Modulus (GPa) = 20.58391 40.70385 30.64388
# Shear Modulus (GPa) = 22.15185 31.43727 26.79456
#
# Velocity S-wave (km/s) = 3.06453 3.65075 3.37041
# Velocity P-wave (km/s) = 4.60961 5.91838 5.30451
#
# Compressibility (1/GPa) = 0.04858163
#
# Stress axis : x y z
#
# Youngs Moduli (GPa) = 69.94618 64.21561 47.45156
#
# Poissons Ratio (x) = 0.07366 0.25099
# Poissons Ratio (y) = 0.08023 -0.24939
# Poissons Ratio (z) = 0.36998 -0.33749
#
# Static dielectric constant tensor:
#      x y z
#    x 1.889310 0.000000 0.001260 
#    y 0.000000 1.835630 0.000000 
#    z 0.001260 0.000000 1.883920 
# 
# From -- ./inp_files/20555.got.cif
#   From: 2010.05.17/outbox.cif.g08.bks.cpg/sg9_11_cif.got.tgz:20555.got - 2010.06.03 20:04:27.
