data_PCOD9136053
_publ_section_title
;
Structure prediction by ZEFSAII (Michael W. Deem and Ramdas Pophale) SiO2 
 PCOD9136053
Probable space group: C C
;
_chemical_formula_sum "Si O2"
_cell_formula_units_Z 32
_cell_length_a 7.751002
_cell_length_b 18.043178
_cell_length_c 18.340878
_cell_angle_alpha 90.000000
_cell_angle_beta 147.288828
_cell_angle_gamma 90.000000
_cell_volume 1386.148875
_symmetry_space_group_name_H-M "C C"
_symmetry_group_IT_number 9
_symmetry_cell_setting 'monoclinic'
loop_
_space_group_symop_operation_xyz
x,y,z
x,-y,1/2+z
1/2+x,1/2+y,z
1/2+x,1/2-y,1/2+z
loop_
_atom_site_type_symbol
_atom_site_label
_atom_site_fract_x
_atom_site_fract_y
_atom_site_fract_z
Si Si1 0.110710 0.631344 0.409530
Si Si2 0.847514 0.348700 0.141189
Si Si3 0.406731 0.344826 0.433734
Si Si4 0.029633 0.456235 0.386786
Si Si5 0.736412 0.744777 0.177121
Si Si6 0.333364 0.928415 0.483451
Si Si7 0.714297 0.013428 0.721417
Si Si8 0.405530 0.376672 0.161540
O O1 0.469728 0.649848 0.510891
O O2 0.145873 0.642301 0.508735
O O3 0.031282 0.544035 0.374752
O O4 0.873142 0.685046 0.282338
O O5 0.064566 0.315499 0.284086
O O6 0.969652 0.297806 0.118192
O O7 0.975651 0.433815 0.180616
O O8 0.590580 0.295423 0.555749
O O9 0.613793 0.360396 0.433947
O O10 0.326913 0.419183 0.451714
O O11 0.000556 0.432947 0.463264
O O12 0.711782 0.419297 0.239637
O O13 0.995450 0.802643 0.237004
O O14 0.058281 0.992562 0.381547
O O15 0.567580 0.940812 0.634524
O O16 0.777087 0.063659 0.672613
#
# Coordination Sequence:
#
# PCOD9136053 Si02
#       8
#     4   4   4   4   4   4   4   4
#     4  12  24  42  77 104 138 197 252 298 385 441
#     4  10  23  44  65  95 143 188 235 308 363 438
#     4  11  24  44  69  99 149 187 239 308 372 429
#     4  11  24  41  74 105 137 191 245 307 368 442
#     4  11  27  44  70 106 143 198 256 297 374 463
#     4  10  21  38  65  97 137 176 231 294 368 420
#     4   9  19  38  62  91 131 179 218 292 358 422
#     4  10  22  45  66  95 150 180 238 312 366 429
#
# _framework density 23.085545
#
# number of rings (size 3 to 8) (size 9 to 14) (size 15 to 20)
#    0.000    1.500    2.500    2.250    3.500    3.000 
#    0.000    0.000    0.000    0.000    0.000    0.000 
#    0.000    0.000    0.000    0.000    0.000    0.000 
#
# Total GULP energy -89245.068133 kJ/mol
# GULP energy per Si atom -5577.816758 kJ/mol
# Density = 2.303300 g / cm^3
# Si number density = 23.085545 Si / 1000 Ang^3
#
#
#
# Elastic Constant Matrix: (Units=GPa)
#
#
# Indices 1 2 3 4 5 6 
#
# 1 100.2255 35.9157 20.2942 -0.0006 2.1634 0.0010
# 2 35.9157 110.8586 23.2739 -0.0029 -5.5113 -0.0010
# 3 20.2942 23.2739 72.7237 -0.0065 -17.7135 -0.0026
# 4 -0.0006 -0.0029 -0.0065 28.4855 -0.0007 -6.8881
# 5 2.1634 -5.5113 -17.7135 -0.0007 25.9681 0.0003
# 6 0.0010 -0.0010 -0.0026 -6.8881 0.0003 28.1723
#
#
#
# Elastic Compliance Matrix: (Units=1/GPa)
#
#
# Indices 1 2 3 4 5 6 
#
# 1 0.011921 -0.003386 -0.003190 -0.000001 -0.003888 -0.000001
# 2 -0.003386 0.010632 -0.002206 0.000001 0.001034 0.000000
# 3 -0.003190 -0.002206 0.018346 0.000005 0.012312 0.000003
# 4 -0.000001 0.000001 0.000005 0.037312 0.000004 0.009123
# 5 -0.003888 0.001034 0.012312 0.000004 0.047450 0.000002
# 6 -0.000001 0.000000 0.000003 0.009123 0.000002 0.037726
#
#
# Mechanical properties :
#
#
# Convention : Reuss Voigt Hill
#
# Bulk Modulus (GPa) = 42.85401 49.19725 46.02563
# Shear Modulus (GPa) = 26.49324 30.14676 28.32000
#
# Velocity S-wave (km/s) = 3.39132 3.61761 3.50629
# Velocity P-wave (km/s) = 5.82565 6.22949 6.03095
#
# Compressibility (1/GPa) = 0.02333504
#
# Stress axis : x y z
#
# Youngs Moduli (GPa) = 83.88877 94.05688 54.50893
#
# Poissons Ratio (x) = 0.31843 0.17388
# Poissons Ratio (y) = 0.28401 0.12025
# Poissons Ratio (z) = 0.26760 0.20749
#
# Static dielectric constant tensor:
#      x y z
#    x 1.985150 0.000000 -0.004570 
#    y 0.000000 1.893840 0.000000 
#    z -0.004570 0.000000 1.898600 
# 
# From -- ./inp_files/32848.got.cif
#   From: 2010.05.17/outbox.cif.g08.bks.cpg/sg9_17_cif.got.tgz:32848.got - 2010.06.03 20:04:27.
