data_PCOD9136396
_publ_section_title
;
Structure prediction by ZEFSAII (Michael W. Deem and Ramdas Pophale) SiO2 
 PCOD9136396
Probable space group: C C
;
_chemical_formula_sum "Si O2"
_cell_formula_units_Z 32
_cell_length_a 17.867039
_cell_length_b 9.455845
_cell_length_c 9.798525
_cell_angle_alpha 90.000000
_cell_angle_beta 53.811991
_cell_angle_gamma 90.000000
_cell_volume 1336.079553
_symmetry_space_group_name_H-M "C C"
_symmetry_group_IT_number 9
_symmetry_cell_setting 'monoclinic'
loop_
_space_group_symop_operation_xyz
x,y,z
x,-y,1/2+z
1/2+x,1/2+y,z
1/2+x,1/2-y,1/2+z
loop_
_atom_site_type_symbol
_atom_site_label
_atom_site_fract_x
_atom_site_fract_y
_atom_site_fract_z
Si Si1 0.020580 0.402487 0.743360
Si Si2 0.838455 0.027925 0.781364
Si Si3 0.745747 0.247681 0.315005
Si Si4 0.308404 0.168670 0.448633
Si Si5 0.892504 0.233748 0.351648
Si Si6 0.108682 0.900779 0.073920
Si Si7 0.552197 0.849862 0.014744
Si Si8 0.510108 0.406524 0.906217
O O1 0.065818 0.251774 0.660789
O O2 0.065821 0.527837 0.610289
O O3 0.910403 0.400179 0.827995
O O4 0.039133 0.419075 0.882663
O O5 0.812409 0.181670 0.862566
O O6 0.926799 0.031486 0.587791
O O7 0.763909 0.923412 0.792533
O O8 0.866519 0.932136 0.880998
O O9 0.795428 0.297138 0.402621
O O10 0.636010 0.260988 0.429259
O O11 0.789138 0.308512 0.130542
O O12 0.217609 0.093074 0.487670
O O13 0.958336 0.270227 0.154746
O O14 0.961452 0.241300 0.406008
O O15 0.052968 0.010609 0.230708
O O16 0.090968 0.903348 0.931291
#
# Coordination Sequence:
#
# PCOD9136396 Si02
#       8
#     4   4   4   4   4   4   4   4
#     4  12  26  46  67 104 150 190 225 307 357 431
#     4  10  21  40  72  98 131 186 231 298 337 431
#     4  10  22  40  71  99 130 186 230 288 349 426
#     4  12  23  45  71 103 145 181 237 297 367 404
#     4  10  23  43  68 101 135 184 241 293 343 429
#     4  12  26  45  74 106 144 189 245 301 354 442
#     4  12  26  44  69 100 149 188 235 286 374 417
#     4  12  23  45  74 101 140 184 248 294 367 408
#
# _framework density 23.950669999999999
#
# number of rings (size 3 to 8) (size 9 to 14) (size 15 to 20)
#    0.750    0.000    5.000    3.000    1.750    1.000 
#    4.500    0.000    0.000    0.000    0.000    0.000 
#    0.000    0.000    0.000    0.000    0.000    0.000 
#
# Total GULP energy -89271.976614 kJ/mol
# GULP energy per Si atom -5579.498538 kJ/mol
# Density = 2.389616 g / cm^3
# Si number density = 23.950670 Si / 1000 Ang^3
#
#
#
# Elastic Constant Matrix: (Units=GPa)
#
#
# Indices 1 2 3 4 5 6 
#
# 1 152.3028 12.4825 27.3279 0.0000 6.1731 0.0000
# 2 12.4825 45.9251 23.1036 0.0000 4.6346 0.0000
# 3 27.3279 23.1036 55.5915 0.0000 13.9913 0.0000
# 4 0.0000 0.0000 0.0000 32.3606 0.0000 -5.7100
# 5 6.1731 4.6346 13.9913 0.0000 59.1886 0.0000
# 6 0.0000 0.0000 0.0000 -5.7100 0.0000 30.0171
#
#
#
# Elastic Compliance Matrix: (Units=1/GPa)
#
#
# Indices 1 2 3 4 5 6 
#
# 1 0.007203 -0.000220 -0.003471 0.000000 0.000087 0.000000
# 2 -0.000220 0.027556 -0.011490 0.000000 0.000581 0.000000
# 3 -0.003471 -0.011490 0.025680 0.000000 -0.004809 0.000000
# 4 0.000000 0.000000 0.000000 0.031975 0.000000 0.006083
# 5 0.000087 0.000581 -0.004809 0.000000 0.017977 0.000000
# 6 0.000000 0.000000 0.000000 0.006083 0.000000 0.034471
#
#
# Mechanical properties :
#
#
# Convention : Reuss Voigt Hill
#
# Bulk Modulus (GPa) = 33.24892 42.18305 37.71599
# Shear Modulus (GPa) = 26.99018 37.04030 32.01524
#
# Velocity S-wave (km/s) = 3.36059 3.93685 3.66008
# Velocity P-wave (km/s) = 5.38242 6.18998 5.80027
#
# Compressibility (1/GPa) = 0.03007617
#
# Stress axis : x y z
#
# Youngs Moduli (GPa) = 138.82601 36.28947 38.94032
#
# Poissons Ratio (x) = 0.00799 0.13517
# Poissons Ratio (y) = 0.03058 0.44744
# Poissons Ratio (z) = 0.48190 0.41698
#
# Static dielectric constant tensor:
#      x y z
#    x 1.995340 0.000000 0.014980 
#    y 0.000000 1.959300 0.000000 
#    z 0.014980 0.000000 1.867910 
# 
# From -- ./inp_files/10734.got.cif
#   From: 2010.05.17/outbox.cif.g08.bks.cpg/sg9_6_cif.got.tgz:10734.got - 2010.06.03 20:04:27.
