data_PCOD9136560
_publ_section_title
;
Structure prediction by ZEFSAII (Michael W. Deem and Ramdas Pophale) SiO2 
 PCOD9136560
Probable space group: C C
;
_chemical_formula_sum "Si O2"
_cell_formula_units_Z 24
_cell_length_a 8.491407
_cell_length_b 11.224610
_cell_length_c 9.649295
_cell_angle_alpha 90.000000
_cell_angle_beta 80.718151
_cell_angle_gamma 90.000000
_cell_volume 907.658900
_symmetry_space_group_name_H-M "C C"
_symmetry_group_IT_number 9
_symmetry_cell_setting 'monoclinic'
loop_
_space_group_symop_operation_xyz
x,y,z
x,-y,1/2+z
1/2+x,1/2+y,z
1/2+x,1/2-y,1/2+z
loop_
_atom_site_type_symbol
_atom_site_label
_atom_site_fract_x
_atom_site_fract_y
_atom_site_fract_z
Si Si1 0.526270 0.919783 0.510780
Si Si2 0.801359 0.152301 0.788196
Si Si3 0.609222 0.284855 0.400718
Si Si4 0.360832 0.037243 0.764161
Si Si5 0.589406 0.365251 0.706956
Si Si6 0.871310 0.848762 0.991988
O O1 0.703947 0.909737 0.424703
O O2 0.414677 0.984131 0.412821
O O3 0.451927 0.782931 0.521633
O O4 0.511496 0.996762 0.651492
O O5 0.664712 0.238575 0.743984
O O6 0.868835 0.087274 0.641263
O O7 0.951566 0.221906 0.832343
O O8 0.758798 0.340310 0.291132
O O9 0.559191 0.357443 0.547345
O O10 0.695568 0.172307 0.454745
O O11 0.230980 0.955012 0.713041
O O12 0.467100 0.397121 0.846862
#
# Coordination Sequence:
#
# PCOD9136560 Si02
#       6
#     4   4   4   4   4   4
#     4  10  22  41  61  90 124 164 206 252 311 367
#     4  10  21  42  63  93 125 159 213 256 305 369
#     4  10  22  40  63  96 124 165 205 255 315 367
#     4  11  20  44  61  86 127 167 203 256 309 367
#     4  10  21  42  64  91 126 160 211 253 306 376
#     4   9  20  41  64  90 122 159 210 256 302 370
#
# _framework density 26.441651
#
# number of rings (size 3 to 8) (size 9 to 14) (size 15 to 20)
#    0.000    2.000    5.000    0.000    2.333    2.667 
#   15.000    0.000    0.000    0.000    0.000    0.000 
#    0.000    0.000    0.000    0.000    0.000    0.000 
#
# Total GULP energy -66978.920345 kJ/mol
# GULP energy per Si atom -5581.576695 kJ/mol
# Density = 2.638147 g / cm^3
# Si number density = 26.441651 Si / 1000 Ang^3
#
#
#
# Elastic Constant Matrix: (Units=GPa)
#
#
# Indices 1 2 3 4 5 6 
#
# 1 113.9243 -1.5118 48.7729 0.0000 -19.2086 0.0000
# 2 -1.5118 59.6864 20.0963 0.0000 -13.3453 0.0000
# 3 48.7729 20.0963 171.3175 0.0000 -22.8693 0.0000
# 4 0.0000 0.0000 0.0000 41.1136 0.0000 -7.6342
# 5 -19.2086 -13.3453 -22.8693 0.0000 54.7079 0.0000
# 6 0.0000 0.0000 0.0000 -7.6342 0.0000 26.1871
#
#
#
# Elastic Compliance Matrix: (Units=1/GPa)
#
#
# Indices 1 2 3 4 5 6 
#
# 1 0.010509 0.001879 -0.002816 0.000000 0.002971 0.000000
# 2 0.001879 0.018475 -0.002131 0.000000 0.004275 0.000000
# 3 -0.002816 -0.002131 0.007083 0.000000 0.001452 0.000000
# 4 0.000000 0.000000 0.000000 0.025715 0.000000 0.007496
# 5 0.002971 0.004275 0.001452 0.000000 0.020972 0.000000
# 6 0.000000 0.000000 0.000000 0.007496 0.000000 0.040372
#
#
# Mechanical properties :
#
#
# Convention : Reuss Voigt Hill
#
# Bulk Modulus (GPa) = 33.41105 53.29364 43.35235
# Shear Modulus (GPa) = 35.90933 42.90643 39.40788
#
# Velocity S-wave (km/s) = 3.68918 4.03262 3.86472
# Velocity P-wave (km/s) = 5.55067 6.47161 6.02875
#
# Compressibility (1/GPa) = 0.02993021
#
# Stress axis : x y z
#
# Youngs Moduli (GPa) = 95.15610 54.12606 141.19185
#
# Poissons Ratio (x) = -0.10168 0.39754
# Poissons Ratio (y) = -0.17875 0.30092
# Poissons Ratio (z) = 0.26792 0.11536
#
# Static dielectric constant tensor:
#      x y z
#    x 2.115200 0.000000 -0.177970 
#    y 0.000000 2.256220 0.000000 
#    z -0.177970 0.000000 2.106310 
# 
# From -- ./inp_files/4950.got.cif
#   From: 2010.05.17/outbox.cif.g08.bks.cpg/sg9_3_cif.got.tgz:4950.got - 2010.06.03 20:04:27.
