data_PCOD9136818
_publ_section_title
;
Structure prediction by ZEFSAII (Michael W. Deem and Ramdas Pophale) SiO2 
 PCOD9136818
Probable space group: C C
;
_chemical_formula_sum "Si O2"
_cell_formula_units_Z 28
_cell_length_a 8.872393
_cell_length_b 11.511810
_cell_length_c 13.397925
_cell_angle_alpha 90.000000
_cell_angle_beta 61.784424
_cell_angle_gamma 90.000000
_cell_volume 1205.824410
_symmetry_space_group_name_H-M "C C"
_symmetry_group_IT_number 9
_symmetry_cell_setting 'monoclinic'
loop_
_space_group_symop_operation_xyz
x,y,z
x,-y,1/2+z
1/2+x,1/2+y,z
1/2+x,1/2-y,1/2+z
loop_
_atom_site_type_symbol
_atom_site_label
_atom_site_fract_x
_atom_site_fract_y
_atom_site_fract_z
Si Si1 0.650540 0.121740 0.938480
Si Si2 0.878795 0.340182 0.882601
Si Si3 0.155700 0.974599 0.567608
Si Si4 0.158352 0.175249 0.870104
Si Si5 0.032486 0.282523 0.287077
Si Si6 0.861613 0.654842 0.166569
Si Si7 0.951763 0.979001 0.817656
O O1 0.791814 0.219436 0.877362
O O2 0.537237 0.124598 0.874518
O O3 0.759402 0.006010 0.912368
O O4 0.547823 0.170754 0.063358
O O5 0.894110 0.393134 0.767304
O O6 0.050251 0.293337 0.882779
O O7 0.745690 0.416298 0.987010
O O8 0.139521 0.872497 0.489972
O O9 0.282784 0.939763 0.617026
O O10 0.982379 0.989676 0.687922
O O11 0.359144 0.192689 0.781246
O O12 0.074179 0.072630 0.831705
O O13 0.227989 0.262414 0.189373
O O14 0.000294 0.150604 0.336272
#
# Coordination Sequence:
#
# PCOD9136818 Si02
#       7
#     4   4   4   4   4   4   4
#     4  10  21  44  67  95 137 182 221 278 350 400
#     4  10  25  41  70  99 135 176 230 283 341 407
#     4  11  22  43  69  98 140 174 229 289 336 409
#     4  11  23  44  69 102 135 178 234 278 339 411
#     4  10  22  42  68  95 137 175 231 275 336 406
#     4  10  22  44  65  97 139 175 226 278 342 412
#     4  10  25  44  64 100 139 176 231 285 338 409
#
# _framework density 23.220627
#
# number of rings (size 3 to 8) (size 9 to 14) (size 15 to 20)
#    0.000    1.714    1.429    2.571    8.000    2.286 
#    5.143    1.429    0.000    0.000    0.000    0.000 
#    0.000    0.000    0.000    0.000    0.000    0.000 
#
# Total GULP energy -77966.439619 kJ/mol
# GULP energy per Si atom -5569.031401 kJ/mol
# Density = 2.316778 g / cm^3
# Si number density = 23.220627 Si / 1000 Ang^3
#
#
#
# Elastic Constant Matrix: (Units=GPa)
#
#
# Indices 1 2 3 4 5 6 
#
# 1 109.5725 29.8631 41.1735 0.0000 -2.4319 0.0000
# 2 29.8631 43.1720 -0.2407 0.0000 6.6819 0.0000
# 3 41.1735 -0.2407 86.2239 0.0000 5.8020 0.0000
# 4 0.0000 0.0000 0.0000 29.7821 0.0000 2.8517
# 5 -2.4319 6.6819 5.8020 0.0000 38.1189 0.0000
# 6 0.0000 0.0000 0.0000 2.8517 0.0000 29.1420
#
#
#
# Elastic Compliance Matrix: (Units=1/GPa)
#
#
# Indices 1 2 3 4 5 6 
#
# 1 0.015049 -0.011077 -0.007489 0.000000 0.004042 0.000000
# 2 -0.011077 0.031973 0.005864 0.000000 -0.007204 0.000000
# 3 -0.007489 0.005864 0.015450 0.000000 -0.003857 0.000000
# 4 0.000000 0.000000 0.000000 0.033895 0.000000 -0.003317
# 5 0.004042 -0.007204 -0.003857 0.000000 0.028341 0.000000
# 6 0.000000 0.000000 0.000000 -0.003317 0.000000 0.034639
#
#
# Mechanical properties :
#
#
# Convention : Reuss Voigt Hill
#
# Bulk Modulus (GPa) = 26.97842 42.28446 34.63144
# Shear Modulus (GPa) = 25.36664 30.62012 27.99338
#
# Velocity S-wave (km/s) = 3.30876 3.63528 3.47585
# Velocity P-wave (km/s) = 5.12257 5.98913 5.57272
#
# Compressibility (1/GPa) = 0.03706667
#
# Stress axis : x y z
#
# Youngs Moduli (GPa) = 66.44828 31.27612 64.72548
#
# Poissons Ratio (x) = 0.34645 0.48474
# Poissons Ratio (y) = 0.73607 -0.37953
# Poissons Ratio (z) = 0.49765 -0.18339
#
# Static dielectric constant tensor:
#      x y z
#    x 2.010520 0.000000 -0.081120 
#    y 0.000000 1.939840 0.000000 
#    z -0.081120 0.000000 1.996090 
# 
# From -- ./inp_files/14513.got.cif
#   From: 2010.05.17/outbox.cif.g08.bks.cpg/sg9_8_cif.got.tgz:14513.got - 2010.06.03 20:04:27.
