data_PCOD9136528
_publ_section_title
;
Structure prediction by ZEFSAII (Michael W. Deem and Ramdas Pophale) SiO2 
 PCOD9136528
Probable space group: C C
;
_chemical_formula_sum "Si O2"
_cell_formula_units_Z 32
_cell_length_a 16.671664
_cell_length_b 9.512810
_cell_length_c 13.618911
_cell_angle_alpha 90.000000
_cell_angle_beta 35.245933
_cell_angle_gamma 90.000000
_cell_volume 1246.440670
_symmetry_space_group_name_H-M "C C"
_symmetry_group_IT_number 9
_symmetry_cell_setting 'monoclinic'
loop_
_space_group_symop_operation_xyz
x,y,z
x,-y,1/2+z
1/2+x,1/2+y,z
1/2+x,1/2-y,1/2+z
loop_
_atom_site_type_symbol
_atom_site_label
_atom_site_fract_x
_atom_site_fract_y
_atom_site_fract_z
Si Si1 0.298540 0.248857 0.996890
Si Si2 0.216336 0.786666 0.892335
Si Si3 0.759451 0.573551 0.762231
Si Si4 0.036268 0.712065 0.890193
Si Si5 0.742324 0.992161 0.933291
Si Si6 0.065669 0.403750 0.788515
Si Si7 0.052517 0.287798 0.997954
Si Si8 0.276652 0.932913 0.016903
O O1 0.392123 0.275920 0.998965
O O2 0.337454 0.365330 0.877465
O O3 0.316004 0.090314 0.941682
O O4 0.142975 0.254751 0.194147
O O5 0.093611 0.761043 0.936837
O O6 0.286558 0.632686 0.832398
O O7 0.182492 0.847281 0.035166
O O8 0.297852 0.920289 0.767126
O O9 0.621902 0.637395 0.953087
O O10 0.729193 0.548092 0.676657
O O11 0.889203 0.680570 0.647932
O O12 0.025673 0.544231 0.890104
O O13 0.622447 0.907047 0.995212
O O14 0.677711 0.053188 0.097892
O O15 0.114889 0.304958 0.825427
O O16 0.925170 0.354095 0.876319
#
# Coordination Sequence:
#
# PCOD9136528 Si02
#       8
#     4   4   4   4   4   4   4   4
#     4  10  22  44  67  97 140 193 228 292 363 427
#     4  12  23  42  70 111 137 187 247 301 358 442
#     4  11  25  46  71 103 151 193 246 305 372 423
#     4  10  21  42  69  93 141 185 231 286 358 426
#     4  11  23  40  71 105 142 187 245 296 367 439
#     4   9  20  41  67  98 138 187 230 291 365 426
#     4  11  23  46  70 101 143 198 239 304 366 438
#     4  10  21  41  71  98 140 188 238 297 361 431
#
# _framework density 25.673102
#
# number of rings (size 3 to 8) (size 9 to 14) (size 15 to 20)
#    0.000    1.500    2.500    2.250    0.000    3.000 
#    9.000    5.000    0.000    0.000    0.000    0.000 
#    0.000    0.000    0.000    0.000    0.000    0.000 
#
# Total GULP energy -89381.659559 kJ/mol
# GULP energy per Si atom -5586.353722 kJ/mol
# Density = 2.561467 g / cm^3
# Si number density = 25.673102 Si / 1000 Ang^3
#
#
#
# Elastic Constant Matrix: (Units=GPa)
#
#
# Indices 1 2 3 4 5 6 
#
# 1 137.4756 60.5475 10.1275 0.0000 16.9721 0.0000
# 2 60.5475 153.4034 23.2775 0.0000 5.1184 0.0000
# 3 10.1275 23.2775 61.7344 0.0000 9.5517 0.0000
# 4 0.0000 0.0000 0.0000 31.6255 0.0000 9.7546
# 5 16.9721 5.1184 9.5517 0.0000 34.2199 0.0000
# 6 0.0000 0.0000 0.0000 9.7546 0.0000 48.9743
#
#
#
# Elastic Compliance Matrix: (Units=1/GPa)
#
#
# Indices 1 2 3 4 5 6 
#
# 1 0.009358 -0.003626 0.000487 0.000000 -0.004235 0.000000
# 2 -0.003626 0.008323 -0.002748 0.000000 0.001321 0.000000
# 3 0.000487 -0.002748 0.017901 0.000000 -0.004827 0.000000
# 4 0.000000 0.000000 0.000000 0.033690 0.000000 -0.006710
# 5 -0.004235 0.001321 -0.004827 0.000000 0.032473 0.000000
# 6 0.000000 0.000000 0.000000 -0.006710 0.000000 0.021755
#
#
# Mechanical properties :
#
#
# Convention : Reuss Voigt Hill
#
# Bulk Modulus (GPa) = 42.00042 60.05761 51.02901
# Shear Modulus (GPa) = 34.91378 40.20802 37.56090
#
# Velocity S-wave (km/s) = 3.69173 3.96176 3.82913
# Velocity P-wave (km/s) = 5.87938 6.66118 6.28245
#
# Compressibility (1/GPa) = 0.02380929
#
# Stress axis : x y z
#
# Youngs Moduli (GPa) = 106.86031 120.15084 55.86152
#
# Poissons Ratio (x) = 0.43569 -0.02722
# Poissons Ratio (y) = 0.38750 0.15349
# Poissons Ratio (z) = -0.05208 0.33013
#
# Static dielectric constant tensor:
#      x y z
#    x 2.048190 0.000000 0.050220 
#    y 0.000000 2.082700 0.000000 
#    z 0.050220 0.000000 2.039460 
# 
# From -- ./inp_files/25660.got.cif
#   From: 2010.05.17/outbox.cif.g08.bks.cpg/sg9_13_cif.got.tgz:25660.got - 2010.06.03 20:04:27.
