data_PCOD9136767
_publ_section_title
;
Structure prediction by ZEFSAII (Michael W. Deem and Ramdas Pophale) SiO2 
 PCOD9136767
Probable space group: C C
;
_chemical_formula_sum "Si O2"
_cell_formula_units_Z 28
_cell_length_a 24.572607
_cell_length_b 7.438140
_cell_length_c 13.586245
_cell_angle_alpha 90.000000
_cell_angle_beta 151.275344
_cell_angle_gamma 90.000000
_cell_volume 1193.437328
_symmetry_space_group_name_H-M "C C"
_symmetry_group_IT_number 9
_symmetry_cell_setting 'monoclinic'
loop_
_space_group_symop_operation_xyz
x,y,z
x,-y,1/2+z
1/2+x,1/2+y,z
1/2+x,1/2-y,1/2+z
loop_
_atom_site_type_symbol
_atom_site_label
_atom_site_fract_x
_atom_site_fract_y
_atom_site_fract_z
Si Si1 0.137260 0.286752 0.956160
Si Si2 0.935353 0.351996 0.784735
Si Si3 0.785234 0.406663 0.824464
Si Si4 0.437854 0.228177 0.734040
Si Si5 0.621252 0.250233 0.710191
Si Si6 0.153583 0.122247 0.481031
Si Si7 0.263636 0.451634 0.981437
O O1 0.174757 0.408712 0.926978
O O2 0.034447 0.348303 0.860235
O O3 0.109572 0.079745 0.885805
O O4 0.251834 0.257557 0.200410
O O5 0.913377 0.561712 0.767135
O O6 0.829855 0.237687 0.576667
O O7 0.992083 0.264267 0.971349
O O8 0.683112 0.401687 0.742938
O O9 0.766440 0.579608 0.724994
O O10 0.892392 0.353532 0.057725
O O11 0.565594 0.283906 0.915094
O O12 0.681825 0.940044 0.277389
O O13 0.651101 0.284830 0.871022
O O14 0.865606 0.097764 0.151683
#
# Coordination Sequence:
#
# PCOD9136767 Si02
#       7
#     4   4   4   4   4   4   4
#     4   9  21  44  65  95 141 181 236 290 352 422
#     4  11  24  45  67 104 147 180 240 303 353 428
#     4   8  21  40  64  97 136 184 225 292 343 422
#     4  11  22  41  69  99 138 184 239 292 351 425
#     4  10  22  42  69  99 145 183 238 298 346 434
#     4  10  21  43  71  97 145 186 229 298 359 412
#     4  11  23  43  69 101 138 188 233 291 362 419
#
# _framework density 23.461642999999999
#
# number of rings (size 3 to 8) (size 9 to 14) (size 15 to 20)
#    0.857    1.143    1.429    0.857    6.000    1.143 
#    2.571    2.857    0.000    0.000    0.000    0.000 
#    0.000    0.000    0.000    0.000    0.000    0.000 
#
# Total GULP energy -77940.150710 kJ/mol
# GULP energy per Si atom -5567.153622 kJ/mol
# Density = 2.340824 g / cm^3
# Si number density = 23.461643 Si / 1000 Ang^3
#
#
#
# Elastic Constant Matrix: (Units=GPa)
#
#
# Indices 1 2 3 4 5 6 
#
# 1 90.5246 32.5722 8.8035 0.0000 9.1592 0.0000
# 2 32.5722 121.6899 21.5107 0.0000 -5.1647 0.0000
# 3 8.8035 21.5107 51.6792 0.0000 -3.5579 0.0000
# 4 0.0000 0.0000 0.0000 32.8567 0.0000 0.5226
# 5 9.1592 -5.1647 -3.5579 0.0000 19.6312 0.0000
# 6 0.0000 0.0000 0.0000 0.5226 0.0000 36.7938
#
#
#
# Elastic Compliance Matrix: (Units=1/GPa)
#
#
# Indices 1 2 3 4 5 6 
#
# 1 0.013217 -0.003629 -0.001247 0.000000 -0.007347 0.000000
# 2 -0.003629 0.009922 -0.003256 0.000000 0.003714 0.000000
# 3 -0.001247 -0.003256 0.021163 0.000000 0.003561 0.000000
# 4 0.000000 0.000000 0.000000 0.030442 0.000000 -0.000432
# 5 -0.007347 0.003714 0.003561 0.000000 0.055990 0.000000
# 6 0.000000 0.000000 0.000000 -0.000432 0.000000 0.027185
#
#
# Mechanical properties :
#
#
# Convention : Reuss Voigt Hill
#
# Bulk Modulus (GPa) = 35.66556 43.29627 39.48092
# Shear Modulus (GPa) = 27.24366 31.25683 29.25024
#
# Velocity S-wave (km/s) = 3.41134 3.65396 3.53473
# Velocity P-wave (km/s) = 5.54535 6.02462 5.78995
#
# Compressibility (1/GPa) = 0.02803825
#
# Stress axis : x y z
#
# Youngs Moduli (GPa) = 75.65883 100.78409 47.25235
#
# Poissons Ratio (x) = 0.36577 0.05891
# Poissons Ratio (y) = 0.27458 0.15386
# Poissons Ratio (z) = 0.09433 0.32816
#
# Static dielectric constant tensor:
#      x y z
#    x 1.947510 0.000000 -0.036620 
#    y 0.000000 1.937590 0.000000 
#    z -0.036620 0.000000 1.921730 
# 
# From -- ./inp_files/20843.got.cif
#   From: 2010.05.17/outbox.cif.g08.bks.cpg/sg9_11_cif.got.tgz:20843.got - 2010.06.03 20:04:27.
