data_PCOD9136542
_publ_section_title
;
Structure prediction by ZEFSAII (Michael W. Deem and Ramdas Pophale) SiO2 
 PCOD9136542
Probable space group: C C
;
_chemical_formula_sum "Si O2"
_cell_formula_units_Z 32
_cell_length_a 11.494734
_cell_length_b 9.072485
_cell_length_c 15.583472
_cell_angle_alpha 90.000000
_cell_angle_beta 113.096061
_cell_angle_gamma 90.000000
_cell_volume 1494.877822
_symmetry_space_group_name_H-M "C C"
_symmetry_group_IT_number 9
_symmetry_cell_setting 'monoclinic'
loop_
_space_group_symop_operation_xyz
x,y,z
x,-y,1/2+z
1/2+x,1/2+y,z
1/2+x,1/2-y,1/2+z
loop_
_atom_site_type_symbol
_atom_site_label
_atom_site_fract_x
_atom_site_fract_y
_atom_site_fract_z
Si Si1 0.922910 0.183036 0.261430
Si Si2 0.986715 0.861753 0.299635
Si Si3 0.286848 0.402871 0.973870
Si Si4 0.891781 0.333841 0.910113
Si Si5 0.979874 0.854393 0.580985
Si Si6 0.722438 0.814370 0.142920
Si Si7 0.774353 0.354131 0.344754
Si Si8 0.159339 0.382040 0.307877
O O1 0.928602 0.144968 0.162869
O O2 0.804004 0.261206 0.268368
O O3 0.032491 0.304024 0.301417
O O4 0.945358 0.026872 0.314711
O O5 0.994149 0.748322 0.380255
O O6 0.872287 0.798591 0.207956
O O7 0.124808 0.883550 0.301124
O O8 0.310274 0.245430 0.937519
O O9 0.196737 0.485396 0.879835
O O10 0.413716 0.503172 0.019668
O O11 0.223338 0.385853 0.049159
O O12 0.857500 0.498970 0.877095
O O13 0.765742 0.241847 0.852669
O O14 0.928810 0.291408 0.017284
O O15 0.131996 0.830928 0.620418
O O16 0.665896 0.909100 0.206974
#
# Coordination Sequence:
#
# PCOD9136542 Si02
#       8
#     4   4   4   4   4   4   4   4
#     4  11  22  44  69  99 138 185 228 281 353 412
#     4  11  23  46  70  95 137 181 227 286 346 411
#     4  11  23  42  71 103 138 183 232 287 348 419
#     4  10  22  45  66  96 141 173 229 294 341 407
#     4  10  22  43  69 100 135 183 226 287 353 406
#     4  10  21  41  73  98 137 185 228 282 342 405
#     4  12  26  41  69 107 130 184 236 278 353 423
#     4   9  21  42  71  98 138 186 224 285 348 403
#
# _framework density 21.406431000000001
#
# number of rings (size 3 to 8) (size 9 to 14) (size 15 to 20)
#    0.000    1.500    2.500    3.000    3.500    0.000 
#    4.500    3.750    0.000    0.000    0.000    0.000 
#    0.000    0.000    0.000    0.000    0.000    0.000 
#
# Total GULP energy -89275.526117 kJ/mol
# GULP energy per Si atom -5579.720382 kJ/mol
# Density = 2.135771 g / cm^3
# Si number density = 21.406431 Si / 1000 Ang^3
#
#
#
# Elastic Constant Matrix: (Units=GPa)
#
#
# Indices 1 2 3 4 5 6 
#
# 1 81.7055 32.9124 18.0737 0.0000 -6.2112 0.0000
# 2 32.9124 119.6413 37.1029 0.0000 -17.2830 0.0000
# 3 18.0737 37.1029 105.1406 0.0000 -15.5446 0.0000
# 4 0.0000 0.0000 0.0000 15.5080 0.0000 -0.4461
# 5 -6.2112 -17.2830 -15.5446 0.0000 23.2945 0.0000
# 6 0.0000 0.0000 0.0000 -0.4461 0.0000 32.2469
#
#
#
# Elastic Compliance Matrix: (Units=1/GPa)
#
#
# Indices 1 2 3 4 5 6 
#
# 1 0.013894 -0.003413 -0.001121 0.000000 0.000424 0.000000
# 2 -0.003413 0.010847 -0.002425 0.000000 0.005519 0.000000
# 3 -0.001121 -0.002425 0.011371 0.000000 0.005490 0.000000
# 4 0.000000 0.000000 0.000000 0.064508 0.000000 0.000892
# 5 0.000424 0.005519 0.005490 0.000000 0.050800 0.000000
# 6 0.000000 0.000000 0.000000 0.000892 0.000000 0.031023
#
#
# Mechanical properties :
#
#
# Convention : Reuss Voigt Hill
#
# Bulk Modulus (GPa) = 45.05860 53.62948 49.34404
# Shear Modulus (GPa) = 24.53866 28.76977 26.65422
#
# Velocity S-wave (km/s) = 3.38941 3.67001 3.53250
# Velocity P-wave (km/s) = 6.03426 6.56247 6.30390
#
# Compressibility (1/GPa) = 0.02219332
#
# Stress axis : x y z
#
# Youngs Moduli (GPa) = 71.97225 92.19513 87.94142
#
# Poissons Ratio (x) = 0.31468 0.09860
# Poissons Ratio (y) = 0.24566 0.21325
# Poissons Ratio (z) = 0.08070 0.22357
#
# Static dielectric constant tensor:
#      x y z
#    x 1.826650 0.000000 -0.011220 
#    y 0.000000 1.765920 0.000000 
#    z -0.011220 0.000000 1.851740 
# 
# From -- ./inp_files/24190.got.cif
#   From: 2010.05.17/outbox.cif.g08.bks.cpg/sg9_13_cif.got.tgz:24190.got - 2010.06.03 20:04:27.
