data_PCOD9136279
_publ_section_title
;
Structure prediction by ZEFSAII (Michael W. Deem and Ramdas Pophale) SiO2 
 PCOD9136279
Probable space group: C C
;
_chemical_formula_sum "Si O2"
_cell_formula_units_Z 24
_cell_length_a 13.906387
_cell_length_b 4.726356
_cell_length_c 14.511548
_cell_angle_alpha 90.000000
_cell_angle_beta 100.972009
_cell_angle_gamma 90.000000
_cell_volume 936.358697
_symmetry_space_group_name_H-M "C C"
_symmetry_group_IT_number 9
_symmetry_cell_setting 'monoclinic'
loop_
_space_group_symop_operation_xyz
x,y,z
x,-y,1/2+z
1/2+x,1/2+y,z
1/2+x,1/2-y,1/2+z
loop_
_atom_site_type_symbol
_atom_site_label
_atom_site_fract_x
_atom_site_fract_y
_atom_site_fract_z
Si Si1 0.850990 0.214588 0.031180
Si Si2 0.687100 0.214588 0.702126
Si Si3 0.644201 0.293363 0.075031
Si Si4 0.495652 0.030258 0.421733
Si Si5 0.042438 0.969742 0.811573
Si Si6 0.893889 0.293363 0.658276
O O1 0.736790 0.281255 0.023306
O O2 0.904767 0.392418 0.122395
O O3 0.865223 0.890843 0.062712
O O4 0.901029 0.317254 0.947195
O O5 0.633323 0.392418 0.610911
O O6 0.637061 0.317255 0.786111
O O7 0.801300 0.281255 0.710000
O O8 0.672867 0.890843 0.670594
O O9 0.553931 0.147174 0.009240
O O10 0.559599 0.288230 0.391372
O O11 0.478492 0.788230 0.341934
O O12 0.984159 0.147174 0.724066
#
# Coordination Sequence:
#
# PCOD9136279 Si02
#       6
#     4   4   4   4   4   4
#     4  10  21  40  64  87 117 164 215 256 299 365
#     4  10  21  40  64  87 117 164 215 256 299 365
#     4  10  21  40  64  87 117 164 215 256 299 365
#     4  12  24  38  60  94 132 164 198 258 326 374
#     4  12  24  38  60  94 132 164 198 258 326 374
#     4  10  21  40  64  87 117 164 215 256 299 365
#
# _framework density 25.631204
#
# number of rings (size 3 to 8) (size 9 to 14) (size 15 to 20)
#    0.000    1.333    0.000    6.000    0.000    1.333 
#    0.000    3.333    0.000    0.000    0.000    0.000 
#    0.000    0.000    0.000    0.000    0.000    0.000 
#
# Total GULP energy -67242.515739 kJ/mol
# GULP energy per Si atom -5603.542978 kJ/mol
# Density = 2.557287 g / cm^3
# Si number density = 25.631204 Si / 1000 Ang^3
#
#
#
# Elastic Constant Matrix: (Units=GPa)
#
#
# Indices 1 2 3 4 5 6 
#
# 1 127.5106 13.6073 26.1332 0.0000 -46.0042 0.0000
# 2 13.6073 107.3383 -1.6507 0.0000 -10.9190 0.0000
# 3 26.1332 -1.6507 42.8385 0.0000 -16.8701 0.0000
# 4 0.0000 0.0000 0.0000 22.9282 0.0000 -21.5910
# 5 -46.0042 -10.9190 -16.8701 0.0000 35.9929 0.0000
# 6 0.0000 0.0000 0.0000 -21.5910 0.0000 35.6713
#
#
#
# Elastic Compliance Matrix: (Units=1/GPa)
#
#
# Indices 1 2 3 4 5 6 
#
# 1 0.014682 -0.000077 -0.001936 0.000000 0.017835 0.000000
# 2 -0.000077 0.009736 0.001897 0.000000 0.003744 0.000000
# 3 -0.001936 0.001897 0.029248 0.000000 0.011810 0.000000
# 4 0.000000 0.000000 0.000000 0.101423 0.000000 0.061389
# 5 0.017835 0.003744 0.011810 0.000000 0.057251 0.000000
# 6 0.000000 0.000000 0.000000 0.061389 0.000000 0.065191
#
#
# Mechanical properties :
#
#
# Convention : Reuss Voigt Hill
#
# Bulk Modulus (GPa) = 18.71452 39.31856 29.01654
# Shear Modulus (GPa) = 16.91613 34.89166 25.90390
#
# Velocity S-wave (km/s) = 2.57180 3.69358 3.18250
# Velocity P-wave (km/s) = 4.01699 5.79340 4.98496
#
# Compressibility (1/GPa) = 0.05343446
#
# Stress axis : x y z
#
# Youngs Moduli (GPa) = 68.10960 102.71011 34.18991
#
# Poissons Ratio (x) = 0.00788 0.06619
# Poissons Ratio (y) = 0.00523 -0.06484
# Poissons Ratio (z) = 0.13186 -0.19480
#
# Static dielectric constant tensor:
#      x y z
#    x 1.977670 0.000000 -0.028910 
#    y 0.000000 1.935710 0.000000 
#    z -0.028910 0.000000 2.080530 
# 
# From -- ./inp_files/25194.got.cif
#   From: 2010.05.17/outbox.cif.g08.bks.cpg/sg9_13_cif.got.tgz:25194.got - 2010.06.03 20:04:27.
