data_PCOD9136462
_publ_section_title
;
Structure prediction by ZEFSAII (Michael W. Deem and Ramdas Pophale) SiO2 
 PCOD9136462
Probable space group: C C
;
_chemical_formula_sum "Si O2"
_cell_formula_units_Z 32
_cell_length_a 19.078916
_cell_length_b 6.001842
_cell_length_c 11.640338
_cell_angle_alpha 90.000000
_cell_angle_beta 99.004749
_cell_angle_gamma 90.000000
_cell_volume 1316.491531
_symmetry_space_group_name_H-M "C C"
_symmetry_group_IT_number 9
_symmetry_cell_setting 'monoclinic'
loop_
_space_group_symop_operation_xyz
x,y,z
x,-y,1/2+z
1/2+x,1/2+y,z
1/2+x,1/2-y,1/2+z
loop_
_atom_site_type_symbol
_atom_site_label
_atom_site_fract_x
_atom_site_fract_y
_atom_site_fract_z
Si Si1 0.199700 0.758448 0.802460
Si Si2 0.293893 0.141362 0.935307
Si Si3 0.453508 0.526202 0.646634
Si Si4 0.830635 0.037607 0.771748
Si Si5 0.074631 0.004470 0.343039
Si Si6 0.661881 0.884993 0.975398
Si Si7 0.919584 0.350722 0.962500
Si Si8 0.041874 0.353149 0.522101
O O1 0.249194 0.610301 0.734912
O O2 0.124096 0.871245 0.761397
O O3 0.187433 0.596007 0.907603
O O4 0.248519 0.966016 0.849869
O O5 0.326538 0.322738 0.854940
O O6 0.233810 0.241215 0.003682
O O7 0.359370 0.005887 0.006360
O O8 0.371309 0.525198 0.662035
O O9 0.496278 0.484188 0.773913
O O10 0.456354 0.327397 0.555645
O O11 0.494539 0.743847 0.609904
O O12 0.876226 0.219224 0.854686
O O13 0.072420 0.147007 0.458497
O O14 0.109949 0.769639 0.383399
O O15 0.609540 0.985598 0.059566
O O16 0.983040 0.507845 0.935719
#
# Coordination Sequence:
#
# PCOD9136462 Si02
#       8
#     4   4   4   4   4   4   4   4
#     4   8  18  36  68  88 118 160 218 256 322 384
#     4   9  18  38  68  87 119 167 217 261 320 388
#     4  12  24  36  62  94 134 162 216 270 324 382
#     4  10  21  41  66  89 124 175 213 264 325 385
#     4  10  21  41  66  89 124 175 213 264 325 385
#     4   9  18  38  68  87 119 167 217 261 320 388
#     4  11  23  39  62  93 126 165 218 266 323 387
#     4  11  23  39  62  93 126 165 218 266 323 387
#
# _framework density 24.307030999999998
#
# number of rings (size 3 to 8) (size 9 to 14) (size 15 to 20)
#    0.000    2.000    0.000    3.750    0.000    5.000 
#    0.000    0.000  118.250    0.000    0.000    0.000 
#    0.000    0.000    0.000    0.000    0.000    0.000 
#
# Total GULP energy -89246.163783 kJ/mol
# GULP energy per Si atom -5577.885236 kJ/mol
# Density = 2.425171 g / cm^3
# Si number density = 24.307031 Si / 1000 Ang^3
#
#
#
# Elastic Constant Matrix: (Units=GPa)
#
#
# Indices 1 2 3 4 5 6 
#
# 1 161.6289 37.3488 1.9471 0.0000 -28.9698 0.0000
# 2 37.3488 91.2383 11.2481 0.0000 -15.1832 0.0000
# 3 1.9471 11.2481 32.4493 0.0000 -11.1932 0.0000
# 4 0.0000 0.0000 0.0000 6.1766 0.0000 -0.7805
# 5 -28.9698 -15.1832 -11.1932 0.0000 29.2990 0.0000
# 6 0.0000 0.0000 0.0000 -0.7805 0.0000 68.0614
#
#
#
# Elastic Compliance Matrix: (Units=1/GPa)
#
#
# Indices 1 2 3 4 5 6 
#
# 1 0.008132 -0.002381 0.003093 0.000000 0.007988 0.000000
# 2 -0.002381 0.012845 -0.003254 0.000000 0.003059 0.000000
# 3 0.003093 -0.003254 0.037125 0.000000 0.015555 0.000000
# 4 0.000000 0.000000 0.000000 0.162137 0.000000 0.001859
# 5 0.007988 0.003059 0.015555 0.000000 0.049557 0.000000
# 6 0.000000 0.000000 0.000000 0.001859 0.000000 0.014714
#
#
# Mechanical properties :
#
#
# Convention : Reuss Voigt Hill
#
# Bulk Modulus (GPa) = 18.86179 42.93385 30.89782
# Shear Modulus (GPa) = 16.27248 36.35888 26.31568
#
# Velocity S-wave (km/s) = 2.59019 3.87178 3.29391
# Velocity P-wave (km/s) = 4.08927 6.13914 5.21590
#
# Compressibility (1/GPa) = 0.05301723
#
# Stress axis : x y z
#
# Youngs Moduli (GPa) = 122.97655 77.85016 26.93582
#
# Poissons Ratio (x) = 0.18534 -0.08331
# Poissons Ratio (y) = 0.29277 0.08766
# Poissons Ratio (z) = -0.38033 0.25336
#
# Static dielectric constant tensor:
#      x y z
#    x 1.950570 0.000000 -0.061790 
#    y 0.000000 1.971550 0.000000 
#    z -0.061790 0.000000 1.942600 
# 
# From -- ./inp_files/13517.got.cif
#   From: 2010.05.17/outbox.cif.g08.bks.cpg/sg9_7_cif.got.tgz:13517.got - 2010.06.03 20:04:27.
