data_PCOD9136729
_publ_section_title
;
Structure prediction by ZEFSAII (Michael W. Deem and Ramdas Pophale) SiO2 
 PCOD9136729
Probable space group: C C
;
_chemical_formula_sum "Si O2"
_cell_formula_units_Z 32
_cell_length_a 9.001097
_cell_length_b 14.180322
_cell_length_c 12.577258
_cell_angle_alpha 90.000000
_cell_angle_beta 65.008841
_cell_angle_gamma 90.000000
_cell_volume 1455.038412
_symmetry_space_group_name_H-M "C C"
_symmetry_group_IT_number 9
_symmetry_cell_setting 'monoclinic'
loop_
_space_group_symop_operation_xyz
x,y,z
x,-y,1/2+z
1/2+x,1/2+y,z
1/2+x,1/2-y,1/2+z
loop_
_atom_site_type_symbol
_atom_site_label
_atom_site_fract_x
_atom_site_fract_y
_atom_site_fract_z
Si Si1 0.479860 0.598624 0.246530
Si Si2 0.455707 0.730639 0.456711
Si Si3 0.986206 0.939319 0.400650
Si Si4 0.923971 0.600075 0.506023
Si Si5 0.716305 0.078275 0.586050
Si Si6 0.742088 0.220302 0.026409
Si Si7 0.248794 0.911818 0.494516
Si Si8 0.630758 0.912345 0.742450
O O1 0.492438 0.667907 0.342374
O O2 0.505142 0.492265 0.283204
O O3 0.605287 0.622615 0.116266
O O4 0.299161 0.605054 0.253830
O O5 0.315987 0.675116 0.567213
O O6 0.618601 0.743363 0.474996
O O7 0.382132 0.830478 0.444465
O O8 0.892403 0.839860 0.431328
O O9 0.156852 0.934512 0.412023
O O10 0.859316 0.006422 0.503990
O O11 0.815804 0.690635 0.566781
O O12 0.825458 0.503119 0.527467
O O13 0.078719 0.590610 0.537299
O O14 0.988209 0.613704 0.366004
O O15 0.632182 0.022722 0.708523
O O16 0.639590 0.151655 0.135125
#
# Coordination Sequence:
#
# PCOD9136729 Si02
#       8
#     4   4   4   4   4   4   4   4
#     4  11  24  45  72  97 140 186 224 279 351 400
#     4  11  25  44  68 100 140 179 230 283 336 405
#     4  10  21  43  67  97 136 175 224 282 333 398
#     4  12  25  44  71 103 138 177 231 283 336 411
#     4  10  21  43  67  97 136 175 224 282 333 398
#     4  11  25  44  68 100 140 179 230 283 336 405
#     4  12  25  44  71 103 138 177 231 283 336 411
#     4  11  24  45  72  97 140 186 224 279 351 400
#
# _framework density 21.992546000000001
#
# number of rings (size 3 to 8) (size 9 to 14) (size 15 to 20)
#    0.000    1.000    5.000    3.750    0.000    6.000 
#    0.000    0.000    0.000    0.000    0.000    0.000 
#    0.000    0.000    0.000    0.000    0.000    0.000 
#
# Total GULP energy -89492.406566 kJ/mol
# GULP energy per Si atom -5593.275410 kJ/mol
# Density = 2.194249 g / cm^3
# Si number density = 21.992546 Si / 1000 Ang^3
#
#
#
# Elastic Constant Matrix: (Units=GPa)
#
#
# Indices 1 2 3 4 5 6 
#
# 1 94.9497 29.9419 -20.1318 0.0000 15.6994 0.0000
# 2 29.9419 95.4352 -20.4001 0.0000 2.4391 0.0000
# 3 -20.1318 -20.4001 37.2960 0.0000 2.8136 0.0000
# 4 0.0000 0.0000 0.0000 26.5520 0.0000 2.0995
# 5 15.6994 2.4391 2.8136 0.0000 29.3697 0.0000
# 6 0.0000 0.0000 0.0000 2.0995 0.0000 30.2094
#
#
#
# Elastic Compliance Matrix: (Units=1/GPa)
#
#
# Indices 1 2 3 4 5 6 
#
# 1 0.014158 -0.002804 0.006711 0.000000 -0.007978 0.000000
# 2 -0.002804 0.012498 0.005326 0.000000 -0.000050 0.000000
# 3 0.006711 0.005326 0.033897 0.000000 -0.007277 0.000000
# 4 0.000000 0.000000 0.000000 0.037870 0.000000 -0.002632
# 5 -0.007978 -0.000050 -0.007277 0.000000 0.039015 0.000000
# 6 0.000000 0.000000 0.000000 -0.002632 0.000000 0.033285
#
#
# Mechanical properties :
#
#
# Convention : Reuss Voigt Hill
#
# Bulk Modulus (GPa) = 12.65506 22.94455 17.79981
# Shear Modulus (GPa) = 27.99619 33.11095 30.55357
#
# Velocity S-wave (km/s) = 3.57176 3.88436 3.73133
# Velocity P-wave (km/s) = 4.77250 5.52930 5.16478
#
# Compressibility (1/GPa) = 0.07901977
#
# Stress axis : x y z
#
# Youngs Moduli (GPa) = 70.63172 80.01445 29.50097
#
# Poissons Ratio (x) = 0.22433 -0.19797
# Poissons Ratio (y) = 0.19802 -0.15713
# Poissons Ratio (z) = -0.47398 -0.42619
#
# Static dielectric constant tensor:
#      x y z
#    x 1.740280 0.000000 -0.023950 
#    y 0.000000 1.841070 0.000000 
#    z -0.023950 0.000000 1.846640 
# 
# From -- ./inp_files/14591.got.cif
#   From: 2010.05.17/outbox.cif.g08.bks.cpg/sg9_8_cif.got.tgz:14591.got - 2010.06.03 20:04:27.
