data_PCOD9136402
_publ_section_title
;
Structure prediction by ZEFSAII (Michael W. Deem and Ramdas Pophale) SiO2 
 PCOD9136402
Probable space group: C C
;
_chemical_formula_sum "Si O2"
_cell_formula_units_Z 20
_cell_length_a 8.050909
_cell_length_b 18.299051
_cell_length_c 8.313619
_cell_angle_alpha 90.000000
_cell_angle_beta 144.770156
_cell_angle_gamma 90.000000
_cell_volume 706.532956
_symmetry_space_group_name_H-M "C C"
_symmetry_group_IT_number 9
_symmetry_cell_setting 'monoclinic'
loop_
_space_group_symop_operation_xyz
x,y,z
x,-y,1/2+z
1/2+x,1/2+y,z
1/2+x,1/2-y,1/2+z
loop_
_atom_site_type_symbol
_atom_site_label
_atom_site_fract_x
_atom_site_fract_y
_atom_site_fract_z
Si Si1 0.222930 0.353116 0.814540
Si Si2 0.273766 0.441583 0.381747
Si Si3 0.290104 0.301694 0.214334
Si Si4 0.371039 0.029097 0.866557
Si Si5 0.147576 0.223507 0.506853
O O1 0.975687 0.411588 0.585202
O O2 0.126147 0.277179 0.648660
O O3 0.346454 0.344715 0.088932
O O4 0.519948 0.355806 0.939940
O O5 0.376829 0.361546 0.417424
O O6 0.055903 0.444092 0.359516
O O7 0.541203 0.499542 0.601162
O O8 0.056845 0.459135 0.065214
O O9 0.486744 0.232182 0.412607
O O10 0.981063 0.269518 0.242747
#
# Coordination Sequence:
#
# PCOD9136402 Si02
#       5
#     4   4   4   4   4
#     4  10  21  40  74 109 152 201 258 321 394 477
#     4  12  29  52  77 119 157 220 267 335 412 470
#     4  12  24  47  76 114 161 211 263 334 401 490
#     4  12  28  51  79 114 165 206 278 331 402 497
#     4   8  16  32  56 104 137 184 238 295 375 456
#
# _framework density 28.307241999999999
#
# number of rings (size 3 to 8) (size 9 to 14) (size 15 to 20)
#    1.200    0.000    2.000    3.600    2.800    1.600 
#    3.600    0.000    0.000    0.000    0.000    0.000 
#    0.000    0.000    0.000    0.000    0.000    0.000 
#
# Total GULP energy -55716.489140 kJ/mol
# GULP energy per Si atom -5571.648914 kJ/mol
# Density = 2.824281 g / cm^3
# Si number density = 28.307242 Si / 1000 Ang^3
#
#
#
# Elastic Constant Matrix: (Units=GPa)
#
#
# Indices 1 2 3 4 5 6 
#
# 1 93.8670 33.6505 70.4831 0.0000 0.2447 0.0000
# 2 33.6505 106.1605 23.7953 0.0000 13.7271 0.0000
# 3 70.4831 23.7953 177.5723 0.0000 37.8137 0.0000
# 4 0.0000 0.0000 0.0000 66.6901 0.0000 5.2651
# 5 0.2447 13.7271 37.8137 0.0000 60.7608 0.0000
# 6 0.0000 0.0000 0.0000 5.2651 0.0000 44.3322
#
#
#
# Elastic Compliance Matrix: (Units=1/GPa)
#
#
# Indices 1 2 3 4 5 6 
#
# 1 0.018258 -0.004788 -0.007862 0.000000 0.005901 0.000000
# 2 -0.004788 0.011103 0.001087 0.000000 -0.003165 0.000000
# 3 -0.007862 0.001087 0.009974 0.000000 -0.006421 0.000000
# 4 0.000000 0.000000 0.000000 0.015137 0.000000 -0.001798
# 5 0.005901 -0.003165 -0.006421 0.000000 0.021145 0.000000
# 6 0.000000 0.000000 0.000000 -0.001798 0.000000 0.022770
#
#
# Mechanical properties :
#
#
# Convention : Reuss Voigt Hill
#
# Bulk Modulus (GPa) = 61.69758 70.38419 66.04088
# Shear Modulus (GPa) = 39.39578 51.00135 45.19857
#
# Velocity S-wave (km/s) = 3.73462 4.24926 4.00023
# Velocity P-wave (km/s) = 6.35921 6.99952 6.68703
#
# Compressibility (1/GPa) = 0.01620809
#
# Stress axis : x y z
#
# Youngs Moduli (GPa) = 54.77051 90.06440 100.26193
#
# Poissons Ratio (x) = 0.43124 0.78827
# Poissons Ratio (y) = 0.26225 -0.10896
# Poissons Ratio (z) = 0.43061 -0.09788
#
# Static dielectric constant tensor:
#      x y z
#    x 2.526390 0.000000 0.136360 
#    y 0.000000 2.244970 0.000000 
#    z 0.136360 0.000000 2.539520 
# 
# From -- ./inp_files/6134.got.cif
#   From: 2010.05.17/outbox.cif.g08.bks.cpg/sg9_4_cif.got.tgz:6134.got - 2010.06.03 20:04:27.
