data_PCOD9136086
_publ_section_title
;
Structure prediction by ZEFSAII (Michael W. Deem and Ramdas Pophale) SiO2 
 PCOD9136086
Probable space group: C C
;
_chemical_formula_sum "Si O2"
_cell_formula_units_Z 28
_cell_length_a 15.516749
_cell_length_b 18.083945
_cell_length_c 5.795329
_cell_angle_alpha 90.000000
_cell_angle_beta 64.592019
_cell_angle_gamma 90.000000
_cell_volume 1468.900086
_symmetry_space_group_name_H-M "C C"
_symmetry_group_IT_number 9
_symmetry_cell_setting 'monoclinic'
loop_
_space_group_symop_operation_xyz
x,y,z
x,-y,1/2+z
1/2+x,1/2+y,z
1/2+x,1/2-y,1/2+z
loop_
_atom_site_type_symbol
_atom_site_label
_atom_site_fract_x
_atom_site_fract_y
_atom_site_fract_z
Si Si1 0.055350 0.766091 0.791060
Si Si2 0.744836 0.959290 0.416033
Si Si3 0.427070 0.200889 0.552625
Si Si4 0.265351 0.183230 0.092904
Si Si5 0.540062 0.111024 0.073625
Si Si6 0.868706 0.813850 0.234878
Si Si7 0.355532 0.960943 0.636941
O O1 0.155335 0.807113 0.659545
O O2 0.011431 0.736280 0.605431
O O3 0.064126 0.690665 0.931460
O O4 0.972072 0.816649 0.995068
O O5 0.636115 0.929796 0.530858
O O6 0.817663 0.890752 0.331766
O O7 0.757862 0.999982 0.650368
O O8 0.474132 0.133593 0.363740
O O9 0.387580 0.266562 0.441036
O O10 0.337497 0.172892 0.798898
O O11 0.301289 0.260127 0.162048
O O12 0.290962 0.113544 0.222163
O O13 0.467377 0.063923 0.001436
O O14 0.337657 0.997956 0.404178
#
# Coordination Sequence:
#
# PCOD9136086 Si02
#       7
#     4   4   4   4   4   4   4
#     4  10  22  39  70 100 127 175 241 291 329 399
#     4  12  29  44  70 105 145 186 222 284 360 419
#     4  10  21  38  69  99 130 175 230 296 338 391
#     4  11  22  41  69  95 134 181 239 279 338 413
#     4  11  22  41  64 104 135 178 220 288 357 410
#     4  10  23  43  66  96 136 178 239 280 337 410
#     4  12  25  42  64  97 143 173 215 278 349 410
#
# _framework density 19.061883000000002
#
# number of rings (size 3 to 8) (size 9 to 14) (size 15 to 20)
#    0.000    1.143    5.714    1.714    8.000    0.000 
#    0.000    1.429    0.000    0.000    0.000    0.000 
#    0.000    0.000    0.000    0.000    0.000    0.000 
#
# Total GULP energy -78096.521171 kJ/mol
# GULP energy per Si atom -5578.322941 kJ/mol
# Density = 1.901850 g / cm^3
# Si number density = 19.061883 Si / 1000 Ang^3
#
#
#
# Elastic Constant Matrix: (Units=GPa)
#
#
# Indices 1 2 3 4 5 6 
#
# 1 96.6708 29.3591 67.4586 0.0000 -28.8049 0.0000
# 2 29.3591 86.8075 69.6069 0.0000 -15.9589 0.0000
# 3 67.4586 69.6069 95.8200 0.0000 20.2091 0.0000
# 4 0.0000 0.0000 0.0000 11.9053 0.0000 -16.8788
# 5 -28.8049 -15.9589 20.2091 0.0000 12.1501 0.0000
# 6 0.0000 0.0000 0.0000 -16.8788 0.0000 7.0530
#
#
#
# Elastic Compliance Matrix: (Units=1/GPa)
#
#
# Indices 1 2 3 4 5 6 
#
# 1 0.004238 -0.009563 0.006923 0.000000 -0.014029 0.000000
# 2 -0.009563 0.009501 0.003051 0.000000 -0.015267 0.000000
# 3 0.006923 0.003051 -0.001479 0.000000 0.022879 0.000000
# 4 0.000000 0.000000 0.000000 -0.035103 0.000000 -0.084005
# 5 -0.014029 -0.015267 0.022879 0.000000 -0.009064 0.000000
# 6 0.000000 0.000000 0.000000 -0.084005 0.000000 -0.059252
#
#
# Mechanical properties :
#
#
# Convention : Reuss Voigt Hill
#
# Bulk Modulus (GPa) = 76.45291 68.01639 72.23465
# Shear Modulus (GPa) = -57.06555 13.74660 -21.65947
#
# Velocity S-wave (km/s) = -5.47741 2.68835 -3.37452
# Velocity P-wave (km/s) = 0.43837 6.73763 4.77430
#
# Compressibility (1/GPa) = 0.01307995
#
# Stress axis : x y z
#
# Youngs Moduli (GPa) = 235.98004 105.24877 -676.16733
#
# Poissons Ratio (x) = 1.00654 4.68095
# Poissons Ratio (y) = 2.25679 2.06275
# Poissons Ratio (z) = -1.63364 -0.32108
#
# Static dielectric constant tensor:
#      x y z
#    x 1.656990 0.000000 0.043630 
#    y 0.000000 1.672570 0.000000 
#    z 0.043630 0.000000 1.719840 
# 
# From -- ./inp_files/2395.got.cif
#   From: 2010.05.17/outbox.cif.g08.bks.cpg/sg9_2_cif.got.tgz:2395.got - 2010.06.03 20:04:27.
