data_PCOD9136289
_publ_section_title
;
Structure prediction by ZEFSAII (Michael W. Deem and Ramdas Pophale) SiO2 
 PCOD9136289
Probable space group: C C
;
_chemical_formula_sum "Si O2"
_cell_formula_units_Z 32
_cell_length_a 20.675518
_cell_length_b 12.387290
_cell_length_c 14.534084
_cell_angle_alpha 90.000000
_cell_angle_beta 21.954162
_cell_angle_gamma 90.000000
_cell_volume 1391.665421
_symmetry_space_group_name_H-M "C C"
_symmetry_group_IT_number 9
_symmetry_cell_setting 'monoclinic'
loop_
_space_group_symop_operation_xyz
x,y,z
x,-y,1/2+z
1/2+x,1/2+y,z
1/2+x,1/2-y,1/2+z
loop_
_atom_site_type_symbol
_atom_site_label
_atom_site_fract_x
_atom_site_fract_y
_atom_site_fract_z
Si Si1 0.968400 0.326477 0.500000
Si Si2 0.348368 0.376065 0.032237
Si Si3 0.671516 0.444203 0.798035
Si Si4 0.903402 0.252642 0.154287
Si Si5 0.265796 0.183502 0.645123
Si Si6 0.308577 0.497640 0.764838
Si Si7 0.451127 0.117305 0.229868
Si Si8 0.222983 0.905843 0.525796
O O1 0.891970 0.226071 0.542304
O O2 0.825744 0.416718 0.662732
O O3 0.973835 0.318915 0.604097
O O4 0.168275 0.359614 0.215645
O O5 0.326348 0.476642 0.131809
O O6 0.528519 0.396216 0.741318
O O7 0.686049 0.565247 0.742262
O O8 0.704544 0.381361 0.659034
O O9 0.473435 0.440171 0.092298
O O10 0.105337 0.261077 0.866461
O O11 0.837001 0.312365 0.152470
O O12 0.829854 0.129812 0.255405
O O13 0.845296 0.317206 0.319760
O O14 0.390876 0.193245 0.393286
O O15 0.125793 0.553335 0.028936
O O16 0.310451 0.022496 0.397883
#
# Coordination Sequence:
#
# PCOD9136289 Si02
#       8
#     4   4   4   4   4   4   4   4
#     4  11  22  40  66  90 122 162 206 259 317 373
#     4  10  22  39  63  94 122 159 206 263 314 366
#     4   9  20  41  63  93 126 155 205 265 310 366
#     4  11  22  40  63  89 124 165 203 249 305 365
#     4  10  23  39  60  90 126 162 203 252 303 364
#     4   9  20  39  63  90 124 159 203 259 312 367
#     4  10  22  42  64  90 126 165 204 255 309 369
#     4  10  21  40  64  94 126 161 206 252 306 370
#
# _framework density 22.994032000000001
#
# number of rings (size 3 to 8) (size 9 to 14) (size 15 to 20)
#    0.000    2.000    0.000    3.750    0.000    8.000 
#    0.000    6.250    0.000    4.500    0.000    0.000 
#    0.000    0.000    0.000    0.000    0.000    0.000 
#
# Total GULP energy -89226.154363 kJ/mol
# GULP energy per Si atom -5576.634648 kJ/mol
# Density = 2.294170 g / cm^3
# Si number density = 22.994032 Si / 1000 Ang^3
#
#
#
# Elastic Constant Matrix: (Units=GPa)
#
#
# Indices 1 2 3 4 5 6 
#
# 1 61.4452 10.5667 36.0079 0.0000 -9.4596 0.0000
# 2 10.5667 51.2227 21.2511 -0.0001 0.5837 0.0000
# 3 36.0079 21.2511 146.4557 -0.0001 -9.9126 0.0000
# 4 0.0000 -0.0001 -0.0001 27.0371 0.0000 6.5668
# 5 -9.4596 0.5837 -9.9126 0.0000 36.8744 0.0000
# 6 0.0000 0.0000 0.0000 6.5668 0.0000 28.5424
#
#
#
# Elastic Compliance Matrix: (Units=1/GPa)
#
#
# Indices 1 2 3 4 5 6 
#
# 1 0.019784 -0.002362 -0.004253 0.000000 0.003970 0.000000
# 2 -0.002362 0.021104 -0.002592 0.000000 -0.001637 0.000000
# 3 -0.004253 -0.002592 0.008330 0.000000 0.001189 0.000000
# 4 0.000000 0.000000 0.000000 0.039175 0.000000 -0.009013
# 5 0.003970 -0.001637 0.001189 0.000000 0.028483 0.000000
# 6 0.000000 0.000000 0.000000 -0.009013 0.000000 0.037109
#
#
# Mechanical properties :
#
#
# Convention : Reuss Voigt Hill
#
# Bulk Modulus (GPa) = 32.46322 43.86389 38.16355
# Shear Modulus (GPa) = 27.37196 31.24395 29.30796
#
# Velocity S-wave (km/s) = 3.45395 3.69017 3.57401
# Velocity P-wave (km/s) = 5.48226 6.10525 5.80212
#
# Compressibility (1/GPa) = 0.03080409
#
# Stress axis : x y z
#
# Youngs Moduli (GPa) = 50.54538 47.38434 120.04453
#
# Poissons Ratio (x) = 0.11193 0.51052
# Poissons Ratio (y) = 0.11940 0.31119
# Poissons Ratio (z) = 0.21496 0.12283
#
# Static dielectric constant tensor:
#      x y z
#    x 1.821320 0.000000 0.009480 
#    y 0.000000 1.844790 0.000000 
#    z 0.009480 0.000000 1.917070 
# 
# From -- ./inp_files/27455.got.cif
#   From: 2010.05.17/outbox.cif.g08.bks.cpg/sg9_14_cif.got.tgz:27455.got - 2010.06.03 20:04:27.
