data_PCOD9136148
_publ_section_title
;
Structure prediction by ZEFSAII (Michael W. Deem and Ramdas Pophale) SiO2 
 PCOD9136148
Probable space group: C C
;
_chemical_formula_sum "Si O2"
_cell_formula_units_Z 20
_cell_length_a 4.992574
_cell_length_b 28.541145
_cell_length_c 5.041144
_cell_angle_alpha 90.000000
_cell_angle_beta 91.068331
_cell_angle_gamma 90.000000
_cell_volume 718.206789
_symmetry_space_group_name_H-M "C C"
_symmetry_group_IT_number 9
_symmetry_cell_setting 'monoclinic'
loop_
_space_group_symop_operation_xyz
x,y,z
x,-y,1/2+z
1/2+x,1/2+y,z
1/2+x,1/2-y,1/2+z
loop_
_atom_site_type_symbol
_atom_site_label
_atom_site_fract_x
_atom_site_fract_y
_atom_site_fract_z
Si Si1 0.539030 0.705237 0.406840
Si Si2 0.927521 0.593656 0.628211
Si Si3 0.544822 0.808457 0.225608
Si Si4 0.056344 0.968169 0.365880
Si Si5 0.412840 0.609955 0.239255
O O1 0.483901 0.760001 0.368667
O O2 0.353889 0.692026 0.652104
O O3 0.432222 0.666211 0.200182
O O4 0.852606 0.697736 0.462003
O O5 0.956875 0.640023 0.813166
O O6 0.166577 0.595378 0.421851
O O7 0.862843 0.548746 0.808759
O O8 0.669106 0.598109 0.430012
O O9 0.927512 0.919986 0.471367
O O10 0.992614 0.004028 0.599166
#
# Coordination Sequence:
#
# PCOD9136148 Si02
#       5
#     4   4   4   4   4
#     4  10  21  39  64 100 141 185 233 288 354 426
#     4  10  24  47  70 104 148 189 241 301 361 433
#     4  10  21  39  64 100 141 185 233 288 354 426
#     4  12  26  50  78 108 144 196 244 306 368 428
#     4  10  24  47  70 104 148 189 241 301 361 433
#
# _framework density 27.847131999999998
#
# number of rings (size 3 to 8) (size 9 to 14) (size 15 to 20)
#    0.000    1.600    2.000    1.200    2.800    3.200 
#    0.000    0.000    0.000    0.000    0.000    0.000 
#    0.000    0.000    0.000    0.000    0.000    0.000 
#
# Total GULP energy -55961.132843 kJ/mol
# GULP energy per Si atom -5596.113284 kJ/mol
# Density = 2.778375 g / cm^3
# Si number density = 27.847132 Si / 1000 Ang^3
#
#
#
# Elastic Constant Matrix: (Units=GPa)
#
#
# Indices 1 2 3 4 5 6 
#
# 1 147.8476 11.7642 41.4635 0.0000 -24.6471 0.0000
# 2 11.7642 171.6845 54.7348 0.0000 -2.3611 0.0000
# 3 41.4635 54.7348 155.6855 0.0000 -18.1859 0.0000
# 4 0.0000 0.0000 0.0000 60.2743 0.0000 -10.4981
# 5 -24.6471 -2.3611 -18.1859 0.0000 28.2958 0.0000
# 6 0.0000 0.0000 0.0000 -10.4981 0.0000 42.6580
#
#
#
# Elastic Compliance Matrix: (Units=1/GPa)
#
#
# Indices 1 2 3 4 5 6 
#
# 1 0.008209 -0.000013 -0.001456 0.000000 0.006214 0.000000
# 2 -0.000013 0.006587 -0.002432 0.000000 -0.001025 0.000000
# 3 -0.001456 -0.002432 0.008102 0.000000 0.003736 0.000000
# 4 0.000000 0.000000 0.000000 0.017334 0.000000 0.004266
# 5 0.006214 -0.001025 0.003736 0.000000 0.043069 0.000000
# 6 0.000000 0.000000 0.000000 0.004266 0.000000 0.024492
#
#
# Mechanical properties :
#
#
# Convention : Reuss Voigt Hill
#
# Bulk Modulus (GPa) = 66.24039 76.79362 71.51700
# Shear Modulus (GPa) = 41.45011 50.72929 46.08970
#
# Velocity S-wave (km/s) = 3.86228 4.27278 4.07270
# Velocity P-wave (km/s) = 6.61274 7.20964 6.91763
#
# Compressibility (1/GPa) = 0.01509653
#
# Stress axis : x y z
#
# Youngs Moduli (GPa) = 121.81903 151.81948 123.41972
#
# Poissons Ratio (x) = 0.00195 0.17969
# Poissons Ratio (y) = 0.00157 0.30016
# Poissons Ratio (z) = 0.17736 0.36922
#
# Static dielectric constant tensor:
#      x y z
#    x 2.187120 0.000000 0.098930 
#    y 0.000000 2.205090 0.000000 
#    z 0.098930 0.000000 2.158470 
# 
# From -- ./inp_files/254.got.cif
#   From: 2010.05.17/outbox.cif.g08.bks.cpg/sg9_1_cif.got.tgz:254.got - 2010.06.03 20:04:27.
