data_PCOD9136449
_publ_section_title
;
Structure prediction by ZEFSAII (Michael W. Deem and Ramdas Pophale) SiO2 
 PCOD9136449
Probable space group: C C
;
_chemical_formula_sum "Si O2"
_cell_formula_units_Z 32
_cell_length_a 17.611973
_cell_length_b 9.250435
_cell_length_c 15.578864
_cell_angle_alpha 90.000000
_cell_angle_beta 34.235897
_cell_angle_gamma 90.000000
_cell_volume 1427.929614
_symmetry_space_group_name_H-M "C C"
_symmetry_group_IT_number 9
_symmetry_cell_setting 'monoclinic'
loop_
_space_group_symop_operation_xyz
x,y,z
x,-y,1/2+z
1/2+x,1/2+y,z
1/2+x,1/2-y,1/2+z
loop_
_atom_site_type_symbol
_atom_site_label
_atom_site_fract_x
_atom_site_fract_y
_atom_site_fract_z
Si Si1 0.956340 0.554926 0.911750
Si Si2 0.314421 0.274129 0.925808
Si Si3 0.954333 0.162746 0.683951
Si Si4 0.701354 0.483524 0.456695
Si Si5 0.335211 0.223698 0.451183
Si Si6 0.947574 0.466005 0.607224
Si Si7 0.756597 0.010585 0.121735
Si Si8 0.752870 0.956099 0.816707
O O1 0.916937 0.653815 0.867847
O O2 0.913514 0.389698 0.936489
O O3 0.114909 0.563387 0.773723
O O4 0.898194 0.587946 0.059800
O O5 0.189236 0.162152 0.024712
O O6 0.316756 0.357390 0.832568
O O7 0.318290 0.395062 0.997048
O O8 0.941303 0.181160 0.798019
O O9 0.987367 0.320486 0.619379
O O10 0.805261 0.115458 0.793323
O O11 0.060049 0.042708 0.554689
O O12 0.752344 0.617992 0.466524
O O13 0.821321 0.462409 0.274935
O O14 0.243276 0.338882 0.584458
O O15 0.088643 0.555894 0.471735
O O16 0.808466 0.057134 0.167543
#
# Coordination Sequence:
#
# PCOD9136449 Si02
#       8
#     4   4   4   4   4   4   4   4
#     4  10  24  43  68  96 136 183 226 285 352 411
#     4  11  25  41  66 100 137 177 229 280 355 409
#     4  11  21  40  67  98 127 177 228 275 337 415
#     4  10  24  39  68  97 132 178 226 279 338 414
#     4  10  21  41  65  92 127 175 228 272 339 406
#     4  10  22  43  68  97 139 177 225 281 350 413
#     4  11  24  44  68  98 139 178 228 293 344 412
#     4  11  25  41  68 100 133 181 228 285 347 412
#
# _framework density 22.410067000000002
#
# number of rings (size 3 to 8) (size 9 to 14) (size 15 to 20)
#    0.000    1.500    1.250    3.000    8.750    1.000 
#    2.250    2.500    0.000    0.000    0.000    0.000 
#    0.000    0.000    0.000    0.000    0.000    0.000 
#
# Total GULP energy -89074.950593 kJ/mol
# GULP energy per Si atom -5567.184412 kJ/mol
# Density = 2.235906 g / cm^3
# Si number density = 22.410067 Si / 1000 Ang^3
#
#
#
# Elastic Constant Matrix: (Units=GPa)
#
#
# Indices 1 2 3 4 5 6 
#
# 1 76.3160 5.0265 38.6251 0.0000 22.0093 0.0000
# 2 5.0265 75.0889 33.3020 0.0000 20.5756 0.0000
# 3 38.6251 33.3020 74.8288 0.0000 14.8886 0.0000
# 4 0.0000 0.0000 0.0000 6.5102 0.0000 -8.3615
# 5 22.0093 20.5756 14.8886 0.0000 36.4453 0.0000
# 6 0.0000 0.0000 0.0000 -8.3615 0.0000 24.4685
#
#
#
# Elastic Compliance Matrix: (Units=1/GPa)
#
#
# Indices 1 2 3 4 5 6 
#
# 1 0.022617 0.007530 -0.012476 0.000000 -0.012813 0.000000
# 2 0.007530 0.020870 -0.010804 0.000000 -0.011916 0.000000
# 3 -0.012476 -0.010804 0.023837 0.000000 0.003896 0.000000
# 4 0.000000 0.000000 0.000000 0.273759 0.000000 0.093550
# 5 -0.012813 -0.011916 0.003896 0.000000 0.040312 0.000000
# 6 0.000000 0.000000 0.000000 0.093550 0.000000 0.072837
#
#
# Mechanical properties :
#
#
# Convention : Reuss Voigt Hill
#
# Bulk Modulus (GPa) = 27.91435 42.23787 35.07611
# Shear Modulus (GPa) = 10.04672 23.43681 16.74177
#
# Velocity S-wave (km/s) = 2.11964 3.23742 2.73621
# Velocity P-wave (km/s) = 4.29810 5.73264 5.06640
#
# Compressibility (1/GPa) = 0.03582387
#
# Stress axis : x y z
#
# Youngs Moduli (GPa) = 44.21416 47.91470 41.95164
#
# Poissons Ratio (x) = -0.36081 0.52341
# Poissons Ratio (y) = -0.33294 0.45325
# Poissons Ratio (z) = 0.55163 0.51768
#
# Static dielectric constant tensor:
#      x y z
#    x 1.910600 0.000000 0.002200 
#    y 0.000000 1.835490 0.000000 
#    z 0.002200 0.000000 1.919780 
# 
# From -- ./inp_files/20025.got.cif
#   From: 2010.05.17/outbox.cif.g08.bks.cpg/sg9_11_cif.got.tgz:20025.got - 2010.06.03 20:04:27.
