data_PCOD9136440
_publ_section_title
;
Structure prediction by ZEFSAII (Michael W. Deem and Ramdas Pophale) SiO2 
 PCOD9136440
Probable space group: C C
;
_chemical_formula_sum "Si O2"
_cell_formula_units_Z 20
_cell_length_a 9.041392
_cell_length_b 9.643792
_cell_length_c 8.874494
_cell_angle_alpha 90.000000
_cell_angle_beta 72.621406
_cell_angle_gamma 90.000000
_cell_volume 738.474180
_symmetry_space_group_name_H-M "C C"
_symmetry_group_IT_number 9
_symmetry_cell_setting 'monoclinic'
loop_
_space_group_symop_operation_xyz
x,y,z
x,-y,1/2+z
1/2+x,1/2+y,z
1/2+x,1/2-y,1/2+z
loop_
_atom_site_type_symbol
_atom_site_label
_atom_site_fract_x
_atom_site_fract_y
_atom_site_fract_z
Si Si1 0.319510 0.500002 0.461430
Si Si2 0.208799 0.200117 0.612476
Si Si3 0.928298 0.344767 0.599103
Si Si4 0.106902 0.568552 0.755474
Si Si5 0.185933 0.979828 0.838762
O O1 0.291075 0.342876 0.537549
O O2 0.237912 0.612690 0.594421
O O3 0.221599 0.508674 0.338308
O O4 0.500594 0.522525 0.393299
O O5 0.248152 0.082742 0.476395
O O6 0.024318 0.223103 0.649933
O O7 0.232069 0.133343 0.767926
O O8 0.751761 0.371220 0.696215
O O9 0.002139 0.474486 0.676693
O O10 0.997310 0.352027 0.408600
#
# Coordination Sequence:
#
# PCOD9136440 Si02
#       5
#     4   4   4   4   4
#     4  10  21  41  64  94 130 165 209 267 318 377
#     4  10  24  42  62  96 136 168 208 272 320 370
#     4  10  21  41  64  94 130 165 209 267 318 377
#     4   8  18  38  62  88 132 170 198 256 328 378
#     4  12  22  40  70  94 122 172 220 258 316 384
#
# _framework density 27.08287
#
# number of rings (size 3 to 8) (size 9 to 14) (size 15 to 20)
#    0.000    2.400    0.000    3.600    0.000    3.200 
#    0.000   34.000    0.000    0.000    0.000    0.000 
#    0.000    0.000    0.000    0.000    0.000    0.000 
#
# Total GULP energy -55772.621800 kJ/mol
# GULP energy per Si atom -5577.262180 kJ/mol
# Density = 2.702123 g / cm^3
# Si number density = 27.082870 Si / 1000 Ang^3
#
#
#
# Elastic Constant Matrix: (Units=GPa)
#
#
# Indices 1 2 3 4 5 6 
#
# 1 127.1058 32.4046 49.4018 0.0000 -29.6406 0.0000
# 2 32.4046 95.8614 23.0592 0.0000 3.7430 0.0000
# 3 49.4018 23.0592 154.9227 0.0000 -18.6540 0.0000
# 4 0.0000 0.0000 0.0000 42.8905 0.0000 9.2546
# 5 -29.6406 3.7430 -18.6540 0.0000 52.2535 0.0000
# 6 0.0000 0.0000 0.0000 9.2546 0.0000 30.3673
#
#
#
# Elastic Compliance Matrix: (Units=1/GPa)
#
#
# Indices 1 2 3 4 5 6 
#
# 1 0.010931 -0.003359 -0.002309 0.000000 0.005617 0.000000
# 2 -0.003359 0.011952 -0.001087 0.000000 -0.003150 0.000000
# 3 -0.002309 -0.001087 0.007528 0.000000 0.001455 0.000000
# 4 0.000000 0.000000 0.000000 0.024956 0.000000 -0.007606
# 5 0.005617 -0.003150 0.001455 0.000000 0.023069 0.000000
# 6 0.000000 0.000000 0.000000 -0.007606 0.000000 0.035248
#
#
# Mechanical properties :
#
#
# Convention : Reuss Voigt Hill
#
# Bulk Modulus (GPa) = 59.17072 65.29124 62.23098
# Shear Modulus (GPa) = 37.64251 43.30387 40.47319
#
# Velocity S-wave (km/s) = 3.73218 4.00301 3.86997
# Velocity P-wave (km/s) = 6.36142 6.74728 6.55719
#
# Compressibility (1/GPa) = 0.01690025
#
# Stress axis : x y z
#
# Youngs Moduli (GPa) = 91.48096 83.67059 132.83173
#
# Poissons Ratio (x) = 0.28104 0.30677
# Poissons Ratio (y) = 0.30728 0.14440
# Poissons Ratio (z) = 0.21127 0.09095
#
# Static dielectric constant tensor:
#      x y z
#    x 2.227060 0.000000 -0.095370 
#    y 0.000000 2.215150 0.000000 
#    z -0.095370 0.000000 2.194150 
# 
# From -- ./inp_files/4661.got.cif
#   From: 2010.05.17/outbox.cif.g08.bks.cpg/sg9_3_cif.got.tgz:4661.got - 2010.06.03 20:04:27.
