data_PCOD9136846
_publ_section_title
;
Structure prediction by ZEFSAII (Michael W. Deem and Ramdas Pophale) SiO2 
 PCOD9136846
Probable space group: C C
;
_chemical_formula_sum "Si O2"
_cell_formula_units_Z 32
_cell_length_a 11.029610
_cell_length_b 15.387130
_cell_length_c 14.385984
_cell_angle_alpha 90.000000
_cell_angle_beta 148.233192
_cell_angle_gamma 90.000000
_cell_volume 1285.362130
_symmetry_space_group_name_H-M "C C"
_symmetry_group_IT_number 9
_symmetry_cell_setting 'monoclinic'
loop_
_space_group_symop_operation_xyz
x,y,z
x,-y,1/2+z
1/2+x,1/2+y,z
1/2+x,1/2-y,1/2+z
loop_
_atom_site_type_symbol
_atom_site_label
_atom_site_fract_x
_atom_site_fract_y
_atom_site_fract_z
Si Si1 0.809320 0.183412 0.144400
Si Si2 0.573838 0.012607 0.933825
Si Si3 0.808584 0.036739 0.770240
Si Si4 0.188972 0.364203 0.773694
Si Si5 0.778313 0.772344 0.222048
Si Si6 0.314439 0.988515 0.583894
Si Si7 0.827511 0.671120 0.517772
Si Si8 0.703199 0.834794 0.976342
O O1 0.737272 0.177256 0.205471
O O2 0.080857 0.164414 0.308651
O O3 0.663723 0.110582 0.994769
O O4 0.773826 0.277129 0.077150
O O5 0.357033 0.002685 0.722677
O O6 0.735721 0.938028 0.996166
O O7 0.602550 0.982046 0.060772
O O8 0.848579 0.137841 0.819892
O O9 0.801448 0.960368 0.840601
O O10 0.052357 0.013335 0.881397
O O11 0.929935 0.397916 0.627376
O O12 0.264994 0.308370 0.912218
O O13 0.938724 0.688722 0.334324
O O14 0.511615 0.772344 0.079176
O O15 0.824884 0.795430 0.144266
O O16 0.419014 0.075820 0.605216
#
# Coordination Sequence:
#
# PCOD9136846 Si02
#       8
#     4   4   4   4   4   4   4   4
#     4  11  24  45  69 106 147 187 244 308 369 435
#     4   9  21  42  64  99 143 179 243 285 345 455
#     4  10  21  44  69  98 146 190 238 298 359 434
#     4  10  22  45  70 100 150 191 244 302 358 455
#     4  11  24  44  69 108 146 187 249 309 362 444
#     4  11  21  42  73 101 140 197 235 291 372 432
#     4  12  23  42  75 103 145 192 240 312 366 424
#     4  10  24  42  67 101 143 187 241 297 369 431
#
# _framework density 24.895707999999999
#
# number of rings (size 3 to 8) (size 9 to 14) (size 15 to 20)
#    0.000    1.500    3.750    1.500    3.500    1.000 
#    0.000   15.000    0.000    0.000    0.000    0.000 
#    0.000    0.000    0.000    0.000    0.000    0.000 
#
# Total GULP energy -89097.061513 kJ/mol
# GULP energy per Si atom -5568.566345 kJ/mol
# Density = 2.483904 g / cm^3
# Si number density = 24.895708 Si / 1000 Ang^3
#
#
#
# Elastic Constant Matrix: (Units=GPa)
#
#
# Indices 1 2 3 4 5 6 
#
# 1 116.2542 31.3943 25.7077 0.0055 -27.2875 0.0003
# 2 31.3943 86.0806 11.9207 0.0022 -14.1576 0.0000
# 3 25.7077 11.9207 64.5770 0.0066 -17.0749 0.0014
# 4 0.0055 0.0022 0.0066 25.5453 0.0039 -2.9716
# 5 -27.2875 -14.1576 -17.0749 0.0039 34.5688 0.0000
# 6 0.0003 0.0000 0.0014 -2.9716 0.0000 28.8991
#
#
#
# Elastic Compliance Matrix: (Units=1/GPa)
#
#
# Indices 1 2 3 4 5 6 
#
# 1 0.011434 -0.002741 -0.002250 -0.000003 0.006791 0.000000
# 2 -0.002741 0.013181 -0.000560 -0.000001 0.002958 0.000000
# 3 -0.002250 -0.000560 0.018351 -0.000005 0.007059 -0.000001
# 4 -0.000003 -0.000001 -0.000005 0.039620 -0.000010 0.004074
# 5 0.006791 0.002958 0.007059 -0.000010 0.038987 -0.000001
# 6 0.000000 0.000000 -0.000001 0.004074 -0.000001 0.035022
#
#
# Mechanical properties :
#
#
# Convention : Reuss Voigt Hill
#
# Bulk Modulus (GPa) = 31.38411 44.99523 38.18967
# Shear Modulus (GPa) = 28.03984 30.99524 29.51754
#
# Velocity S-wave (km/s) = 3.35967 3.53229 3.44706
# Velocity P-wave (km/s) = 5.26150 5.89481 5.58714
#
# Compressibility (1/GPa) = 0.03186326
#
# Stress axis : x y z
#
# Youngs Moduli (GPa) = 87.46005 75.86784 54.49330
#
# Poissons Ratio (x) = 0.20799 0.12261
# Poissons Ratio (y) = 0.23977 0.03050
# Poissons Ratio (z) = 0.19678 0.04247
#
# Static dielectric constant tensor:
#      x y z
#    x 2.061820 0.000000 -0.006360 
#    y 0.000000 1.973610 0.000000 
#    z -0.006360 0.000000 2.049810 
# 
# From -- ./inp_files/25026.got.cif
#   From: 2010.05.17/outbox.cif.g08.bks.cpg/sg9_13_cif.got.tgz:25026.got - 2010.06.03 20:04:27.
