data_PCOD9136664
_publ_section_title
;
Structure prediction by ZEFSAII (Michael W. Deem and Ramdas Pophale) SiO2 
 PCOD9136664
Probable space group: C C
;
_chemical_formula_sum "Si O2"
_cell_formula_units_Z 20
_cell_length_a 5.381815
_cell_length_b 18.394079
_cell_length_c 8.971981
_cell_angle_alpha 90.000000
_cell_angle_beta 94.090950
_cell_angle_gamma 90.000000
_cell_volume 885.905077
_symmetry_space_group_name_H-M "C C"
_symmetry_group_IT_number 9
_symmetry_cell_setting 'monoclinic'
loop_
_space_group_symop_operation_xyz
x,y,z
x,-y,1/2+z
1/2+x,1/2+y,z
1/2+x,1/2-y,1/2+z
loop_
_atom_site_type_symbol
_atom_site_label
_atom_site_fract_x
_atom_site_fract_y
_atom_site_fract_z
Si Si1 0.398230 0.600405 0.857740
Si Si2 0.141998 0.251408 0.294491
Si Si3 0.438207 0.546315 0.196785
Si Si4 0.965293 0.628412 0.257814
Si Si5 0.774984 0.291866 0.488873
O O1 0.201207 0.663465 0.810516
O O2 0.420095 0.538115 0.736481
O O3 0.644575 0.649502 0.880339
O O4 0.382464 0.562814 0.020304
O O5 0.372760 0.198456 0.348413
O O6 0.913694 0.234579 0.392225
O O7 0.101307 0.232778 0.119268
O O8 0.716679 0.577102 0.243383
O O9 0.219466 0.584787 0.284845
O O10 0.982906 0.666444 0.096241
#
# Coordination Sequence:
#
# PCOD9136664 Si02
#       5
#     4   4   4   4   4
#     4  11  24  43  68  98 145 180 241 283 358 415
#     4  10  21  42  72  98 139 180 240 292 348 419
#     4  11  24  45  66 102 141 183 225 293 350 424
#     4   9  23  42  69  98 138 178 230 288 345 411
#     4   9  22  40  69 102 137 183 230 296 345 421
#
# _framework density 22.575785
#
# number of rings (size 3 to 8) (size 9 to 14) (size 15 to 20)
#    1.200    0.800    2.000    0.000    5.600    3.200 
#    0.000    0.000    0.000    0.000    0.000    0.000 
#    0.000    0.000    0.000    0.000    0.000    0.000 
#
# Total GULP energy -55673.575712 kJ/mol
# GULP energy per Si atom -5567.357571 kJ/mol
# Density = 2.252440 g / cm^3
# Si number density = 22.575785 Si / 1000 Ang^3
#
#
#
# Elastic Constant Matrix: (Units=GPa)
#
#
# Indices 1 2 3 4 5 6 
#
# 1 77.0315 -6.5057 12.8133 0.0000 -21.6815 0.0000
# 2 -6.5057 70.3664 -17.7293 0.0000 4.3930 0.0000
# 3 12.8133 -17.7293 -32.2806 0.0000 2.2602 0.0000
# 4 0.0000 0.0000 0.0000 33.0169 0.0000 8.9778
# 5 -21.6815 4.3930 2.2602 0.0000 28.1190 0.0000
# 6 0.0000 0.0000 0.0000 8.9778 0.0000 25.4823
#
#
#
# Elastic Compliance Matrix: (Units=1/GPa)
#
#
# Indices 1 2 3 4 5 6 
#
# 1 0.015323 0.002157 0.005669 0.000000 0.011022 0.000000
# 2 0.002157 0.012842 -0.006186 0.000000 0.000154 0.000000
# 3 0.005669 -0.006186 -0.024817 0.000000 0.007333 0.000000
# 4 0.000000 0.000000 0.000000 0.033496 0.000000 -0.011801
# 5 0.011022 0.000154 0.007333 0.000000 0.043449 0.000000
# 6 0.000000 0.000000 0.000000 -0.011801 0.000000 0.043401
#
#
# Mechanical properties :
#
#
# Convention : Reuss Voigt Hill
#
# Bulk Modulus (GPa) = 150.85325 10.25267 80.55296
# Shear Modulus (GPa) = 40.77494 25.75957 33.26726
#
# Velocity S-wave (km/s) = 4.25448 3.38157 3.84289
# Velocity P-wave (km/s) = 9.54463 4.44950 7.44641
#
# Compressibility (1/GPa) = 0.00662896
#
# Stress axis : x y z
#
# Youngs Moduli (GPa) = 65.26033 77.86680 -40.29526
#
# Poissons Ratio (x) = -0.16796 0.22845
# Poissons Ratio (y) = -0.14077 -0.24928
# Poissons Ratio (z) = -0.36999 0.48171
#
# Static dielectric constant tensor:
#      x y z
#    x 1.955470 0.000000 0.024240 
#    y 0.000000 1.865290 0.000000 
#    z 0.024240 0.000000 1.835000 
# 
# From -- ./inp_files/3698.got.cif
#   From: 2010.05.17/outbox.cif.g08.bks.cpg/sg9_2_cif.got.tgz:3698.got - 2010.06.03 20:04:27.
