data_PCOD9136284
_publ_section_title
;
Structure prediction by ZEFSAII (Michael W. Deem and Ramdas Pophale) SiO2 
 PCOD9136284
Probable space group: C C
;
_chemical_formula_sum "Si O2"
_cell_formula_units_Z 32
_cell_length_a 6.857187
_cell_length_b 34.792662
_cell_length_c 8.379314
_cell_angle_alpha 90.000000
_cell_angle_beta 124.789813
_cell_angle_gamma 90.000000
_cell_volume 1641.790928
_symmetry_space_group_name_H-M "C C"
_symmetry_group_IT_number 9
_symmetry_cell_setting 'monoclinic'
loop_
_space_group_symop_operation_xyz
x,y,z
x,-y,1/2+z
1/2+x,1/2+y,z
1/2+x,1/2-y,1/2+z
loop_
_atom_site_type_symbol
_atom_site_label
_atom_site_fract_x
_atom_site_fract_y
_atom_site_fract_z
Si Si1 0.977690 0.118887 0.033420
Si Si2 0.764265 0.313212 0.814214
Si Si3 0.466990 0.747871 0.364864
Si Si4 0.988388 0.752129 0.201977
Si Si5 0.705082 0.552488 0.939026
Si Si6 0.191112 0.686788 0.752626
Si Si7 0.750301 0.947512 0.627817
Si Si8 0.477692 0.511118 0.533422
O O1 0.871172 0.090595 0.116209
O O2 0.169666 0.147607 0.197057
O O3 0.785711 0.147607 0.869782
O O4 0.084210 0.090595 0.950633
O O5 0.559659 0.290002 0.815149
O O6 0.866241 0.284819 0.726600
O O7 0.977688 0.320888 0.033420
O O8 0.280509 0.746631 0.434296
O O9 0.674870 0.746631 0.632544
O O10 0.589138 0.784819 0.340241
O O11 0.895718 0.790002 0.251691
O O12 0.577854 0.537028 0.721312
O O13 0.673008 0.518044 0.052397
O O14 0.977692 0.559755 0.033422
O O15 0.782374 0.981956 0.514447
O O16 0.877530 0.962972 0.845532
#
# Coordination Sequence:
#
# PCOD9136284 Si02
#       8
#     4   4   4   4   4   4   4   4
#     4  11  26  40  54  90 134 156 196 252 304 364
#     4  11  24  41  59  86 122 156 204 261 305 366
#     4  11  21  39  63  85 107 153 214 259 308 359
#     4  11  21  39  63  85 107 153 214 259 308 359
#     4  10  21  40  64  92 123 161 197 245 298 357
#     4  11  24  41  59  86 122 156 204 261 305 366
#     4  10  21  40  64  92 123 161 197 245 298 357
#     4   9  20  40  68  94 118 154 208 244 284 360
#
# _framework density 19.490911000000001
#
# number of rings (size 3 to 8) (size 9 to 14) (size 15 to 20)
#    0.000    1.500    2.500    2.250    3.500    5.000 
#    2.250    2.500    0.000    0.000    0.000    0.000 
#    0.000    0.000    0.000    0.000    0.000    0.000 
#
# Total GULP energy -89277.308632 kJ/mol
# GULP energy per Si atom -5579.831790 kJ/mol
# Density = 1.944655 g / cm^3
# Si number density = 19.490911 Si / 1000 Ang^3
#
#
#
# Elastic Constant Matrix: (Units=GPa)
#
#
# Indices 1 2 3 4 5 6 
#
# 1 123.9957 63.4001 51.0121 0.0000 -0.7039 0.0000
# 2 63.4001 160.1919 75.9732 0.0000 -11.5745 0.0000
# 3 51.0121 75.9732 116.7295 0.0000 -12.0434 0.0000
# 4 0.0000 0.0000 0.0000 53.6365 0.0000 1.5178
# 5 -0.7039 -11.5745 -12.0434 0.0000 39.7510 0.0000
# 6 0.0000 0.0000 0.0000 1.5178 0.0000 9.6238
#
#
#
# Elastic Compliance Matrix: (Units=1/GPa)
#
#
# Indices 1 2 3 4 5 6 
#
# 1 0.010792 -0.002996 -0.002928 0.000000 -0.001568 0.000000
# 2 -0.002996 0.009891 -0.004993 0.000000 0.001314 0.000000
# 3 -0.002928 -0.004993 0.013358 0.000000 0.002542 0.000000
# 4 0.000000 0.000000 0.000000 0.018728 0.000000 -0.002954
# 5 -0.001568 0.001314 0.002542 0.000000 0.026282 0.000000
# 6 0.000000 0.000000 0.000000 -0.002954 0.000000 0.104375
#
#
# Mechanical properties :
#
#
# Convention : Reuss Voigt Hill
#
# Bulk Modulus (GPa) = 81.91492 86.85421 84.38457
# Shear Modulus (GPa) = 23.88582 34.63771 29.26177
#
# Velocity S-wave (km/s) = 3.50449 4.22016 3.87887
# Velocity P-wave (km/s) = 7.64812 8.27070 7.96550
#
# Compressibility (1/GPa) = 0.01220779
#
# Stress axis : x y z
#
# Youngs Moduli (GPa) = 92.65731 101.10153 74.86003
#
# Poissons Ratio (x) = 0.30289 0.21922
# Poissons Ratio (y) = 0.27759 0.37376
# Poissons Ratio (z) = 0.27133 0.50477
#
# Static dielectric constant tensor:
#      x y z
#    x 1.717360 0.000000 0.201340 
#    y 0.000000 1.591360 0.000000 
#    z 0.201340 0.000000 2.425860 
# 
# From -- ./inp_files/4402.got.cif
#   From: 2010.05.17/outbox.cif.g08.bks.cpg/sg9_3_cif.got.tgz:4402.got - 2010.06.03 20:04:27.
