data_PCOD9136506
_publ_section_title
;
Structure prediction by ZEFSAII (Michael W. Deem and Ramdas Pophale) SiO2 
 PCOD9136506
Probable space group: C C
;
_chemical_formula_sum "Si O2"
_cell_formula_units_Z 28
_cell_length_a 8.472840
_cell_length_b 11.316801
_cell_length_c 21.166609
_cell_angle_alpha 90.000000
_cell_angle_beta 39.085706
_cell_angle_gamma 90.000000
_cell_volume 1279.607536
_symmetry_space_group_name_H-M "C C"
_symmetry_group_IT_number 9
_symmetry_cell_setting 'monoclinic'
loop_
_space_group_symop_operation_xyz
x,y,z
x,-y,1/2+z
1/2+x,1/2+y,z
1/2+x,1/2-y,1/2+z
loop_
_atom_site_type_symbol
_atom_site_label
_atom_site_fract_x
_atom_site_fract_y
_atom_site_fract_z
Si Si1 0.748170 0.004162 0.265550
Si Si2 0.429230 0.668477 0.617862
Si Si3 0.301443 0.975126 0.488842
Si Si4 0.821851 0.638223 0.251854
Si Si5 0.109374 0.099027 0.762143
Si Si6 0.864103 0.814191 0.639990
Si Si7 0.634725 0.227373 0.930890
O O1 0.875998 0.125019 0.205063
O O2 0.728167 0.921093 0.209888
O O3 0.474156 0.019151 0.378526
O O4 0.926692 0.944789 0.262362
O O5 0.676393 0.589947 0.559058
O O6 0.363578 0.787736 0.674573
O O7 0.485519 0.693634 0.527585
O O8 0.481054 0.894982 0.475499
O O9 0.088232 0.880262 0.534514
O O10 0.709212 0.511165 0.270566
O O11 0.655541 0.708141 0.356075
O O12 0.100771 0.643520 0.193429
O O13 0.333341 0.175660 0.661573
O O14 0.920444 0.188043 0.858347
#
# Coordination Sequence:
#
# PCOD9136506 Si02
#       7
#     4   4   4   4   4   4   4
#     4  10  21  46  69  92 134 178 221 279 326 397
#     4  11  22  41  71  94 137 175 211 287 329 380
#     4  10  21  41  68  94 130 175 220 269 335 392
#     4  11  23  46  66 100 138 169 225 283 325 398
#     4  10  22  46  66  95 136 173 224 276 328 397
#     4  10  22  40  66  97 134 171 219 275 331 400
#     4  10  23  44  66 100 135 173 226 273 328 404
#
# _framework density 21.881709000000001
#
# number of rings (size 3 to 8) (size 9 to 14) (size 15 to 20)
#    0.000    1.714    4.286    1.714    4.000    2.286 
#   15.429    0.000    0.000    0.000    0.000    0.000 
#    0.000    0.000    0.000    0.000    0.000    0.000 
#
# Total GULP energy -77954.378184 kJ/mol
# GULP energy per Si atom -5568.169870 kJ/mol
# Density = 2.183191 g / cm^3
# Si number density = 21.881709 Si / 1000 Ang^3
#
#
#
# Elastic Constant Matrix: (Units=GPa)
#
#
# Indices 1 2 3 4 5 6 
#
# 1 19.3157 20.6193 18.2264 0.0000 6.9677 0.0004
# 2 20.6193 100.2058 18.4709 0.0002 7.0771 -0.0001
# 3 18.2264 18.4709 120.1801 0.0000 11.6209 0.0003
# 4 0.0000 0.0002 0.0000 38.8553 -0.0001 -8.0071
# 5 6.9677 7.0771 11.6209 -0.0001 24.1561 -0.0003
# 6 0.0004 -0.0001 0.0003 -8.0071 -0.0003 37.9109
#
#
#
# Elastic Compliance Matrix: (Units=1/GPa)
#
#
# Indices 1 2 3 4 5 6 
#
# 1 0.079990 -0.013828 -0.008565 0.000000 -0.014901 -0.000001
# 2 -0.013828 0.012791 0.000113 0.000000 0.000187 0.000000
# 3 -0.008565 0.000113 0.009824 0.000000 -0.002289 0.000000
# 4 0.000000 0.000000 0.000000 0.026908 0.000000 0.005683
# 5 -0.014901 0.000187 -0.002289 0.000000 0.046742 0.000001
# 6 -0.000001 0.000000 0.000000 0.005683 0.000001 0.027578
#
#
# Mechanical properties :
#
#
# Convention : Reuss Voigt Hill
#
# Bulk Modulus (GPa) = 17.22816 39.37054 28.29935
# Shear Modulus (GPa) = 18.67476 32.34347 25.50912
#
# Velocity S-wave (km/s) = 2.92454 3.84878 3.41805
# Velocity P-wave (km/s) = 4.39253 6.14674 5.34213
#
# Compressibility (1/GPa) = 0.05804449
#
# Stress axis : x y z
#
# Youngs Moduli (GPa) = 12.50149 78.18084 101.79458
#
# Poissons Ratio (x) = 1.08112 0.87188
# Poissons Ratio (y) = 0.17288 -0.01153
# Poissons Ratio (z) = 0.10708 -0.00886
#
# Static dielectric constant tensor:
#      x y z
#    x 1.838810 0.000000 0.014220 
#    y 0.000000 1.874370 0.000000 
#    z 0.014220 0.000000 1.859270 
# 
# From -- ./inp_files/32531.got.cif
#   From: 2010.05.17/outbox.cif.g08.bks.cpg/sg9_17_cif.got.tgz:32531.got - 2010.06.03 20:04:27.
