data_PCOD9136140
_publ_section_title
;
Structure prediction by ZEFSAII (Michael W. Deem and Ramdas Pophale) SiO2 
 PCOD9136140
Probable space group: C C
;
_chemical_formula_sum "Si O2"
_cell_formula_units_Z 24
_cell_length_a 7.899926
_cell_length_b 22.493486
_cell_length_c 5.119774
_cell_angle_alpha 90.000000
_cell_angle_beta 71.739519
_cell_angle_gamma 90.000000
_cell_volume 863.953591
_symmetry_space_group_name_H-M "C C"
_symmetry_group_IT_number 9
_symmetry_cell_setting 'monoclinic'
loop_
_space_group_symop_operation_xyz
x,y,z
x,-y,1/2+z
1/2+x,1/2+y,z
1/2+x,1/2-y,1/2+z
loop_
_atom_site_type_symbol
_atom_site_label
_atom_site_fract_x
_atom_site_fract_y
_atom_site_fract_z
Si Si1 0.350940 0.220574 0.102710
Si Si2 0.630264 0.824146 0.154416
Si Si3 0.078299 0.469805 0.552385
Si Si4 0.679821 0.542039 0.353623
Si Si5 0.606278 0.333392 0.103472
Si Si6 0.826551 0.875721 0.568467
O O1 0.185153 0.256366 0.063686
O O2 0.490789 0.273787 0.094847
O O3 0.294714 0.188522 0.395506
O O4 0.427974 0.176743 0.847247
O O5 0.722833 0.842894 0.381742
O O6 0.722608 0.858731 0.878651
O O7 0.070796 0.472232 0.243241
O O8 0.266421 0.442663 0.545918
O O9 0.892218 0.441282 0.739424
O O10 0.648764 0.503952 0.107087
O O11 0.578170 0.604061 0.454245
O O12 0.529184 0.356239 0.419526
#
# Coordination Sequence:
#
# PCOD9136140 Si02
#       6
#     4   4   4   4   4   4
#     4   9  21  42  65  95 131 176 220 275 334 390
#     4  10  22  39  60  88 124 165 214 261 326 391
#     4  10  21  39  63  91 125 168 219 269 327 391
#     4  10  23  42  66  97 133 176 220 271 332 397
#     4  10  22  41  68 100 138 175 224 277 333 399
#     4  11  23  39  62  93 127 168 213 271 328 388
#
# _framework density 27.779266
#
# number of rings (size 3 to 8) (size 9 to 14) (size 15 to 20)
#    0.000    2.000    0.000    2.000    0.000   12.000 
#    0.000   10.000    0.000    0.000    0.000    0.000 
#    0.000    0.000    0.000    0.000    0.000    0.000 
#
# Total GULP energy -66945.902938 kJ/mol
# GULP energy per Si atom -5578.825245 kJ/mol
# Density = 2.771604 g / cm^3
# Si number density = 27.779266 Si / 1000 Ang^3
#
#
#
# Elastic Constant Matrix: (Units=GPa)
#
#
# Indices 1 2 3 4 5 6 
#
# 1 60.9786 24.6808 67.7481 0.0000 -11.7172 0.0000
# 2 24.6808 120.0611 66.3106 0.0000 -10.7042 0.0000
# 3 67.7481 66.3106 233.2050 0.0000 -19.8287 0.0000
# 4 0.0000 0.0000 0.0000 44.6925 0.0000 -14.9547
# 5 -11.7172 -10.7042 -19.8287 0.0000 53.3639 0.0000
# 6 0.0000 0.0000 0.0000 -14.9547 0.0000 43.4892
#
#
#
# Elastic Compliance Matrix: (Units=1/GPa)
#
#
# Indices 1 2 3 4 5 6 
#
# 1 0.024766 -0.001188 -0.006624 0.000000 0.002738 0.000000
# 2 -0.001188 0.009987 -0.002423 0.000000 0.000842 0.000000
# 3 -0.006624 -0.002423 0.006956 0.000000 0.000644 0.000000
# 4 0.000000 0.000000 0.000000 0.025284 0.000000 0.008695
# 5 0.002738 0.000842 0.000644 0.000000 0.019749 0.000000
# 6 0.000000 0.000000 0.000000 0.008695 0.000000 0.025984
#
#
# Mechanical properties :
#
#
# Convention : Reuss Voigt Hill
#
# Bulk Modulus (GPa) = 47.08548 81.30262 64.19405
# Shear Modulus (GPa) = 35.64424 45.34279 40.49351
#
# Velocity S-wave (km/s) = 3.58596 4.04450 3.82211
# Velocity P-wave (km/s) = 5.84227 7.15133 6.52969
#
# Compressibility (1/GPa) = 0.02123797
#
# Stress axis : x y z
#
# Youngs Moduli (GPa) = 40.37860 100.13425 143.75981
#
# Poissons Ratio (x) = 0.11901 0.95225
# Poissons Ratio (y) = 0.04799 0.34830
# Poissons Ratio (z) = 0.26746 0.24260
#
# Static dielectric constant tensor:
#      x y z
#    x 2.515010 0.000000 0.025240 
#    y 0.000000 2.238360 0.000000 
#    z 0.025240 0.000000 2.183810 
# 
# From -- ./inp_files/1001.got.cif
#   From: 2010.05.17/outbox.cif.g08.bks.cpg/sg9_1_cif.got.tgz:1001.got - 2010.06.03 20:04:27.
