data_PCOD9136842
_publ_section_title
;
Structure prediction by ZEFSAII (Michael W. Deem and Ramdas Pophale) SiO2 
 PCOD9136842
Probable space group: C C
;
_chemical_formula_sum "Si O2"
_cell_formula_units_Z 28
_cell_length_a 6.925231
_cell_length_b 12.791315
_cell_length_c 13.763828
_cell_angle_alpha 90.000000
_cell_angle_beta 60.353974
_cell_angle_gamma 90.000000
_cell_volume 1059.637641
_symmetry_space_group_name_H-M "C C"
_symmetry_group_IT_number 9
_symmetry_cell_setting 'monoclinic'
loop_
_space_group_symop_operation_xyz
x,y,z
x,-y,1/2+z
1/2+x,1/2+y,z
1/2+x,1/2-y,1/2+z
loop_
_atom_site_type_symbol
_atom_site_label
_atom_site_fract_x
_atom_site_fract_y
_atom_site_fract_z
Si Si1 0.392870 0.927141 0.482650
Si Si2 0.983223 0.628881 0.706452
Si Si3 0.335615 0.715153 0.395189
Si Si4 0.352343 0.148777 0.517403
Si Si5 0.714424 0.875921 0.562754
Si Si6 0.275499 0.501931 0.734419
Si Si7 0.061475 0.005686 0.347394
O O1 0.296463 0.814652 0.476226
O O2 0.494124 0.919945 0.565630
O O3 0.600178 0.952362 0.358958
O O4 0.259643 0.036259 0.508977
O O5 0.951552 0.732828 0.774654
O O6 0.914407 0.645925 0.614806
O O7 0.808165 0.540616 0.788416
O O8 0.232524 0.589632 0.662222
O O9 0.495382 0.623569 0.393199
O O10 0.103053 0.667598 0.414814
O O11 0.215388 0.253277 0.538192
O O12 0.738111 0.902926 0.671257
O O13 0.914625 0.928494 0.451235
O O14 0.485768 0.496121 0.752232
#
# Coordination Sequence:
#
# PCOD9136842 Si02
#       7
#     4   4   4   4   4   4   4
#     4  10  24  42  67 101 135 182 232 282 347 411
#     4  11  24  44  69 105 137 183 231 289 346 418
#     4  11  23  45  70  98 142 179 231 293 340 412
#     4  12  23  43  71  94 146 176 226 290 345 406
#     4  11  22  43  68  98 139 182 227 289 346 408
#     4  10  21  44  69  96 141 174 229 289 337 412
#     4  11  23  45  72 100 138 182 234 282 355 407
#
# _framework density 26.424128
#
# number of rings (size 3 to 8) (size 9 to 14) (size 15 to 20)
#    0.000    1.143    5.714    0.857    0.000    4.571 
#    5.143    1.429    0.000    0.000    0.000    0.000 
#    0.000    0.000    0.000    0.000    0.000    0.000 
#
# Total GULP energy -78215.692437 kJ/mol
# GULP energy per Si atom -5586.835174 kJ/mol
# Density = 2.636399 g / cm^3
# Si number density = 26.424128 Si / 1000 Ang^3
#
#
#
# Elastic Constant Matrix: (Units=GPa)
#
#
# Indices 1 2 3 4 5 6 
#
# 1 103.5355 44.4146 18.2764 0.0000 21.9067 0.0000
# 2 44.4146 205.9875 31.4647 0.0000 5.3008 0.0000
# 3 18.2764 31.4647 104.1679 0.0000 17.5666 0.0000
# 4 0.0000 0.0000 0.0000 46.8810 0.0000 9.4996
# 5 21.9067 5.3008 17.5666 0.0000 38.8437 0.0000
# 6 0.0000 0.0000 0.0000 9.4996 0.0000 48.6100
#
#
#
# Elastic Compliance Matrix: (Units=1/GPa)
#
#
# Indices 1 2 3 4 5 6 
#
# 1 0.012084 -0.002392 -0.000328 0.000000 -0.006340 0.000000
# 2 -0.002392 0.005563 -0.001472 0.000000 0.001256 0.000000
# 3 -0.000328 -0.001472 0.010866 0.000000 -0.004528 0.000000
# 4 0.000000 0.000000 0.000000 0.022210 0.000000 -0.004340
# 5 -0.006340 0.001256 -0.004528 0.000000 0.031196 0.000000
# 6 0.000000 0.000000 0.000000 -0.004340 0.000000 0.021420
#
#
# Mechanical properties :
#
#
# Convention : Reuss Voigt Hill
#
# Bulk Modulus (GPa) = 49.68473 66.88913 58.28693
# Shear Modulus (GPa) = 42.21740 48.16929 45.19335
#
# Velocity S-wave (km/s) = 4.00144 4.27421 4.14007
# Velocity P-wave (km/s) = 6.33974 7.05174 6.70520
#
# Compressibility (1/GPa) = 0.02012691
#
# Stress axis : x y z
#
# Youngs Moduli (GPa) = 82.75266 179.75677 92.03172
#
# Poissons Ratio (x) = 0.43002 0.03022
# Poissons Ratio (y) = 0.19797 0.13551
# Poissons Ratio (z) = 0.02718 0.26468
#
# Static dielectric constant tensor:
#      x y z
#    x 2.055770 0.000000 -0.035760 
#    y 0.000000 2.088860 0.000000 
#    z -0.035760 0.000000 2.194840 
# 
# From -- ./inp_files/22544.got.cif
#   From: 2010.05.17/outbox.cif.g08.bks.cpg/sg9_12_cif.got.tgz:22544.got - 2010.06.03 20:04:27.
