data_PCOD9136884
_publ_section_title
;
Structure prediction by ZEFSAII (Michael W. Deem and Ramdas Pophale) SiO2 
 PCOD9136884
Probable space group: C C
;
_chemical_formula_sum "Si O2"
_cell_formula_units_Z 28
_cell_length_a 23.346772
_cell_length_b 6.651663
_cell_length_c 14.442064
_cell_angle_alpha 90.000000
_cell_angle_beta 27.851636
_cell_angle_gamma 90.000000
_cell_volume 1047.789355
_symmetry_space_group_name_H-M "C C"
_symmetry_group_IT_number 9
_symmetry_cell_setting 'monoclinic'
loop_
_space_group_symop_operation_xyz
x,y,z
x,-y,1/2+z
1/2+x,1/2+y,z
1/2+x,1/2-y,1/2+z
loop_
_atom_site_type_symbol
_atom_site_label
_atom_site_fract_x
_atom_site_fract_y
_atom_site_fract_z
Si Si1 0.305810 0.981933 0.493800
Si Si2 0.199905 0.749480 0.807253
Si Si3 0.775145 0.615238 0.824097
Si Si4 0.012052 0.081255 0.255669
Si Si5 0.060039 0.389030 0.671033
Si Si6 0.901719 0.003671 0.586404
Si Si7 0.811048 0.075519 0.914121
O O1 0.441467 0.970935 0.345785
O O2 0.289526 0.222358 0.503829
O O3 0.210347 0.870790 0.697522
O O4 0.301653 0.911161 0.394247
O O5 0.282855 0.553282 0.693629
O O6 0.266725 0.906616 0.781820
O O7 0.083325 0.663538 0.028723
O O8 0.877403 0.765431 0.637624
O O9 0.628721 0.671268 0.034304
O O10 0.997095 0.123706 0.385990
O O11 0.891512 0.072617 0.362935
O O12 0.038333 0.839547 0.234479
O O13 0.177523 0.468704 0.560023
O O14 0.891691 0.089291 0.704509
#
# Coordination Sequence:
#
# PCOD9136884 Si02
#       7
#     4   4   4   4   4   4   4
#     4  11  21  42  76  99 143 191 231 295 368 411
#     4  10  23  45  67  99 140 184 235 289 357 424
#     4  11  23  45  68 103 140 184 237 294 358 425
#     4  10  22  41  69  99 139 189 229 300 358 413
#     4   9  20  43  70 100 142 184 237 297 343 437
#     4  11  24  43  67 105 138 179 245 287 352 434
#     4  10  21  45  65  99 146 179 240 294 350 434
#
# _framework density 26.722930000000002
#
# number of rings (size 3 to 8) (size 9 to 14) (size 15 to 20)
#    0.000    1.714    4.286    1.714    2.000    5.714 
#    2.571    2.857    0.000    0.000    0.000    0.000 
#    0.000    0.000    0.000    0.000    0.000    0.000 
#
# Total GULP energy -78039.245139 kJ/mol
# GULP energy per Si atom -5574.231796 kJ/mol
# Density = 2.666211 g / cm^3
# Si number density = 26.722930 Si / 1000 Ang^3
#
#
#
# Elastic Constant Matrix: (Units=GPa)
#
#
# Indices 1 2 3 4 5 6 
#
# 1 163.5688 29.7714 59.0244 0.0000 -7.4125 0.0000
# 2 29.7714 78.0154 -4.3086 -0.0027 5.8098 0.0018
# 3 59.0244 -4.3086 86.8116 -0.0034 18.0021 0.0008
# 4 0.0000 -0.0027 -0.0034 39.9849 0.0011 3.7934
# 5 -7.4125 5.8098 18.0021 0.0011 67.2402 -0.0001
# 6 0.0000 0.0018 0.0008 3.7934 -0.0001 52.1836
#
#
#
# Elastic Compliance Matrix: (Units=1/GPa)
#
#
# Indices 1 2 3 4 5 6 
#
# 1 0.009836 -0.004437 -0.007636 -0.000001 0.003512 0.000000
# 2 -0.004437 0.014972 0.004372 0.000002 -0.002953 -0.000001
# 3 -0.007636 0.004372 0.018191 0.000002 -0.006090 -0.000001
# 4 -0.000001 0.000002 0.000002 0.025183 -0.000001 -0.001831
# 5 0.003512 -0.002953 -0.006090 -0.000001 0.017145 0.000000
# 6 0.000000 -0.000001 -0.000001 -0.001831 0.000000 0.019296
#
#
# Mechanical properties :
#
#
# Convention : Reuss Voigt Hill
#
# Bulk Modulus (GPa) = 36.23455 55.26335 45.74895
# Shear Modulus (GPa) = 38.69262 48.14232 43.41747
#
# Velocity S-wave (km/s) = 3.80928 4.24906 4.03516
# Velocity P-wave (km/s) = 5.73901 6.69310 6.23434
#
# Compressibility (1/GPa) = 0.02759797
#
# Stress axis : x y z
#
# Youngs Moduli (GPa) = 101.66954 66.78929 54.97275
#
# Poissons Ratio (x) = 0.29632 0.41977
# Poissons Ratio (y) = 0.45108 -0.24035
# Poissons Ratio (z) = 0.77635 -0.29201
#
# Static dielectric constant tensor:
#      x y z
#    x 2.045380 0.000000 -0.002920 
#    y 0.000000 2.218530 0.000000 
#    z -0.002920 0.000000 2.286320 
# 
# From -- ./inp_files/27681.got.cif
#   From: 2010.05.17/outbox.cif.g08.bks.cpg/sg9_14_cif.got.tgz:27681.got - 2010.06.03 20:04:27.
