data_PCOD9136747
_publ_section_title
;
Structure prediction by ZEFSAII (Michael W. Deem and Ramdas Pophale) SiO2 
 PCOD9136747
Probable space group: C C
;
_chemical_formula_sum "Si O2"
_cell_formula_units_Z 28
_cell_length_a 7.454085
_cell_length_b 21.185199
_cell_length_c 10.840236
_cell_angle_alpha 90.000000
_cell_angle_beta 43.291767
_cell_angle_gamma 90.000000
_cell_volume 1173.838897
_symmetry_space_group_name_H-M "C C"
_symmetry_group_IT_number 9
_symmetry_cell_setting 'monoclinic'
loop_
_space_group_symop_operation_xyz
x,y,z
x,-y,1/2+z
1/2+x,1/2+y,z
1/2+x,1/2-y,1/2+z
loop_
_atom_site_type_symbol
_atom_site_label
_atom_site_fract_x
_atom_site_fract_y
_atom_site_fract_z
Si Si1 0.920890 0.509581 0.338040
Si Si2 0.990741 0.409244 0.024907
Si Si3 0.526283 0.571176 0.387540
Si Si4 0.214176 0.620835 0.751484
Si Si5 0.718710 0.193048 0.227900
Si Si6 0.764848 0.675083 0.841378
Si Si7 0.557206 0.119485 0.094385
O O1 0.659618 0.510703 0.385787
O O2 0.860339 0.540325 0.500791
O O3 0.068670 0.445645 0.293227
O O4 0.092668 0.560908 0.173299
O O5 0.263313 0.437212 0.942440
O O6 0.077622 0.350010 0.899130
O O7 0.817343 0.381777 0.220604
O O8 0.459960 0.617041 0.537318
O O9 0.761614 0.604922 0.196305
O O10 0.242944 0.623153 0.883499
O O11 0.021227 0.675275 0.799457
O O12 0.575862 0.181767 0.168572
O O13 0.009956 0.168649 0.052242
O O14 0.733197 0.262531 0.275314
#
# Coordination Sequence:
#
# PCOD9136747 Si02
#       7
#     4   4   4   4   4   4   4
#     4   9  23  42  64 102 136 174 214 281 333 404
#     4  10  21  43  69  94 138 176 224 275 342 397
#     4   9  22  41  64  99 136 171 219 277 326 407
#     4  11  23  43  66 101 132 178 224 272 353 396
#     4  11  22  43  67  93 132 178 230 282 333 394
#     4  11  24  40  69  96 126 183 224 277 344 392
#     4   9  23  42  63  95 132 176 223 272 333 396
#
# _framework density 23.853359999999999
#
# number of rings (size 3 to 8) (size 9 to 14) (size 15 to 20)
#    0.857    1.143    1.429    0.857    6.000    3.429 
#    0.000    4.286    0.000    0.000    0.000    0.000 
#    0.000    0.000    0.000    0.000    0.000    0.000 
#
# Total GULP energy -78178.043156 kJ/mol
# GULP energy per Si atom -5584.145940 kJ/mol
# Density = 2.379907 g / cm^3
# Si number density = 23.853360 Si / 1000 Ang^3
#
#
#
# Elastic Constant Matrix: (Units=GPa)
#
#
# Indices 1 2 3 4 5 6 
#
# 1 82.0338 20.6502 -20.0511 0.0000 12.3539 0.0000
# 2 20.6502 77.3251 -5.8531 0.0000 10.4282 0.0000
# 3 -20.0511 -5.8531 76.4142 0.0000 16.5800 0.0000
# 4 0.0000 0.0000 0.0000 25.9806 0.0000 3.8876
# 5 12.3539 10.4282 16.5800 0.0000 46.6924 0.0000
# 6 0.0000 0.0000 0.0000 3.8876 0.0000 23.1351
#
#
#
# Elastic Compliance Matrix: (Units=1/GPa)
#
#
# Indices 1 2 3 4 5 6 
#
# 1 0.014834 -0.002935 0.004742 0.000000 -0.004953 0.000000
# 2 -0.002935 0.014149 0.000900 0.000000 -0.002703 0.000000
# 3 0.004742 0.000900 0.015944 0.000000 -0.007117 0.000000
# 4 0.000000 0.000000 0.000000 0.039483 0.000000 -0.006635
# 5 -0.004953 -0.002703 -0.007117 0.000000 0.025858 0.000000
# 6 0.000000 0.000000 0.000000 -0.006635 0.000000 0.044339
#
#
# Mechanical properties :
#
#
# Convention : Reuss Voigt Hill
#
# Bulk Modulus (GPa) = 19.86363 25.02947 22.44655
# Shear Modulus (GPa) = 30.12546 35.23008 32.67777
#
# Velocity S-wave (km/s) = 3.55765 3.84727 3.70529
# Velocity P-wave (km/s) = 5.02208 5.50011 5.26652
#
# Compressibility (1/GPa) = 0.05034326
#
# Stress axis : x y z
#
# Youngs Moduli (GPa) = 67.41303 70.67742 62.71857
#
# Poissons Ratio (x) = 0.20740 -0.29744
# Poissons Ratio (y) = 0.19782 -0.05646
# Poissons Ratio (z) = -0.31970 -0.06363
#
# Static dielectric constant tensor:
#      x y z
#    x 1.944840 0.000000 -0.016560 
#    y 0.000000 1.903710 0.000000 
#    z -0.016560 0.000000 1.929250 
# 
# From -- ./inp_files/15583.got.cif
#   From: 2010.05.17/outbox.cif.g08.bks.cpg/sg9_8_cif.got.tgz:15583.got - 2010.06.03 20:04:27.
