data_PCOD9136743
_publ_section_title
;
Structure prediction by ZEFSAII (Michael W. Deem and Ramdas Pophale) SiO2 
 PCOD9136743
Probable space group: C C
;
_chemical_formula_sum "Si O2"
_cell_formula_units_Z 20
_cell_length_a 19.752678
_cell_length_b 5.398085
_cell_length_c 8.868062
_cell_angle_alpha 90.000000
_cell_angle_beta 126.667905
_cell_angle_gamma 90.000000
_cell_volume 758.452713
_symmetry_space_group_name_H-M "C C"
_symmetry_group_IT_number 9
_symmetry_cell_setting 'monoclinic'
loop_
_space_group_symop_operation_xyz
x,y,z
x,-y,1/2+z
1/2+x,1/2+y,z
1/2+x,1/2-y,1/2+z
loop_
_atom_site_type_symbol
_atom_site_label
_atom_site_fract_x
_atom_site_fract_y
_atom_site_fract_z
Si Si1 0.905540 0.798527 0.494230
Si Si2 0.022962 0.932253 0.924805
Si Si3 0.275853 0.521879 0.137538
Si Si4 0.627416 0.267463 0.320135
Si Si5 0.298664 0.962299 0.500269
O O1 0.823651 0.983195 0.360557
O O2 0.864220 0.529532 0.458540
O O3 0.976363 0.864873 0.467073
O O4 0.954591 0.827432 0.718257
O O5 0.090050 0.063867 0.903485
O O6 0.058914 0.736981 0.096518
O O7 0.290650 0.789341 0.089738
O O8 0.320407 0.276815 0.125617
O O9 0.177608 0.453924 0.972158
O O10 0.702350 0.405823 0.327088
#
# Coordination Sequence:
#
# PCOD9136743 Si02
#       5
#     4   4   4   4   4
#     4  11  21  43  73 108 149 186 247 299 374 427
#     4  10  21  43  69 109 153 184 237 312 376 421
#     4  10  23  43  76 100 140 190 250 287 353 441
#     4   9  22  42  72 102 146 194 240 299 366 438
#     4  10  23  43  76 101 140 190 246 291 353 441
#
# _framework density 26.369471999999998
#
# number of rings (size 3 to 8) (size 9 to 14) (size 15 to 20)
#    1.200    0.800    2.000    1.200    0.000    3.200 
#    0.000    8.000    0.000    0.000    0.000    0.000 
#    0.000    0.000    0.000    0.000    0.000    0.000 
#
# Total GULP energy -55758.550615 kJ/mol
# GULP energy per Si atom -5575.855062 kJ/mol
# Density = 2.630945 g / cm^3
# Si number density = 26.369472 Si / 1000 Ang^3
#
#
#
# Elastic Constant Matrix: (Units=GPa)
#
#
# Indices 1 2 3 4 5 6 
#
# 1 117.1850 8.2860 25.7241 0.0000 3.2153 0.0000
# 2 8.2860 97.5888 36.4220 0.0000 0.5718 0.0000
# 3 25.7241 36.4220 197.4872 0.0000 6.9306 0.0000
# 4 0.0000 0.0000 0.0000 34.1946 0.0000 -4.7335
# 5 3.2153 0.5718 6.9306 0.0000 37.9528 0.0000
# 6 0.0000 0.0000 0.0000 -4.7335 0.0000 40.6521
#
#
#
# Elastic Compliance Matrix: (Units=1/GPa)
#
#
# Indices 1 2 3 4 5 6 
#
# 1 0.008807 -0.000347 -0.001064 0.000000 -0.000547 0.000000
# 2 -0.000347 0.011020 -0.001995 0.000000 0.000228 0.000000
# 3 -0.001064 -0.001995 0.005602 0.000000 -0.000903 0.000000
# 4 0.000000 0.000000 0.000000 0.029724 0.000000 0.003461
# 5 -0.000547 0.000228 -0.000903 0.000000 0.026556 0.000000
# 6 0.000000 0.000000 0.000000 0.003461 0.000000 0.025002
#
#
# Mechanical properties :
#
#
# Convention : Reuss Voigt Hill
#
# Bulk Modulus (GPa) = 53.71892 61.45838 57.58865
# Shear Modulus (GPa) = 41.76132 45.34849 43.55491
#
# Velocity S-wave (km/s) = 3.98389 4.15147 4.06854
# Velocity P-wave (km/s) = 6.44808 6.80711 6.63003
#
# Compressibility (1/GPa) = 0.01861541
#
# Stress axis : x y z
#
# Youngs Moduli (GPa) = 113.55092 90.74533 178.51327
#
# Poissons Ratio (x) = 0.03153 0.18991
# Poissons Ratio (y) = 0.03946 0.35615
# Poissons Ratio (z) = 0.12080 0.18105
#
# Static dielectric constant tensor:
#      x y z
#    x 2.085640 0.000000 -0.005760 
#    y 0.000000 2.059740 0.000000 
#    z -0.005760 0.000000 2.300680 
# 
# From -- ./inp_files/10253.got.cif
#   From: 2010.05.17/outbox.cif.g08.bks.cpg/sg9_6_cif.got.tgz:10253.got - 2010.06.03 20:04:27.
