data_PCOD9136856
_publ_section_title
;
Structure prediction by ZEFSAII (Michael W. Deem and Ramdas Pophale) SiO2 
 PCOD9136856
Probable space group: C C
;
_chemical_formula_sum "Si O2"
_cell_formula_units_Z 28
_cell_length_a 11.481462
_cell_length_b 8.462515
_cell_length_c 20.894757
_cell_angle_alpha 90.000000
_cell_angle_beta 34.998267
_cell_angle_gamma 90.000000
_cell_volume 1164.411564
_symmetry_space_group_name_H-M "C C"
_symmetry_group_IT_number 9
_symmetry_cell_setting 'monoclinic'
loop_
_space_group_symop_operation_xyz
x,y,z
x,-y,1/2+z
1/2+x,1/2+y,z
1/2+x,1/2-y,1/2+z
loop_
_atom_site_type_symbol
_atom_site_label
_atom_site_fract_x
_atom_site_fract_y
_atom_site_fract_z
Si Si1 0.379790 0.894863 0.318650
Si Si2 0.476309 0.613951 0.831566
Si Si3 0.307703 0.306167 0.972535
Si Si4 0.613835 0.700072 0.446110
Si Si5 0.320461 0.524124 0.656176
Si Si6 0.908435 0.336110 0.087123
Si Si7 0.643247 0.868094 0.853750
O O1 0.330556 0.839431 0.413331
O O2 0.617092 0.927263 0.210566
O O3 0.314534 0.748689 0.304599
O O4 0.245517 0.048296 0.363903
O O5 0.429060 0.454501 0.889368
O O6 0.278654 0.663593 0.880677
O O7 0.687010 0.594894 0.699253
O O8 0.514679 0.761549 0.861787
O O9 0.426735 0.266107 0.983175
O O10 0.072446 0.359342 0.070562
O O11 0.500935 0.646439 0.562358
O O12 0.380979 0.354264 0.599002
O O13 0.253003 0.497021 0.759879
O O14 0.002890 0.397278 0.978469
#
# Coordination Sequence:
#
# PCOD9136856 Si02
#       7
#     4   4   4   4   4   4   4
#     4  11  23  44  71 103 140 189 240 288 367 422
#     4  11  24  45  70 107 140 187 240 297 364 424
#     4  11  25  44  70 108 142 181 244 294 358 436
#     4  12  24  45  73 105 141 189 243 286 362 436
#     4  11  23  42  74 108 139 194 237 298 361 432
#     4  10  22  44  71  98 146 191 229 306 361 410
#     4  10  21  44  71 103 140 185 239 291 359 426
#
# _framework density 24.046479000000001
#
# number of rings (size 3 to 8) (size 9 to 14) (size 15 to 20)
#    0.000    1.143    7.143    0.000    4.000    3.429 
#   10.286    0.000    0.000    0.000    0.000    0.000 
#    0.000    0.000    0.000    0.000    0.000    0.000 
#
# Total GULP energy -78327.909359 kJ/mol
# GULP energy per Si atom -5594.850669 kJ/mol
# Density = 2.399175 g / cm^3
# Si number density = 24.046479 Si / 1000 Ang^3
#
#
#
# Elastic Constant Matrix: (Units=GPa)
#
#
# Indices 1 2 3 4 5 6 
#
# 1 141.2713 24.9608 71.5021 0.0000 -6.9498 0.0000
# 2 24.9608 47.3243 35.4186 0.0000 -7.1878 0.0000
# 3 71.5021 35.4186 184.7349 0.0000 -19.9541 0.0000
# 4 0.0000 0.0000 0.0000 24.8494 0.0000 -5.1212
# 5 -6.9498 -7.1878 -19.9541 0.0000 34.1108 0.0000
# 6 0.0000 0.0000 0.0000 -5.1212 0.0000 31.9788
#
#
#
# Elastic Compliance Matrix: (Units=1/GPa)
#
#
# Indices 1 2 3 4 5 6 
#
# 1 0.009060 -0.002555 -0.003069 0.000000 -0.000488 0.000000
# 2 -0.002555 0.025609 -0.003623 0.000000 0.002756 0.000000
# 3 -0.003069 -0.003623 0.007628 0.000000 0.003073 0.000000
# 4 0.000000 0.000000 0.000000 0.041616 0.000000 0.006665
# 5 -0.000488 0.002756 0.003073 0.000000 0.031595 0.000000
# 6 0.000000 0.000000 0.000000 0.006665 0.000000 0.032338
#
#
# Mechanical properties :
#
#
# Convention : Reuss Voigt Hill
#
# Bulk Modulus (GPa) = 42.01587 70.78819 56.40203
# Shear Modulus (GPa) = 28.69034 34.28439 31.48736
#
# Velocity S-wave (km/s) = 3.45790 3.78001 3.62254
# Velocity P-wave (km/s) = 5.78390 6.96802 6.40339
#
# Compressibility (1/GPa) = 0.02380053
#
# Stress axis : x y z
#
# Youngs Moduli (GPa) = 110.38082 39.04898 131.10012
#
# Poissons Ratio (x) = 0.09978 0.40239
# Poissons Ratio (y) = 0.28206 0.47499
# Poissons Ratio (z) = 0.33879 0.14148
#
# Static dielectric constant tensor:
#      x y z
#    x 1.963200 0.000000 0.011430 
#    y 0.000000 1.920860 0.000000 
#    z 0.011430 0.000000 1.916960 
# 
# From -- ./inp_files/35293.got.cif
#   From: 2010.05.17/outbox.cif.g08.bks.cpg/sg9_18_cif.got.tgz:35293.got - 2010.06.03 20:04:27.
