data_PCOD9136174
_publ_section_title
;
Structure prediction by ZEFSAII (Michael W. Deem and Ramdas Pophale) SiO2 
 PCOD9136174
Probable space group: C C
;
_chemical_formula_sum "Si O2"
_cell_formula_units_Z 28
_cell_length_a 5.432843
_cell_length_b 22.568357
_cell_length_c 9.179156
_cell_angle_alpha 90.000000
_cell_angle_beta 84.419699
_cell_angle_gamma 90.000000
_cell_volume 1120.125767
_symmetry_space_group_name_H-M "C C"
_symmetry_group_IT_number 9
_symmetry_cell_setting 'monoclinic'
loop_
_space_group_symop_operation_xyz
x,y,z
x,-y,1/2+z
1/2+x,1/2+y,z
1/2+x,1/2-y,1/2+z
loop_
_atom_site_type_symbol
_atom_site_label
_atom_site_fract_x
_atom_site_fract_y
_atom_site_fract_z
Si Si1 0.803770 0.865377 0.463540
Si Si2 0.880921 0.283036 0.587940
Si Si3 0.967260 0.471656 0.403969
Si Si4 0.159065 0.781401 0.317488
Si Si5 0.342161 0.434817 0.943027
Si Si6 0.974791 0.831307 0.763311
Si Si7 0.135849 0.002797 0.672401
O O1 0.583684 0.815574 0.473056
O O2 0.688580 0.926342 0.418272
O O3 0.857198 0.864770 0.632216
O O4 0.047688 0.846961 0.359038
O O5 0.662589 0.263741 0.490724
O O6 0.764982 0.329130 0.711483
O O7 0.995466 0.234638 0.686049
O O8 0.072941 0.537950 0.425990
O O9 0.765302 0.462540 0.541743
O O10 0.850941 0.465119 0.252031
O O11 0.387423 0.737003 0.267886
O O12 0.384857 0.365737 0.910632
O O13 0.505054 0.465470 0.806025
O O14 0.448279 0.456705 0.091077
#
# Coordination Sequence:
#
# PCOD9136174 Si02
#       7
#     4   4   4   4   4   4   4
#     4  10  21  39  66  89 123 171 213 265 323 384
#     4  10  21  42  62  90 118 168 216 271 314 388
#     4  11  22  42  64  96 136 172 215 270 328 402
#     4  10  22  40  62  90 120 162 218 266 324 378
#     4  11  22  42  64  96 136 172 215 270 328 402
#     4  10  21  39  66  89 123 171 213 265 323 384
#     4  10  23  38  64  96 136 170 222 267 324 406
#
# _framework density 24.997195999999999
#
# number of rings (size 3 to 8) (size 9 to 14) (size 15 to 20)
#    0.000    1.714    0.000    4.286    0.000    6.857 
#   10.286    0.000    3.143    0.000    0.000    0.000 
#    0.000    0.000    0.000    0.000    0.000    0.000 
#
# Total GULP energy -77971.055045 kJ/mol
# GULP energy per Si atom -5569.361075 kJ/mol
# Density = 2.494030 g / cm^3
# Si number density = 24.997196 Si / 1000 Ang^3
#
#
#
# Elastic Constant Matrix: (Units=GPa)
#
#
# Indices 1 2 3 4 5 6 
#
# 1 54.2596 17.6800 22.6364 0.0000 2.1168 0.0000
# 2 17.6800 49.7420 29.1155 0.0000 -4.5393 0.0000
# 3 22.6364 29.1155 108.5805 0.0000 10.5014 0.0000
# 4 0.0000 0.0000 0.0000 44.8766 0.0000 -2.6105
# 5 2.1168 -4.5393 10.5014 0.0000 41.4462 0.0000
# 6 0.0000 0.0000 0.0000 -2.6105 0.0000 32.1598
#
#
#
# Elastic Compliance Matrix: (Units=1/GPa)
#
#
# Indices 1 2 3 4 5 6 
#
# 1 0.021632 -0.006179 -0.002748 0.000000 -0.001085 0.000000
# 2 -0.006179 0.026398 -0.006254 0.000000 0.004791 0.000000
# 3 -0.002748 -0.006254 0.011801 0.000000 -0.003535 0.000000
# 4 0.000000 0.000000 0.000000 0.022389 0.000000 0.001817
# 5 -0.001085 0.004791 -0.003535 0.000000 0.025603 0.000000
# 6 0.000000 0.000000 0.000000 0.001817 0.000000 0.031242
#
#
# Mechanical properties :
#
#
# Convention : Reuss Voigt Hill
#
# Bulk Modulus (GPa) = 33.93336 39.04955 36.49146
# Shear Modulus (GPa) = 27.89387 33.23987 30.56687
#
# Velocity S-wave (km/s) = 3.34410 3.65052 3.50067
# Velocity P-wave (km/s) = 5.33995 5.78134 5.56502
#
# Compressibility (1/GPa) = 0.02946953
#
# Stress axis : x y z
#
# Youngs Moduli (GPa) = 46.22757 37.88201 84.73608
#
# Poissons Ratio (x) = 0.23409 0.23284
# Poissons Ratio (y) = 0.28566 0.52991
# Poissons Ratio (z) = 0.12702 0.23690
#
# Static dielectric constant tensor:
#      x y z
#    x 2.120850 0.000000 -0.019890 
#    y 0.000000 2.049920 0.000000 
#    z -0.019890 0.000000 1.941000 
# 
# From -- ./inp_files/3981.got.cif
#   From: 2010.05.17/outbox.cif.g08.bks.cpg/sg9_2_cif.got.tgz:3981.got - 2010.06.03 20:04:27.
