data_PCOD9136483
_publ_section_title
;
Structure prediction by ZEFSAII (Michael W. Deem and Ramdas Pophale) SiO2 
 PCOD9136483
Probable space group: C C
;
_chemical_formula_sum "Si O2"
_cell_formula_units_Z 32
_cell_length_a 13.762028
_cell_length_b 18.324632
_cell_length_c 10.535213
_cell_angle_alpha 90.000000
_cell_angle_beta 146.700872
_cell_angle_gamma 90.000000
_cell_volume 1458.617271
_symmetry_space_group_name_H-M "C C"
_symmetry_group_IT_number 9
_symmetry_cell_setting 'monoclinic'
loop_
_space_group_symop_operation_xyz
x,y,z
x,-y,1/2+z
1/2+x,1/2+y,z
1/2+x,1/2-y,1/2+z
loop_
_atom_site_type_symbol
_atom_site_label
_atom_site_fract_x
_atom_site_fract_y
_atom_site_fract_z
Si Si1 0.588060 0.836199 0.080310
Si Si2 0.664489 0.845692 0.713608
Si Si3 0.560783 0.302594 0.090336
Si Si4 0.851271 0.749157 0.499196
Si Si5 0.357482 0.843762 0.586570
Si Si6 0.038400 0.500326 0.503852
Si Si7 0.604211 0.360098 0.878865
Si Si8 0.804537 0.504584 0.500753
O O1 0.754052 0.782126 0.267812
O O2 0.494268 0.809865 0.107225
O O3 0.635753 0.921471 0.118654
O O4 0.440281 0.825191 0.811225
O O5 0.566683 0.778412 0.533257
O O6 0.534380 0.849616 0.693713
O O7 0.651511 0.928153 0.649956
O O8 0.871943 0.825920 0.937559
O O9 0.708327 0.293911 0.360651
O O10 0.621840 0.359680 0.049831
O O11 0.732680 0.700468 0.460294
O O12 0.917584 0.822592 0.641403
O O13 0.254499 0.920860 0.470774
O O14 0.889322 0.508572 0.452711
O O15 0.952260 0.486827 0.272177
O O16 0.654640 0.435968 0.867703
#
# Coordination Sequence:
#
# PCOD9136483 Si02
#       8
#     4   4   4   4   4   4   4   4
#     4  10  22  43  63  94 126 178 222 264 334 398
#     4  11  24  40  63 100 133 174 218 277 340 393
#     4  12  24  40  67 103 131 173 224 280 336 396
#     4  10  23  37  64  93 128 172 220 274 320 394
#     4  10  24  44  66  96 130 176 217 274 336 400
#     4  10  22  41  65  92 133 179 217 270 340 401
#     4  11  22  40  63  99 131 170 223 274 331 397
#     4  10  21  41  67  91 132 178 219 271 339 395
#
# _framework density 21.938586000000001
#
# number of rings (size 3 to 8) (size 9 to 14) (size 15 to 20)
#    0.000    1.500    2.500    2.250    3.500    2.000 
#    2.250    2.500    0.000    0.000    0.000    0.000 
#    0.000    0.000    0.000    0.000    0.000    0.000 
#
# Total GULP energy -89116.450570 kJ/mol
# GULP energy per Si atom -5569.778161 kJ/mol
# Density = 2.188865 g / cm^3
# Si number density = 21.938586 Si / 1000 Ang^3
#
#
#
# Elastic Constant Matrix: (Units=GPa)
#
#
# Indices 1 2 3 4 5 6 
#
# 1 45.4669 28.1828 7.2151 0.0000 0.0416 0.0000
# 2 28.1828 122.4275 46.0017 0.0000 15.3970 0.0000
# 3 7.2151 46.0017 51.4457 0.0000 -1.6590 0.0000
# 4 0.0000 0.0000 0.0000 33.3840 0.0000 -0.8310
# 5 0.0416 15.3970 -1.6590 0.0000 24.0438 0.0000
# 6 0.0000 0.0000 0.0000 -0.8310 0.0000 20.4309
#
#
#
# Elastic Compliance Matrix: (Units=1/GPa)
#
#
# Indices 1 2 3 4 5 6 
#
# 1 0.026477 -0.008215 0.003809 0.000000 0.005478 0.000000
# 2 -0.008215 0.016955 -0.014390 0.000000 -0.011836 0.000000
# 3 0.003809 -0.014390 0.032140 0.000000 0.011426 0.000000
# 4 0.000000 0.000000 0.000000 0.029985 0.000000 0.001220
# 5 0.005478 -0.011836 0.011426 0.000000 0.049949 0.000000
# 6 0.000000 0.000000 0.000000 0.001220 0.000000 0.048995
#
#
# Mechanical properties :
#
#
# Convention : Reuss Voigt Hill
#
# Bulk Modulus (GPa) = 26.33044 42.45994 34.39519
# Shear Modulus (GPa) = 19.62687 24.76775 22.19731
#
# Velocity S-wave (km/s) = 2.99428 3.36364 3.18432
# Velocity P-wave (km/s) = 4.89716 5.87209 5.40665
#
# Compressibility (1/GPa) = 0.03797885
#
# Stress axis : x y z
#
# Youngs Moduli (GPa) = 37.76897 58.98002 31.11421
#
# Poissons Ratio (x) = 0.48453 -0.11852
# Poissons Ratio (y) = 0.31028 0.44774
# Poissons Ratio (z) = -0.14387 0.84874
#
# Static dielectric constant tensor:
#      x y z
#    x 1.852440 0.000000 -0.002810 
#    y 0.000000 1.883730 0.000000 
#    z -0.002810 0.000000 1.911240 
# 
# From -- ./inp_files/18585.got.cif
#   From: 2010.05.17/outbox.cif.g08.bks.cpg/sg9_10_cif.got.tgz:18585.got - 2010.06.03 20:04:27.
