data_PCOD9136361
_publ_section_title
;
Structure prediction by ZEFSAII (Michael W. Deem and Ramdas Pophale) SiO2 
 PCOD9136361
Probable space group: C C
;
_chemical_formula_sum "Si O2"
_cell_formula_units_Z 32
_cell_length_a 10.039675
_cell_length_b 11.067896
_cell_length_c 21.390364
_cell_angle_alpha 90.000000
_cell_angle_beta 34.261305
_cell_angle_gamma 90.000000
_cell_volume 1338.093980
_symmetry_space_group_name_H-M "C C"
_symmetry_group_IT_number 9
_symmetry_cell_setting 'monoclinic'
loop_
_space_group_symop_operation_xyz
x,y,z
x,-y,1/2+z
1/2+x,1/2+y,z
1/2+x,1/2-y,1/2+z
loop_
_atom_site_type_symbol
_atom_site_label
_atom_site_fract_x
_atom_site_fract_y
_atom_site_fract_z
Si Si1 0.016120 0.168444 0.890160
Si Si2 0.675630 0.064747 0.314051
Si Si3 0.916512 0.055527 0.494484
Si Si4 0.180809 0.367315 0.416945
Si Si5 0.912552 0.475270 0.163669
Si Si6 0.168717 0.858911 0.652597
Si Si7 0.844884 0.694253 0.263803
Si Si8 0.220551 0.369869 0.200822
O O1 0.036265 0.312426 0.882291
O O2 0.771767 0.127989 0.951508
O O3 0.230641 0.115659 0.765944
O O4 0.006306 0.083962 0.954877
O O5 0.953623 0.092917 0.195467
O O6 0.677617 0.986661 0.376817
O O7 0.598421 0.980452 0.285489
O O8 0.887618 0.086552 0.579341
O O9 0.102119 0.129020 0.379507
O O10 0.665325 0.085662 0.558203
O O11 0.377293 0.277857 0.310920
O O12 0.907926 0.326544 0.523018
O O13 0.769161 0.542345 0.163697
O O14 0.986425 0.580347 0.184937
O O15 0.073653 0.739422 0.725465
O O16 0.841915 0.791536 0.208940
#
# Coordination Sequence:
#
# PCOD9136361 Si02
#       8
#     4   4   4   4   4   4   4   4
#     4  11  24  42  67 100 138 184 231 287 350 418
#     4  11  26  46  65 106 139 177 237 290 344 415
#     4  11  21  43  70 104 136 186 235 285 366 419
#     4  11  22  44  66  95 137 179 230 287 345 414
#     4  10  21  40  68  97 135 181 225 288 352 411
#     4  11  21  44  71  93 136 185 226 285 356 409
#     4   9  22  40  69  96 134 184 232 290 347 417
#     4  10  23  43  70  99 139 180 234 292 344 423
#
# _framework density 23.914612000000002
#
# number of rings (size 3 to 8) (size 9 to 14) (size 15 to 20)
#    0.000    1.500    3.750    0.750    1.750    1.000 
#    4.500    3.750    0.000    0.000    0.000    0.000 
#    0.000    0.000    0.000    0.000    0.000    0.000 
#
# Total GULP energy -89155.211987 kJ/mol
# GULP energy per Si atom -5572.200749 kJ/mol
# Density = 2.386018 g / cm^3
# Si number density = 23.914612 Si / 1000 Ang^3
#
#
#
# Elastic Constant Matrix: (Units=GPa)
#
#
# Indices 1 2 3 4 5 6 
#
# 1 62.9230 23.7287 21.7216 -0.0001 4.9224 0.0003
# 2 23.7287 131.4179 32.8267 -0.0005 10.8097 0.0003
# 3 21.7216 32.8267 84.6852 0.0010 -0.1127 -0.0011
# 4 -0.0001 -0.0005 0.0010 29.9154 -0.0001 9.2684
# 5 4.9224 10.8097 -0.1127 -0.0001 23.8784 0.0002
# 6 0.0003 0.0003 -0.0011 9.2684 0.0002 21.3941
#
#
#
# Elastic Compliance Matrix: (Units=1/GPa)
#
#
# Indices 1 2 3 4 5 6 
#
# 1 0.018240 -0.002094 -0.003871 0.000000 -0.002830 -0.000001
# 2 -0.002094 0.009031 -0.002968 0.000000 -0.003671 0.000000
# 3 -0.003871 -0.002968 0.013955 -0.000001 0.002208 0.000001
# 4 0.000000 0.000000 -0.000001 0.038610 0.000000 -0.016727
# 5 -0.002830 -0.003671 0.002208 0.000000 0.044134 0.000000
# 6 -0.000001 0.000000 0.000001 -0.016727 0.000000 0.053988
#
#
# Mechanical properties :
#
#
# Convention : Reuss Voigt Hill
#
# Bulk Modulus (GPa) = 42.80882 48.39780 45.60331
# Shear Modulus (GPa) = 24.55679 28.42087 26.48883
#
# Velocity S-wave (km/s) = 3.20793 3.45110 3.33174
# Velocity P-wave (km/s) = 5.62678 6.01347 5.82334
#
# Compressibility (1/GPa) = 0.02335967
#
# Stress axis : x y z
#
# Youngs Moduli (GPa) = 54.82587 110.73269 71.65962
#
# Poissons Ratio (x) = 0.23184 0.27737
# Poissons Ratio (y) = 0.11479 0.21272
# Poissons Ratio (z) = 0.21221 0.32871
#
# Static dielectric constant tensor:
#      x y z
#    x 1.931250 0.000000 0.031490 
#    y 0.000000 2.045330 0.000000 
#    z 0.031490 0.000000 1.918900 
# 
# From -- ./inp_files/20903.got.cif
#   From: 2010.05.17/outbox.cif.g08.bks.cpg/sg9_11_cif.got.tgz:20903.got - 2010.06.03 20:04:27.
