data_PCOD9136840
_publ_section_title
;
Structure prediction by ZEFSAII (Michael W. Deem and Ramdas Pophale) SiO2 
 PCOD9136840
Probable space group: C C
;
_chemical_formula_sum "Si O2"
_cell_formula_units_Z 32
_cell_length_a 23.518957
_cell_length_b 14.198405
_cell_length_c 9.464819
_cell_angle_alpha 90.000000
_cell_angle_beta 155.052610
_cell_angle_gamma 90.000000
_cell_volume 1333.097716
_symmetry_space_group_name_H-M "C C"
_symmetry_group_IT_number 9
_symmetry_cell_setting 'monoclinic'
loop_
_space_group_symop_operation_xyz
x,y,z
x,-y,1/2+z
1/2+x,1/2+y,z
1/2+x,1/2-y,1/2+z
loop_
_atom_site_type_symbol
_atom_site_label
_atom_site_fract_x
_atom_site_fract_y
_atom_site_fract_z
Si Si1 0.291170 0.693012 0.220980
Si Si2 0.543224 0.009637 0.000507
Si Si3 0.011685 0.682210 0.736939
Si Si4 0.912377 0.309752 0.735130
Si Si5 0.196051 0.587742 0.611637
Si Si6 0.553421 0.433962 0.250151
Si Si7 0.167075 0.221691 0.184373
Si Si8 0.013186 0.107735 0.332732
O O1 0.317763 0.770091 0.401793
O O2 0.408207 0.614274 0.469947
O O3 0.145424 0.654170 0.944734
O O4 0.284739 0.747071 0.056001
O O5 0.602022 0.045631 0.279587
O O6 0.668618 0.969224 0.193274
O O7 0.486397 0.098433 0.787728
O O8 0.445783 0.919492 0.786470
O O9 0.889544 0.696519 0.350697
O O10 0.036726 0.781480 0.867845
O O11 0.037358 0.236867 0.992480
O O12 0.150932 0.694600 0.535862
O O13 0.354450 0.590364 0.948822
O O14 0.659281 0.373268 0.580804
O O15 0.574207 0.540291 0.350044
O O16 0.556883 0.423808 0.088698
#
# Coordination Sequence:
#
# PCOD9136840 Si02
#       8
#     4   4   4   4   4   4   4   4
#     4  10  21  44  69  93 130 179 212 273 335 388
#     4  11  21  40  66  95 130 163 215 275 323 392
#     4  11  24  41  63 100 135 169 226 269 329 396
#     4   9  21  39  66  95 126 170 213 270 331 384
#     4  11  21  38  65  98 124 166 215 270 327 381
#     4  11  24  43  67  98 133 176 221 272 331 397
#     4   9  20  40  66  90 129 170 218 265 325 387
#     4  12  26  39  66 101 133 175 222 274 327 393
#
# _framework density 24.004242999999999
#
# number of rings (size 3 to 8) (size 9 to 14) (size 15 to 20)
#    0.000    1.500    2.500    2.250    8.750    0.000 
#    0.000    2.500    0.000    0.000    0.000    0.000 
#    0.000    0.000    0.000    0.000    0.000    0.000 
#
# Total GULP energy -89384.999518 kJ/mol
# GULP energy per Si atom -5586.562470 kJ/mol
# Density = 2.394961 g / cm^3
# Si number density = 24.004243 Si / 1000 Ang^3
#
#
#
# Elastic Constant Matrix: (Units=GPa)
#
#
# Indices 1 2 3 4 5 6 
#
# 1 58.7472 23.6126 18.2390 0.0000 -24.4587 0.0000
# 2 23.6126 123.4523 14.1044 0.0000 -27.9079 0.0000
# 3 18.2390 14.1044 58.7328 0.0000 -18.9861 0.0000
# 4 0.0000 0.0000 0.0000 21.1415 0.0000 -13.4307
# 5 -24.4587 -27.9079 -18.9861 0.0000 38.4638 0.0000
# 6 0.0000 0.0000 0.0000 -13.4307 0.0000 26.5420
#
#
#
# Elastic Compliance Matrix: (Units=1/GPa)
#
#
# Indices 1 2 3 4 5 6 
#
# 1 0.023756 -0.001341 -0.002959 0.000000 0.012673 0.000000
# 2 -0.001341 0.009765 0.000102 0.000000 0.006283 0.000000
# 3 -0.002959 0.000102 0.020628 0.000000 0.008375 0.000000
# 4 0.000000 0.000000 0.000000 0.069709 0.000000 0.035274
# 5 0.012673 0.006283 0.008375 0.000000 0.042750 0.000000
# 6 0.000000 0.000000 0.000000 0.035274 0.000000 0.055525
#
#
# Mechanical properties :
#
#
# Convention : Reuss Voigt Hill
#
# Bulk Modulus (GPa) = 21.85555 39.20494 30.53024
# Shear Modulus (GPa) = 20.34350 29.56122 24.95236
#
# Velocity S-wave (km/s) = 2.91434 3.51308 3.22762
# Velocity P-wave (km/s) = 4.52207 5.72919 5.16104
#
# Compressibility (1/GPa) = 0.04575497
#
# Stress axis : x y z
#
# Youngs Moduli (GPa) = 42.09515 102.40131 48.47839
#
# Poissons Ratio (x) = 0.13731 0.14343
# Poissons Ratio (y) = 0.05645 -0.00497
# Poissons Ratio (z) = 0.12454 -0.01049
#
# Static dielectric constant tensor:
#      x y z
#    x 1.966610 0.000000 0.052030 
#    y 0.000000 1.917410 0.000000 
#    z 0.052030 0.000000 1.984620 
# 
# From -- ./inp_files/7582.got.cif
#   From: 2010.05.17/outbox.cif.g08.bks.cpg/sg9_4_cif.got.tgz:7582.got - 2010.06.03 20:04:27.
