data_PCOD9136273
_publ_section_title
;
Structure prediction by ZEFSAII (Michael W. Deem and Ramdas Pophale) SiO2 
 PCOD9136273
Probable space group: C C
;
_chemical_formula_sum "Si O2"
_cell_formula_units_Z 32
_cell_length_a 10.795518
_cell_length_b 9.174527
_cell_length_c 29.508081
_cell_angle_alpha 90.000000
_cell_angle_beta 154.284789
_cell_angle_gamma 90.000000
_cell_volume 1268.107507
_symmetry_space_group_name_H-M "C C"
_symmetry_group_IT_number 9
_symmetry_cell_setting 'monoclinic'
loop_
_space_group_symop_operation_xyz
x,y,z
x,-y,1/2+z
1/2+x,1/2+y,z
1/2+x,1/2-y,1/2+z
loop_
_atom_site_type_symbol
_atom_site_label
_atom_site_fract_x
_atom_site_fract_y
_atom_site_fract_z
Si Si1 0.377740 0.659469 0.328080
Si Si2 0.089512 0.831172 0.629374
Si Si3 0.984468 0.914953 0.040131
Si Si4 0.827025 0.272250 0.905071
Si Si5 0.314465 0.375326 0.675911
Si Si6 0.345465 0.651499 0.629183
Si Si7 0.192315 0.432933 0.858395
Si Si8 0.019438 0.450436 0.159132
O O1 0.676169 0.682294 0.402745
O O2 0.365719 0.661455 0.378225
O O3 0.255419 0.500883 0.273319
O O4 0.161788 0.777971 0.234592
O O5 0.204018 0.733330 0.625584
O O6 0.364373 0.919122 0.737224
O O7 0.002121 0.716555 0.638579
O O8 0.892134 0.956623 0.543503
O O9 0.154877 0.776798 0.114909
O O10 0.222558 0.987579 0.084937
O O11 0.738200 0.873519 0.924028
O O12 0.627101 0.349053 0.801413
O O13 0.784853 0.100349 0.885326
O O14 0.155436 0.314186 0.022261
O O15 0.344133 0.482165 0.642631
O O16 0.115654 0.459469 0.646916
#
# Coordination Sequence:
#
# PCOD9136273 Si02
#       8
#     4   4   4   4   4   4   4   4
#     4  10  22  40  67  99 131 176 227 265 341 405
#     4  10  21  40  63  94 129 165 217 274 320 392
#     4  12  22  42  65  95 129 172 216 274 333 395
#     4  11  21  40  71  92 132 184 214 278 346 387
#     4  10  24  39  66  97 133 167 228 276 328 401
#     4  10  21  42  64  95 139 166 224 286 319 400
#     4  11  22  39  67  92 135 171 217 276 334 399
#     4  10  21  42  67  88 130 173 207 275 329 383
#
# _framework density 25.234452999999998
#
# number of rings (size 3 to 8) (size 9 to 14) (size 15 to 20)
#    0.000    1.500    5.000    0.000    3.500    5.000 
#    0.000    0.000   13.750    0.000    0.000    0.000 
#    0.000    0.000    0.000    0.000    0.000    0.000 
#
# Total GULP energy -89546.360229 kJ/mol
# GULP energy per Si atom -5596.647514 kJ/mol
# Density = 2.517702 g / cm^3
# Si number density = 25.234453 Si / 1000 Ang^3
#
#
#
# Elastic Constant Matrix: (Units=GPa)
#
#
# Indices 1 2 3 4 5 6 
#
# 1 52.7976 32.8237 6.4875 0.0000 0.0679 0.0000
# 2 32.8237 150.6317 43.3229 0.0000 -19.3483 0.0000
# 3 6.4875 43.3229 118.3614 0.0000 -24.9670 0.0000
# 4 0.0000 0.0000 0.0000 23.0109 0.0000 -9.3713
# 5 0.0679 -19.3483 -24.9670 0.0000 27.1404 0.0000
# 6 0.0000 0.0000 0.0000 -9.3713 0.0000 39.3880
#
#
#
# Elastic Compliance Matrix: (Units=1/GPa)
#
#
# Indices 1 2 3 4 5 6 
#
# 1 0.022272 -0.005331 -0.000103 0.000000 -0.003951 0.000000
# 2 -0.005331 0.008968 -0.002033 0.000000 0.004536 0.000000
# 3 -0.000103 -0.002033 0.011034 0.000000 0.008701 0.000000
# 4 0.000000 0.000000 0.000000 0.048120 0.000000 0.011449
# 5 -0.003951 0.004536 0.008701 0.000000 0.048093 0.000000
# 6 0.000000 0.000000 0.000000 0.011449 0.000000 0.028112
#
#
# Mechanical properties :
#
#
# Convention : Reuss Voigt Hill
#
# Bulk Modulus (GPa) = 36.57743 54.11765 45.34754
# Shear Modulus (GPa) = 26.22633 33.85162 30.03898
#
# Velocity S-wave (km/s) = 3.22732 3.66660 3.45395
# Velocity P-wave (km/s) = 5.33048 6.27836 5.82374
#
# Compressibility (1/GPa) = 0.02733926
#
# Stress axis : x y z
#
# Youngs Moduli (GPa) = 44.89880 111.50925 90.62898
#
# Poissons Ratio (x) = 0.59448 0.00932
# Poissons Ratio (y) = 0.23936 0.18429
# Poissons Ratio (z) = 0.00462 0.22675
#
# Static dielectric constant tensor:
#      x y z
#    x 2.013440 0.000000 -0.049070 
#    y 0.000000 1.983850 0.000000 
#    z -0.049070 0.000000 2.042590 
# 
# From -- ./inp_files/36689.got.cif
#   From: 2010.05.17/outbox.cif.g08.bks.cpg/sg9_19_cif.got.tgz:36689.got - 2010.06.03 20:04:27.
