data_PCOD9136257
_publ_section_title
;
Structure prediction by ZEFSAII (Michael W. Deem and Ramdas Pophale) SiO2 
 PCOD9136257
Probable space group: C C
;
_chemical_formula_sum "Si O2"
_cell_formula_units_Z 28
_cell_length_a 12.928983
_cell_length_b 5.439510
_cell_length_c 14.912704
_cell_angle_alpha 90.000000
_cell_angle_beta 115.804285
_cell_angle_gamma 90.000000
_cell_volume 944.193799
_symmetry_space_group_name_H-M "C C"
_symmetry_group_IT_number 9
_symmetry_cell_setting 'monoclinic'
loop_
_space_group_symop_operation_xyz
x,y,z
x,-y,1/2+z
1/2+x,1/2+y,z
1/2+x,1/2-y,1/2+z
loop_
_atom_site_type_symbol
_atom_site_label
_atom_site_fract_x
_atom_site_fract_y
_atom_site_fract_z
Si Si1 0.253320 0.506442 0.903920
Si Si2 0.248144 0.948680 0.214718
Si Si3 0.918165 0.953278 0.145260
Si Si4 0.485967 0.618422 0.974893
Si Si5 0.168084 0.438491 0.140842
Si Si6 0.985886 0.452182 0.269077
Si Si7 0.220777 0.997704 0.990425
O O1 0.115724 0.528942 0.847493
O O2 0.275182 0.757894 0.968879
O O3 0.262680 0.230611 0.948889
O O4 0.363923 0.556964 0.881714
O O5 0.182270 0.691730 0.202106
O O6 0.378562 0.952380 0.297887
O O7 0.186208 0.204156 0.213524
O O8 0.249686 0.975465 0.106707
O O9 0.962933 0.699430 0.203360
O O10 0.781149 0.953075 0.119645
O O11 0.964055 0.972640 0.060358
O O12 0.964797 0.198386 0.209537
O O13 0.554669 0.867010 0.038786
O O14 0.582759 0.510665 0.945346
#
# Coordination Sequence:
#
# PCOD9136257 Si02
#       7
#     4   4   4   4   4   4   4
#     4  12  25  42  64  92 137 170 203 265 324 386
#     4   9  17  36  60  84 116 155 209 254 294 358
#     4  10  21  41  66  90 123 166 217 266 307 370
#     4  11  23  41  69  97 127 165 217 268 315 377
#     4   9  19  34  59  92 116 152 207 257 308 357
#     4  10  21  40  62  90 127 170 206 256 327 374
#     4  11  24  42  64  95 124 170 219 258 317 378
#
# _framework density 29.654928000000002
#
# number of rings (size 3 to 8) (size 9 to 14) (size 15 to 20)
#    0.000    1.714    0.000    6.857    0.000    6.857 
#    0.000   11.429    0.000    0.000    0.000    0.000 
#    0.000    0.000    0.000    0.000    0.000    0.000 
#
# Total GULP energy -78174.535202 kJ/mol
# GULP energy per Si atom -5583.895372 kJ/mol
# Density = 2.958743 g / cm^3
# Si number density = 29.654928 Si / 1000 Ang^3
#
#
#
# Elastic Constant Matrix: (Units=GPa)
#
#
# Indices 1 2 3 4 5 6 
#
# 1 183.3779 54.9256 29.8769 0.0000 49.0431 0.0000
# 2 54.9256 258.5675 34.5181 0.0000 22.1459 0.0000
# 3 29.8769 34.5181 96.8836 0.0000 57.4158 0.0000
# 4 0.0000 0.0000 0.0000 41.5037 0.0000 -12.4338
# 5 49.0431 22.1459 57.4158 0.0000 67.4669 0.0000
# 6 0.0000 0.0000 0.0000 -12.4338 0.0000 2.1444
#
#
#
# Elastic Compliance Matrix: (Units=1/GPa)
#
#
# Indices 1 2 3 4 5 6 
#
# 1 0.007278 -0.001262 0.002210 0.000000 -0.006757 0.000000
# 2 -0.001262 0.004281 -0.001709 0.000000 0.000967 0.000000
# 3 0.002210 -0.001709 0.021927 0.000000 -0.019706 0.000000
# 4 0.000000 0.000000 0.000000 -0.032690 0.000000 -0.189542
# 5 -0.006757 0.000967 -0.019706 0.000000 0.036187 0.000000
# 6 0.000000 0.000000 0.000000 -0.189542 0.000000 -0.632687
#
#
# Mechanical properties :
#
#
# Convention : Reuss Voigt Hill
#
# Bulk Modulus (GPa) = 31.28576 86.38559 58.83567
# Shear Modulus (GPa) = -8.56861 50.19022 20.81081
#
# Velocity S-wave (km/s) = -1.70168 4.11843 2.65196
# Velocity P-wave (km/s) = 2.59073 7.19783 5.40928
#
# Compressibility (1/GPa) = 0.03196342
#
# Stress axis : x y z
#
# Youngs Moduli (GPa) = 137.39294 233.59329 45.60504
#
# Poissons Ratio (x) = 0.29488 -0.10077
# Poissons Ratio (y) = 0.17344 0.07793
# Poissons Ratio (z) = -0.30357 0.39917
#
# Static dielectric constant tensor:
#      x y z
#    x 2.258200 0.000000 0.010920 
#    y 0.000000 2.360380 0.000000 
#    z 0.010920 0.000000 2.691630 
# 
# From -- ./inp_files/35500.got.cif
#   From: 2010.05.17/outbox.cif.g08.bks.cpg/sg9_18_cif.got.tgz:35500.got - 2010.06.03 20:04:27.
