data_PCOD9136124
_publ_section_title
;
Structure prediction by ZEFSAII (Michael W. Deem and Ramdas Pophale) SiO2 
 PCOD9136124
Probable space group: C C
;
_chemical_formula_sum "Si O2"
_cell_formula_units_Z 32
_cell_length_a 9.942912
_cell_length_b 10.665374
_cell_length_c 21.015215
_cell_angle_alpha 90.000000
_cell_angle_beta 139.123777
_cell_angle_gamma 90.000000
_cell_volume 1458.427316
_symmetry_space_group_name_H-M "C C"
_symmetry_group_IT_number 9
_symmetry_cell_setting 'monoclinic'
loop_
_space_group_symop_operation_xyz
x,y,z
x,-y,1/2+z
1/2+x,1/2+y,z
1/2+x,1/2-y,1/2+z
loop_
_atom_site_type_symbol
_atom_site_label
_atom_site_fract_x
_atom_site_fract_y
_atom_site_fract_z
Si Si1 0.012350 0.693764 0.609810
Si Si2 0.804881 0.730825 0.728643
Si Si3 0.163459 0.712000 0.307221
Si Si4 0.136335 0.821411 0.776829
Si Si5 0.463964 0.019251 0.332709
Si Si6 0.588346 0.327106 0.020956
Si Si7 0.866697 0.932024 0.162467
Si Si8 0.893414 0.027888 0.034662
O O1 0.118556 0.713239 0.716917
O O2 0.143834 0.603656 0.611474
O O3 0.776996 0.657008 0.539984
O O4 0.002741 0.839516 0.584585
O O5 0.710926 0.816075 0.750214
O O6 0.807524 0.585306 0.751586
O O7 0.684105 0.737362 0.618568
O O8 0.048228 0.758965 0.808072
O O9 0.384891 0.737297 0.419212
O O10 0.048333 0.604265 0.305191
O O11 0.015253 0.831449 0.249379
O O12 0.349445 0.890452 0.841908
O O13 0.964627 0.931791 0.709507
O O14 0.656512 0.952732 0.433171
O O15 0.506083 0.459082 0.017448
O O16 0.873725 0.933196 0.088143
#
# Coordination Sequence:
#
# PCOD9136124 Si02
#       8
#     4   4   4   4   4   4   4   4
#     4  10  21  39  62  91 129 166 213 264 316 384
#     4  11  22  42  67  87 135 171 209 265 328 370
#     4  11  22  39  68  93 126 170 212 262 324 382
#     4  10  22  38  62  95 121 171 209 257 324 383
#     4  11  22  40  65  92 129 165 217 266 316 389
#     4  10  22  39  63  94 124 167 215 259 317 385
#     4  11  21  41  66  93 128 167 214 263 328 375
#     4  10  22  40  63  93 124 171 213 264 325 378
#
# _framework density 21.941444000000001
#
# number of rings (size 3 to 8) (size 9 to 14) (size 15 to 20)
#    0.000    1.500    3.750    1.500    0.000    4.000 
#    0.000    0.000    5.500    0.000    0.000    0.000 
#    0.000    0.000    0.000    0.000    0.000    0.000 
#
# Total GULP energy -89209.747018 kJ/mol
# GULP energy per Si atom -5575.609189 kJ/mol
# Density = 2.189150 g / cm^3
# Si number density = 21.941444 Si / 1000 Ang^3
#
#
#
# Elastic Constant Matrix: (Units=GPa)
#
#
# Indices 1 2 3 4 5 6 
#
# 1 146.6209 35.6179 26.0666 0.0000 19.8361 0.0000
# 2 35.6179 39.4762 4.3022 0.0000 -0.4320 0.0000
# 3 26.0666 4.3022 85.8322 0.0000 10.5848 0.0000
# 4 0.0000 0.0000 0.0000 16.5732 0.0000 8.2871
# 5 19.8361 -0.4320 10.5848 0.0000 23.7183 0.0000
# 6 0.0000 0.0000 0.0000 8.2871 0.0000 39.6753
#
#
#
# Elastic Compliance Matrix: (Units=1/GPa)
#
#
# Indices 1 2 3 4 5 6 
#
# 1 0.010515 -0.009391 -0.001711 0.000000 -0.008202 0.000000
# 2 -0.009391 0.033884 0.000115 0.000000 0.008419 0.000000
# 3 -0.001711 0.000115 0.012686 0.000000 -0.004228 0.000000
# 4 0.000000 0.000000 0.000000 0.067375 0.000000 -0.014073
# 5 -0.008202 0.008419 -0.004228 0.000000 0.051061 0.000000
# 6 0.000000 0.000000 0.000000 -0.014073 0.000000 0.028144
#
#
# Mechanical properties :
#
#
# Convention : Reuss Voigt Hill
#
# Bulk Modulus (GPa) = 28.48045 44.87807 36.67926
# Shear Modulus (GPa) = 21.06648 29.72287 25.39467
#
# Velocity S-wave (km/s) = 3.10195 3.68454 3.40573
# Velocity P-wave (km/s) = 5.08309 6.21282 5.67613
#
# Compressibility (1/GPa) = 0.03511180
#
# Stress axis : x y z
#
# Youngs Moduli (GPa) = 95.09847 29.51216 78.82713
#
# Poissons Ratio (x) = 0.27715 0.13490
# Poissons Ratio (y) = 0.89306 -0.00909
# Poissons Ratio (z) = 0.16275 -0.00340
#
# Static dielectric constant tensor:
#      x y z
#    x 1.869130 0.000000 -0.013050 
#    y 0.000000 1.808530 0.000000 
#    z -0.013050 0.000000 1.853330 
# 
# From -- ./inp_files/28335.got.cif
#   From: 2010.05.17/outbox.cif.g08.bks.cpg/sg9_15_cif.got.tgz:28335.got - 2010.06.03 20:04:27.
