data_PCOD9136789
_publ_section_title
;
Structure prediction by ZEFSAII (Michael W. Deem and Ramdas Pophale) SiO2 
 PCOD9136789
Probable space group: C C
;
_chemical_formula_sum "Si O2"
_cell_formula_units_Z 32
_cell_length_a 11.695634
_cell_length_b 8.595962
_cell_length_c 25.710374
_cell_angle_alpha 90.000000
_cell_angle_beta 149.098314
_cell_angle_gamma 90.000000
_cell_volume 1327.465792
_symmetry_space_group_name_H-M "C C"
_symmetry_group_IT_number 9
_symmetry_cell_setting 'monoclinic'
loop_
_space_group_symop_operation_xyz
x,y,z
x,-y,1/2+z
1/2+x,1/2+y,z
1/2+x,1/2-y,1/2+z
loop_
_atom_site_type_symbol
_atom_site_label
_atom_site_fract_x
_atom_site_fract_y
_atom_site_fract_z
Si Si1 0.798650 0.730384 0.735660
Si Si2 0.785351 0.162696 0.956905
Si Si3 0.521951 0.746998 0.884414
Si Si4 0.849264 0.949638 0.077590
Si Si5 0.661677 0.970124 0.234103
Si Si6 0.342939 0.989895 0.021130
Si Si7 0.664151 0.802405 0.578960
Si Si8 0.782855 0.109322 0.387421
O O1 0.571129 0.653291 0.667984
O O2 0.795231 0.915003 0.746226
O O3 0.806955 0.703099 0.676264
O O4 0.016052 0.662338 0.848271
O O5 0.858701 0.060119 0.937206
O O6 0.855412 0.339223 0.990227
O O7 0.880243 0.071062 0.042914
O O8 0.262758 0.703687 0.779660
O O9 0.618212 0.816951 0.867507
O O10 0.635636 0.849637 0.974045
O O11 0.606654 0.571509 0.928789
O O12 0.795404 0.054924 0.105696
O O13 0.662341 0.073837 0.286461
O O14 0.430680 0.954209 0.112843
O O15 0.486574 0.123541 0.049702
O O16 0.504537 0.716290 0.474977
#
# Coordination Sequence:
#
# PCOD9136789 Si02
#       8
#     4   4   4   4   4   4   4   4
#     4  11  22  44  65  99 137 181 230 282 353 417
#     4  11  23  42  67  97 138 178 223 299 340 409
#     4  10  21  44  63  96 144 171 229 287 343 415
#     4  11  23  44  68  96 139 180 225 290 345 415
#     4  11  22  40  69  97 133 183 232 281 349 419
#     4  10  22  42  63  98 135 179 230 289 345 408
#     4  10  22  44  68  98 139 181 226 288 351 414
#     4  10  23  44  65  99 137 177 233 290 340 421
#
# _framework density 24.106081
#
# number of rings (size 3 to 8) (size 9 to 14) (size 15 to 20)
#    0.000    1.500    6.250    0.750    1.750    5.000 
#    2.250    0.000    0.000    0.000    0.000    0.000 
#    0.000    0.000    0.000    0.000    0.000    0.000 
#
# Total GULP energy -89332.335312 kJ/mol
# GULP energy per Si atom -5583.270957 kJ/mol
# Density = 2.405121 g / cm^3
# Si number density = 24.106081 Si / 1000 Ang^3
#
#
#
# Elastic Constant Matrix: (Units=GPa)
#
#
# Indices 1 2 3 4 5 6 
#
# 1 70.6177 4.8351 35.0777 0.0000 -14.9579 0.0000
# 2 4.8351 91.2379 24.8005 0.0000 1.0273 0.0000
# 3 35.0777 24.8005 111.4401 -0.0001 -16.2253 0.0000
# 4 0.0000 0.0000 -0.0001 46.7803 0.0000 -2.9574
# 5 -14.9579 1.0273 -16.2253 0.0000 34.0296 0.0000
# 6 0.0000 0.0000 0.0000 -2.9574 0.0000 42.7044
#
#
#
# Elastic Compliance Matrix: (Units=1/GPa)
#
#
# Indices 1 2 3 4 5 6 
#
# 1 0.017704 0.000318 -0.004848 0.000000 0.005461 0.000000
# 2 0.000318 0.011765 -0.002955 0.000000 -0.001624 0.000000
# 3 -0.004848 -0.002955 0.011670 0.000000 0.003522 0.000000
# 4 0.000000 0.000000 0.000000 0.021471 0.000000 0.001487
# 5 0.005461 -0.001624 0.003522 0.000000 0.033515 0.000000
# 6 0.000000 0.000000 0.000000 0.001487 0.000000 0.023520
#
#
# Mechanical properties :
#
#
# Convention : Reuss Voigt Hill
#
# Bulk Modulus (GPa) = 38.21350 44.74691 41.48020
# Shear Modulus (GPa) = 34.88280 38.60834 36.74557
#
# Velocity S-wave (km/s) = 3.80814 4.00634 3.90850
# Velocity P-wave (km/s) = 5.93486 6.32486 6.13296
#
# Compressibility (1/GPa) = 0.02616876
#
# Stress axis : x y z
#
# Youngs Moduli (GPa) = 56.48467 84.99800 85.68997
#
# Poissons Ratio (x) = -0.02705 0.41546
# Poissons Ratio (y) = -0.01797 0.25320
# Poissons Ratio (z) = 0.27386 0.25116
#
# Static dielectric constant tensor:
#      x y z
#    x 2.001380 0.000000 0.005950 
#    y 0.000000 1.925180 0.000000 
#    z 0.005950 0.000000 2.023840 
# 
# From -- ./inp_files/27984.got.cif
#   From: 2010.05.17/outbox.cif.g08.bks.cpg/sg9_14_cif.got.tgz:27984.got - 2010.06.03 20:04:27.
