data_PCOD9136555
_publ_section_title
;
Structure prediction by ZEFSAII (Michael W. Deem and Ramdas Pophale) SiO2 
 PCOD9136555
Probable space group: C C
;
_chemical_formula_sum "Si O2"
_cell_formula_units_Z 28
_cell_length_a 6.744841
_cell_length_b 12.976702
_cell_length_c 12.178703
_cell_angle_alpha 90.000000
_cell_angle_beta 83.286484
_cell_angle_gamma 90.000000
_cell_volume 1058.641504
_symmetry_space_group_name_H-M "C C"
_symmetry_group_IT_number 9
_symmetry_cell_setting 'monoclinic'
loop_
_space_group_symop_operation_xyz
x,y,z
x,-y,1/2+z
1/2+x,1/2+y,z
1/2+x,1/2-y,1/2+z
loop_
_atom_site_type_symbol
_atom_site_label
_atom_site_fract_x
_atom_site_fract_y
_atom_site_fract_z
Si Si1 0.059700 0.934493 0.106310
Si Si2 0.677501 0.106742 0.777664
Si Si3 0.303359 0.217921 0.728852
Si Si4 0.555779 0.884944 0.822268
Si Si5 0.136510 0.772229 0.475173
Si Si6 0.807431 0.918480 0.506528
Si Si7 0.875281 0.617086 0.123995
O O1 0.218499 0.024657 0.122678
O O2 0.866745 0.926757 0.195635
O O3 0.184225 0.832413 0.134604
O O4 0.945576 0.977441 0.002700
O O5 0.547007 0.005537 0.814719
O O6 0.530663 0.183559 0.724949
O O7 0.759348 0.131727 0.891971
O O8 0.258171 0.337483 0.757249
O O9 0.199778 0.178270 0.852509
O O10 0.561413 0.839963 0.943564
O O11 0.389160 0.844207 0.748684
O O12 0.320726 0.791398 0.543684
O O13 0.956013 0.831930 0.543565
O O14 0.593368 0.927232 0.577886
#
# Coordination Sequence:
#
# PCOD9136555 Si02
#       7
#     4   4   4   4   4   4   4
#     4  11  22  40  66  93 130 179 219 282 349 412
#     4  12  21  42  68  94 132 180 227 280 352 410
#     4  10  21  42  62  93 130 170 221 282 340 407
#     4  10  22  41  64  94 132 174 222 288 349 404
#     4   9  22  40  62  94 131 172 221 285 345 401
#     4  11  21  39  68  94 130 178 226 276 345 416
#     4  11  21  42  66  94 137 177 224 287 346 416
#
# _framework density 26.448989000000001
#
# number of rings (size 3 to 8) (size 9 to 14) (size 15 to 20)
#    0.857    0.571    5.714    0.000    0.000    1.143 
#    7.714    2.857    0.000    0.000    0.000    0.000 
#    0.000    0.000    0.000    0.000    0.000    0.000 
#
# Total GULP energy -78123.045458 kJ/mol
# GULP energy per Si atom -5580.217533 kJ/mol
# Density = 2.638879 g / cm^3
# Si number density = 26.448989 Si / 1000 Ang^3
#
#
#
# Elastic Constant Matrix: (Units=GPa)
#
#
# Indices 1 2 3 4 5 6 
#
# 1 153.5646 23.4688 33.6649 0.0000 12.1321 0.0000
# 2 23.4688 68.4210 5.9246 0.0000 16.9203 0.0000
# 3 33.6649 5.9246 47.8540 0.0000 13.4508 0.0000
# 4 0.0000 0.0000 0.0000 37.5226 0.0000 12.5493
# 5 12.1321 16.9203 13.4508 0.0000 57.2526 0.0000
# 6 0.0000 0.0000 0.0000 12.5493 0.0000 46.9503
#
#
#
# Elastic Compliance Matrix: (Units=1/GPa)
#
#
# Indices 1 2 3 4 5 6 
#
# 1 0.008044 -0.002355 -0.005443 0.000000 0.000270 0.000000
# 2 -0.002355 0.016478 0.000905 0.000000 -0.004584 0.000000
# 3 -0.005443 0.000905 0.026088 0.000000 -0.005243 0.000000
# 4 0.000000 0.000000 0.000000 0.029267 0.000000 -0.007823
# 5 0.000270 -0.004584 -0.005243 0.000000 0.019996 0.000000
# 6 0.000000 0.000000 0.000000 -0.007823 0.000000 0.023390
#
#
# Mechanical properties :
#
#
# Convention : Reuss Voigt Hill
#
# Bulk Modulus (GPa) = 27.15646 43.99511 35.57579
# Shear Modulus (GPa) = 33.48458 42.13054 37.80756
#
# Velocity S-wave (km/s) = 3.56196 3.99544 3.78491
# Velocity P-wave (km/s) = 5.21598 6.16075 5.70795
#
# Compressibility (1/GPa) = 0.03682365
#
# Stress axis : x y z
#
# Youngs Moduli (GPa) = 124.32154 60.68636 38.33219
#
# Poissons Ratio (x) = 0.14289 0.20865
# Poissons Ratio (y) = 0.29272 -0.03468
# Poissons Ratio (z) = 0.67669 -0.05490
#
# Static dielectric constant tensor:
#      x y z
#    x 2.070660 0.000000 0.064010 
#    y 0.000000 2.195170 0.000000 
#    z 0.064010 0.000000 2.229980 
# 
# From -- ./inp_files/21846.got.cif
#   From: 2010.05.17/outbox.cif.g08.bks.cpg/sg9_11_cif.got.tgz:21846.got - 2010.06.03 20:04:27.
