data_PCOD9136359
_publ_section_title
;
Structure prediction by ZEFSAII (Michael W. Deem and Ramdas Pophale) SiO2 
 PCOD9136359
Probable space group: C C
;
_chemical_formula_sum "Si O2"
_cell_formula_units_Z 32
_cell_length_a 7.404102
_cell_length_b 11.886463
_cell_length_c 23.084221
_cell_angle_alpha 90.000000
_cell_angle_beta 138.203182
_cell_angle_gamma 90.000000
_cell_volume 1354.049662
_symmetry_space_group_name_H-M "C C"
_symmetry_group_IT_number 9
_symmetry_cell_setting 'monoclinic'
loop_
_space_group_symop_operation_xyz
x,y,z
x,-y,1/2+z
1/2+x,1/2+y,z
1/2+x,1/2-y,1/2+z
loop_
_atom_site_type_symbol
_atom_site_label
_atom_site_fract_x
_atom_site_fract_y
_atom_site_fract_z
Si Si1 0.423290 0.852279 0.156960
Si Si2 0.481713 0.372229 0.138154
Si Si3 0.542684 0.468880 0.512142
Si Si4 0.027102 0.174861 0.841155
Si Si5 0.558069 0.815110 0.748626
Si Si6 0.521814 0.780068 0.959734
Si Si7 0.960384 0.107971 0.120038
Si Si8 0.550629 0.562570 0.391453
O O1 0.285506 0.866470 0.186800
O O2 0.742008 0.852605 0.242414
O O3 0.346356 0.729235 0.111488
O O4 0.302987 0.956197 0.092080
O O5 0.456685 0.270929 0.176183
O O6 0.396920 0.494858 0.140993
O O7 0.296615 0.345873 0.038261
O O8 0.581029 0.344870 0.496209
O O9 0.404122 0.432231 0.540427
O O10 0.442044 0.538509 0.431170
O O11 0.190398 0.239233 0.830981
O O12 0.966055 0.260732 0.878930
O O13 0.153414 0.059161 0.893820
O O14 0.286203 0.877192 0.703184
O O15 0.796923 0.899890 0.791353
O O16 0.286544 0.845966 0.938009
#
# Coordination Sequence:
#
# PCOD9136359 Si02
#       8
#     4   4   4   4   4   4   4   4
#     4  10  22  44  69  93 133 179 221 279 332 398
#     4  11  24  40  67  99 130 175 224 273 333 404
#     4  10  21  40  68  96 131 174 219 269 329 398
#     4  10  25  43  65  97 131 172 227 276 334 398
#     4  11  24  44  68  96 130 175 222 273 335 399
#     4  11  24  44  62 103 138 170 226 276 331 407
#     4  10  22  43  66  98 129 170 226 277 326 402
#     4  11  24  42  67  94 138 181 211 279 340 392
#
# _framework density 23.632812000000001
#
# number of rings (size 3 to 8) (size 9 to 14) (size 15 to 20)
#    0.000    1.500    1.250    3.000    5.250    6.000 
#    4.500    0.000    0.000    0.000    0.000    0.000 
#    0.000    0.000    0.000    0.000    0.000    0.000 
#
# Total GULP energy -89220.909117 kJ/mol
# GULP energy per Si atom -5576.306820 kJ/mol
# Density = 2.357902 g / cm^3
# Si number density = 23.632812 Si / 1000 Ang^3
#
#
#
# Elastic Constant Matrix: (Units=GPa)
#
#
# Indices 1 2 3 4 5 6 
#
# 1 33.7087 20.2044 2.3437 0.0000 -4.2136 0.0000
# 2 20.2044 163.1170 34.6826 0.0000 -11.9194 0.0000
# 3 2.3437 34.6826 47.0298 0.0001 -22.7708 0.0000
# 4 0.0000 0.0000 0.0001 24.1707 0.0000 3.6883
# 5 -4.2136 -11.9194 -22.7708 0.0000 28.5191 0.0000
# 6 0.0000 0.0000 0.0000 3.6883 0.0000 30.2306
#
#
#
# Elastic Compliance Matrix: (Units=1/GPa)
#
#
# Indices 1 2 3 4 5 6 
#
# 1 0.032998 -0.004685 0.005254 0.000000 0.007112 0.000000
# 2 -0.004685 0.008008 -0.007152 0.000000 -0.003055 0.000000
# 3 0.005254 -0.007152 0.041088 0.000000 0.030594 0.000000
# 4 0.000000 0.000000 0.000000 0.042157 0.000000 -0.005143
# 5 0.007112 -0.003055 0.030594 0.000000 0.059266 0.000000
# 6 0.000000 0.000000 0.000000 -0.005143 0.000000 0.033707
#
#
# Mechanical properties :
#
#
# Convention : Reuss Voigt Hill
#
# Bulk Modulus (GPa) = 14.50755 39.81298 27.16027
# Shear Modulus (GPa) = 19.73441 29.02572 24.38007
#
# Velocity S-wave (km/s) = 2.89285 3.50836 3.21537
# Velocity P-wave (km/s) = 4.16055 5.77014 5.03014
#
# Compressibility (1/GPa) = 0.06892962
#
# Stress axis : x y z
#
# Youngs Moduli (GPa) = 30.30527 124.87260 24.33783
#
# Poissons Ratio (x) = 0.58498 -0.12787
# Poissons Ratio (y) = 0.14197 0.17405
# Poissons Ratio (z) = -0.15922 0.89303
#
# Static dielectric constant tensor:
#      x y z
#    x 1.889010 0.000000 -0.059080 
#    y 0.000000 1.949640 0.000000 
#    z -0.059080 0.000000 1.912910 
# 
# From -- ./inp_files/22755.got.cif
#   From: 2010.05.17/outbox.cif.g08.bks.cpg/sg9_12_cif.got.tgz:22755.got - 2010.06.03 20:04:27.
