data_PCOD9136430
_publ_section_title
;
Structure prediction by ZEFSAII (Michael W. Deem and Ramdas Pophale) SiO2 
 PCOD9136430
Probable space group: C C
;
_chemical_formula_sum "Si O2"
_cell_formula_units_Z 28
_cell_length_a 7.406273
_cell_length_b 28.601666
_cell_length_c 5.054558
_cell_angle_alpha 90.000000
_cell_angle_beta 89.323126
_cell_angle_gamma 90.000000
_cell_volume 1070.641134
_symmetry_space_group_name_H-M "C C"
_symmetry_group_IT_number 9
_symmetry_cell_setting 'monoclinic'
loop_
_space_group_symop_operation_xyz
x,y,z
x,-y,1/2+z
1/2+x,1/2+y,z
1/2+x,1/2-y,1/2+z
loop_
_atom_site_type_symbol
_atom_site_label
_atom_site_fract_x
_atom_site_fract_y
_atom_site_fract_z
Si Si1 0.654450 0.628667 0.851870
Si Si2 0.145409 0.971059 0.577555
Si Si3 0.050853 0.386525 0.171984
Si Si4 0.456888 0.694122 0.492150
Si Si5 0.803233 0.286274 0.715014
Si Si6 0.155191 0.663149 0.173091
Si Si7 0.083679 0.525222 0.019691
O O1 0.597171 0.582723 0.016594
O O2 0.831195 0.612603 0.677366
O O3 0.498699 0.648915 0.668116
O O4 0.729049 0.671748 0.028594
O O5 0.364955 0.972968 0.559628
O O6 0.083985 0.992713 0.853763
O O7 0.123315 0.429651 0.342407
O O8 0.109310 0.344817 0.369108
O O9 0.120019 0.380200 0.874267
O O10 0.654895 0.715431 0.444356
O O11 0.331870 0.735154 0.601385
O O12 0.356738 0.679296 0.225224
O O13 0.002526 0.302280 0.790718
O O14 0.144265 0.484382 0.816237
#
# Coordination Sequence:
#
# PCOD9136430 Si02
#       7
#     4   4   4   4   4   4   4
#     4  10  23  41  70 102 146 191 240 299 363 435
#     4   9  19  34  64 102 136 180 239 297 353 422
#     4  10  21  41  64 100 137 182 236 290 350 432
#     4  12  27  45  73 102 147 193 245 299 368 436
#     4  11  27  45  71 103 146 192 246 299 362 442
#     4  11  25  43  69  97 139 182 235 290 355 419
#     4   9  16  29  57  94 131 172 225 286 349 414
#
# _framework density 26.152552
#
# number of rings (size 3 to 8) (size 9 to 14) (size 15 to 20)
#    0.000    1.714    1.429    1.714    8.000    5.714 
#    0.000    0.000    0.000    5.143    0.000    0.000 
#    0.000    0.000    0.000    0.000    0.000    0.000 
#
# Total GULP energy -78330.346354 kJ/mol
# GULP energy per Si atom -5595.024740 kJ/mol
# Density = 2.609303 g / cm^3
# Si number density = 26.152552 Si / 1000 Ang^3
#
#
#
# Elastic Constant Matrix: (Units=GPa)
#
#
# Indices 1 2 3 4 5 6 
#
# 1 103.3311 12.9401 5.1585 0.0000 13.2200 0.0000
# 2 12.9401 90.8706 -1.6290 0.0000 7.3409 0.0000
# 3 5.1585 -1.6290 82.1738 0.0000 10.5817 0.0000
# 4 0.0000 0.0000 0.0000 33.8542 0.0000 -7.5173
# 5 13.2200 7.3409 10.5817 0.0000 37.0750 0.0000
# 6 0.0000 0.0000 0.0000 -7.5173 0.0000 -0.7002
#
#
#
# Elastic Compliance Matrix: (Units=1/GPa)
#
#
# Indices 1 2 3 4 5 6 
#
# 1 0.010269 -0.001195 -0.000236 0.000000 -0.003358 0.000000
# 2 -0.001195 0.011345 0.000555 0.000000 -0.001978 0.000000
# 3 -0.000236 0.000555 0.012664 0.000000 -0.003640 0.000000
# 4 0.000000 0.000000 0.000000 0.008729 0.000000 -0.093716
# 5 -0.003358 -0.001978 -0.003640 0.000000 0.029600 0.000000
# 6 0.000000 0.000000 0.000000 -0.093716 0.000000 -0.422054
#
#
# Mechanical properties :
#
#
# Convention : Reuss Voigt Hill
#
# Bulk Modulus (GPa) = 30.74642 34.36828 32.55735
# Shear Modulus (GPa) = -14.84328 31.37287 8.26480
#
# Velocity S-wave (km/s) = -2.38495 3.46730 1.77963
# Velocity P-wave (km/s) = 2.04893 5.40366 4.08642
#
# Compressibility (1/GPa) = 0.03252412
#
# Stress axis : x y z
#
# Youngs Moduli (GPa) = 97.38388 88.14741 78.96469
#
# Poissons Ratio (x) = 0.10536 0.01863
# Poissons Ratio (y) = 0.11640 -0.04380
# Poissons Ratio (z) = 0.02298 -0.04889
#
# Static dielectric constant tensor:
#      x y z
#    x 2.029730 0.000000 -0.025360 
#    y 0.000000 2.176350 0.000000 
#    z -0.025360 0.000000 2.028240 
# 
# From -- ./inp_files/1026.got.cif
#   From: 2010.05.17/outbox.cif.g08.bks.cpg/sg9_1_cif.got.tgz:1026.got - 2010.06.03 20:04:27.
