data_PCOD9136414
_publ_section_title
;
Structure prediction by ZEFSAII (Michael W. Deem and Ramdas Pophale) SiO2 
 PCOD9136414
Probable space group: C C
;
_chemical_formula_sum "Si O2"
_cell_formula_units_Z 32
_cell_length_a 12.370403
_cell_length_b 10.951945
_cell_length_c 12.664174
_cell_angle_alpha 90.000000
_cell_angle_beta 115.947713
_cell_angle_gamma 90.000000
_cell_volume 1542.784393
_symmetry_space_group_name_H-M "C C"
_symmetry_group_IT_number 9
_symmetry_cell_setting 'monoclinic'
loop_
_space_group_symop_operation_xyz
x,y,z
x,-y,1/2+z
1/2+x,1/2+y,z
1/2+x,1/2-y,1/2+z
loop_
_atom_site_type_symbol
_atom_site_label
_atom_site_fract_x
_atom_site_fract_y
_atom_site_fract_z
Si Si1 0.315540 0.653265 0.498230
Si Si2 0.069010 0.900925 0.069718
Si Si3 0.395248 0.171730 0.221826
Si Si4 0.209189 0.193299 0.448055
Si Si5 0.479332 0.834052 0.985436
Si Si6 0.138632 0.330595 0.739337
Si Si7 0.637600 0.645773 0.181119
Si Si8 0.663218 0.950734 0.541303
O O1 0.434705 0.634992 0.480584
O O2 0.352072 0.735262 0.613322
O O3 0.215023 0.698951 0.374896
O O4 0.261250 0.531871 0.525075
O O5 0.114176 0.795565 0.167990
O O6 0.059464 0.026800 0.127719
O O7 0.154663 0.905391 0.005340
O O8 0.446138 0.220770 0.355649
O O9 0.511852 0.109291 0.220614
O O10 0.272145 0.107000 0.201753
O O11 0.353067 0.173743 0.495199
O O12 0.151168 0.182210 0.308051
O O13 0.166770 0.322254 0.480693
O O14 0.580307 0.754829 0.088294
O O15 0.539443 0.968426 0.991408
O O16 0.195167 0.419768 0.676394
#
# Coordination Sequence:
#
# PCOD9136414 Si02
#       8
#     4   4   4   4   4   4   4   4
#     4  11  22  42  70  91 132 179 227 285 343 427
#     4  10  25  44  63  97 135 178 221 289 351 411
#     4  10  21  41  62 100 131 170 228 273 342 413
#     4  10  26  45  64 104 141 177 237 284 359 420
#     4  11  23  42  69 102 137 182 229 289 344 423
#     4  10  23  42  64 100 131 175 230 277 349 428
#     4  11  23  42  68  96 133 181 222 285 348 418
#     4  11  23  42  68 102 136 182 226 292 348 416
#
# _framework density 20.741719
#
# number of rings (size 3 to 8) (size 9 to 14) (size 15 to 20)
#    0.000    1.500    2.500    0.750    3.500    7.000 
#   13.500    0.000    0.000    0.000    0.000    0.000 
#    0.000    0.000    0.000    0.000    0.000    0.000 
#
# Total GULP energy -89184.988899 kJ/mol
# GULP energy per Si atom -5574.061806 kJ/mol
# Density = 2.069451 g / cm^3
# Si number density = 20.741719 Si / 1000 Ang^3
#
#
#
# Elastic Constant Matrix: (Units=GPa)
#
#
# Indices 1 2 3 4 5 6 
#
# 1 122.5819 15.4445 40.5617 0.0000 -5.7250 0.0000
# 2 15.4445 47.0255 19.2328 0.0000 -0.7760 0.0000
# 3 40.5617 19.2328 118.6982 0.0000 -3.4134 0.0000
# 4 0.0000 0.0000 0.0000 18.1943 0.0000 -0.3510
# 5 -5.7250 -0.7760 -3.4134 0.0000 33.7862 0.0000
# 6 0.0000 0.0000 0.0000 -0.3510 0.0000 -1.3529
#
#
#
# Elastic Compliance Matrix: (Units=1/GPa)
#
#
# Indices 1 2 3 4 5 6 
#
# 1 0.009405 -0.001894 -0.002871 0.000000 0.001260 0.000000
# 2 -0.001894 0.023156 -0.003108 0.000000 -0.000103 0.000000
# 3 -0.002871 -0.003108 0.009922 0.000000 0.000445 0.000000
# 4 0.000000 0.000000 0.000000 0.054689 0.000000 -0.014187
# 5 0.001260 -0.000103 0.000445 0.000000 0.029854 0.000000
# 6 0.000000 0.000000 0.000000 -0.014187 0.000000 -0.735447
#
#
# Mechanical properties :
#
#
# Convention : Reuss Voigt Hill
#
# Bulk Modulus (GPa) = 37.39930 48.75372 43.07651
# Shear Modulus (GPa) = -8.56512 24.32996 7.88242
#
# Velocity S-wave (km/s) = -2.03430 3.42862 1.95154
# Velocity P-wave (km/s) = 3.54292 6.26339 5.08834
#
# Compressibility (1/GPa) = 0.02673847
#
# Stress axis : x y z
#
# Youngs Moduli (GPa) = 106.32364 43.18454 100.78509
#
# Poissons Ratio (x) = 0.08179 0.28934
# Poissons Ratio (y) = 0.20138 0.31322
# Poissons Ratio (z) = 0.30524 0.13421
#
# Static dielectric constant tensor:
#      x y z
#    x 1.774770 0.000000 -0.008050 
#    y 0.000000 1.868400 0.000000 
#    z -0.008050 0.000000 1.718910 
# 
# From -- ./inp_files/16388.got.cif
#   From: 2010.05.17/outbox.cif.g08.bks.cpg/sg9_9_cif.got.tgz:16388.got - 2010.06.03 20:04:27.
