data_PCOD9136338
_publ_section_title
;
Structure prediction by ZEFSAII (Michael W. Deem and Ramdas Pophale) SiO2 
 PCOD9136338
Probable space group: C C
;
_chemical_formula_sum "Si O2"
_cell_formula_units_Z 32
_cell_length_a 8.141753
_cell_length_b 18.056987
_cell_length_c 11.420686
_cell_angle_alpha 90.000000
_cell_angle_beta 112.456837
_cell_angle_gamma 90.000000
_cell_volume 1551.694137
_symmetry_space_group_name_H-M "C C"
_symmetry_group_IT_number 9
_symmetry_cell_setting 'monoclinic'
loop_
_space_group_symop_operation_xyz
x,y,z
x,-y,1/2+z
1/2+x,1/2+y,z
1/2+x,1/2-y,1/2+z
loop_
_atom_site_type_symbol
_atom_site_label
_atom_site_fract_x
_atom_site_fract_y
_atom_site_fract_z
Si Si1 0.091570 0.649769 0.248460
Si Si2 0.079861 0.440440 0.520344
Si Si3 0.944965 0.194242 0.762729
Si Si4 0.851769 0.821156 0.510225
Si Si5 0.977539 0.796858 0.772423
Si Si6 0.763316 0.339402 0.015658
Si Si7 0.822002 0.361564 0.284469
Si Si8 0.644117 0.888795 0.030143
O O1 0.281522 0.676203 0.251731
O O2 0.138055 0.618239 0.388483
O O3 0.963403 0.720145 0.230306
O O4 0.023904 0.594789 0.129632
O O5 0.246686 0.395319 0.512044
O O6 0.132753 0.524603 0.554947
O O7 0.924829 0.424328 0.383721
O O8 0.807730 0.151314 0.640356
O O9 0.146271 0.163864 0.805072
O O10 0.888437 0.187354 0.883158
O O11 0.014989 0.811672 0.645358
O O12 0.741842 0.749228 0.525200
O O13 0.957668 0.708504 0.797369
O O14 0.110723 0.849548 0.879904
O O15 0.959752 0.352608 0.022100
O O16 0.752298 0.380744 0.135536
#
# Coordination Sequence:
#
# PCOD9136338 Si02
#       8
#     4   4   4   4   4   4   4   4
#     4  10  24  42  69  94 134 179 229 276 332 408
#     4  11  25  45  65  97 141 180 209 285 361 396
#     4  11  24  42  69 100 129 182 237 280 324 405
#     4  10  21  40  67  95 131 177 222 277 335 399
#     4   9  20  39  67  99 125 173 230 276 326 391
#     4  11  21  39  67  98 128 175 226 276 325 403
#     4  10  22  40  68  92 132 176 223 273 337 397
#     4  12  27  41  68 103 136 174 226 283 346 403
#
# _framework density 20.622622
#
# number of rings (size 3 to 8) (size 9 to 14) (size 15 to 20)
#    0.000    1.500    2.500    2.250    8.750    1.000 
#    4.500    1.250    0.000    0.000    0.000    0.000 
#    0.000    0.000    0.000    0.000    0.000    0.000 
#
# Total GULP energy -89216.343084 kJ/mol
# GULP energy per Si atom -5576.021443 kJ/mol
# Density = 2.057568 g / cm^3
# Si number density = 20.622622 Si / 1000 Ang^3
#
#
#
# Elastic Constant Matrix: (Units=GPa)
#
#
# Indices 1 2 3 4 5 6 
#
# 1 73.5515 24.0030 45.5062 0.0000 -0.9850 0.0000
# 2 24.0030 101.1751 56.9967 0.0000 8.0000 0.0000
# 3 45.5062 56.9967 182.1498 0.0000 -14.7660 0.0000
# 4 0.0000 0.0000 0.0000 20.3752 0.0000 -1.1087
# 5 -0.9850 8.0000 -14.7660 0.0000 34.8455 0.0000
# 6 0.0000 0.0000 0.0000 -1.1087 0.0000 7.4782
#
#
#
# Elastic Compliance Matrix: (Units=1/GPa)
#
#
# Indices 1 2 3 4 5 6 
#
# 1 0.016396 -0.001825 -0.003576 0.000000 -0.000633 0.000000
# 2 -0.001825 0.012925 -0.003969 0.000000 -0.004701 0.000000
# 3 -0.003576 -0.003969 0.007965 0.000000 0.004185 0.000000
# 4 0.000000 0.000000 0.000000 0.049478 0.000000 0.007335
# 5 -0.000633 -0.004701 0.004185 0.000000 0.031533 0.000000
# 6 0.000000 0.000000 0.000000 0.007335 0.000000 0.134810
#
#
# Mechanical properties :
#
#
# Convention : Reuss Voigt Hill
#
# Bulk Modulus (GPa) = 53.92670 67.76535 60.84603
# Shear Modulus (GPa) = 17.98370 27.89780 22.94075
#
# Velocity S-wave (km/s) = 2.95623 3.68200 3.33889
# Velocity P-wave (km/s) = 6.15292 7.14193 6.66580
#
# Compressibility (1/GPa) = 0.01854369
#
# Stress axis : x y z
#
# Youngs Moduli (GPa) = 60.99154 77.37125 125.55177
#
# Poissons Ratio (x) = 0.14120 0.44902
# Poissons Ratio (y) = 0.11131 0.49837
# Poissons Ratio (z) = 0.21813 0.30712
#
# Static dielectric constant tensor:
#      x y z
#    x 1.744390 0.000000 0.006900 
#    y 0.000000 1.739110 0.000000 
#    z 0.006900 0.000000 1.895520 
# 
# From -- ./inp_files/15193.got.cif
#   From: 2010.05.17/outbox.cif.g08.bks.cpg/sg9_8_cif.got.tgz:15193.got - 2010.06.03 20:04:27.
