data_PCOD9136941
_publ_section_title
;
Structure prediction by ZEFSAII (Michael W. Deem and Ramdas Pophale) SiO2 
 PCOD9136941
Probable space group: C C
;
_chemical_formula_sum "Si O2"
_cell_formula_units_Z 32
_cell_length_a 13.733563
_cell_length_b 11.564894
_cell_length_c 15.097412
_cell_angle_alpha 90.000000
_cell_angle_beta 33.453424
_cell_angle_gamma 90.000000
_cell_volume 1321.852595
_symmetry_space_group_name_H-M "C C"
_symmetry_group_IT_number 9
_symmetry_cell_setting 'monoclinic'
loop_
_space_group_symop_operation_xyz
x,y,z
x,-y,1/2+z
1/2+x,1/2+y,z
1/2+x,1/2-y,1/2+z
loop_
_atom_site_type_symbol
_atom_site_label
_atom_site_fract_x
_atom_site_fract_y
_atom_site_fract_z
Si Si1 0.011230 0.738966 0.412940
Si Si2 0.163784 0.821387 0.127064
Si Si3 0.434113 0.787482 0.331788
Si Si4 0.069285 0.927314 0.645850
Si Si5 0.992736 0.594799 0.604082
Si Si6 0.075908 0.970509 0.434462
Si Si7 0.685446 0.285779 0.790929
Si Si8 0.571226 0.839087 0.533941
O O1 0.159218 0.763237 0.227237
O O2 0.962954 0.872026 0.472992
O O3 0.873299 0.668298 0.457891
O O4 0.046424 0.672284 0.478235
O O5 0.089231 0.737068 0.108503
O O6 0.088056 0.950254 0.181016
O O7 0.256943 0.854651 0.498204
O O8 0.426060 0.654235 0.302739
O O9 0.507858 0.846391 0.187324
O O10 0.583971 0.783045 0.292841
O O11 0.034400 0.959983 0.570099
O O12 0.781227 0.566508 0.762463
O O13 0.092221 0.473829 0.531959
O O14 0.070166 0.100913 0.404020
O O15 0.884811 0.325274 0.622910
O O16 0.709198 0.209984 0.860262
#
# Coordination Sequence:
#
# PCOD9136941 Si02
#       8
#     4   4   4   4   4   4   4   4
#     4  12  24  45  70 104 139 192 235 286 353 425
#     4  12  27  46  73 102 148 191 236 289 358 424
#     4  11  24  43  76 104 138 182 238 292 364 414
#     4  11  24  48  71 101 148 185 232 299 354 422
#     4  10  24  44  69 101 145 182 230 294 350 421
#     4  10  21  46  69  97 143 184 227 290 355 413
#     4  11  23  44  72  98 135 184 232 294 352 419
#     4  11  25  48  66 101 142 184 234 290 356 416
#
# _framework density 24.208447
#
# number of rings (size 3 to 8) (size 9 to 14) (size 15 to 20)
#    0.000    1.000    3.750    2.250    7.000    0.000 
#   11.250    0.000    0.000    0.000    0.000    0.000 
#    0.000    0.000    0.000    0.000    0.000    0.000 
#
# Total GULP energy -89378.397854 kJ/mol
# GULP energy per Si atom -5586.149866 kJ/mol
# Density = 2.415335 g / cm^3
# Si number density = 24.208447 Si / 1000 Ang^3
#
#
#
# Elastic Constant Matrix: (Units=GPa)
#
#
# Indices 1 2 3 4 5 6 
#
# 1 108.2094 43.1388 25.5768 -0.0001 24.5511 0.0000
# 2 43.1388 164.3766 28.1684 -0.0001 13.6155 0.0001
# 3 25.5768 28.1684 62.5177 -0.0001 22.9704 0.0000
# 4 -0.0001 -0.0001 -0.0001 -12.5102 0.0001 -19.9105
# 5 24.5511 13.6155 22.9704 0.0001 30.0900 -0.0001
# 6 0.0000 0.0001 0.0000 -19.9105 -0.0001 32.1678
#
#
#
# Elastic Compliance Matrix: (Units=1/GPa)
#
#
# Indices 1 2 3 4 5 6 
#
# 1 0.012278 -0.002382 -0.000924 0.000000 -0.008234 0.000000
# 2 -0.002382 0.007076 -0.002434 0.000000 0.000600 0.000000
# 3 -0.000924 -0.002434 0.023333 0.000000 -0.015957 0.000000
# 4 0.000000 0.000000 0.000000 -0.040267 0.000000 -0.024924
# 5 -0.008234 0.000600 -0.015957 0.000000 0.051862 0.000000
# 6 0.000000 0.000000 0.000000 -0.024924 0.000000 0.015660
#
#
# Mechanical properties :
#
#
# Convention : Reuss Voigt Hill
#
# Bulk Modulus (GPa) = 32.04468 58.76353 45.40410
# Shear Modulus (GPa) = 54.45185 25.83083 40.14134
#
# Velocity S-wave (km/s) = 4.74781 3.27007 4.07646
# Velocity P-wave (km/s) = 6.58190 6.21164 6.39945
#
# Compressibility (1/GPa) = 0.03120643
#
# Stress axis : x y z
#
# Youngs Moduli (GPa) = 81.44974 141.32083 42.85720
#
# Poissons Ratio (x) = 0.33658 0.03962
# Poissons Ratio (y) = 0.19398 0.10432
# Poissons Ratio (z) = 0.07529 0.34400
#
# Static dielectric constant tensor:
#      x y z
#    x 1.915770 0.000000 -0.020260 
#    y 0.000000 1.958990 0.000000 
#    z -0.020260 0.000000 1.989380 
# 
# From -- ./inp_files/9101.got.cif
#   From: 2010.05.17/outbox.cif.g08.bks.cpg/sg9_5_cif.got.tgz:9101.got - 2010.06.03 20:04:27.
