data_PCOD9136697
_publ_section_title
;
Structure prediction by ZEFSAII (Michael W. Deem and Ramdas Pophale) SiO2 
 PCOD9136697
Probable space group: C C
;
_chemical_formula_sum "Si O2"
_cell_formula_units_Z 32
_cell_length_a 14.597152
_cell_length_b 9.730973
_cell_length_c 26.061041
_cell_angle_alpha 90.000000
_cell_angle_beta 157.668659
_cell_angle_gamma 90.000000
_cell_volume 1406.554441
_symmetry_space_group_name_H-M "C C"
_symmetry_group_IT_number 9
_symmetry_cell_setting 'monoclinic'
loop_
_space_group_symop_operation_xyz
x,y,z
x,-y,1/2+z
1/2+x,1/2+y,z
1/2+x,1/2-y,1/2+z
loop_
_atom_site_type_symbol
_atom_site_label
_atom_site_fract_x
_atom_site_fract_y
_atom_site_fract_z
Si Si1 0.549810 0.300547 0.065290
Si Si2 0.250093 0.665348 0.321318
Si Si3 0.753437 0.793393 0.178275
Si Si4 0.215720 0.851282 0.866583
Si Si5 0.399009 0.425816 0.794414
Si Si6 0.987485 0.428950 0.252118
Si Si7 0.130067 0.577681 0.417048
Si Si8 0.958990 0.092706 0.678677
O O1 0.718027 0.184607 0.175481
O O2 0.704534 0.424642 0.119533
O O3 0.404632 0.247033 0.941484
O O4 0.350147 0.351160 0.000978
O O5 0.418737 0.606927 0.364280
O O6 0.097841 0.547608 0.273013
O O7 0.076230 0.780852 0.208801
O O8 0.892363 0.837422 0.198336
O O9 0.891549 0.668850 0.279254
O O10 0.783091 0.924621 0.230081
O O11 0.480502 0.791134 0.015714
O O12 0.058951 0.719419 0.768785
O O13 0.128795 0.913837 0.876462
O O14 0.139848 0.967421 0.785534
O O15 0.096825 0.440434 0.366433
O O16 0.221027 0.553983 0.522006
#
# Coordination Sequence:
#
# PCOD9136697 Si02
#       8
#     4   4   4   4   4   4   4   4
#     4  10  21  43  64  96 143 178 235 284 365 428
#     4  11  22  41  75  98 134 188 237 285 360 439
#     4  11  24  43  70 104 148 181 248 304 357 433
#     4  10  25  47  67 102 146 183 237 305 358 430
#     4  10  23  43  68 101 140 189 232 299 358 436
#     4  10  24  43  66 101 140 182 235 305 356 431
#     4  11  24  41  74 102 144 193 241 295 375 439
#     4  11  23  45  74 104 139 196 241 287 371 438
#
# _framework density 22.750630000000001
#
# number of rings (size 3 to 8) (size 9 to 14) (size 15 to 20)
#    0.000    1.500    3.750    0.750    5.250    4.000 
#   15.750    0.000    0.000    0.000    0.000    0.000 
#    0.000    0.000    0.000    0.000    0.000    0.000 
#
# Total GULP energy -89129.602513 kJ/mol
# GULP energy per Si atom -5570.600157 kJ/mol
# Density = 2.269885 g / cm^3
# Si number density = 22.750630 Si / 1000 Ang^3
#
#
#
# Elastic Constant Matrix: (Units=GPa)
#
#
# Indices 1 2 3 4 5 6 
#
# 1 59.8149 15.4930 29.3033 -0.0005 -21.7382 0.0022
# 2 15.4930 95.9597 16.2804 0.0033 -4.3832 0.0003
# 3 29.3033 16.2804 98.7338 0.0142 -0.8616 -0.0006
# 4 -0.0005 0.0033 0.0142 23.5909 -0.0005 7.6315
# 5 -21.7382 -4.3832 -0.8616 -0.0005 36.2859 0.0007
# 6 0.0022 0.0003 -0.0006 7.6315 0.0007 -9.7636
#
#
#
# Elastic Compliance Matrix: (Units=1/GPa)
#
#
# Indices 1 2 3 4 5 6 
#
# 1 0.026539 -0.002331 -0.007357 0.000003 0.015442 0.000009
# 2 -0.002331 0.010983 -0.001120 -0.000001 -0.000096 -0.000001
# 3 -0.007357 -0.001120 0.012459 -0.000005 -0.004247 -0.000007
# 4 0.000003 -0.000001 -0.000005 0.033834 0.000001 0.026446
# 5 0.015442 -0.000096 -0.004247 0.000001 0.036698 0.000007
# 6 0.000009 -0.000001 -0.000007 0.026446 0.000007 -0.081750
#
#
# Mechanical properties :
#
#
# Convention : Reuss Voigt Hill
#
# Bulk Modulus (GPa) = 35.25565 41.85129 38.55347
# Shear Modulus (GPa) = 71.59800 22.91808 47.25804
#
# Velocity S-wave (km/s) = 5.61597 3.17734 4.56260
# Velocity P-wave (km/s) = 7.58830 5.64767 6.68874
#
# Compressibility (1/GPa) = 0.02836425
#
# Stress axis : x y z
#
# Youngs Moduli (GPa) = 37.68103 91.04962 80.26053
#
# Poissons Ratio (x) = 0.21225 0.59050
# Poissons Ratio (y) = 0.08784 0.08989
# Poissons Ratio (z) = 0.27723 0.10197
#
# Static dielectric constant tensor:
#      x y z
#    x 1.904690 0.000000 0.071380 
#    y 0.000000 2.026880 0.000000 
#    z 0.071380 0.000000 1.952950 
# 
# From -- ./inp_files/36764.got.cif
#   From: 2010.05.17/outbox.cif.g08.bks.cpg/sg9_19_cif.got.tgz:36764.got - 2010.06.03 20:04:27.
