data_PCOD9136050
_publ_section_title
;
Structure prediction by ZEFSAII (Michael W. Deem and Ramdas Pophale) SiO2 
 PCOD9136050
Probable space group: C C
;
_chemical_formula_sum "Si O2"
_cell_formula_units_Z 32
_cell_length_a 9.850497
_cell_length_b 16.111517
_cell_length_c 13.725676
_cell_angle_alpha 90.000000
_cell_angle_beta 136.321368
_cell_angle_gamma 90.000000
_cell_volume 1504.398544
_symmetry_space_group_name_H-M "C C"
_symmetry_group_IT_number 9
_symmetry_cell_setting 'monoclinic'
loop_
_space_group_symop_operation_xyz
x,y,z
x,-y,1/2+z
1/2+x,1/2+y,z
1/2+x,1/2-y,1/2+z
loop_
_atom_site_type_symbol
_atom_site_label
_atom_site_fract_x
_atom_site_fract_y
_atom_site_fract_z
Si Si1 0.663980 0.516599 0.708750
Si Si2 0.328301 0.813610 0.630182
Si Si3 0.222637 0.332425 0.947009
Si Si4 0.040131 0.111000 0.470555
Si Si5 0.977909 0.412683 0.962941
Si Si6 0.750317 0.472429 0.464991
Si Si7 0.661148 0.276038 0.862291
Si Si8 0.458511 0.345415 0.572218
O O1 0.660264 0.555222 0.814639
O O2 0.672529 0.586931 0.632562
O O3 0.498794 0.444440 0.605888
O O4 0.860456 0.461012 0.816413
O O5 0.511614 0.804637 0.796966
O O6 0.337087 0.745533 0.549720
O O7 0.313827 0.901347 0.569221
O O8 0.127933 0.810546 0.588516
O O9 0.585455 0.532456 0.425299
O O10 0.332910 0.376740 0.915879
O O11 0.181760 0.388648 0.021424
O O12 0.090120 0.189125 0.429437
O O13 0.943367 0.473608 0.035685
O O14 0.845907 0.333628 0.924355
O O15 0.749713 0.184278 0.921213
O O16 0.499772 0.298202 0.696516
#
# Coordination Sequence:
#
# PCOD9136050 Si02
#       8
#     4   4   4   4   4   4   4   4
#     4   9  19  40  68  86 122 170 206 260 314 376
#     4  12  22  42  67  93 127 171 214 265 319 379
#     4  12  25  39  63  99 130 166 211 264 325 381
#     4  11  22  41  62  92 135 163 205 272 323 368
#     4   8  17  40  61  88 120 163 210 251 303 383
#     4   9  20  42  67  85 123 175 206 263 318 372
#     4  10  21  38  65  89 122 166 209 260 312 374
#     4  11  18  40  69  90 119 166 221 255 310 383
#
# _framework density 21.270959000000001
#
# number of rings (size 3 to 8) (size 9 to 14) (size 15 to 20)
#    0.750    1.000    6.250    0.000    1.750    1.000 
#    2.250    3.750    0.000    0.000    0.000    0.000 
#    0.000    0.000    0.000    0.000    0.000    0.000 
#
# Total GULP energy -89093.625827 kJ/mol
# GULP energy per Si atom -5568.351614 kJ/mol
# Density = 2.122255 g / cm^3
# Si number density = 21.270959 Si / 1000 Ang^3
#
#
#
# Elastic Constant Matrix: (Units=GPa)
#
#
# Indices 1 2 3 4 5 6 
#
# 1 97.8321 10.2900 5.9977 0.0000 -23.1652 0.0000
# 2 10.2900 38.5095 8.6915 0.0000 0.7527 0.0000
# 3 5.9977 8.6915 44.6147 0.0001 -21.4907 0.0001
# 4 0.0000 0.0000 0.0001 18.0366 0.0001 -0.4087
# 5 -23.1652 0.7527 -21.4907 0.0001 30.7392 0.0001
# 6 0.0000 0.0000 0.0001 -0.4087 0.0001 13.4020
#
#
#
# Elastic Compliance Matrix: (Units=1/GPa)
#
#
# Indices 1 2 3 4 5 6 
#
# 1 0.014019 -0.005523 0.006552 0.000000 0.015281 0.000000
# 2 -0.005523 0.030251 -0.011327 0.000000 -0.012822 0.000000
# 3 0.006552 -0.011327 0.039582 0.000000 0.032888 0.000000
# 4 0.000000 0.000000 0.000000 0.055481 0.000000 0.001692
# 5 0.015281 -0.012822 0.032888 0.000000 0.067355 -0.000001
# 6 0.000000 0.000000 0.000000 0.001692 -0.000001 0.074668
#
#
# Mechanical properties :
#
#
# Convention : Reuss Voigt Hill
#
# Bulk Modulus (GPa) = 15.80906 25.65719 20.73313
# Shear Modulus (GPa) = 15.47811 22.83402 19.15606
#
# Velocity S-wave (km/s) = 2.70045 3.27996 3.00421
# Velocity P-wave (km/s) = 4.14386 5.14125 4.66926
#
# Compressibility (1/GPa) = 0.06325485
#
# Stress axis : x y z
#
# Youngs Moduli (GPa) = 71.33079 33.05718 25.26407
#
# Poissons Ratio (x) = 0.18259 -0.16553
# Poissons Ratio (y) = 0.39399 0.28617
# Poissons Ratio (z) = -0.46737 0.37444
#
# Static dielectric constant tensor:
#      x y z
#    x 1.799020 0.000000 -0.003600 
#    y 0.000000 1.798550 0.000000 
#    z -0.003600 0.000000 1.799310 
# 
# From -- ./inp_files/15209.got.cif
#   From: 2010.05.17/outbox.cif.g08.bks.cpg/sg9_8_cif.got.tgz:15209.got - 2010.06.03 20:04:27.
