data_PCOD9136583
_publ_section_title
;
Structure prediction by ZEFSAII (Michael W. Deem and Ramdas Pophale) SiO2 
 PCOD9136583
Probable space group: C C
;
_chemical_formula_sum "Si O2"
_cell_formula_units_Z 28
_cell_length_a 9.656064
_cell_length_b 15.619383
_cell_length_c 9.479597
_cell_angle_alpha 90.000000
_cell_angle_beta 131.265735
_cell_angle_gamma 90.000000
_cell_volume 1074.668640
_symmetry_space_group_name_H-M "C C"
_symmetry_group_IT_number 9
_symmetry_cell_setting 'monoclinic'
loop_
_space_group_symop_operation_xyz
x,y,z
x,-y,1/2+z
1/2+x,1/2+y,z
1/2+x,1/2-y,1/2+z
loop_
_atom_site_type_symbol
_atom_site_label
_atom_site_fract_x
_atom_site_fract_y
_atom_site_fract_z
Si Si1 0.591130 0.217143 0.294850
Si Si2 0.376339 0.064024 0.075559
Si Si3 0.813605 0.809915 0.661306
Si Si4 0.253085 0.536961 0.908885
Si Si5 0.173586 0.003478 0.198887
Si Si6 0.804409 0.826867 0.208054
Si Si7 0.717358 0.680955 0.376160
O O1 0.410132 0.162407 0.135237
O O2 0.712084 0.212768 0.236347
O O3 0.684033 0.170246 0.488214
O O4 0.510199 0.305575 0.296996
O O5 0.226665 0.016367 0.072273
O O6 0.572328 0.018285 0.248563
O O7 0.304262 0.062345 0.867386
O O8 0.727397 0.889830 0.514209
O O9 0.833783 0.725933 0.575978
O O10 0.024117 0.833341 0.825221
O O11 0.292450 0.589445 0.792694
O O12 0.453400 0.493033 0.072630
O O13 0.249231 0.091364 0.322883
O O14 0.730573 0.750979 0.260183
#
# Coordination Sequence:
#
# PCOD9136583 Si02
#       7
#     4   4   4   4   4   4   4
#     4  12  24  42  68 114 139 181 250 313 361 428
#     4  12  26  44  74 103 148 192 247 304 374 445
#     4  10  22  38  66  98 140 181 239 300 367 423
#     4  10  25  47  70 102 146 203 237 299 379 454
#     4  11  25  46  68 105 143 194 248 298 374 446
#     4  11  23  43  75 100 145 187 246 304 366 443
#     4  10  21  42  65  96 135 196 237 290 369 449
#
# _framework density 26.054542999999999
#
# number of rings (size 3 to 8) (size 9 to 14) (size 15 to 20)
#    0.000    1.143    1.429    5.143    4.000    4.571 
#    2.571    0.000    0.000    0.000    0.000    0.000 
#    0.000    0.000    0.000    0.000    0.000    0.000 
#
# Total GULP energy -78378.839355 kJ/mol
# GULP energy per Si atom -5598.488525 kJ/mol
# Density = 2.599524 g / cm^3
# Si number density = 26.054543 Si / 1000 Ang^3
#
#
#
# Elastic Constant Matrix: (Units=GPa)
#
#
# Indices 1 2 3 4 5 6 
#
# 1 153.7966 15.8649 21.0393 0.0000 -9.7825 0.0000
# 2 15.8649 53.9228 9.9416 0.0000 7.3581 0.0000
# 3 21.0393 9.9416 82.2270 0.0000 -6.3427 0.0000
# 4 0.0000 0.0000 0.0000 215.3821 0.0000 166.4826
# 5 -9.7825 7.3581 -6.3427 0.0000 48.2947 0.0000
# 6 0.0000 0.0000 0.0000 166.4826 0.0000 177.7052
#
#
#
# Elastic Compliance Matrix: (Units=1/GPa)
#
#
# Indices 1 2 3 4 5 6 
#
# 1 0.007002 -0.002006 -0.001431 0.000000 0.001536 0.000000
# 2 -0.002006 0.020053 -0.002200 0.000000 -0.003751 0.000000
# 3 -0.001431 -0.002200 0.012928 0.000000 0.001743 0.000000
# 4 0.000000 0.000000 0.000000 0.016831 0.000000 -0.015768
# 5 0.001536 -0.003751 0.001743 0.000000 0.021818 0.000000
# 6 0.000000 0.000000 0.000000 -0.015768 0.000000 0.020400
#
#
# Mechanical properties :
#
#
# Convention : Reuss Voigt Hill
#
# Bulk Modulus (GPa) = 34.83256 42.62646 38.72951
# Shear Modulus (GPa) = 41.70975 104.48311 73.09643
#
# Velocity S-wave (km/s) = 4.00542 6.33946 5.30246
# Velocity P-wave (km/s) = 5.89824 8.36546 7.23776
#
# Compressibility (1/GPa) = 0.02870877
#
# Stress axis : x y z
#
# Youngs Moduli (GPa) = 142.80695 49.86851 77.35123
#
# Poissons Ratio (x) = 0.10004 0.11066
# Poissons Ratio (y) = 0.28648 0.17021
# Poissons Ratio (z) = 0.20431 0.10973
#
# Static dielectric constant tensor:
#      x y z
#    x 2.027990 0.000000 0.048170 
#    y 0.000000 -0.544610 0.000000 
#    z 0.048170 0.000000 2.059640 
# 
# From -- ./inp_files/5713.got.cif
#   From: 2010.05.17/outbox.cif.g08.bks.cpg/sg9_3_cif.got.tgz:5713.got - 2010.06.03 20:04:27.
