data_PCOD9136391
_publ_section_title
;
Structure prediction by ZEFSAII (Michael W. Deem and Ramdas Pophale) SiO2 
 PCOD9136391
Probable space group: C C
;
_chemical_formula_sum "Si O2"
_cell_formula_units_Z 32
_cell_length_a 15.456441
_cell_length_b 5.591334
_cell_length_c 14.823042
_cell_angle_alpha 90.000000
_cell_angle_beta 91.145018
_cell_angle_gamma 90.000000
_cell_volume 1280.782977
_symmetry_space_group_name_H-M "C C"
_symmetry_group_IT_number 9
_symmetry_cell_setting 'monoclinic'
loop_
_space_group_symop_operation_xyz
x,y,z
x,-y,1/2+z
1/2+x,1/2+y,z
1/2+x,1/2-y,1/2+z
loop_
_atom_site_type_symbol
_atom_site_label
_atom_site_fract_x
_atom_site_fract_y
_atom_site_fract_z
Si Si1 0.210110 0.682749 0.425930
Si Si2 0.500567 0.717698 0.393188
Si Si3 0.359536 0.397936 0.477300
Si Si4 0.613406 0.545643 0.532795
Si Si5 0.179749 0.504270 0.240743
Si Si6 0.794886 0.668136 0.637379
Si Si7 0.581650 0.489676 0.717287
Si Si8 0.846021 0.470727 0.825690
O O1 0.274822 0.557205 0.496307
O O2 0.131418 0.817572 0.470478
O O3 0.185287 0.500371 0.347840
O O4 0.270479 0.873831 0.372825
O O5 0.438368 0.565897 0.456718
O O6 0.579771 0.750578 0.464868
O O7 0.527121 0.568883 0.304696
O O8 0.440917 0.927182 0.352745
O O9 0.364462 0.215899 0.560486
O O10 0.343283 0.273489 0.380278
O O11 0.707864 0.593530 0.580319
O O12 0.548717 0.498458 0.614306
O O13 0.266462 0.592240 0.192147
O O14 0.144757 0.244972 0.213339
O O15 0.119207 0.741023 0.227452
O O16 0.827536 0.493993 0.718467
#
# Coordination Sequence:
#
# PCOD9136391 Si02
#       8
#     4   4   4   4   4   4   4   4
#     4  10  21  40  72 104 137 191 248 314 370 445
#     4  11  27  46  67 106 152 196 245 309 396 445
#     4  11  24  45  71 100 144 199 251 312 383 462
#     4  11  23  45  75 110 145 192 265 317 378 447
#     4  10  23  42  73 107 148 188 247 313 374 436
#     4  10  23  44  76 108 137 202 259 309 372 456
#     4  11  25  45  69 109 149 197 241 313 378 451
#     4  10  24  47  65 104 150 197 240 309 387 460
#
# _framework density 24.984715000000001
#
# number of rings (size 3 to 8) (size 9 to 14) (size 15 to 20)
#    0.000    1.500    2.500    0.750   10.500    0.000 
#    9.000    0.000    0.000    0.000    0.000    0.000 
#    0.000    0.000    0.000    0.000    0.000    0.000 
#
# Total GULP energy -89279.571448 kJ/mol
# GULP energy per Si atom -5579.973216 kJ/mol
# Density = 2.492785 g / cm^3
# Si number density = 24.984715 Si / 1000 Ang^3
#
#
#
# Elastic Constant Matrix: (Units=GPa)
#
#
# Indices 1 2 3 4 5 6 
#
# 1 44.8586 27.8901 44.0739 0.0000 13.3885 0.0000
# 2 27.8901 79.3610 11.3635 0.0000 11.8392 0.0000
# 3 44.0739 11.3635 152.9267 0.0000 8.2880 0.0000
# 4 0.0000 0.0000 0.0000 35.9494 0.0000 -15.7361
# 5 13.3885 11.8392 8.2880 0.0000 40.2231 0.0000
# 6 0.0000 0.0000 0.0000 -15.7361 0.0000 23.0749
#
#
#
# Elastic Compliance Matrix: (Units=1/GPa)
#
#
# Indices 1 2 3 4 5 6 
#
# 1 0.043529 -0.012427 -0.011159 0.000000 -0.008532 0.000000
# 2 -0.012427 0.016819 0.002403 0.000000 -0.001309 0.000000
# 3 -0.011159 0.002403 0.009520 0.000000 0.001046 0.000000
# 4 0.000000 0.000000 0.000000 0.039654 0.000000 0.027043
# 5 -0.008532 -0.001309 0.001046 0.000000 0.027871 0.000000
# 6 0.000000 0.000000 0.000000 0.027043 0.000000 0.061779
#
#
# Mechanical properties :
#
#
# Convention : Reuss Voigt Hill
#
# Bulk Modulus (GPa) = 36.36238 49.31124 42.83681
# Shear Modulus (GPa) = 19.94360 32.77072 26.35716
#
# Velocity S-wave (km/s) = 2.82837 3.62557 3.25149
# Velocity P-wave (km/s) = 5.02510 6.10785 5.59274
#
# Compressibility (1/GPa) = 0.02750095
#
# Stress axis : x y z
#
# Youngs Moduli (GPa) = 22.97316 59.45597 105.04152
#
# Poissons Ratio (x) = 0.73885 1.17220
# Poissons Ratio (y) = 0.28549 -0.25238
# Poissons Ratio (z) = 0.25637 -0.14285
#
# Static dielectric constant tensor:
#      x y z
#    x 2.129430 0.000000 0.061800 
#    y 0.000000 1.982230 0.000000 
#    z 0.061800 0.000000 2.000120 
# 
# From -- ./inp_files/26472.got.cif
#   From: 2010.05.17/outbox.cif.g08.bks.cpg/sg9_14_cif.got.tgz:26472.got - 2010.06.03 20:04:27.
