data_PCOD9136122
_publ_section_title
;
Structure prediction by ZEFSAII (Michael W. Deem and Ramdas Pophale) SiO2 
 PCOD9136122
Probable space group: C C
;
_chemical_formula_sum "Si O2"
_cell_formula_units_Z 32
_cell_length_a 9.138746
_cell_length_b 31.574794
_cell_length_c 5.165979
_cell_angle_alpha 90.000000
_cell_angle_beta 120.250609
_cell_angle_gamma 90.000000
_cell_volume 1287.680525
_symmetry_space_group_name_H-M "C C"
_symmetry_group_IT_number 9
_symmetry_cell_setting 'monoclinic'
loop_
_space_group_symop_operation_xyz
x,y,z
x,-y,1/2+z
1/2+x,1/2+y,z
1/2+x,1/2-y,1/2+z
loop_
_atom_site_type_symbol
_atom_site_label
_atom_site_fract_x
_atom_site_fract_y
_atom_site_fract_z
Si Si1 0.880910 0.028048 0.473890
Si Si2 0.532624 0.315870 0.801635
Si Si3 0.763444 0.876069 0.822368
Si Si4 0.108319 0.302506 0.991802
Si Si5 0.787218 0.523465 0.848926
Si Si6 0.905892 0.390266 0.269149
Si Si7 0.269309 0.153561 0.139716
Si Si8 0.733157 0.244388 0.108173
O O1 0.804110 0.075162 0.420834
O O2 0.086051 0.033139 0.648253
O O3 0.834851 0.998360 0.675832
O O4 0.425095 0.353066 0.836202
O O5 0.585665 0.329694 0.560249
O O6 0.707958 0.294644 0.058836
O O7 0.421378 0.273962 0.744726
O O8 0.702507 0.846799 0.007589
O O9 0.597739 0.875031 0.488264
O O10 0.171316 0.270086 0.832167
O O11 0.910384 0.310040 0.771032
O O12 0.150286 0.283792 0.305740
O O13 0.820000 0.484827 0.679697
O O14 0.896651 0.560525 0.824066
O O15 0.787741 0.370689 0.389204
O O16 0.829661 0.377786 0.925470
#
# Coordination Sequence:
#
# PCOD9136122 Si02
#       8
#     4   4   4   4   4   4   4   4
#     4  10  23  41  65  99 136 173 219 275 331 392
#     4  11  25  44  69  97 134 177 224 277 334 399
#     4  10  24  43  69 100 135 178 223 273 336 399
#     4  10  23  45  65  93 131 169 217 269 328 396
#     4  10  21  39  62  90 127 170 213 266 333 391
#     4  11  24  42  65  95 129 169 223 273 322 393
#     4  11  23  40  64  91 124 168 215 266 320 382
#     4  11  25  42  65  95 128 170 218 273 330 390
#
# _framework density 24.850887
#
# number of rings (size 3 to 8) (size 9 to 14) (size 15 to 20)
#    0.000    1.500    0.000    4.500    0.000   15.000 
#    0.000    0.000    0.000    0.000    0.000    0.000 
#    0.000    0.000    0.000    0.000    0.000    0.000 
#
# Total GULP energy -89561.695960 kJ/mol
# GULP energy per Si atom -5597.605998 kJ/mol
# Density = 2.479432 g / cm^3
# Si number density = 24.850887 Si / 1000 Ang^3
#
#
#
# Elastic Constant Matrix: (Units=GPa)
#
#
# Indices 1 2 3 4 5 6 
#
# 1 117.0059 48.6305 20.4421 0.0000 -4.1548 0.0000
# 2 48.6305 157.0575 37.1380 0.0000 -11.4610 0.0000
# 3 20.4421 37.1380 75.2040 0.0000 -5.3475 0.0000
# 4 0.0000 0.0000 0.0000 28.7781 0.0000 10.6908
# 5 -4.1548 -11.4610 -5.3475 0.0000 12.8981 0.0000
# 6 0.0000 0.0000 0.0000 10.6908 0.0000 -8.1779
#
#
#
# Elastic Compliance Matrix: (Units=1/GPa)
#
#
# Indices 1 2 3 4 5 6 
#
# 1 0.009927 -0.002744 -0.001328 0.000000 0.000208 0.000000
# 2 -0.002744 0.008306 -0.002982 0.000000 0.005260 0.000000
# 3 -0.001328 -0.002982 0.015365 0.000000 0.003293 0.000000
# 4 0.000000 0.000000 0.000000 0.023390 0.000000 0.030577
# 5 0.000208 0.005260 0.003293 0.000000 0.083637 0.000000
# 6 0.000000 0.000000 0.000000 0.030577 0.000000 -0.082309
#
#
# Mechanical properties :
#
#
# Convention : Reuss Voigt Hill
#
# Bulk Modulus (GPa) = 51.31169 62.40988 56.86078
# Shear Modulus (GPa) = 63.35553 22.90346 43.12950
#
# Velocity S-wave (km/s) = 5.05466 3.03914 4.17049
# Velocity P-wave (km/s) = 7.39992 6.12237 6.79125
#
# Compressibility (1/GPa) = 0.01948874
#
# Stress axis : x y z
#
# Youngs Moduli (GPa) = 100.73885 120.39884 65.08402
#
# Poissons Ratio (x) = 0.33042 0.08645
# Poissons Ratio (y) = 0.27646 0.19406
# Poissons Ratio (z) = 0.13380 0.35898
#
# Static dielectric constant tensor:
#      x y z
#    x 2.080020 0.000000 0.151250 
#    y 0.000000 1.935500 0.000000 
#    z 0.151250 0.000000 2.094660 
# 
# From -- ./inp_files/1409.got.cif
#   From: 2010.05.17/outbox.cif.g08.bks.cpg/sg9_1_cif.got.tgz:1409.got - 2010.06.03 20:04:27.
