data_PCOD9136115
_publ_section_title
;
Structure prediction by ZEFSAII (Michael W. Deem and Ramdas Pophale) SiO2 
 PCOD9136115
Probable space group: C C
;
_chemical_formula_sum "Si O2"
_cell_formula_units_Z 32
_cell_length_a 11.186079
_cell_length_b 17.149198
_cell_length_c 14.787553
_cell_angle_alpha 90.000000
_cell_angle_beta 150.462208
_cell_angle_gamma 90.000000
_cell_volume 1398.500928
_symmetry_space_group_name_H-M "C C"
_symmetry_group_IT_number 9
_symmetry_cell_setting 'monoclinic'
loop_
_space_group_symop_operation_xyz
x,y,z
x,-y,1/2+z
1/2+x,1/2+y,z
1/2+x,1/2-y,1/2+z
loop_
_atom_site_type_symbol
_atom_site_label
_atom_site_fract_x
_atom_site_fract_y
_atom_site_fract_z
Si Si1 0.044360 0.818273 0.368280
Si Si2 0.608699 0.471021 0.164210
Si Si3 0.861856 0.092033 0.216690
Si Si4 0.838527 0.137727 0.011224
Si Si5 0.229486 0.423540 0.045012
Si Si6 0.272473 0.162386 0.205986
Si Si7 0.428802 0.926801 0.546886
Si Si8 0.847392 0.570257 0.626947
O O1 0.109724 0.848052 0.510386
O O2 0.275390 0.849250 0.465780
O O3 0.816563 0.861281 0.175208
O O4 0.974069 0.728692 0.321687
O O5 0.384999 0.417404 0.055010
O O6 0.802608 0.463392 0.374044
O O7 0.724492 0.446064 0.144566
O O8 0.480756 0.556025 0.081354
O O9 0.697680 0.096236 0.196602
O O10 0.138565 0.104317 0.425394
O O11 0.812246 0.005184 0.143982
O O12 0.785926 0.144985 0.082811
O O13 0.581981 0.125169 0.793575
O O14 0.065546 0.193456 0.138100
O O15 0.946133 0.410318 0.843282
O O16 0.417743 0.989422 0.621078
#
# Coordination Sequence:
#
# PCOD9136115 Si02
#       8
#     4   4   4   4   4   4   4   4
#     4  11  24  42  65  96 125 182 232 281 323 397
#     4  10  21  39  61  96 140 167 211 279 342 413
#     4  11  23  39  63 102 139 173 207 285 346 420
#     4  11  24  37  63  96 139 175 213 276 346 405
#     4  10  23  41  64  97 139 171 220 279 347 400
#     4  12  25  43  66  96 130 182 237 277 328 403
#     4  11  22  40  64  98 140 173 225 274 347 409
#     4  12  22  37  62 101 134 177 209 269 359 401
#
# _framework density 22.881646
#
# number of rings (size 3 to 8) (size 9 to 14) (size 15 to 20)
#    0.000    1.000    6.250    2.250    8.750    0.000 
#    0.000    0.000    0.000    3.000    0.000    0.000 
#    0.000    0.000    0.000    0.000    0.000    0.000 
#
# Total GULP energy -89280.961861 kJ/mol
# GULP energy per Si atom -5580.060116 kJ/mol
# Density = 2.282957 g / cm^3
# Si number density = 22.881646 Si / 1000 Ang^3
#
#
#
# Elastic Constant Matrix: (Units=GPa)
#
#
# Indices 1 2 3 4 5 6 
#
# 1 111.7149 10.8188 42.7896 0.0259 -1.0416 0.0136
# 2 10.8188 20.4820 5.2467 -0.0331 -1.4288 -0.0123
# 3 42.7896 5.2467 153.3173 -0.0865 15.7253 -0.0381
# 4 0.0259 -0.0331 -0.0865 -18.4364 -0.0183 -9.6869
# 5 -1.0416 -1.4288 15.7253 -0.0183 37.9123 -0.0077
# 6 0.0136 -0.0123 -0.0381 -9.6869 -0.0077 10.5754
#
#
#
# Elastic Compliance Matrix: (Units=1/GPa)
#
#
# Indices 1 2 3 4 5 6 
#
# 1 0.010538 -0.004727 -0.002915 0.000034 0.001320 0.000003
# 2 -0.004727 0.051636 -0.000662 -0.000090 0.002091 -0.000017
# 3 -0.002915 -0.000662 0.007697 -0.000034 -0.003298 -0.000003
# 4 0.000034 -0.000090 -0.000034 -0.036617 -0.000013 -0.033541
# 5 0.001320 0.002091 -0.003298 -0.000013 0.027859 -0.000003
# 6 0.000003 -0.000017 -0.000003 -0.033541 -0.000003 0.063836
#
#
# Mechanical properties :
#
#
# Convention : Reuss Voigt Hill
#
# Bulk Modulus (GPa) = 18.77513 44.80271 31.78892
# Shear Modulus (GPa) = 31.38515 21.12089 26.25302
#
# Velocity S-wave (km/s) = 3.70757 3.04147 3.39092
# Velocity P-wave (km/s) = 5.15279 5.65303 5.40870
#
# Compressibility (1/GPa) = 0.05326194
#
# Stress axis : x y z
#
# Youngs Moduli (GPa) = 94.89593 19.36640 129.92526
#
# Poissons Ratio (x) = 0.09155 0.37869
# Poissons Ratio (y) = 0.44861 0.08603
# Poissons Ratio (z) = 0.27659 0.01282
#
# Static dielectric constant tensor:
#      x y z
#    x 2.011090 0.000330 0.019700 
#    y 0.000330 2.858910 0.000140 
#    z 0.019700 0.000140 1.843510 
# 
# From -- ./inp_files/25053.got.cif
#   From: 2010.05.17/outbox.cif.g08.bks.cpg/sg9_13_cif.got.tgz:25053.got - 2010.06.03 20:04:27.
