data_PCOD9136253
_publ_section_title
;
Structure prediction by ZEFSAII (Michael W. Deem and Ramdas Pophale) SiO2 
 PCOD9136253
Probable space group: C C
;
_chemical_formula_sum "Si O2"
_cell_formula_units_Z 32
_cell_length_a 20.377986
_cell_length_b 9.091631
_cell_length_c 26.647383
_cell_angle_alpha 90.000000
_cell_angle_beta 161.030450
_cell_angle_gamma 90.000000
_cell_volume 1604.828582
_symmetry_space_group_name_H-M "C C"
_symmetry_group_IT_number 9
_symmetry_cell_setting 'monoclinic'
loop_
_space_group_symop_operation_xyz
x,y,z
x,-y,1/2+z
1/2+x,1/2+y,z
1/2+x,1/2-y,1/2+z
loop_
_atom_site_type_symbol
_atom_site_label
_atom_site_fract_x
_atom_site_fract_y
_atom_site_fract_z
Si Si1 0.390170 0.500183 0.797960
Si Si2 0.774338 0.750022 0.790904
Si Si3 0.093681 0.499862 0.001476
Si Si4 0.658886 0.901807 0.940947
Si Si5 0.967743 0.001495 0.588235
Si Si6 0.289446 0.249920 0.298446
Si Si7 0.827723 0.598041 0.109770
Si Si8 0.665195 0.001398 0.285679
O O1 0.297205 0.364427 0.761886
O O2 0.314007 0.489922 0.685753
O O3 0.304579 0.653808 0.758801
O O4 0.630181 0.503378 0.980727
O O5 0.574875 0.650146 0.646930
O O6 0.751804 0.849918 0.823872
O O7 0.959063 0.635666 0.923714
O O8 0.082634 0.496463 0.933175
O O9 0.993431 0.346310 0.947718
O O10 0.486369 0.884281 0.771889
O O11 0.732687 0.749887 0.020022
O O12 0.864885 0.972007 0.067437
O O13 0.778768 0.964324 0.418112
O O14 0.124132 0.873879 0.689410
O O15 0.229625 0.373761 0.294907
O O16 0.939803 0.527823 0.142339
#
# Coordination Sequence:
#
# PCOD9136253 Si02
#       8
#     4   4   4   4   4   4   4   4
#     4  11  23  40  64  93 125 163 207 255 309 368
#     4  10  22  40  62  92 122 162 204 256 306 362
#     4  11  23  40  64  93 125 163 207 255 309 368
#     4  11  23  40  63  89 124 165 206 255 310 370
#     4  10  21  40  62  88 122 161 205 253 305 364
#     4  10  22  38  62  92 124 160 204 254 308 364
#     4  11  23  40  63  89 124 165 206 255 310 370
#     4  10  21  40  62  88 122 161 205 253 305 364
#
# _framework density 19.939824999999999
#
# number of rings (size 3 to 8) (size 9 to 14) (size 15 to 20)
#    0.000    1.500    2.500    2.250    0.000    6.000 
#    0.000    6.250    0.000    0.000    0.000    0.000 
#    0.000    0.000    0.000    0.000    0.000    0.000 
#
# Total GULP energy -89083.710663 kJ/mol
# GULP energy per Si atom -5567.731916 kJ/mol
# Density = 1.989444 g / cm^3
# Si number density = 19.939825 Si / 1000 Ang^3
#
#
#
# Elastic Constant Matrix: (Units=GPa)
#
#
# Indices 1 2 3 4 5 6 
#
# 1 108.4419 29.9017 38.5848 -0.0068 13.6991 -0.0113
# 2 29.9017 85.9093 18.8873 -0.0764 7.7222 -0.0102
# 3 38.5848 18.8873 87.1083 -0.0663 1.3413 -0.0040
# 4 -0.0068 -0.0764 -0.0663 -1.7380 0.0412 0.2271
# 5 13.6991 7.7222 1.3413 0.0412 33.8232 0.0116
# 6 -0.0113 -0.0102 -0.0040 0.2271 0.0116 -1.4411
#
#
#
# Elastic Compliance Matrix: (Units=1/GPa)
#
#
# Indices 1 2 3 4 5 6 
#
# 1 0.012205 -0.002840 -0.004727 0.000150 -0.004108 -0.000072
# 2 -0.002840 0.013132 -0.001563 -0.000571 -0.001785 -0.000170
# 3 -0.004727 -0.001563 0.013886 -0.000407 0.001721 -0.000040
# 4 0.000150 -0.000571 -0.000407 -0.587402 0.000832 -0.092557
# 5 -0.004108 -0.001785 0.001721 0.000832 0.031567 0.000425
# 6 -0.000072 -0.000170 -0.000040 -0.092557 0.000425 -0.708491
#
#
# Mechanical properties :
#
#
# Convention : Reuss Voigt Hill
#
# Bulk Modulus (GPa) = 47.69966 50.68967 49.19466
# Shear Modulus (GPa) = -4.16717 19.06788 7.45035
#
# Velocity S-wave (km/s) = -1.44721 3.09572 1.93508
# Velocity P-wave (km/s) = 4.60230 6.18502 5.45141
#
# Compressibility (1/GPa) = 0.02096451
#
# Stress axis : x y z
#
# Youngs Moduli (GPa) = 81.93035 76.14990 72.01527
#
# Poissons Ratio (x) = 0.21623 0.34044
# Poissons Ratio (y) = 0.23265 0.11252
# Poissons Ratio (z) = 0.38732 0.11898
#
# Static dielectric constant tensor:
#      x y z
#    x 1.781520 0.000030 0.027980 
#    y 0.000030 1.907790 -0.000010 
#    z 0.027980 -0.000010 1.741550 
# 
# From -- ./inp_files/31191.got.cif
#   From: 2010.05.17/outbox.cif.g08.bks.cpg/sg9_16_cif.got.tgz:31191.got - 2010.06.03 20:04:27.
