data_PCOD9136738
_publ_section_title
;
Structure prediction by ZEFSAII (Michael W. Deem and Ramdas Pophale) SiO2 
 PCOD9136738
Probable space group: C C
;
_chemical_formula_sum "Si O2"
_cell_formula_units_Z 32
_cell_length_a 11.417102
_cell_length_b 9.179913
_cell_length_c 19.184072
_cell_angle_alpha 90.000000
_cell_angle_beta 131.513656
_cell_angle_gamma 90.000000
_cell_volume 1505.565949
_symmetry_space_group_name_H-M "C C"
_symmetry_group_IT_number 9
_symmetry_cell_setting 'monoclinic'
loop_
_space_group_symop_operation_xyz
x,y,z
x,-y,1/2+z
1/2+x,1/2+y,z
1/2+x,1/2-y,1/2+z
loop_
_atom_site_type_symbol
_atom_site_label
_atom_site_fract_x
_atom_site_fract_y
_atom_site_fract_z
Si Si1 0.089900 0.424671 0.297430
Si Si2 0.096854 0.246239 0.775968
Si Si3 0.838995 0.782555 0.657247
Si Si4 0.654241 0.283212 0.452431
Si Si5 0.407695 0.238287 0.831336
Si Si6 0.905492 0.948611 0.091704
Si Si7 0.418931 0.669708 0.982651
Si Si8 0.220218 0.105384 0.494086
O O1 0.063604 0.581840 0.254205
O O2 0.271174 0.400228 0.383892
O O3 0.013754 0.289726 0.224950
O O4 0.994996 0.403671 0.333547
O O5 0.283191 0.215997 0.842148
O O6 0.011555 0.148292 0.684739
O O7 0.060540 0.213814 0.842563
O O8 0.808255 0.798835 0.726561
O O9 0.735594 0.662088 0.578807
O O10 0.826665 0.930939 0.610868
O O11 0.775920 0.151503 0.504221
O O12 0.542556 0.277340 0.475390
O O13 0.744003 0.436091 0.494272
O O14 0.545898 0.349923 0.902027
O O15 0.982756 0.048493 0.061962
O O16 0.342825 0.800319 0.997555
#
# Coordination Sequence:
#
# PCOD9136738 Si02
#       8
#     4   4   4   4   4   4   4   4
#     4   9  20  44  63  98 132 178 221 280 344 399
#     4  12  24  40  69 104 136 176 234 282 344 405
#     4   9  21  44  65  91 132 178 222 277 334 407
#     4  12  26  43  68 104 137 180 225 293 341 401
#     4   9  22  40  69  93 131 179 220 277 339 406
#     4  11  25  45  62 106 136 177 242 280 336 417
#     4  10  23  47  68  93 145 180 222 288 339 408
#     4  10  21  43  68  95 129 180 224 269 349 401
#
# _framework density 21.254467000000002
#
# number of rings (size 3 to 8) (size 9 to 14) (size 15 to 20)
#    0.750    1.000    1.250    2.250    1.750    1.000 
#   11.250    0.000    0.000    0.000    0.000    0.000 
#    0.000    0.000    0.000    0.000    0.000    0.000 
#
# Total GULP energy -89260.218982 kJ/mol
# GULP energy per Si atom -5578.763686 kJ/mol
# Density = 2.120609 g / cm^3
# Si number density = 21.254467 Si / 1000 Ang^3
#
#
#
# Elastic Constant Matrix: (Units=GPa)
#
#
# Indices 1 2 3 4 5 6 
#
# 1 79.0965 -5.2414 -0.2010 0.0000 -2.0099 0.0000
# 2 -5.2414 58.5148 14.3846 0.0000 24.6115 0.0000
# 3 -0.2010 14.3846 75.4420 0.0000 -18.7088 0.0000
# 4 0.0000 0.0000 0.0000 491.9076 0.0000-1082.6644
# 5 -2.0099 24.6115 -18.7088 0.0000 8.3483 0.0000
# 6 0.0000 0.0000 0.0000-1082.6644 0.0000 2576.1534
#
#
#
# Elastic Compliance Matrix: (Units=1/GPa)
#
#
# Indices 1 2 3 4 5 6 
#
# 1 0.012716 0.000839 0.000044 0.000000 0.000687 0.000000
# 2 0.000839 -0.006260 0.013108 0.000000 0.048034 0.000000
# 3 0.000044 0.013108 0.002646 0.000000 -0.032701 0.000000
# 4 0.000000 0.000000 0.000000 0.027098 0.000000 0.011388
# 5 0.000687 0.048034 -0.032701 0.000000 -0.094942 0.000000
# 6 0.000000 0.000000 0.000000 0.011388 0.000000 0.005174
#
#
# Mechanical properties :
#
#
# Convention : Reuss Voigt Hill
#
# Bulk Modulus (GPa) = 26.96567 25.65974 26.31270
# Shear Modulus (GPa) = -72.26636 628.88925 278.31145
#
# Velocity S-wave (km/s) = -5.83732 17.21999 11.45543
# Velocity P-wave (km/s) = 5.71995 20.18587 13.68853
#
# Compressibility (1/GPa) = 0.03708419
#
# Stress axis : x y z
#
# Youngs Moduli (GPa) = 78.64133 -159.73277 377.86325
#
# Poissons Ratio (x) = 0.13402 -0.01675
# Poissons Ratio (y) = -0.06598 -4.95293
# Poissons Ratio (z) = -0.00349 2.09373
#
# Static dielectric constant tensor:
#      x y z
#    x 1.771990 0.000000 -0.023890 
#    y 0.000000 -3.745130 0.000000 
#    z -0.023890 0.000000 1.797750 
# 
# From -- ./inp_files/33226.got.cif
#   From: 2010.05.17/outbox.cif.g08.bks.cpg/sg9_17_cif.got.tgz:33226.got - 2010.06.03 20:04:27.
