data_PCOD9136499
_publ_section_title
;
Structure prediction by ZEFSAII (Michael W. Deem and Ramdas Pophale) SiO2 
 PCOD9136499
Probable space group: C C
;
_chemical_formula_sum "Si O2"
_cell_formula_units_Z 28
_cell_length_a 16.473757
_cell_length_b 17.053041
_cell_length_c 9.247017
_cell_angle_alpha 90.000000
_cell_angle_beta 149.191411
_cell_angle_gamma 90.000000
_cell_volume 1330.490139
_symmetry_space_group_name_H-M "C C"
_symmetry_group_IT_number 9
_symmetry_cell_setting 'monoclinic'
loop_
_space_group_symop_operation_xyz
x,y,z
x,-y,1/2+z
1/2+x,1/2+y,z
1/2+x,1/2-y,1/2+z
loop_
_atom_site_type_symbol
_atom_site_label
_atom_site_fract_x
_atom_site_fract_y
_atom_site_fract_z
Si Si1 0.456000 0.502691 0.827030
Si Si2 0.422421 0.839311 0.872704
Si Si3 0.168397 0.963244 0.398750
Si Si4 0.113282 0.445896 0.373369
Si Si5 0.007047 0.298602 0.692457
Si Si6 0.868153 0.180749 0.687550
Si Si7 0.452247 0.928720 0.423863
O O1 0.514067 0.511138 0.752123
O O2 0.296572 0.455349 0.613517
O O3 0.419358 0.594082 0.808504
O O4 0.604126 0.464371 0.138195
O O5 0.255592 0.885439 0.595021
O O6 0.503771 0.846064 0.839504
O O7 0.409583 0.746207 0.871131
O O8 0.526709 0.876401 0.155764
O O9 0.302451 0.028433 0.625596
O O10 0.082670 0.433290 0.495994
O O11 0.022961 0.520991 0.165448
O O12 0.946111 0.214629 0.657770
O O13 0.905675 0.344617 0.418107
O O14 0.180388 0.306480 0.890326
#
# Coordination Sequence:
#
# PCOD9136499 Si02
#       7
#     4   4   4   4   4   4   4
#     4  12  24  38  66 101 131 159 220 278 315 375
#     4   9  22  43  68  90 130 181 214 253 332 406
#     4  11  23  38  63  97 130 165 215 268 324 374
#     4  11  22  39  69  96 126 170 224 260 323 378
#     4  10  21  41  68  87 126 174 223 251 328 389
#     4  10  23  40  69  90 129 174 214 263 331 392
#     4  11  21  41  65  93 128 175 212 265 319 402
#
# _framework density 21.044875999999999
#
# number of rings (size 3 to 8) (size 9 to 14) (size 15 to 20)
#    0.857    0.571    1.429    6.000    2.000    0.000 
#    0.000    1.429    0.000    0.000    0.000    0.000 
#    0.000    0.000    0.000    0.000    0.000    0.000 
#
# Total GULP energy -78011.086954 kJ/mol
# GULP energy per Si atom -5572.220497 kJ/mol
# Density = 2.099698 g / cm^3
# Si number density = 21.044876 Si / 1000 Ang^3
#
#
#
# Elastic Constant Matrix: (Units=GPa)
#
#
# Indices 1 2 3 4 5 6 
#
# 1 81.8682 18.0493 1.2150 0.0000 4.2901 0.0000
# 2 18.0493 16.3990 3.0416 0.0000 7.4376 0.0000
# 3 1.2150 3.0416 55.6612 0.0000 10.0445 0.0000
# 4 0.0000 0.0000 0.0000 21.5329 0.0000 -1.3334
# 5 4.2901 7.4376 10.0445 0.0000 36.8474 0.0000
# 6 0.0000 0.0000 0.0000 -1.3334 0.0000 20.9598
#
#
#
# Elastic Compliance Matrix: (Units=1/GPa)
#
#
# Indices 1 2 3 4 5 6 
#
# 1 0.016253 -0.018771 0.000346 0.000000 0.001802 0.000000
# 2 -0.018771 0.088889 -0.001687 0.000000 -0.015297 0.000000
# 3 0.000346 -0.001687 0.018927 0.000000 -0.004859 0.000000
# 4 0.000000 0.000000 0.000000 0.046624 0.000000 0.002966
# 5 0.001802 -0.015297 -0.004859 0.000000 0.031341 0.000000
# 6 0.000000 0.000000 0.000000 0.002966 0.000000 0.047899
#
#
# Mechanical properties :
#
#
# Convention : Reuss Voigt Hill
#
# Bulk Modulus (GPa) = 11.92662 22.06001 16.99331
# Shear Modulus (GPa) = 15.71796 24.64286 20.18041
#
# Velocity S-wave (km/s) = 2.73587 3.42565 3.10001
# Velocity P-wave (km/s) = 3.95721 5.11389 4.57228
#
# Compressibility (1/GPa) = 0.08384606
#
# Stress axis : x y z
#
# Youngs Moduli (GPa) = 61.52535 11.24997 52.83347
#
# Poissons Ratio (x) = 0.21117 -0.01827
# Poissons Ratio (y) = 1.15486 0.08914
# Poissons Ratio (z) = -0.02127 0.01898
#
# Static dielectric constant tensor:
#      x y z
#    x 1.782940 0.000000 0.038420 
#    y 0.000000 1.833860 0.000000 
#    z 0.038420 0.000000 1.746740 
# 
# From -- ./inp_files/9951.got.cif
#   From: 2010.05.17/outbox.cif.g08.bks.cpg/sg9_5_cif.got.tgz:9951.got - 2010.06.03 20:04:27.
