data_PCOD9136291
_publ_section_title
;
Structure prediction by ZEFSAII (Michael W. Deem and Ramdas Pophale) SiO2 
 PCOD9136291
Probable space group: C C
;
_chemical_formula_sum "Si O2"
_cell_formula_units_Z 28
_cell_length_a 5.440540
_cell_length_b 18.884676
_cell_length_c 11.689375
_cell_angle_alpha 90.000000
_cell_angle_beta 83.869182
_cell_angle_gamma 90.000000
_cell_volume 1194.130584
_symmetry_space_group_name_H-M "C C"
_symmetry_group_IT_number 9
_symmetry_cell_setting 'monoclinic'
loop_
_space_group_symop_operation_xyz
x,y,z
x,-y,1/2+z
1/2+x,1/2+y,z
1/2+x,1/2-y,1/2+z
loop_
_atom_site_type_symbol
_atom_site_label
_atom_site_fract_x
_atom_site_fract_y
_atom_site_fract_z
Si Si1 0.263080 0.479939 0.000000
Si Si2 0.923293 0.302276 0.821368
Si Si3 0.778552 0.464569 0.412767
Si Si4 0.731739 0.666947 0.764064
Si Si5 0.031997 0.612252 0.095708
Si Si6 0.119683 0.670103 0.551608
Si Si7 0.510462 0.764018 0.460428
O O1 0.539333 0.486889 0.939730
O O2 0.042701 0.494228 0.915613
O O3 0.208872 0.544942 0.089152
O O4 0.229453 0.406922 0.068668
O O5 0.665123 0.299019 0.899568
O O6 0.000886 0.221177 0.783927
O O7 0.942271 0.356658 0.718260
O O8 0.096798 0.326858 0.915833
O O9 0.721337 0.415001 0.305239
O O10 0.809018 0.412565 0.522606
O O11 0.870555 0.675677 0.636746
O O12 0.907414 0.697840 0.853937
O O13 0.164073 0.677069 0.021923
O O14 0.303340 0.735821 0.557923
#
# Coordination Sequence:
#
# PCOD9136291 Si02
#       7
#     4   4   4   4   4   4   4
#     4  10  23  45  67 100 133 180 225 280 342 412
#     4  11  22  39  66  99 133 174 222 288 337 407
#     4   9  22  44  70  91 135 179 226 266 345 405
#     4  10  22  41  66  98 132 178 227 280 344 402
#     4   9  21  40  65  95 134 179 223 274 353 399
#     4  11  25  39  64 102 136 173 233 285 337 408
#     4  10  21  40  64  95 133 173 228 285 338 405
#
# _framework density 23.448024
#
# number of rings (size 3 to 8) (size 9 to 14) (size 15 to 20)
#    0.857    1.143    0.000    2.571    2.000    5.714 
#    0.000    0.000    0.000    0.000    0.000    0.000 
#    0.000    0.000    0.000    0.000    0.000    0.000 
#
# Total GULP energy -78017.165429 kJ/mol
# GULP energy per Si atom -5572.654674 kJ/mol
# Density = 2.339466 g / cm^3
# Si number density = 23.448024 Si / 1000 Ang^3
#
#
#
# Elastic Constant Matrix: (Units=GPa)
#
#
# Indices 1 2 3 4 5 6 
#
# 1 74.9911 -2.2314 9.0024 0.0000 -13.0833 0.0000
# 2 -2.2314 66.1839 12.2491 0.0000 -6.3675 0.0000
# 3 9.0024 12.2491 94.6923 0.0000 -5.4909 0.0000
# 4 0.0000 0.0000 0.0000 14.4470 0.0000 -17.8736
# 5 -13.0833 -6.3675 -5.4909 0.0000 32.1953 0.0000
# 6 0.0000 0.0000 0.0000 -17.8736 0.0000 13.1910
#
#
#
# Elastic Compliance Matrix: (Units=1/GPa)
#
#
# Indices 1 2 3 4 5 6 
#
# 1 0.014559 0.001288 -0.001205 0.000000 0.005965 0.000000
# 2 0.001288 0.015838 -0.001979 0.000000 0.003318 0.000000
# 3 -0.001205 -0.001979 0.010989 0.000000 0.000993 0.000000
# 4 0.000000 0.000000 0.000000 -0.102340 0.000000 -0.138668
# 5 0.005965 0.003318 0.000993 0.000000 0.034310 0.000000
# 6 0.000000 0.000000 0.000000 -0.138668 0.000000 -0.112084
#
#
# Mechanical properties :
#
#
# Convention : Reuss Voigt Hill
#
# Bulk Modulus (GPa) = 26.60004 30.43417 28.51711
# Shear Modulus (GPa) = -40.84806 26.42314 -7.21246
#
# Velocity S-wave (km/s) = -4.17834 3.36055 -1.75574
# Velocity P-wave (km/s) = 3.45096 5.29767 2.84220
#
# Compressibility (1/GPa) = 0.03759392
#
# Stress axis : x y z
#
# Youngs Moduli (GPa) = 68.68781 63.13802 91.00322
#
# Poissons Ratio (x) = -0.08131 0.10964
# Poissons Ratio (y) = -0.08845 0.18008
# Poissons Ratio (z) = 0.08275 0.12494
#
# Static dielectric constant tensor:
#      x y z
#    x 1.916040 0.000000 0.020890 
#    y 0.000000 2.019180 0.000000 
#    z 0.020890 0.000000 1.856500 
# 
# From -- ./inp_files/13232.got.cif
#   From: 2010.05.17/outbox.cif.g08.bks.cpg/sg9_7_cif.got.tgz:13232.got - 2010.06.03 20:04:27.
