data_PCOD9136319
_publ_section_title
;
Structure prediction by ZEFSAII (Michael W. Deem and Ramdas Pophale) SiO2 
 PCOD9136319
Probable space group: C C
;
_chemical_formula_sum "Si O2"
_cell_formula_units_Z 32
_cell_length_a 15.591616
_cell_length_b 13.230520
_cell_length_c 11.594095
_cell_angle_alpha 90.000000
_cell_angle_beta 144.896983
_cell_angle_gamma 90.000000
_cell_volume 1375.337380
_symmetry_space_group_name_H-M "C C"
_symmetry_group_IT_number 9
_symmetry_cell_setting 'monoclinic'
loop_
_space_group_symop_operation_xyz
x,y,z
x,-y,1/2+z
1/2+x,1/2+y,z
1/2+x,1/2-y,1/2+z
loop_
_atom_site_type_symbol
_atom_site_label
_atom_site_fract_x
_atom_site_fract_y
_atom_site_fract_z
Si Si1 0.894530 0.173610 0.230750
Si Si2 0.981083 0.622197 0.935743
Si Si3 0.679969 0.884701 0.991180
Si Si4 0.419824 0.759622 0.804785
Si Si5 0.332619 0.928579 0.865925
Si Si6 0.024776 0.121065 0.138641
Si Si7 0.094786 0.407864 0.316745
Si Si8 0.791069 0.029045 0.301098
O O1 0.892569 0.075776 0.310038
O O2 0.924444 0.264757 0.352243
O O3 0.005142 0.170448 0.243507
O O4 0.731088 0.167600 0.990075
O O5 0.991808 0.586010 0.815513
O O6 0.154688 0.609666 0.167987
O O7 0.871014 0.544773 0.878112
O O8 0.542163 0.811222 0.858946
O O9 0.822978 0.817902 0.123960
O O10 0.704366 0.936223 0.143844
O O11 0.658745 0.978461 0.882907
O O12 0.478797 0.694409 0.980441
O O13 0.319055 0.852006 0.743415
O O14 0.484679 0.889425 0.092525
O O15 0.190858 0.915229 0.791685
O O16 0.908951 0.026405 0.012683
#
# Coordination Sequence:
#
# PCOD9136319 Si02
#       8
#     4   4   4   4   4   4   4   4
#     4  10  22  41  65  96 129 174 221 265 333 403
#     4  10  21  40  66  93 135 174 219 271 332 398
#     4   9  19  38  60  91 120 166 208 263 329 369
#     4  11  19  36  64  91 126 162 215 271 321 380
#     4  12  23  37  65  99 130 173 220 276 329 395
#     4  11  24  37  65 105 129 167 226 279 325 395
#     4  10  23  40  64  89 130 179 210 267 329 399
#     4   9  21  41  63  90 135 173 207 278 334 379
#
# _framework density 23.267018
#
# number of rings (size 3 to 8) (size 9 to 14) (size 15 to 20)
#    0.000    2.000    3.750    1.500    1.750    8.000 
#    0.000    0.000   16.500    0.000    0.000    0.000 
#    0.000    0.000    0.000    0.000    0.000    0.000 
#
# Total GULP energy -89240.966798 kJ/mol
# GULP energy per Si atom -5577.560425 kJ/mol
# Density = 2.321406 g / cm^3
# Si number density = 23.267018 Si / 1000 Ang^3
#
#
#
# Elastic Constant Matrix: (Units=GPa)
#
#
# Indices 1 2 3 4 5 6 
#
# 1 66.6320 27.8787 25.3874 0.0000 29.6370 0.0000
# 2 27.8787 95.7279 56.5076 0.0000 26.3135 0.0000
# 3 25.3874 56.5076 73.9412 0.0000 20.6200 0.0000
# 4 0.0000 0.0000 0.0000 50.2547 0.0000 5.2052
# 5 29.6370 26.3135 20.6200 0.0000 32.5610 0.0000
# 6 0.0000 0.0000 0.0000 5.2052 0.0000 28.4667
#
#
#
# Elastic Compliance Matrix: (Units=1/GPa)
#
#
# Indices 1 2 3 4 5 6 
#
# 1 0.025685 0.000214 -0.002933 0.000000 -0.021694 0.000000
# 2 0.000214 0.020668 -0.013549 0.000000 -0.008317 0.000000
# 3 -0.002933 -0.013549 0.025611 0.000000 -0.002600 0.000000
# 4 0.000000 0.000000 0.000000 0.020283 0.000000 -0.003709
# 5 -0.021694 -0.008317 -0.002600 0.000000 0.058825 0.000000
# 6 0.000000 0.000000 0.000000 -0.003709 0.000000 0.035807
#
#
# Mechanical properties :
#
#
# Convention : Reuss Voigt Hill
#
# Bulk Modulus (GPa) = 25.36233 50.64982 38.00608
# Shear Modulus (GPa) = 21.50014 30.69166 26.09590
#
# Velocity S-wave (km/s) = 3.04313 3.63589 3.35264
# Velocity P-wave (km/s) = 4.82408 6.28032 5.59974
#
# Compressibility (1/GPa) = 0.03942856
#
# Stress axis : x y z
#
# Youngs Moduli (GPa) = 38.93352 48.38377 39.04607
#
# Poissons Ratio (x) = -0.01036 0.11451
# Poissons Ratio (y) = -0.00834 0.52904
# Poissons Ratio (z) = 0.11418 0.65556
#
# Static dielectric constant tensor:
#      x y z
#    x 1.925580 0.000000 0.007360 
#    y 0.000000 1.958900 0.000000 
#    z 0.007360 0.000000 1.898710 
# 
# From -- ./inp_files/26849.got.cif
#   From: 2010.05.17/outbox.cif.g08.bks.cpg/sg9_14_cif.got.tgz:26849.got - 2010.06.03 20:04:27.
