data_PCOD9136880
_publ_section_title
;
Structure prediction by ZEFSAII (Michael W. Deem and Ramdas Pophale) SiO2 
 PCOD9136880
Probable space group: C C
;
_chemical_formula_sum "Si O2"
_cell_formula_units_Z 16
_cell_length_a 22.049761
_cell_length_b 7.178909
_cell_length_c 8.900969
_cell_angle_alpha 90.000000
_cell_angle_beta 34.636593
_cell_angle_gamma 90.000000
_cell_volume 800.811435
_symmetry_space_group_name_H-M "C C"
_symmetry_group_IT_number 9
_symmetry_cell_setting 'monoclinic'
loop_
_space_group_symop_operation_xyz
x,y,z
x,-y,1/2+z
1/2+x,1/2+y,z
1/2+x,1/2-y,1/2+z
loop_
_atom_site_type_symbol
_atom_site_label
_atom_site_fract_x
_atom_site_fract_y
_atom_site_fract_z
Si Si1 0.750000 0.283490 0.820490
Si Si2 0.831866 0.415931 0.345707
Si Si3 0.700373 0.126233 0.427446
Si Si4 0.578750 0.852551 0.867352
O O1 0.766819 0.389090 0.631428
O O2 0.825610 0.376909 0.790896
O O3 0.767519 0.063296 0.758056
O O4 0.632154 0.286207 0.136180
O O5 0.775188 0.285562 0.338205
O O6 0.952437 0.352736 0.128741
O O7 0.633437 0.177357 0.416607
O O8 0.619769 0.053205 0.721453
#
# Coordination Sequence:
#
# PCOD9136880 Si02
#       4
#     4   4   4   4
#     4  10  23  41  61  96 121 161 212 249 302 379
#     4  12  22  43  67  87 130 166 199 260 314 356
#     4  10  21  45  60  93 130 151 215 258 290 381
#     4  10  22  43  62  94 123 164 204 255 312 356
#
# _framework density 19.979733
#
# number of rings (size 3 to 8) (size 9 to 14) (size 15 to 20)
#    1.500    0.000    2.500    3.000    0.000    0.000 
#   13.500    0.000    0.000    0.000    0.000    0.000 
#    0.000    0.000    0.000    0.000    0.000    0.000 
#
# Total GULP energy -44570.277973 kJ/mol
# GULP energy per Si atom -5571.284747 kJ/mol
# Density = 1.993426 g / cm^3
# Si number density = 19.979733 Si / 1000 Ang^3
#
#
#
# Elastic Constant Matrix: (Units=GPa)
#
#
# Indices 1 2 3 4 5 6 
#
# 1 145.0214 51.8748 75.0373 0.0000 -12.5040 0.0000
# 2 51.8748 44.8519 37.5395 0.0000 -5.6847 0.0000
# 3 75.0373 37.5395 69.3921 0.0000 -15.6237 0.0000
# 4 0.0000 0.0000 0.0000 16.7253 0.0000 -0.6541
# 5 -12.5040 -5.6847 -15.6237 0.0000 26.8393 0.0000
# 6 0.0000 0.0000 0.0000 -0.6541 0.0000 30.6026
#
#
#
# Elastic Compliance Matrix: (Units=1/GPa)
#
#
# Indices 1 2 3 4 5 6 
#
# 1 0.017161 -0.007626 -0.014956 0.000000 -0.002326 0.000000
# 2 -0.007626 0.044684 -0.016798 0.000000 -0.003867 0.000000
# 3 -0.014956 -0.016798 0.042927 0.000000 0.014463 0.000000
# 4 0.000000 0.000000 0.000000 0.059840 0.000000 0.001279
# 5 -0.002326 -0.003867 0.014463 0.000000 0.043775 0.000000
# 6 0.000000 0.000000 0.000000 0.001279 0.000000 0.032704
#
#
# Mechanical properties :
#
#
# Convention : Reuss Voigt Hill
#
# Bulk Modulus (GPa) = 38.44061 65.35207 51.89634
# Shear Modulus (GPa) = 15.21975 21.15437 18.18706
#
# Velocity S-wave (km/s) = 2.76299 3.25744 3.02035
# Velocity P-wave (km/s) = 5.42774 6.85041 6.18015
#
# Compressibility (1/GPa) = 0.02601416
#
# Stress axis : x y z
#
# Youngs Moduli (GPa) = 58.27152 22.37926 23.29555
#
# Poissons Ratio (x) = 0.17066 0.34840
# Poissons Ratio (y) = 0.44436 0.39131
# Poissons Ratio (z) = 0.87148 0.37592
#
# Static dielectric constant tensor:
#      x y z
#    x 1.681650 0.000000 0.041720 
#    y 0.000000 1.764950 0.000000 
#    z 0.041720 0.000000 1.696490 
# 
# From -- ./inp_files/4596.got.cif
#   From: 2010.05.17/outbox.cif.g08.bks.cpg/sg9_3_cif.got.tgz:4596.got - 2010.06.03 20:04:27.
