data_PCOD9136902
_publ_section_title
;
Structure prediction by ZEFSAII (Michael W. Deem and Ramdas Pophale) SiO2 
 PCOD9136902
Probable space group: C C
;
_chemical_formula_sum "Si O2"
_cell_formula_units_Z 32
_cell_length_a 9.397457
_cell_length_b 17.295477
_cell_length_c 11.347786
_cell_angle_alpha 90.000000
_cell_angle_beta 54.609976
_cell_angle_gamma 90.000000
_cell_volume 1503.603955
_symmetry_space_group_name_H-M "C C"
_symmetry_group_IT_number 9
_symmetry_cell_setting 'monoclinic'
loop_
_space_group_symop_operation_xyz
x,y,z
x,-y,1/2+z
1/2+x,1/2+y,z
1/2+x,1/2-y,1/2+z
loop_
_atom_site_type_symbol
_atom_site_label
_atom_site_fract_x
_atom_site_fract_y
_atom_site_fract_z
Si Si1 0.824980 0.286909 0.972350
Si Si2 0.410858 0.300375 0.190082
Si Si3 0.374470 0.766956 0.471795
Si Si4 0.635600 0.093994 0.865760
Si Si5 0.529394 0.672603 0.033845
Si Si6 0.397431 0.391683 0.844593
Si Si7 0.084308 0.571794 0.339889
Si Si8 0.344506 0.448113 0.492685
O O1 0.860581 0.233148 0.841749
O O2 0.934251 0.365330 0.896437
O O3 0.619404 0.302139 0.081597
O O4 0.895112 0.239769 0.054208
O O5 0.333692 0.242421 0.129246
O O6 0.318464 0.383676 0.214317
O O7 0.517435 0.832947 0.396499
O O8 0.215987 0.788903 0.462808
O O9 0.434072 0.681635 0.407565
O O10 0.530445 0.016696 0.886365
O O11 0.706435 0.082530 0.963025
O O12 0.494330 0.629434 0.175495
O O13 0.505876 0.608246 0.944282
O O14 0.196287 0.398606 0.897997
O O15 0.419796 0.471851 0.904293
O O16 0.225076 0.558942 0.167319
#
# Coordination Sequence:
#
# PCOD9136902 Si02
#       8
#     4   4   4   4   4   4   4   4
#     4  12  24  46  76 108 142 202 246 304 361 458
#     4  12  24  44  74 102 144 198 246 298 376 436
#     4  12  23  43  66 106 145 182 240 311 362 430
#     4  11  23  44  65  99 141 183 234 297 356 429
#     4  11  23  41  71 107 144 183 251 299 368 442
#     4  10  22  41  71 100 143 185 234 302 373 422
#     4  10  22  44  68  98 139 187 237 289 362 427
#     4  10  21  45  69  96 140 190 232 298 360 442
#
# _framework density 21.282201000000001
#
# number of rings (size 3 to 8) (size 9 to 14) (size 15 to 20)
#    0.000    1.000    3.750    3.750    0.000    0.000 
#    9.000    0.000    0.000    0.000    0.000    0.000 
#    0.000    0.000    0.000    0.000    0.000    0.000 
#
# Total GULP energy -89185.063815 kJ/mol
# GULP energy per Si atom -5574.066488 kJ/mol
# Density = 2.123376 g / cm^3
# Si number density = 21.282201 Si / 1000 Ang^3
#
#
#
# Elastic Constant Matrix: (Units=GPa)
#
#
# Indices 1 2 3 4 5 6 
#
# 1 67.4304 55.2603 -0.9471 0.0000 10.6644 0.0000
# 2 55.2603 176.7251 34.3137 0.0000 -2.7693 0.0000
# 3 -0.9471 34.3137 48.1642 0.0000 7.4482 0.0000
# 4 0.0000 0.0000 0.0000 28.3997 0.0000 2.9937
# 5 10.6644 -2.7693 7.4482 0.0000 22.0021 0.0000
# 6 0.0000 0.0000 0.0000 2.9937 0.0000 43.9275
#
#
#
# Elastic Compliance Matrix: (Units=1/GPa)
#
#
# Indices 1 2 3 4 5 6 
#
# 1 0.026616 -0.010729 0.010944 0.000000 -0.017956 0.000000
# 2 -0.010729 0.011029 -0.009590 0.000000 0.009835 0.000000
# 3 0.010944 -0.009590 0.030408 0.000000 -0.016805 0.000000
# 4 0.000000 0.000000 0.000000 0.035466 0.000000 -0.002417
# 5 -0.017956 0.009835 -0.016805 0.000000 0.061080 0.000000
# 6 0.000000 0.000000 0.000000 -0.002417 0.000000 0.022930
#
#
# Mechanical properties :
#
#
# Convention : Reuss Voigt Hill
#
# Bulk Modulus (GPa) = 20.28223 52.17485 36.22854
# Shear Modulus (GPa) = 22.45032 32.44537 27.44785
#
# Velocity S-wave (km/s) = 3.25143 3.90876 3.59515
# Velocity P-wave (km/s) = 4.86277 6.70374 5.85605
#
# Compressibility (1/GPa) = 0.04930424
#
# Stress axis : x y z
#
# Youngs Moduli (GPa) = 37.57124 90.66697 32.88593
#
# Poissons Ratio (x) = 0.97275 -0.35989
# Poissons Ratio (y) = 0.40310 0.31536
# Poissons Ratio (z) = -0.41117 0.86945
#
# Static dielectric constant tensor:
#      x y z
#    x 1.755110 0.000000 0.023210 
#    y 0.000000 1.835570 0.000000 
#    z 0.023210 0.000000 1.884170 
# 
# From -- ./inp_files/14723.got.cif
#   From: 2010.05.17/outbox.cif.g08.bks.cpg/sg9_8_cif.got.tgz:14723.got - 2010.06.03 20:04:27.
