data_PCOD9136375
_publ_section_title
;
Structure prediction by ZEFSAII (Michael W. Deem and Ramdas Pophale) SiO2 
 PCOD9136375
Probable space group: C C
;
_chemical_formula_sum "Si O2"
_cell_formula_units_Z 32
_cell_length_a 7.224102
_cell_length_b 12.007719
_cell_length_c 12.986747
_cell_angle_alpha 90.000000
_cell_angle_beta 82.347964
_cell_angle_gamma 90.000000
_cell_volume 1116.503420
_symmetry_space_group_name_H-M "C C"
_symmetry_group_IT_number 9
_symmetry_cell_setting 'monoclinic'
loop_
_space_group_symop_operation_xyz
x,y,z
x,-y,1/2+z
1/2+x,1/2+y,z
1/2+x,1/2-y,1/2+z
loop_
_atom_site_type_symbol
_atom_site_label
_atom_site_fract_x
_atom_site_fract_y
_atom_site_fract_z
Si Si1 0.966780 0.455966 0.949880
Si Si2 0.686692 0.350359 0.441549
Si Si3 0.324265 0.569739 0.867124
Si Si4 0.474285 0.153065 0.236280
Si Si5 0.701278 0.655736 0.602734
Si Si6 0.103448 0.095917 0.173296
Si Si7 0.926182 0.850287 0.947887
Si Si8 0.239638 0.519480 0.652945
O O1 0.134796 0.546802 0.944537
O O2 0.022126 0.380494 0.849042
O O3 0.790949 0.530600 0.926997
O O4 0.910901 0.373319 0.047514
O O5 0.483721 0.354101 0.404010
O O6 0.668327 0.340249 0.565148
O O7 0.829945 0.254025 0.401712
O O8 0.258662 0.591183 0.756337
O O9 0.431423 0.449471 0.864906
O O10 0.097456 0.754859 0.182997
O O11 0.543554 0.044026 0.167467
O O12 0.248466 0.152631 0.242054
O O13 0.650016 0.536528 0.658002
O O14 0.609671 0.679872 0.497097
O O15 0.883014 0.083993 0.163200
O O16 0.810579 0.907755 0.051956
#
# Coordination Sequence:
#
# PCOD9136375 Si02
#       8
#     4   4   4   4   4   4   4   4
#     4  10  24  46  72 107 150 204 255 332 389 470
#     4  11  22  45  74 103 154 201 251 327 391 473
#     4  11  23  47  72 105 153 197 261 323 392 457
#     4  11  23  46  71 104 150 198 259 320 395 456
#     4  10  22  44  72 106 148 193 258 314 384 467
#     4  10  21  40  69  99 147 195 240 319 388 447
#     4  11  23  45  70 109 147 200 261 309 411 462
#     4  10  24  45  68 105 149 190 257 330 378 478
#
# _framework density 28.660907999999999
#
# number of rings (size 3 to 8) (size 9 to 14) (size 15 to 20)
#    0.000    1.500    5.000    0.750    3.500    1.000 
#   15.750    3.750    0.000    0.000    0.000    0.000 
#    0.000    0.000    0.000    0.000    0.000    0.000 
#
# Total GULP energy -89359.473363 kJ/mol
# GULP energy per Si atom -5584.967085 kJ/mol
# Density = 2.859567 g / cm^3
# Si number density = 28.660908 Si / 1000 Ang^3
#
#
#
# Elastic Constant Matrix: (Units=GPa)
#
#
# Indices 1 2 3 4 5 6 
#
# 1 152.7666 38.5234 -17.3224 0.0000 -2.9922 0.0000
# 2 38.5234 164.2864 18.9046 0.0000 6.6313 0.0000
# 3 -17.3224 18.9046 62.8288 0.0000 -1.9504 0.0000
# 4 0.0000 0.0000 0.0000 34.2117 0.0000 -12.2579
# 5 -2.9922 6.6313 -1.9504 0.0000 29.1062 0.0000
# 6 0.0000 0.0000 0.0000 -12.2579 0.0000 51.2575
#
#
#
# Elastic Compliance Matrix: (Units=1/GPa)
#
#
# Indices 1 2 3 4 5 6 
#
# 1 0.007415 -0.002110 0.002723 0.000000 0.001425 0.000000
# 2 -0.002110 0.006978 -0.002743 0.000000 -0.001990 0.000000
# 3 0.002723 -0.002743 0.017557 0.000000 0.002081 0.000000
# 4 0.000000 0.000000 0.000000 0.031969 0.000000 0.007645
# 5 0.001425 -0.001990 0.002081 0.000000 0.035096 0.000000
# 6 0.000000 0.000000 0.000000 0.007645 0.000000 0.021338
#
#
# Mechanical properties :
#
#
# Convention : Reuss Voigt Hill
#
# Bulk Modulus (GPa) = 36.11303 51.12142 43.61723
# Shear Modulus (GPa) = 37.35779 45.56682 41.46231
#
# Velocity S-wave (km/s) = 3.61424 3.99163 3.80761
# Velocity P-wave (km/s) = 5.48128 6.25456 5.88064
#
# Compressibility (1/GPa) = 0.02769084
#
# Stress axis : x y z
#
# Youngs Moduli (GPa) = 134.86874 143.31646 56.95731
#
# Poissons Ratio (x) = 0.30233 -0.15511
# Poissons Ratio (y) = 0.28451 0.15623
# Poissons Ratio (z) = -0.36728 0.39310
#
# Static dielectric constant tensor:
#      x y z
#    x 2.359930 0.000000 0.020650 
#    y 0.000000 2.212350 0.000000 
#    z 0.020650 0.000000 2.308180 
# 
# From -- ./inp_files/22906.got.cif
#   From: 2010.05.17/outbox.cif.g08.bks.cpg/sg9_12_cif.got.tgz:22906.got - 2010.06.03 20:04:27.
