data_PCOD9136727
_publ_section_title
;
Structure prediction by ZEFSAII (Michael W. Deem and Ramdas Pophale) SiO2 
 PCOD9136727
Probable space group: C C
;
_chemical_formula_sum "Si O2"
_cell_formula_units_Z 28
_cell_length_a 11.262247
_cell_length_b 9.167915
_cell_length_c 15.111845
_cell_angle_alpha 90.000000
_cell_angle_beta 131.393138
_cell_angle_gamma 90.000000
_cell_volume 1170.535370
_symmetry_space_group_name_H-M "C C"
_symmetry_group_IT_number 9
_symmetry_cell_setting 'monoclinic'
loop_
_space_group_symop_operation_xyz
x,y,z
x,-y,1/2+z
1/2+x,1/2+y,z
1/2+x,1/2-y,1/2+z
loop_
_atom_site_type_symbol
_atom_site_label
_atom_site_fract_x
_atom_site_fract_y
_atom_site_fract_z
Si Si1 0.317760 0.315897 0.818940
Si Si2 0.409720 0.384489 0.446952
Si Si3 0.256739 0.974038 0.385535
Si Si4 0.781648 0.689719 0.240922
Si Si5 0.732853 0.502783 0.077289
Si Si6 0.628742 0.014495 0.593239
Si Si7 0.176979 0.704425 0.982116
O O1 0.343640 0.455342 0.894001
O O2 0.239993 0.181549 0.830881
O O3 0.205850 0.389339 0.691603
O O4 0.494164 0.256541 0.876632
O O5 0.413037 0.280649 0.362689
O O6 0.586667 0.429058 0.560393
O O7 0.296461 0.304092 0.459851
O O8 0.192100 0.970926 0.453919
O O9 0.441266 0.000746 0.499357
O O10 0.209841 0.090229 0.286394
O O11 0.858347 0.591317 0.198658
O O12 0.684808 0.829292 0.154447
O O13 0.745298 0.329303 0.082316
O O14 0.679180 0.958545 0.521855
#
# Coordination Sequence:
#
# PCOD9136727 Si02
#       7
#     4   4   4   4   4   4   4
#     4   9  22  42  67  98 135 185 236 293 369 425
#     4  10  22  43  64 100 139 183 240 295 355 441
#     4  11  23  45  67 103 144 180 243 309 357 437
#     4  11  23  42  64 102 140 190 237 297 360 428
#     4  11  24  41  69 101 138 185 242 292 368 430
#     4  10  23  44  70 102 139 191 247 295 373 434
#     4  10  21  43  67  96 143 186 235 303 356 435
#
# _framework density 23.920679
#
# number of rings (size 3 to 8) (size 9 to 14) (size 15 to 20)
#    0.000    1.714    1.429    1.714    2.000    2.286 
#   15.429    0.000    0.000    0.000    0.000    0.000 
#    0.000    0.000    0.000    0.000    0.000    0.000 
#
# Total GULP energy -77977.932341 kJ/mol
# GULP energy per Si atom -5569.852310 kJ/mol
# Density = 2.386623 g / cm^3
# Si number density = 23.920679 Si / 1000 Ang^3
#
#
#
# Elastic Constant Matrix: (Units=GPa)
#
#
# Indices 1 2 3 4 5 6 
#
# 1 72.2908 45.1445 42.8240 0.0000 -28.2805 0.0000
# 2 45.1445 188.0008 62.0504 0.0000 -25.9484 0.0000
# 3 42.8240 62.0504 106.2808 0.0000 -20.2489 0.0000
# 4 0.0000 0.0000 0.0000 960.6249 0.0000 41.2136
# 5 -28.2805 -25.9484 -20.2489 0.0000 21.4220 0.0000
# 6 0.0000 0.0000 0.0000 41.2136 0.0000 23.7176
#
#
#
# Elastic Compliance Matrix: (Units=1/GPa)
#
#
# Indices 1 2 3 4 5 6 
#
# 1 0.031375 -0.000885 -0.005413 0.000000 0.035232 0.000000
# 2 -0.000885 0.007147 -0.002914 0.000000 0.004735 0.000000
# 3 -0.005413 -0.002914 0.013730 0.000000 0.002302 0.000000
# 4 0.000000 0.000000 0.000000 0.001125 0.000000 -0.001955
# 5 0.035232 0.004735 0.002302 0.000000 0.101104 0.000000
# 6 0.000000 0.000000 0.000000 -0.001955 0.000000 0.045559
#
#
# Mechanical properties :
#
#
# Convention : Reuss Voigt Hill
#
# Bulk Modulus (GPa) = 29.56110 74.06783 51.81447
# Shear Modulus (GPa) = 21.76380 215.58980 118.67680
#
# Velocity S-wave (km/s) = 3.01961 9.50382 7.05127
# Velocity P-wave (km/s) = 4.95401 12.30696 9.38093
#
# Compressibility (1/GPa) = 0.03382824
#
# Stress axis : x y z
#
# Youngs Moduli (GPa) = 31.87266 139.92199 72.83258
#
# Poissons Ratio (x) = 0.12378 0.39425
# Poissons Ratio (y) = 0.02820 0.21224
# Poissons Ratio (z) = 0.17253 0.40774
#
# Static dielectric constant tensor:
#      x y z
#    x 1.984030 0.000000 -0.021610 
#    y 0.000000 1.214840 0.000000 
#    z -0.021610 0.000000 2.415050 
# 
# From -- ./inp_files/24314.got.cif
#   From: 2010.05.17/outbox.cif.g08.bks.cpg/sg9_13_cif.got.tgz:24314.got - 2010.06.03 20:04:27.
