data_PCOD9136942
_publ_section_title
;
Structure prediction by ZEFSAII (Michael W. Deem and Ramdas Pophale) SiO2 
 PCOD9136942
Probable space group: C C
;
_chemical_formula_sum "Si O2"
_cell_formula_units_Z 28
_cell_length_a 10.076361
_cell_length_b 11.931307
_cell_length_c 21.502637
_cell_angle_alpha 90.000000
_cell_angle_beta 26.894948
_cell_angle_gamma 90.000000
_cell_volume 1169.402152
_symmetry_space_group_name_H-M "C C"
_symmetry_group_IT_number 9
_symmetry_cell_setting 'monoclinic'
loop_
_space_group_symop_operation_xyz
x,y,z
x,-y,1/2+z
1/2+x,1/2+y,z
1/2+x,1/2-y,1/2+z
loop_
_atom_site_type_symbol
_atom_site_label
_atom_site_fract_x
_atom_site_fract_y
_atom_site_fract_z
Si Si1 0.946690 0.061062 0.010460
Si Si2 0.422984 0.806696 0.362562
Si Si3 0.925486 0.034158 0.785334
Si Si4 0.301144 0.894534 0.547819
Si Si5 0.491696 0.426633 0.877580
Si Si6 0.955223 0.294428 0.772558
Si Si7 0.470528 0.318533 0.058158
O O1 0.753478 0.147295 0.130022
O O2 0.934960 0.946866 0.054197
O O3 0.261028 0.123786 0.876033
O O4 0.850737 0.019562 0.982065
O O5 0.343148 0.874711 0.457653
O O6 0.322384 0.679530 0.418432
O O7 0.770464 0.801204 0.202121
O O8 0.977336 0.163660 0.749469
O O9 0.583976 0.030594 0.947531
O O10 0.012974 0.956527 0.691361
O O11 0.107464 0.991492 0.768821
O O12 0.333443 0.774566 0.568423
O O13 0.725931 0.364050 0.824777
O O14 0.818493 0.300494 0.899723
#
# Coordination Sequence:
#
# PCOD9136942 Si02
#       7
#     4   4   4   4   4   4   4
#     4  11  25  43  72 114 136 192 248 290 360 438
#     4  12  24  45  74 103 148 189 242 296 360 436
#     4  11  25  46  73 104 144 193 241 291 369 430
#     4  11  25  46  72 106 143 195 237 300 368 424
#     4  11  24  47  75  99 152 192 227 310 360 419
#     4  10  24  45  67 111 140 183 251 286 362 429
#     4  10  21  46  69  97 145 188 228 297 365 412
#
# _framework density 23.943857999999999
#
# number of rings (size 3 to 8) (size 9 to 14) (size 15 to 20)
#    0.000    1.143    5.714    1.714    6.000    0.000 
#    2.571    0.000    0.000    0.000    0.000    0.000 
#    0.000    0.000    0.000    0.000    0.000    0.000 
#
# Total GULP energy -78089.156105 kJ/mol
# GULP energy per Si atom -5577.796865 kJ/mol
# Density = 2.388936 g / cm^3
# Si number density = 23.943858 Si / 1000 Ang^3
#
#
#
# Elastic Constant Matrix: (Units=GPa)
#
#
# Indices 1 2 3 4 5 6 
#
# 1 53.1614 35.8523 28.2568 -0.0012 18.5211 -0.0063
# 2 35.8523 99.9633 43.7243 0.0171 4.9129 -0.0092
# 3 28.2568 43.7243 112.5121 -0.0040 25.6042 -0.0094
# 4 -0.0012 0.0171 -0.0040 41.8080 0.0160 4.5545
# 5 18.5211 4.9129 25.6042 0.0160 35.8633 0.0074
# 6 -0.0063 -0.0092 -0.0094 4.5545 0.0074 28.8866
#
#
#
# Elastic Compliance Matrix: (Units=1/GPa)
#
#
# Indices 1 2 3 4 5 6 
#
# 1 0.030876 -0.010113 -0.000610 0.000010 -0.014125 0.000005
# 2 -0.010113 0.015489 -0.004997 -0.000010 0.006668 0.000001
# 3 -0.000610 -0.004997 0.012842 0.000006 -0.008169 0.000004
# 4 0.000010 -0.000010 0.000006 0.024337 -0.000018 -0.003837
# 5 -0.014125 0.006668 -0.008169 -0.000018 0.040097 -0.000011
# 6 0.000005 0.000001 0.000004 -0.003837 -0.000011 0.035223
#
#
# Mechanical properties :
#
#
# Convention : Reuss Voigt Hill
#
# Bulk Modulus (GPa) = 36.01375 53.47817 44.74596
# Shear Modulus (GPa) = 25.05534 31.83182 28.44358
#
# Velocity S-wave (km/s) = 3.23835 3.65010 3.45037
# Velocity P-wave (km/s) = 5.39037 6.33621 5.88233
#
# Compressibility (1/GPa) = 0.02776717
#
# Stress axis : x y z
#
# Youngs Moduli (GPa) = 32.38769 64.56352 77.86958
#
# Poissons Ratio (x) = 0.65292 0.04750
# Poissons Ratio (y) = 0.32753 0.38911
# Poissons Ratio (z) = 0.01976 0.32262
#
# Static dielectric constant tensor:
#      x y z
#    x 1.990120 0.000000 -0.020850 
#    y 0.000000 1.872030 0.000010 
#    z -0.020850 0.000010 1.975770 
# 
# From -- ./inp_files/35365.got.cif
#   From: 2010.05.17/outbox.cif.g08.bks.cpg/sg9_18_cif.got.tgz:35365.got - 2010.06.03 20:04:27.
