data_PCOD9136241
_publ_section_title
;
Structure prediction by ZEFSAII (Michael W. Deem and Ramdas Pophale) SiO2 
 PCOD9136241
Probable space group: C C
;
_chemical_formula_sum "Si O2"
_cell_formula_units_Z 28
_cell_length_a 20.381991
_cell_length_b 5.502158
_cell_length_c 9.897132
_cell_angle_alpha 90.000000
_cell_angle_beta 108.385453
_cell_angle_gamma 90.000000
_cell_volume 1053.258948
_symmetry_space_group_name_H-M "C C"
_symmetry_group_IT_number 9
_symmetry_cell_setting 'monoclinic'
loop_
_space_group_symop_operation_xyz
x,y,z
x,-y,1/2+z
1/2+x,1/2+y,z
1/2+x,1/2-y,1/2+z
loop_
_atom_site_type_symbol
_atom_site_label
_atom_site_fract_x
_atom_site_fract_y
_atom_site_fract_z
Si Si1 0.680490 0.534183 0.865090
Si Si2 0.332487 0.655061 0.298936
Si Si3 0.557307 0.022854 0.986642
Si Si4 0.216676 0.537921 0.010857
Si Si5 0.083820 0.983725 0.556245
Si Si6 0.365401 0.158972 0.397284
Si Si7 0.940957 0.550502 0.716615
O O1 0.714754 0.793545 0.921012
O O2 0.649705 0.501433 0.696791
O O3 0.720692 0.291553 0.933777
O O4 0.612972 0.526965 0.922163
O O5 0.344464 0.436195 0.411372
O O6 0.403261 0.719556 0.264867
O O7 0.313834 0.930439 0.336097
O O8 0.274656 0.549711 0.161873
O O9 0.519580 0.036116 0.817626
O O10 0.640226 0.033920 0.027790
O O11 0.539360 0.274353 0.048927
O O12 0.543934 0.767060 0.049318
O O13 0.413592 0.056666 0.547690
O O14 0.405181 0.166129 0.279506
#
# Coordination Sequence:
#
# PCOD9136241 Si02
#       7
#     4   4   4   4   4   4   4
#     4  10  21  40  60  93 130 168 207 271 329 395
#     4  10  24  45  68  98 138 180 229 280 338 410
#     4  10  23  41  68  97 131 174 220 279 334 395
#     4  10  21  44  64 100 129 176 220 278 332 397
#     4  10  22  39  60  93 132 164 214 263 336 388
#     4  10  25  44  71  96 136 185 230 280 338 411
#     4  10  26  45  71  99 140 181 232 279 345 408
#
# _framework density 26.584153000000001
#
# number of rings (size 3 to 8) (size 9 to 14) (size 15 to 20)
#    0.857    1.143    0.000    1.714    4.000    4.571 
#   15.429    0.000    0.000    0.000    0.000    0.000 
#    0.000    0.000    0.000    0.000    0.000    0.000 
#
# Total GULP energy -78269.710101 kJ/mol
# GULP energy per Si atom -5590.693579 kJ/mol
# Density = 2.652365 g / cm^3
# Si number density = 26.584153 Si / 1000 Ang^3
#
#
#
# Elastic Constant Matrix: (Units=GPa)
#
#
# Indices 1 2 3 4 5 6 
#
# 1 53.2788 7.2221 9.1288 0.0000 4.8086 0.0000
# 2 7.2221 245.4892 51.9623 0.0000 2.8891 0.0000
# 3 9.1288 51.9623 131.9882 0.0000 30.7740 0.0000
# 4 0.0000 0.0000 0.0000 46.8262 0.0000 -4.4347
# 5 4.8086 2.8891 30.7740 0.0000 34.8963 0.0000
# 6 0.0000 0.0000 0.0000 -4.4347 0.0000 28.5187
#
#
#
# Elastic Compliance Matrix: (Units=1/GPa)
#
#
# Indices 1 2 3 4 5 6 
#
# 1 0.019122 -0.000389 -0.000708 0.000000 -0.001978 0.000000
# 2 -0.000389 0.004513 -0.002109 0.000000 0.001540 0.000000
# 3 -0.000708 -0.002109 0.010564 0.000000 -0.009044 0.000000
# 4 0.000000 0.000000 0.000000 0.021675 0.000000 0.003370
# 5 -0.001978 0.001540 -0.009044 0.000000 0.036777 0.000000
# 6 0.000000 0.000000 0.000000 0.003370 0.000000 0.035589
#
#
# Mechanical properties :
#
#
# Convention : Reuss Voigt Hill
#
# Bulk Modulus (GPa) = 35.98814 63.04250 49.51532
# Shear Modulus (GPa) = 34.74270 46.21111 40.47690
#
# Velocity S-wave (km/s) = 3.61902 4.17381 3.90628
# Velocity P-wave (km/s) = 5.57045 6.85517 6.24593
#
# Compressibility (1/GPa) = 0.02778693
#
# Stress axis : x y z
#
# Youngs Moduli (GPa) = 52.29627 221.57146 94.65768
#
# Poissons Ratio (x) = 0.08628 0.06701
# Poissons Ratio (y) = 0.02036 0.19962
# Poissons Ratio (z) = 0.03702 0.46727
#
# Static dielectric constant tensor:
#      x y z
#    x 2.204690 0.000000 -0.028140 
#    y 0.000000 2.106480 0.000000 
#    z -0.028140 0.000000 1.980100 
# 
# From -- ./inp_files/19729.got.cif
#   From: 2010.05.17/outbox.cif.g08.bks.cpg/sg9_10_cif.got.tgz:19729.got - 2010.06.03 20:04:27.
