data_PCOD9136376
_publ_section_title
;
Structure prediction by ZEFSAII (Michael W. Deem and Ramdas Pophale) SiO2 
 PCOD9136376
Probable space group: C C
;
_chemical_formula_sum "Si O2"
_cell_formula_units_Z 32
_cell_length_a 8.993681
_cell_length_b 11.819059
_cell_length_c 13.354642
_cell_angle_alpha 90.000000
_cell_angle_beta 103.955291
_cell_angle_gamma 90.000000
_cell_volume 1377.656998
_symmetry_space_group_name_H-M "C C"
_symmetry_group_IT_number 9
_symmetry_cell_setting 'monoclinic'
loop_
_space_group_symop_operation_xyz
x,y,z
x,-y,1/2+z
1/2+x,1/2+y,z
1/2+x,1/2-y,1/2+z
loop_
_atom_site_type_symbol
_atom_site_label
_atom_site_fract_x
_atom_site_fract_y
_atom_site_fract_z
Si Si1 0.127950 0.700121 0.918380
Si Si2 0.353978 0.907219 0.994842
Si Si3 0.695312 0.392331 0.590047
Si Si4 0.078068 0.389531 0.209467
Si Si5 0.933943 0.595097 0.293385
Si Si6 0.414215 0.293977 0.041733
Si Si7 0.404905 0.533042 0.950743
Si Si8 0.440882 0.647088 0.759268
O O1 0.238558 0.808690 0.942626
O O2 0.039127 0.690450 0.798297
O O3 0.242660 0.594412 0.933803
O O4 0.021653 0.709565 0.997444
O O5 0.427863 0.951017 0.904170
O O6 0.479622 0.865938 0.095082
O O7 0.261016 0.003602 0.036412
O O8 0.767765 0.404203 0.711988
O O9 0.769993 0.279548 0.554809
O O10 0.515330 0.406808 0.549441
O O11 0.257692 0.373357 0.219367
O O12 0.038259 0.516987 0.239647
O O13 0.978438 0.726917 0.304911
O O14 0.496394 0.347338 0.153848
O O15 0.383032 0.401148 0.966905
O O16 0.480380 0.560452 0.854226
#
# Coordination Sequence:
#
# PCOD9136376 Si02
#       8
#     4   4   4   4   4   4   4   4
#     4  11  24  46  69 104 142 181 238 287 350 420
#     4  11  21  43  75  98 142 190 232 292 354 416
#     4  10  24  43  71 102 136 191 230 289 356 411
#     4  10  23  41  71 108 136 192 235 285 358 414
#     4  10  21  40  70 100 138 182 240 283 342 427
#     4  11  25  47  66 102 147 179 241 291 340 428
#     4  11  24  45  68 104 139 186 230 293 352 412
#     4  10  24  43  66 104 144 181 240 288 348 424
#
# _framework density 23.227841999999999
#
# number of rings (size 3 to 8) (size 9 to 14) (size 15 to 20)
#    0.000    1.500    3.750    0.750    3.500    8.000 
#    4.500    0.000    0.000    0.000    0.000    0.000 
#    0.000    0.000    0.000    0.000    0.000    0.000 
#
# Total GULP energy -89441.159735 kJ/mol
# GULP energy per Si atom -5590.072483 kJ/mol
# Density = 2.317497 g / cm^3
# Si number density = 23.227842 Si / 1000 Ang^3
#
#
#
# Elastic Constant Matrix: (Units=GPa)
#
#
# Indices 1 2 3 4 5 6 
#
# 1 59.4574 10.7646 30.8914 0.0000 -0.3897 0.0000
# 2 10.7646 81.3724 41.9749 0.0000 15.8905 0.0000
# 3 30.8914 41.9749 157.9665 0.0000 -11.6818 0.0000
# 4 0.0000 0.0000 0.0000 36.2770 0.0000 -2.6830
# 5 -0.3897 15.8905 -11.6818 0.0000 26.6851 0.0000
# 6 0.0000 0.0000 0.0000 -2.6830 0.0000 26.3547
#
#
#
# Elastic Compliance Matrix: (Units=1/GPa)
#
#
# Indices 1 2 3 4 5 6 
#
# 1 0.018778 -0.000388 -0.003650 0.000000 -0.001093 0.000000
# 2 -0.000388 0.017787 -0.005616 0.000000 -0.013056 0.000000
# 3 -0.003650 -0.005616 0.009074 0.000000 0.007263 0.000000
# 4 0.000000 0.000000 0.000000 0.027775 0.000000 0.002828
# 5 -0.001093 -0.013056 0.007263 0.000000 0.048412 0.000000
# 6 0.000000 0.000000 0.000000 0.002828 0.000000 0.038232
#
#
# Mechanical properties :
#
#
# Convention : Reuss Voigt Hill
#
# Bulk Modulus (GPa) = 37.97807 51.78422 44.88114
# Shear Modulus (GPa) = 26.57557 32.20770 29.39164
#
# Velocity S-wave (km/s) = 3.38616 3.72775 3.56105
# Velocity P-wave (km/s) = 5.62795 6.39301 6.02264
#
# Compressibility (1/GPa) = 0.02633099
#
# Stress axis : x y z
#
# Youngs Moduli (GPa) = 53.25336 56.22061 110.20973
#
# Poissons Ratio (x) = 0.02182 0.40225
# Poissons Ratio (y) = 0.02066 0.61894
# Poissons Ratio (z) = 0.19437 0.31574
#
# Static dielectric constant tensor:
#      x y z
#    x 1.901960 0.000000 -0.002220 
#    y 0.000000 1.872170 0.000000 
#    z -0.002220 0.000000 1.949290 
# 
# From -- ./inp_files/22916.got.cif
#   From: 2010.05.17/outbox.cif.g08.bks.cpg/sg9_12_cif.got.tgz:22916.got - 2010.06.03 20:04:27.
