data_PCOD9136519
_publ_section_title
;
Structure prediction by ZEFSAII (Michael W. Deem and Ramdas Pophale) SiO2 
 PCOD9136519
Probable space group: C C
;
_chemical_formula_sum "Si O2"
_cell_formula_units_Z 32
_cell_length_a 5.001396
_cell_length_b 21.382299
_cell_length_c 11.729044
_cell_angle_alpha 90.000000
_cell_angle_beta 110.694060
_cell_angle_gamma 90.000000
_cell_volume 1173.391870
_symmetry_space_group_name_H-M "C C"
_symmetry_group_IT_number 9
_symmetry_cell_setting 'monoclinic'
loop_
_space_group_symop_operation_xyz
x,y,z
x,-y,1/2+z
1/2+x,1/2+y,z
1/2+x,1/2-y,1/2+z
loop_
_atom_site_type_symbol
_atom_site_label
_atom_site_fract_x
_atom_site_fract_y
_atom_site_fract_z
Si Si1 0.133500 0.035493 0.779940
Si Si2 0.149329 0.820443 0.065280
Si Si3 0.650613 0.591994 0.134209
Si Si4 0.990728 0.753615 0.247130
Si Si5 0.444435 0.289126 0.502353
Si Si6 0.742970 0.122078 0.245805
Si Si7 0.225607 0.501496 0.895476
Si Si8 0.173306 0.403526 0.068200
O O1 0.116123 0.978473 0.680059
O O2 0.468322 0.048048 0.828467
O O3 0.032906 0.023509 0.896487
O O4 0.896370 0.083200 0.702263
O O5 0.180020 0.800778 0.201077
O O6 0.185423 0.754836 0.005808
O O7 0.383720 0.870436 0.060182
O O8 0.849551 0.856186 0.014578
O O9 0.439406 0.636436 0.028373
O O10 0.561139 0.624473 0.242950
O O11 0.959284 0.605549 0.127314
O O12 0.954606 0.777897 0.369165
O O13 0.159391 0.689101 0.276379
O O14 0.707821 0.738964 0.123252
O O15 0.711539 0.061323 0.317797
O O16 0.143848 0.470372 0.003059
#
# Coordination Sequence:
#
# PCOD9136519 Si02
#       8
#     4   4   4   4   4   4   4   4
#     4  10  22  43  69  98 135 182 245 295 357 421
#     4  12  25  45  68 110 147 192 233 305 378 444
#     4   9  19  39  63  94 125 174 233 291 334 410
#     4  11  24  44  69 108 147 192 239 297 369 437
#     4  11  24  45  71 106 149 195 244 298 369 441
#     4   9  18  35  62  92 131 167 232 286 332 416
#     4  10  21  41  70 102 126 190 241 297 349 426
#     4  12  25  44  70 104 148 184 241 301 370 439
#
# _framework density 27.271367999999999
#
# number of rings (size 3 to 8) (size 9 to 14) (size 15 to 20)
#    0.000    1.500    2.500    2.250    0.000    5.000 
#    2.250    0.000   11.000    0.000    0.000    0.000 
#    0.000    0.000    0.000    0.000    0.000    0.000 
#
# Total GULP energy -89167.280838 kJ/mol
# GULP energy per Si atom -5572.955052 kJ/mol
# Density = 2.720930 g / cm^3
# Si number density = 27.271368 Si / 1000 Ang^3
#
#
#
# Elastic Constant Matrix: (Units=GPa)
#
#
# Indices 1 2 3 4 5 6 
#
# 1 106.0240 13.9846 33.2392 0.0000 -29.0314 0.0000
# 2 13.9846 32.5693 18.5066 0.0000 -0.1374 0.0000
# 3 33.2392 18.5066 100.8938 0.0000 -15.7785 0.0000
# 4 0.0000 0.0000 0.0000 44.5756 0.0000 14.4005
# 5 -29.0314 -0.1374 -15.7785 0.0000 26.3644 0.0000
# 6 0.0000 0.0000 0.0000 14.4005 0.0000 29.9688
#
#
#
# Elastic Compliance Matrix: (Units=1/GPa)
#
#
# Indices 1 2 3 4 5 6 
#
# 1 0.014841 -0.005471 -0.001472 0.000000 0.015432 0.000000
# 2 -0.005471 0.036671 -0.006439 0.000000 -0.009686 0.000000
# 3 -0.001472 -0.006439 0.012487 0.000000 0.005819 0.000000
# 4 0.000000 0.000000 0.000000 0.026556 0.000000 -0.012761
# 5 0.015432 -0.009686 0.005819 0.000000 0.058355 0.000000
# 6 0.000000 0.000000 0.000000 -0.012761 0.000000 0.039500
#
#
# Mechanical properties :
#
#
# Convention : Reuss Voigt Hill
#
# Bulk Modulus (GPa) = 26.85642 41.21642 34.03642
# Shear Modulus (GPa) = 21.96981 31.76556 26.86768
#
# Velocity S-wave (km/s) = 2.84139 3.41661 3.14219
# Velocity P-wave (km/s) = 4.54245 5.54171 5.06678
#
# Compressibility (1/GPa) = 0.03723504
#
# Stress axis : x y z
#
# Youngs Moduli (GPa) = 67.38274 27.26976 80.08011
#
# Poissons Ratio (x) = 0.14918 0.11791
# Poissons Ratio (y) = 0.36862 0.51563
# Poissons Ratio (z) = 0.09921 0.17559
#
# Static dielectric constant tensor:
#      x y z
#    x 2.177090 0.000000 0.080550 
#    y 0.000000 2.159150 0.000000 
#    z 0.080550 0.000000 2.326920 
# 
# From -- ./inp_files/13764.got.cif
#   From: 2010.05.17/outbox.cif.g08.bks.cpg/sg9_7_cif.got.tgz:13764.got - 2010.06.03 20:04:27.
