data_PCOD9136307
_publ_section_title
;
Structure prediction by ZEFSAII (Michael W. Deem and Ramdas Pophale) SiO2 
 PCOD9136307
Probable space group: C C
;
_chemical_formula_sum "Si O2"
_cell_formula_units_Z 32
_cell_length_a 5.539857
_cell_length_b 16.069143
_cell_length_c 17.218152
_cell_angle_alpha 90.000000
_cell_angle_beta 111.677216
_cell_angle_gamma 90.000000
_cell_volume 1424.374461
_symmetry_space_group_name_H-M "C C"
_symmetry_group_IT_number 9
_symmetry_cell_setting 'monoclinic'
loop_
_space_group_symop_operation_xyz
x,y,z
x,-y,1/2+z
1/2+x,1/2+y,z
1/2+x,1/2-y,1/2+z
loop_
_atom_site_type_symbol
_atom_site_label
_atom_site_fract_x
_atom_site_fract_y
_atom_site_fract_z
Si Si1 0.915510 0.067354 0.044920
Si Si2 0.123842 0.289705 0.965606
Si Si3 0.871001 0.172063 0.177192
Si Si4 0.893217 0.639097 0.293940
Si Si5 0.750976 0.904989 0.122729
Si Si6 0.576962 0.191297 0.926142
Si Si7 0.432389 0.964695 0.650211
Si Si8 0.665473 0.300053 0.245010
O O1 0.982604 0.148036 0.107618
O O2 0.209657 0.046275 0.057996
O O3 0.837358 0.984514 0.081885
O O4 0.685480 0.101738 0.966069
O O5 0.373600 0.236353 0.962923
O O6 0.057668 0.360343 0.892247
O O7 0.848610 0.240076 0.940450
O O8 0.182005 0.332383 0.054632
O O9 0.647997 0.104145 0.157480
O O10 0.768525 0.263564 0.175994
O O11 0.087414 0.156895 0.268515
O O12 0.885296 0.559743 0.235090
O O13 0.006993 0.721270 0.263107
O O14 0.977398 0.875069 0.205983
O O15 0.527250 0.942007 0.150422
O O16 0.401620 0.181208 0.829421
#
# Coordination Sequence:
#
# PCOD9136307 Si02
#       8
#     4   4   4   4   4   4   4   4
#     4  10  23  41  62  92 137 183 223 275 359 412
#     4  11  25  44  72 103 138 175 241 294 343 400
#     4   9  17  37  65  90 125 171 229 274 338 405
#     4   9  19  40  66  97 130 181 227 288 343 413
#     4  11  25  41  66 103 140 179 232 288 349 419
#     4  11  25  45  69  99 136 184 231 293 350 412
#     4   9  21  40  65  94 137 181 227 269 355 419
#     4  10  21  40  65  98 127 172 238 289 335 408
#
# _framework density 22.466004000000002
#
# number of rings (size 3 to 8) (size 9 to 14) (size 15 to 20)
#    0.000    2.000    1.250    0.750   10.500    1.000 
#    6.750    0.000    0.000    0.000    0.000    0.000 
#    0.000    0.000    0.000    0.000    0.000    0.000 
#
# Total GULP energy -89114.079454 kJ/mol
# GULP energy per Si atom -5569.629966 kJ/mol
# Density = 2.241487 g / cm^3
# Si number density = 22.466004 Si / 1000 Ang^3
#
#
#
# Elastic Constant Matrix: (Units=GPa)
#
#
# Indices 1 2 3 4 5 6 
#
# 1 93.5107 40.3574 27.2614 0.0000 27.3025 0.0000
# 2 40.3574 85.3684 42.4607 0.0000 9.9570 0.0000
# 3 27.2614 42.4607 95.1689 0.0000 25.2442 0.0000
# 4 0.0000 0.0000 0.0000 25.5316 0.0000 7.7544
# 5 27.3025 9.9570 25.2442 0.0000 33.3174 0.0000
# 6 0.0000 0.0000 0.0000 7.7544 0.0000 40.2468
#
#
#
# Elastic Compliance Matrix: (Units=1/GPa)
#
#
# Indices 1 2 3 4 5 6 
#
# 1 0.017319 -0.007615 0.001999 0.000000 -0.013432 0.000000
# 2 -0.007615 0.018418 -0.007799 0.000000 0.006645 0.000000
# 3 0.001999 -0.007799 0.016559 0.000000 -0.011854 0.000000
# 4 0.000000 0.000000 0.000000 0.041602 0.000000 -0.008015
# 5 -0.013432 0.006645 -0.011854 0.000000 0.048017 0.000000
# 6 0.000000 0.000000 0.000000 -0.008015 0.000000 0.026391
#
#
# Mechanical properties :
#
#
# Convention : Reuss Voigt Hill
#
# Bulk Modulus (GPa) = 39.26697 54.91187 47.08942
# Shear Modulus (GPa) = 24.55508 30.75041 27.65275
#
# Velocity S-wave (km/s) = 3.30962 3.70368 3.51218
# Velocity P-wave (km/s) = 5.66755 6.54102 6.11989
#
# Compressibility (1/GPa) = 0.02546670
#
# Stress axis : x y z
#
# Youngs Moduli (GPa) = 57.73851 54.29503 60.39118
#
# Poissons Ratio (x) = 0.41348 -0.12074
# Poissons Ratio (y) = 0.43971 0.47096
# Poissons Ratio (z) = -0.11544 0.42342
#
# Static dielectric constant tensor:
#      x y z
#    x 2.021340 0.000000 -0.032140 
#    y 0.000000 1.831200 0.000000 
#    z -0.032140 0.000000 1.898210 
# 
# From -- ./inp_files/28734.got.cif
#   From: 2010.05.17/outbox.cif.g08.bks.cpg/sg9_15_cif.got.tgz:28734.got - 2010.06.03 20:04:27.
