data_PCOD9136407
_publ_section_title
;
Structure prediction by ZEFSAII (Michael W. Deem and Ramdas Pophale) SiO2 
 PCOD9136407
Probable space group: C C
;
_chemical_formula_sum "Si O2"
_cell_formula_units_Z 20
_cell_length_a 11.454952
_cell_length_b 15.570997
_cell_length_c 5.239424
_cell_angle_alpha 90.000000
_cell_angle_beta 58.787819
_cell_angle_gamma 90.000000
_cell_volume 799.260608
_symmetry_space_group_name_H-M "C C"
_symmetry_group_IT_number 9
_symmetry_cell_setting 'monoclinic'
loop_
_space_group_symop_operation_xyz
x,y,z
x,-y,1/2+z
1/2+x,1/2+y,z
1/2+x,1/2-y,1/2+z
loop_
_atom_site_type_symbol
_atom_site_label
_atom_site_fract_x
_atom_site_fract_y
_atom_site_fract_z
Si Si1 0.516590 0.089031 0.658880
Si Si2 0.348694 0.718051 0.939678
Si Si3 0.630418 0.659711 0.870889
Si Si4 0.627608 0.099985 0.028039
Si Si5 0.749973 0.375172 0.735487
O O1 0.520391 0.127141 0.371452
O O2 0.598434 0.000431 0.523617
O O3 0.594873 0.140203 0.790699
O O4 0.369575 0.074235 0.951866
O O5 0.491612 0.694537 0.904902
O O6 0.323923 0.783846 0.729056
O O7 0.245413 0.765666 0.249966
O O8 0.274696 0.629083 0.948505
O O9 0.691688 0.597265 0.578246
O O10 0.629027 0.629286 0.163809
#
# Coordination Sequence:
#
# PCOD9136407 Si02
#       5
#     4   4   4   4   4
#     4  10  21  41  60  94 119 174 214 256 313 391
#     4  10  24  38  62  99 126 166 210 272 322 375
#     4  10  24  35  62  93 134 158 207 271 328 370
#     4  10  22  36  68  86 125 165 225 251 309 394
#     4  10  23  36  62  88 134 163 212 262 322 380
#
# _framework density 25.023126999999999
#
# number of rings (size 3 to 8) (size 9 to 14) (size 15 to 20)
#    1.200    0.800    0.000    2.400    8.400    0.000 
#    0.000    0.000    0.000   28.800    0.000    0.000 
#    0.000    0.000    0.000    0.000    0.000    0.000 
#
# Total GULP energy -55690.849259 kJ/mol
# GULP energy per Si atom -5569.084926 kJ/mol
# Density = 2.496617 g / cm^3
# Si number density = 25.023127 Si / 1000 Ang^3
#
#
#
# Elastic Constant Matrix: (Units=GPa)
#
#
# Indices 1 2 3 4 5 6 
#
# 1 157.5551 12.7806 51.9225 0.0000 20.2541 0.0000
# 2 12.7806 61.3645 8.9716 0.0000 -5.9984 0.0000
# 3 51.9225 8.9716 96.5492 0.0000 39.1733 0.0000
# 4 0.0000 0.0000 0.0000 26.5912 0.0000 -10.9266
# 5 20.2541 -5.9984 39.1733 0.0000 64.2444 0.0000
# 6 0.0000 0.0000 0.0000 -10.9266 0.0000 27.8923
#
#
#
# Elastic Compliance Matrix: (Units=1/GPa)
#
#
# Indices 1 2 3 4 5 6 
#
# 1 0.007777 -0.001034 -0.004056 0.000000 -0.000075 0.000000
# 2 -0.001034 0.017200 -0.002426 0.000000 0.003411 0.000000
# 3 -0.004056 -0.002426 0.016393 0.000000 -0.008943 0.000000
# 4 0.000000 0.000000 0.000000 0.044821 0.000000 0.017559
# 5 -0.000075 0.003411 -0.008943 0.000000 0.021361 0.000000
# 6 0.000000 0.000000 0.000000 0.017559 0.000000 0.042731
#
#
# Mechanical properties :
#
#
# Convention : Reuss Voigt Hill
#
# Bulk Modulus (GPa) = 37.96905 51.42424 44.69664
# Shear Modulus (GPa) = 28.72018 39.86518 34.29268
#
# Velocity S-wave (km/s) = 3.39151 3.99574 3.70596
# Velocity P-wave (km/s) = 5.52657 6.47172 6.01773
#
# Compressibility (1/GPa) = 0.02633724
#
# Stress axis : x y z
#
# Youngs Moduli (GPa) = 128.58206 58.14084 61.00334
#
# Poissons Ratio (x) = 0.06013 0.24741
# Poissons Ratio (y) = 0.13298 0.14800
# Poissons Ratio (z) = 0.52149 0.14106
#
# Static dielectric constant tensor:
#      x y z
#    x 2.025480 0.000000 0.060300 
#    y 0.000000 2.110280 0.000000 
#    z 0.060300 0.000000 2.088330 
# 
# From -- ./inp_files/1581.got.cif
#   From: 2010.05.17/outbox.cif.g08.bks.cpg/sg9_1_cif.got.tgz:1581.got - 2010.06.03 20:04:27.
