data_PCOD9136908
_publ_section_title
;
Structure prediction by ZEFSAII (Michael W. Deem and Ramdas Pophale) SiO2 
 PCOD9136908
Probable space group: C C
;
_chemical_formula_sum "Si O2"
_cell_formula_units_Z 28
_cell_length_a 12.805484
_cell_length_b 4.806547
_cell_length_c 18.251334
_cell_angle_alpha 90.000000
_cell_angle_beta 105.176594
_cell_angle_gamma 90.000000
_cell_volume 1084.193262
_symmetry_space_group_name_H-M "C C"
_symmetry_group_IT_number 9
_symmetry_cell_setting 'monoclinic'
loop_
_space_group_symop_operation_xyz
x,y,z
x,-y,1/2+z
1/2+x,1/2+y,z
1/2+x,1/2-y,1/2+z
loop_
_atom_site_type_symbol
_atom_site_label
_atom_site_fract_x
_atom_site_fract_y
_atom_site_fract_z
Si Si1 0.034100 0.415106 0.256180
Si Si2 0.575564 0.258934 0.115666
Si Si3 0.595407 0.646230 0.928942
Si Si4 0.208018 0.739203 0.594387
Si Si5 0.457081 0.162872 0.951686
Si Si6 0.388442 0.389635 0.234389
Si Si7 0.741864 0.892267 0.837315
O O1 0.056219 0.608136 0.188692
O O2 0.153558 0.357450 0.310520
O O3 0.947566 0.621857 0.281424
O O4 0.972052 0.130943 0.228528
O O5 0.625352 0.566294 0.125559
O O6 0.668140 0.076676 0.092799
O O7 0.476451 0.232995 0.040815
O O8 0.543599 0.345295 0.922695
O O9 0.649221 0.709922 0.861386
O O10 0.499401 0.850409 0.942999
O O11 0.689304 0.668259 0.007900
O O12 0.322721 0.738766 0.654396
O O13 0.343132 0.282636 0.904069
O O14 0.305093 0.549970 0.272664
#
# Coordination Sequence:
#
# PCOD9136908 Si02
#       7
#     4   4   4   4   4   4   4
#     4  12  27  43  70 102 140 178 233 281 344 417
#     4  10  21  45  71  99 136 177 228 289 343 411
#     4  10  24  45  69  99 134 175 230 282 337 412
#     4  10  21  45  71  99 136 177 228 289 343 411
#     4  10  24  45  69  99 134 175 230 282 337 412
#     4  12  27  43  70 102 140 178 233 281 344 417
#     4  12  26  46  68 100 136 190 220 290 342 408
#
# _framework density 25.825655000000001
#
# number of rings (size 3 to 8) (size 9 to 14) (size 15 to 20)
#    0.000    1.143    1.429    3.429    2.000    3.429 
#    0.000    0.000    0.000    0.000    0.000    0.000 
#    0.000    0.000    0.000    0.000    0.000    0.000 
#
# Total GULP energy -78026.938810 kJ/mol
# GULP energy per Si atom -5573.352772 kJ/mol
# Density = 2.576687 g / cm^3
# Si number density = 25.825655 Si / 1000 Ang^3
#
#
#
# Elastic Constant Matrix: (Units=GPa)
#
#
# Indices 1 2 3 4 5 6 
#
# 1 105.9351 27.7007 52.6943 0.0000 12.3977 0.0000
# 2 27.7007 116.5812 19.4280 0.0000 0.8003 0.0000
# 3 52.6943 19.4280 79.1116 0.0000 34.5641 0.0000
# 4 0.0000 0.0000 0.0000 25.4831 0.0000 1.3935
# 5 12.3977 0.8003 34.5641 0.0000 70.5226 0.0000
# 6 0.0000 0.0000 0.0000 1.3935 0.0000 15.5119
#
#
#
# Elastic Compliance Matrix: (Units=1/GPa)
#
#
# Indices 1 2 3 4 5 6 
#
# 1 0.014880 -0.001785 -0.010611 0.000000 0.002605 0.000000
# 2 -0.001785 0.009244 -0.001492 0.000000 0.000940 0.000000
# 3 -0.010611 -0.001492 0.024498 0.000000 -0.010124 0.000000
# 4 0.000000 0.000000 0.000000 0.039435 0.000000 -0.003543
# 5 0.002605 0.000940 -0.010124 0.000000 0.018673 0.000000
# 6 0.000000 0.000000 0.000000 -0.003543 0.000000 0.064785
#
#
# Mechanical properties :
#
#
# Convention : Reuss Voigt Hill
#
# Bulk Modulus (GPa) = 47.97080 55.69712 51.83396
# Shear Modulus (GPa) = 24.24372 35.75717 30.00045
#
# Velocity S-wave (km/s) = 3.06722 3.72500 3.41200
# Velocity P-wave (km/s) = 5.58202 6.33358 5.96964
#
# Compressibility (1/GPa) = 0.02084602
#
# Stress axis : x y z
#
# Youngs Moduli (GPa) = 67.20588 108.17791 40.82039
#
# Poissons Ratio (x) = 0.19312 0.43313
# Poissons Ratio (y) = 0.11997 0.06090
# Poissons Ratio (z) = 0.71310 0.16138
#
# Static dielectric constant tensor:
#      x y z
#    x 2.023910 0.000000 0.007520 
#    y 0.000000 2.010810 0.000000 
#    z 0.007520 0.000000 2.192010 
# 
# From -- ./inp_files/32991.got.cif
#   From: 2010.05.17/outbox.cif.g08.bks.cpg/sg9_17_cif.got.tgz:32991.got - 2010.06.03 20:04:27.
