data_PCOD9136161
_publ_section_title
;
Structure prediction by ZEFSAII (Michael W. Deem and Ramdas Pophale) SiO2 
 PCOD9136161
Probable space group: C C
;
_chemical_formula_sum "Si O2"
_cell_formula_units_Z 32
_cell_length_a 5.193589
_cell_length_b 22.515819
_cell_length_c 11.924400
_cell_angle_alpha 90.000000
_cell_angle_beta 76.283727
_cell_angle_gamma 90.000000
_cell_volume 1354.648244
_symmetry_space_group_name_H-M "C C"
_symmetry_group_IT_number 9
_symmetry_cell_setting 'monoclinic'
loop_
_space_group_symop_operation_xyz
x,y,z
x,-y,1/2+z
1/2+x,1/2+y,z
1/2+x,1/2-y,1/2+z
loop_
_atom_site_type_symbol
_atom_site_label
_atom_site_fract_x
_atom_site_fract_y
_atom_site_fract_z
Si Si1 0.747550 0.949423 0.218320
Si Si2 0.340942 0.324875 0.731859
Si Si3 0.968586 0.476612 0.045040
Si Si4 0.440784 0.450280 0.826932
Si Si5 0.819064 0.412138 0.445986
Si Si6 0.616018 0.617869 0.521636
Si Si7 0.791147 0.840432 0.482212
Si Si8 0.265236 0.778932 0.859729
O O1 0.602667 0.994446 0.147436
O O2 0.525049 0.924202 0.323755
O O3 0.870518 0.899309 0.125157
O O4 0.977338 0.988144 0.256313
O O5 0.384687 0.395008 0.751261
O O6 0.342122 0.313933 0.599814
O O7 0.570134 0.290756 0.775923
O O8 0.054863 0.306026 0.808324
O O9 0.851060 0.410880 0.067705
O O10 0.774322 0.526841 0.018032
O O11 0.188640 0.468901 0.927045
O O12 0.623848 0.421043 0.904398
O O13 0.540444 0.384482 0.438560
O O14 0.002730 0.371278 0.507477
O O15 0.641140 0.684433 0.477522
O O16 0.790647 0.789296 0.389743
#
# Coordination Sequence:
#
# PCOD9136161 Si02
#       8
#     4   4   4   4   4   4   4   4
#     4  10  23  39  66 105 143 184 221 293 362 411
#     4  11  23  45  74 100 131 191 225 287 349 412
#     4  10  21  39  64  99 137 183 223 278 347 430
#     4   9  20  38  61  98 139 173 231 271 343 422
#     4  11  27  44  68 105 147 179 233 294 350 414
#     4  10  22  40  69 100 135 184 227 282 344 426
#     4  12  27  49  70 104 140 183 237 296 343 415
#     4  11  25  48  72  99 138 181 245 281 340 420
#
# _framework density 23.622367000000001
#
# number of rings (size 3 to 8) (size 9 to 14) (size 15 to 20)
#    0.000    1.500    1.250    2.250    8.750    2.000 
#    2.250    0.000    0.000    0.000    0.000    0.000 
#    0.000    0.000    0.000    0.000    0.000    0.000 
#
# Total GULP energy -89429.317042 kJ/mol
# GULP energy per Si atom -5589.332315 kJ/mol
# Density = 2.356860 g / cm^3
# Si number density = 23.622367 Si / 1000 Ang^3
#
#
#
# Elastic Constant Matrix: (Units=GPa)
#
#
# Indices 1 2 3 4 5 6 
#
# 1 97.1731 22.9787 -2.8354 0.0000 10.0541 0.0000
# 2 22.9787 64.0206 0.6423 0.0000 16.0510 0.0000
# 3 -2.8354 0.6423 66.3364 0.0000 2.4822 0.0000
# 4 0.0000 0.0000 0.0000 14.1653 0.0000 22.3604
# 5 10.0541 16.0510 2.4822 0.0000 26.6151 0.0000
# 6 0.0000 0.0000 0.0000 22.3604 0.0000 29.5261
#
#
#
# Elastic Compliance Matrix: (Units=1/GPa)
#
#
# Indices 1 2 3 4 5 6 
#
# 1 0.011374 -0.003531 0.000604 0.000000 -0.002223 0.000000
# 2 -0.003531 0.019502 0.000051 0.000000 -0.010432 0.000000
# 3 0.000604 0.000051 0.015163 0.000000 -0.001673 0.000000
# 4 0.000000 0.000000 0.000000 -0.361213 0.000000 0.273550
# 5 -0.002223 -0.010432 -0.001673 0.000000 0.044860 0.000000
# 6 0.000000 0.000000 0.000000 0.273550 0.000000 -0.173293
#
#
# Mechanical properties :
#
#
# Convention : Reuss Voigt Hill
#
# Bulk Modulus (GPa) = 24.82319 29.90014 27.36167
# Shear Modulus (GPa) = -11.78062 27.84428 8.03183
#
# Velocity S-wave (km/s) = -2.23560 3.43698 1.84593
# Velocity P-wave (km/s) = 1.96655 5.33249 4.01888
#
# Compressibility (1/GPa) = 0.04028490
#
# Stress axis : x y z
#
# Youngs Moduli (GPa) = 87.92352 51.27589 65.95188
#
# Poissons Ratio (x) = 0.18105 -0.03980
# Poissons Ratio (y) = 0.31045 -0.00334
# Poissons Ratio (z) = -0.05306 -0.00260
#
# Static dielectric constant tensor:
#      x y z
#    x 1.907080 0.000000 0.019360 
#    y 0.000000 1.890620 0.000000 
#    z 0.019360 0.000000 1.933030 
# 
# From -- ./inp_files/13541.got.cif
#   From: 2010.05.17/outbox.cif.g08.bks.cpg/sg9_7_cif.got.tgz:13541.got - 2010.06.03 20:04:27.
