data_PCOD9136808
_publ_section_title
;
Structure prediction by ZEFSAII (Michael W. Deem and Ramdas Pophale) SiO2 
 PCOD9136808
Probable space group: C C
;
_chemical_formula_sum "Si O2"
_cell_formula_units_Z 32
_cell_length_a 17.088450
_cell_length_b 9.338890
_cell_length_c 13.655313
_cell_angle_alpha 90.000000
_cell_angle_beta 143.455097
_cell_angle_gamma 90.000000
_cell_volume 1297.617759
_symmetry_space_group_name_H-M "C C"
_symmetry_group_IT_number 9
_symmetry_cell_setting 'monoclinic'
loop_
_space_group_symop_operation_xyz
x,y,z
x,-y,1/2+z
1/2+x,1/2+y,z
1/2+x,1/2-y,1/2+z
loop_
_atom_site_type_symbol
_atom_site_label
_atom_site_fract_x
_atom_site_fract_y
_atom_site_fract_z
Si Si1 0.494070 0.703995 0.010630
Si Si2 0.351157 0.968733 0.781792
Si Si3 0.011570 0.929881 0.721909
Si Si4 0.173303 0.249761 0.016356
Si Si5 0.271895 0.493303 0.748326
Si Si6 0.743146 0.097614 0.411161
Si Si7 0.669522 0.636330 0.746163
Si Si8 0.465412 0.272609 0.875462
O O1 0.543933 0.692231 0.172033
O O2 0.564615 0.683014 0.976783
O O3 0.403925 0.563402 0.923711
O O4 0.424753 0.853612 0.923037
O O5 0.240295 0.029369 0.742995
O O6 0.436961 0.103648 0.832615
O O7 0.287454 0.870413 0.631934
O O8 0.027079 0.853763 0.842949
O O9 0.106589 0.055581 0.776892
O O10 0.865571 0.007733 0.577186
O O11 0.220766 0.383668 0.129054
O O12 0.142578 0.338382 0.888256
O O13 0.184942 0.481368 0.758373
O O14 0.323022 0.350894 0.747420
O O15 0.777666 0.249732 0.393660
O O16 0.557013 0.706891 0.563497
#
# Coordination Sequence:
#
# PCOD9136808 Si02
#       8
#     4   4   4   4   4   4   4   4
#     4  10  23  45  66 101 138 185 235 299 350 433
#     4  11  25  44  70 102 146 183 237 304 356 429
#     4  11  24  48  75 101 145 200 237 299 379 433
#     4  11  23  44  73  99 137 188 247 292 359 433
#     4  10  21  44  66  94 142 178 229 300 353 422
#     4  11  24  42  75 101 135 193 242 287 369 438
#     4  12  24  43  72 107 144 188 238 310 358 430
#     4  12  24  46  71 103 147 185 239 303 362 428
#
# _framework density 24.660575999999999
#
# number of rings (size 3 to 8) (size 9 to 14) (size 15 to 20)
#    0.000    1.000    6.250    0.000    5.250    1.000 
#    2.250    0.000    0.000    0.000    0.000    0.000 
#    0.000    0.000    0.000    0.000    0.000    0.000 
#
# Total GULP energy -89094.132235 kJ/mol
# GULP energy per Si atom -5568.383265 kJ/mol
# Density = 2.460445 g / cm^3
# Si number density = 24.660576 Si / 1000 Ang^3
#
#
#
# Elastic Constant Matrix: (Units=GPa)
#
#
# Indices 1 2 3 4 5 6 
#
# 1 114.1990 18.2964 15.5583 0.0000 -25.6993 0.0000
# 2 18.2964 131.5754 32.1510 0.0000 -3.7580 0.0000
# 3 15.5583 32.1510 42.2752 0.0000 -8.6015 0.0000
# 4 0.0000 0.0000 0.0000 29.4894 0.0000 11.8386
# 5 -25.6993 -3.7580 -8.6015 0.0000 29.9468 0.0000
# 6 0.0000 0.0000 0.0000 11.8386 0.0000 38.3167
#
#
#
# Elastic Compliance Matrix: (Units=1/GPa)
#
#
# Indices 1 2 3 4 5 6 
#
# 1 0.011141 -0.000906 -0.001581 0.000000 0.008993 0.000000
# 2 -0.000906 0.009433 -0.007177 0.000000 -0.001655 0.000000
# 3 -0.001581 -0.007177 0.031050 0.000000 0.006661 0.000000
# 4 0.000000 0.000000 0.000000 0.038712 0.000000 -0.011961
# 5 0.008993 -0.001655 0.006661 0.000000 0.042815 0.000000
# 6 0.000000 0.000000 0.000000 -0.011961 0.000000 0.029794
#
#
# Mechanical properties :
#
#
# Convention : Reuss Voigt Hill
#
# Bulk Modulus (GPa) = 30.96476 46.67346 38.81911
# Shear Modulus (GPa) = 25.90155 34.35350 30.12752
#
# Velocity S-wave (km/s) = 3.24438 3.73641 3.49906
# Velocity P-wave (km/s) = 5.15930 6.13040 5.66569
#
# Compressibility (1/GPa) = 0.03229478
#
# Stress axis : x y z
#
# Youngs Moduli (GPa) = 89.75859 106.01477 32.20613
#
# Poissons Ratio (x) = 0.09604 0.05093
# Poissons Ratio (y) = 0.08132 0.23114
# Poissons Ratio (z) = 0.14195 0.76087
#
# Static dielectric constant tensor:
#      x y z
#    x 2.177390 0.000000 -0.025650 
#    y 0.000000 1.988150 0.000000 
#    z -0.025650 0.000000 2.144150 
# 
# From -- ./inp_files/26757.got.cif
#   From: 2010.05.17/outbox.cif.g08.bks.cpg/sg9_14_cif.got.tgz:26757.got - 2010.06.03 20:04:27.
