data_PCOD9136453
_publ_section_title
;
Structure prediction by ZEFSAII (Michael W. Deem and Ramdas Pophale) SiO2 
 PCOD9136453
Probable space group: C C
;
_chemical_formula_sum "Si O2"
_cell_formula_units_Z 32
_cell_length_a 7.469251
_cell_length_b 23.184949
_cell_length_c 13.004850
_cell_angle_alpha 90.000000
_cell_angle_beta 42.892973
_cell_angle_gamma 90.000000
_cell_volume 1532.852214
_symmetry_space_group_name_H-M "C C"
_symmetry_group_IT_number 9
_symmetry_cell_setting 'monoclinic'
loop_
_space_group_symop_operation_xyz
x,y,z
x,-y,1/2+z
1/2+x,1/2+y,z
1/2+x,1/2-y,1/2+z
loop_
_atom_site_type_symbol
_atom_site_label
_atom_site_fract_x
_atom_site_fract_y
_atom_site_fract_z
Si Si1 0.965870 0.674595 0.747830
Si Si2 0.627350 0.284078 0.578758
Si Si3 0.734376 0.871052 0.671578
Si Si4 0.458900 0.326186 0.193178
Si Si5 0.670526 0.560356 0.863288
Si Si6 0.553035 0.458897 0.191914
Si Si7 0.513969 0.019767 0.357820
Si Si8 0.613531 0.790008 0.531141
O O1 0.852587 0.614704 0.757035
O O2 0.033987 0.718921 0.630156
O O3 0.218255 0.666257 0.714045
O O4 0.758066 0.703911 0.913431
O O5 0.382281 0.327247 0.685611
O O6 0.842836 0.294436 0.578300
O O7 0.619697 0.834513 0.623870
O O8 0.957327 0.913023 0.530043
O O9 0.544085 0.913970 0.811194
O O10 0.561933 0.390607 0.164146
O O11 0.340544 0.304413 0.352645
O O12 0.629439 0.274444 0.071925
O O13 0.531716 0.535144 0.822640
O O14 0.853354 0.513634 0.838586
O O15 0.295625 0.489341 0.253650
O O16 0.825305 0.485102 0.036191
#
# Coordination Sequence:
#
# PCOD9136453 Si02
#       8
#     4   4   4   4   4   4   4   4
#     4   9  19  40  64  91 136 167 214 271 338 397
#     4   9  21  37  62  95 129 172 208 272 329 405
#     4  11  24  42  67  95 134 177 219 280 341 406
#     4  10  21  41  65  98 136 176 218 280 341 406
#     4  11  24  44  69  94 133 185 220 285 344 399
#     4  12  27  45  74  97 139 182 234 283 347 405
#     4  12  28  48  67 102 136 178 239 290 331 415
#     4  10  22  39  66  98 137 173 220 275 345 407
#
# _framework density 20.876114000000001
#
# number of rings (size 3 to 8) (size 9 to 14) (size 15 to 20)
#    0.000    1.500    3.750    0.000    5.250    2.000 
#    0.000    0.000    0.000    0.000    0.000    0.000 
#    0.000    0.000    0.000    0.000    0.000    0.000 
#
# Total GULP energy -89397.789630 kJ/mol
# GULP energy per Si atom -5587.361852 kJ/mol
# Density = 2.082860 g / cm^3
# Si number density = 20.876114 Si / 1000 Ang^3
#
#
#
# Elastic Constant Matrix: (Units=GPa)
#
#
# Indices 1 2 3 4 5 6 
#
# 1 51.1353 13.9148 2.1256 0.0000 10.6247 0.0000
# 2 13.9148 56.0511 10.1540 0.0000 3.2740 0.0000
# 3 2.1256 10.1540 39.1802 0.0000 -7.3783 0.0000
# 4 0.0000 0.0000 0.0000 29.1011 0.0000 23.8309
# 5 10.6247 3.2740 -7.3783 0.0000 20.6194 0.0000
# 6 0.0000 0.0000 0.0000 23.8309 0.0000 -64.4603
#
#
#
# Elastic Compliance Matrix: (Units=1/GPa)
#
#
# Indices 1 2 3 4 5 6 
#
# 1 0.023461 -0.004686 -0.002353 0.000000 -0.012187 0.000000
# 2 -0.004686 0.020159 -0.005488 0.000000 -0.002750 0.000000
# 3 -0.002353 -0.005488 0.029450 0.000000 0.012622 0.000000
# 4 0.000000 0.000000 0.000000 0.026377 0.000000 0.009752
# 5 -0.012187 -0.002750 0.012622 0.000000 0.059731 0.000000
# 6 0.000000 0.000000 0.000000 0.009752 0.000000 -0.011908
#
#
# Mechanical properties :
#
#
# Convention : Reuss Voigt Hill
#
# Bulk Modulus (GPa) = 20.82681 22.08395 21.45538
# Shear Modulus (GPa) = 26.54905 5.06352 15.80629
#
# Velocity S-wave (km/s) = 3.57002 1.55909 2.75462
# Velocity P-wave (km/s) = 5.19533 3.72056 4.51852
#
# Compressibility (1/GPa) = 0.04801504
#
# Stress axis : x y z
#
# Youngs Moduli (GPa) = 42.62364 49.60552 33.95575
#
# Poissons Ratio (x) = 0.23246 0.07991
# Poissons Ratio (y) = 0.19974 0.18635
# Poissons Ratio (z) = 0.10031 0.27224
#
# Static dielectric constant tensor:
#      x y z
#    x 1.734800 0.000000 -0.020360 
#    y 0.000000 1.754160 0.000000 
#    z -0.020360 0.000000 1.757590 
# 
# From -- ./inp_files/23750.got.cif
#   From: 2010.05.17/outbox.cif.g08.bks.cpg/sg9_12_cif.got.tgz:23750.got - 2010.06.03 20:04:27.
