data_PCOD9136272
_publ_section_title
;
Structure prediction by ZEFSAII (Michael W. Deem and Ramdas Pophale) SiO2 
 PCOD9136272
Probable space group: C C
;
_chemical_formula_sum "Si O2"
_cell_formula_units_Z 32
_cell_length_a 7.409793
_cell_length_b 12.279926
_cell_length_c 25.915749
_cell_angle_alpha 90.000000
_cell_angle_beta 143.940082
_cell_angle_gamma 90.000000
_cell_volume 1388.061476
_symmetry_space_group_name_H-M "C C"
_symmetry_group_IT_number 9
_symmetry_cell_setting 'monoclinic'
loop_
_space_group_symop_operation_xyz
x,y,z
x,-y,1/2+z
1/2+x,1/2+y,z
1/2+x,1/2-y,1/2+z
loop_
_atom_site_type_symbol
_atom_site_label
_atom_site_fract_x
_atom_site_fract_y
_atom_site_fract_z
Si Si1 0.603010 0.204666 0.003680
Si Si2 0.842648 0.982623 0.486915
Si Si3 0.348421 0.060178 0.537183
Si Si4 0.505320 0.954167 0.810878
Si Si5 0.773122 0.017375 0.216958
Si Si6 0.767347 0.439822 0.166689
Si Si7 0.512756 0.704666 0.200192
Si Si8 0.110449 0.954168 0.392995
O O1 0.807884 0.186660 0.101936
O O2 0.661081 0.328286 0.000422
O O3 0.729722 0.126223 0.988115
O O4 0.254345 0.165740 0.933172
O O5 0.585620 0.028333 0.389013
O O6 0.136854 0.969345 0.516958
O O7 0.967875 0.061225 0.561598
O O8 0.647894 0.061227 0.642274
O O9 0.368469 0.026918 0.482290
O O10 0.807885 0.999999 0.851936
O O11 0.361423 0.834259 0.770701
O O12 0.247301 0.026916 0.721583
O O13 0.478918 0.030654 0.186915
O O14 0.886047 0.126221 0.215757
O O15 0.030149 0.971667 0.314859
O O16 0.954679 0.328284 0.203449
#
# Coordination Sequence:
#
# PCOD9136272 Si02
#       8
#     4   4   4   4   4   4   4   4
#     4  12  22  40  68  90 128 176 208 259 327 372
#     4  10  21  40  63  93 127 161 213 262 309 381
#     4  10  22  43  62  94 128 168 210 260 324 374
#     4  10  23  42  67  95 130 165 214 269 315 376
#     4  10  21  40  63  93 127 161 213 262 309 381
#     4  10  22  43  62  94 128 168 210 260 324 374
#     4  12  22  40  68  90 128 176 208 259 327 372
#     4  10  23  42  67  95 130 165 214 269 315 376
#
# _framework density 23.053733999999999
#
# number of rings (size 3 to 8) (size 9 to 14) (size 15 to 20)
#    0.000    1.500    5.000    0.750    0.000    5.000 
#    0.000   10.000    0.000    0.000    0.000    0.000 
#    0.000    0.000    0.000    0.000    0.000    0.000 
#
# Total GULP energy -89117.139283 kJ/mol
# GULP energy per Si atom -5569.821205 kJ/mol
# Density = 2.300126 g / cm^3
# Si number density = 23.053734 Si / 1000 Ang^3
#
#
#
# Elastic Constant Matrix: (Units=GPa)
#
#
# Indices 1 2 3 4 5 6 
#
# 1 54.4665 39.8628 46.0304 0.0000 25.4577 0.0000
# 2 39.8628 97.5451 37.1934 0.0000 -13.9862 0.0000
# 3 46.0304 37.1934 172.2431 0.0000 -59.5646 0.0000
# 4 0.0000 0.0000 0.0000 31.5431 0.0000 -1.6140
# 5 25.4577 -13.9862 -59.5646 0.0000 46.3740 0.0000
# 6 0.0000 0.0000 0.0000 -1.6140 0.0000 36.2354
#
#
#
# Elastic Compliance Matrix: (Units=1/GPa)
#
#
# Indices 1 2 3 4 5 6 
#
# 1 -0.028165 0.009989 0.021156 0.000000 0.045648 0.000000
# 2 0.009989 0.007635 -0.009748 0.000000 -0.015701 0.000000
# 3 0.021156 -0.009748 -0.004994 0.000000 -0.020969 0.000000
# 4 0.000000 0.000000 0.000000 0.031775 0.000000 0.001415
# 5 0.045648 -0.015701 -0.020969 0.000000 -0.035164 0.000000
# 6 0.000000 0.000000 0.000000 0.001415 0.000000 0.027660
#
#
# Mechanical properties :
#
#
# Convention : Reuss Voigt Hill
#
# Bulk Modulus (GPa) = 57.90821 63.38090 60.64456
# Shear Modulus (GPa) = -130.58265 36.24169 -47.17048
#
# Velocity S-wave (km/s) = -7.53430 3.96921 -4.52830
# Velocity P-wave (km/s) = 7.10734 6.96840 0.98886
#
# Compressibility (1/GPa) = 0.01726871
#
# Stress axis : x y z
#
# Youngs Moduli (GPa) = -35.50451 130.97140 -200.22315
#
# Poissons Ratio (x) = -1.30822 4.23589
# Poissons Ratio (y) = 0.35464 -1.95173
# Poissons Ratio (z) = 0.75113 1.27668
#
# Static dielectric constant tensor:
#      x y z
#    x 1.909940 0.000000 0.020740 
#    y 0.000000 1.834910 0.000000 
#    z 0.020740 0.000000 1.991950 
# 
# From -- ./inp_files/37187.got.cif
#   From: 2010.05.17/outbox.cif.g08.bks.cpg/sg9_19_cif.got.tgz:37187.got - 2010.06.03 20:04:27.
