data_PCOD9136389
_publ_section_title
;
Structure prediction by ZEFSAII (Michael W. Deem and Ramdas Pophale) SiO2 
 PCOD9136389
Probable space group: C C
;
_chemical_formula_sum "Si O2"
_cell_formula_units_Z 28
_cell_length_a 28.644011
_cell_length_b 7.718734
_cell_length_c 8.974301
_cell_angle_alpha 90.000000
_cell_angle_beta 140.138671
_cell_angle_gamma 90.000000
_cell_volume 1271.722306
_symmetry_space_group_name_H-M "C C"
_symmetry_group_IT_number 9
_symmetry_cell_setting 'monoclinic'
loop_
_space_group_symop_operation_xyz
x,y,z
x,-y,1/2+z
1/2+x,1/2+y,z
1/2+x,1/2-y,1/2+z
loop_
_atom_site_type_symbol
_atom_site_label
_atom_site_fract_x
_atom_site_fract_y
_atom_site_fract_z
Si Si1 0.531600 0.179016 0.408170
Si Si2 0.875789 0.210096 0.562124
Si Si3 0.936570 0.915608 0.509799
Si Si4 0.525697 0.315636 0.015242
Si Si5 0.212578 0.219979 0.578633
Si Si6 0.643100 0.475938 0.656377
Si Si7 0.585924 0.033217 0.807116
O O1 0.576442 0.344575 0.460321
O O2 0.574197 0.012176 0.450166
O O3 0.544773 0.185533 0.618718
O O4 0.445548 0.178700 0.176518
O O5 0.888806 0.188001 0.771314
O O6 0.796148 0.274411 0.328875
O O7 0.886254 0.033440 0.494027
O O8 0.984078 0.814714 0.752368
O O9 0.981104 0.048488 0.509535
O O10 0.605595 0.388782 0.175738
O O11 0.540939 0.134076 0.133839
O O12 0.173633 0.086489 0.596315
O O13 0.169175 0.404361 0.486023
O O14 0.200986 0.142196 0.385374
#
# Coordination Sequence:
#
# PCOD9136389 Si02
#       7
#     4   4   4   4   4   4   4
#     4  11  23  40  68  96 131 172 244 265 335 396
#     4  11  24  43  65 101 136 179 222 279 338 410
#     4  10  21  40  71  98 136 184 223 273 339 407
#     4  11  19  40  71 100 125 178 238 274 326 392
#     4  11  27  44  66  99 144 169 230 278 361 394
#     4  11  22  43  70  93 129 192 220 273 330 426
#     4  11  24  38  65 103 127 170 225 302 313 395
#
# _framework density 22.017385999999998
#
# number of rings (size 3 to 8) (size 9 to 14) (size 15 to 20)
#    0.000    1.143    4.286    2.571    4.000    4.571 
#    0.000    1.429    0.000    0.000    0.000    0.000 
#    0.000    0.000    0.000    0.000    0.000    0.000 
#
# Total GULP energy -77996.458370 kJ/mol
# GULP energy per Si atom -5571.175598 kJ/mol
# Density = 2.196727 g / cm^3
# Si number density = 22.017386 Si / 1000 Ang^3
#
#
#
# Elastic Constant Matrix: (Units=GPa)
#
#
# Indices 1 2 3 4 5 6 
#
# 1 65.3048 24.2556 40.3045 0.0000 -0.3494 0.0000
# 2 24.2556 63.4170 24.0720 0.0000 5.2484 0.0000
# 3 40.3045 24.0720 161.2718 0.0000 11.5472 0.0000
# 4 0.0000 0.0000 0.0000 33.3208 0.0000 -9.8960
# 5 -0.3494 5.2484 11.5472 0.0000 42.9075 0.0000
# 6 0.0000 0.0000 0.0000 -9.8960 0.0000 35.2666
#
#
#
# Elastic Compliance Matrix: (Units=1/GPa)
#
#
# Indices 1 2 3 4 5 6 
#
# 1 0.020314 -0.006317 -0.004284 0.000000 0.002091 0.000000
# 2 -0.006317 0.018763 -0.001075 0.000000 -0.002057 0.000000
# 3 -0.004284 -0.001075 0.007571 0.000000 -0.001941 0.000000
# 4 0.000000 0.000000 0.000000 0.032740 0.000000 0.009187
# 5 0.002091 -0.002057 -0.001941 0.000000 0.024097 0.000000
# 6 0.000000 0.000000 0.000000 0.009187 0.000000 0.030933
#
#
# Mechanical properties :
#
#
# Convention : Reuss Voigt Hill
#
# Bulk Modulus (GPa) = 42.92321 51.91754 47.42038
# Shear Modulus (GPa) = 30.20545 35.72309 32.96427
#
# Velocity S-wave (km/s) = 3.70792 4.03239 3.87356
# Velocity P-wave (km/s) = 6.15378 6.73139 6.44906
#
# Compressibility (1/GPa) = 0.02329742
#
# Stress axis : x y z
#
# Youngs Moduli (GPa) = 49.22743 53.29691 132.08931
#
# Poissons Ratio (x) = 0.33666 0.56582
# Poissons Ratio (y) = 0.31095 0.14195
# Poissons Ratio (z) = 0.21087 0.05728
#
# Static dielectric constant tensor:
#      x y z
#    x 1.884830 0.000000 -0.101540 
#    y 0.000000 1.936800 0.000000 
#    z -0.101540 0.000000 1.848210 
# 
# From -- ./inp_files/11249.got.cif
#   From: 2010.05.17/outbox.cif.g08.bks.cpg/sg9_6_cif.got.tgz:11249.got - 2010.06.03 20:04:27.
