data_PCOD9136452
_publ_section_title
;
Structure prediction by ZEFSAII (Michael W. Deem and Ramdas Pophale) SiO2 
 PCOD9136452
Probable space group: C C
;
_chemical_formula_sum "Si O2"
_cell_formula_units_Z 32
_cell_length_a 11.341490
_cell_length_b 19.747396
_cell_length_c 8.092482
_cell_angle_alpha 90.000000
_cell_angle_beta 127.544253
_cell_angle_gamma 90.000000
_cell_volume 1437.046278
_symmetry_space_group_name_H-M "C C"
_symmetry_group_IT_number 9
_symmetry_cell_setting 'monoclinic'
loop_
_space_group_symop_operation_xyz
x,y,z
x,-y,1/2+z
1/2+x,1/2+y,z
1/2+x,1/2-y,1/2+z
loop_
_atom_site_type_symbol
_atom_site_label
_atom_site_fract_x
_atom_site_fract_y
_atom_site_fract_z
Si Si1 0.605340 0.293622 0.179850
Si Si2 0.807454 0.197113 0.872641
Si Si3 0.852552 0.934328 0.586904
Si Si4 0.883523 0.704237 0.148382
Si Si5 0.002685 0.284995 0.269147
Si Si6 0.513683 0.067921 0.882701
Si Si7 0.036043 0.576357 0.295235
Si Si8 0.879713 0.917364 0.007006
O O1 0.767280 0.303392 0.398177
O O2 0.541617 0.228269 0.217493
O O3 0.574811 0.266038 0.968066
O O4 0.500117 0.357793 0.136106
O O5 0.884003 0.124872 0.980452
O O6 0.874648 0.243918 0.073537
O O7 0.834559 0.236675 0.728190
O O8 0.632512 0.197158 0.751947
O O9 0.673644 0.938245 0.428429
O O10 0.871967 0.917643 0.798418
O O11 0.922819 0.006307 0.599060
O O12 0.926644 0.634195 0.269314
O O13 0.947798 0.359692 0.276114
O O14 0.461949 0.992630 0.799269
O O15 0.525341 0.073087 0.088543
O O16 0.217169 0.590198 0.462569
#
# Coordination Sequence:
#
# PCOD9136452 Si02
#       8
#     4   4   4   4   4   4   4   4
#     4  12  24  43  67  96 132 177 219 268 331 397
#     4  11  24  42  64  97 129 169 220 272 326 385
#     4   9  20  39  65  96 126 168 217 268 319 389
#     4  12  26  41  66 100 134 172 219 276 330 389
#     4  11  22  42  67  91 127 173 220 263 326 392
#     4   9  20  37  64  94 123 168 214 264 317 387
#     4  10  21  41  65  98 129 167 220 270 329 383
#     4  10  21  41  68  98 128 172 221 271 326 394
#
# _framework density 22.267897999999999
#
# number of rings (size 3 to 8) (size 9 to 14) (size 15 to 20)
#    0.000    1.500    2.500    2.250    5.250    0.000 
#    2.250    2.500    0.000    0.000    0.000    0.000 
#    0.000    0.000    0.000    0.000    0.000    0.000 
#
# Total GULP energy -89080.719448 kJ/mol
# GULP energy per Si atom -5567.544965 kJ/mol
# Density = 2.221721 g / cm^3
# Si number density = 22.267898 Si / 1000 Ang^3
#
#
#
# Elastic Constant Matrix: (Units=GPa)
#
#
# Indices 1 2 3 4 5 6 
#
# 1 43.2912 15.8891 8.6865 0.0000 -5.0999 0.0000
# 2 15.8891 158.5921 31.6927 0.0000 10.8538 0.0000
# 3 8.6865 31.6927 60.4115 0.0000 7.4809 0.0000
# 4 0.0000 0.0000 0.0000 34.1819 0.0000 -4.3093
# 5 -5.0999 10.8538 7.4809 0.0000 22.3790 0.0000
# 6 0.0000 0.0000 0.0000 -4.3093 0.0000 40.1245
#
#
#
# Elastic Compliance Matrix: (Units=1/GPa)
#
#
# Indices 1 2 3 4 5 6 
#
# 1 0.025645 -0.002446 -0.003416 0.000000 0.008173 0.000000
# 2 -0.002446 0.007390 -0.003142 0.000000 -0.003091 0.000000
# 3 -0.003416 -0.003142 0.019404 0.000000 -0.005741 0.000000
# 4 0.000000 0.000000 0.000000 0.029657 0.000000 0.003185
# 5 0.008173 -0.003091 -0.005741 0.000000 0.049966 0.000000
# 6 0.000000 0.000000 0.000000 0.003185 0.000000 0.025264
#
#
# Mechanical properties :
#
#
# Convention : Reuss Voigt Hill
#
# Bulk Modulus (GPa) = 29.04464 41.64792 35.34628
# Shear Modulus (GPa) = 26.76483 33.07218 29.91850
#
# Velocity S-wave (km/s) = 3.47067 3.85800 3.66945
# Velocity P-wave (km/s) = 5.39744 6.21203 5.81901
#
# Compressibility (1/GPa) = 0.03442976
#
# Stress axis : x y z
#
# Youngs Moduli (GPa) = 38.99331 135.31662 51.53620
#
# Poissons Ratio (x) = 0.33098 0.17607
# Poissons Ratio (y) = 0.09538 0.16195
# Poissons Ratio (z) = 0.13322 0.42522
#
# Static dielectric constant tensor:
#      x y z
#    x 1.838680 0.000000 -0.016930 
#    y 0.000000 1.971480 0.000000 
#    z -0.016930 0.000000 1.850570 
# 
# From -- ./inp_files/8068.got.cif
#   From: 2010.05.17/outbox.cif.g08.bks.cpg/sg9_5_cif.got.tgz:8068.got - 2010.06.03 20:04:27.
