data_PCOD9136663
_publ_section_title
;
Structure prediction by ZEFSAII (Michael W. Deem and Ramdas Pophale) SiO2 
 PCOD9136663
Probable space group: C C
;
_chemical_formula_sum "Si O2"
_cell_formula_units_Z 32
_cell_length_a 13.009764
_cell_length_b 9.599952
_cell_length_c 22.120712
_cell_angle_alpha 90.000000
_cell_angle_beta 150.527550
_cell_angle_gamma 90.000000
_cell_volume 1359.274283
_symmetry_space_group_name_H-M "C C"
_symmetry_group_IT_number 9
_symmetry_cell_setting 'monoclinic'
loop_
_space_group_symop_operation_xyz
x,y,z
x,-y,1/2+z
1/2+x,1/2+y,z
1/2+x,1/2-y,1/2+z
loop_
_atom_site_type_symbol
_atom_site_label
_atom_site_fract_x
_atom_site_fract_y
_atom_site_fract_z
Si Si1 0.705530 0.310453 0.404330
Si Si2 0.204168 0.654932 0.060068
Si Si3 0.402978 0.591326 0.412142
Si Si4 0.407152 0.702369 0.975796
Si Si5 0.491914 0.115058 0.831667
Si Si6 0.318248 0.850500 0.744279
Si Si7 0.672216 0.568502 0.293778
Si Si8 0.652412 0.141128 0.168180
O O1 0.777872 0.188107 0.395610
O O2 0.507205 0.260041 0.341444
O O3 0.163762 0.940713 0.337012
O O4 0.905272 0.335660 0.550193
O O5 0.450717 0.646750 0.181015
O O6 0.156439 0.588973 0.101048
O O7 0.090674 0.575386 0.947564
O O8 0.105368 0.810269 0.003981
O O9 0.449088 0.444149 0.465042
O O10 0.265281 0.566516 0.281458
O O11 0.193934 0.686133 0.904718
O O12 0.354979 0.826859 0.905250
O O13 0.616390 0.731609 0.119211
O O14 0.299263 0.221200 0.738153
O O15 0.419380 0.978696 0.758455
O O16 0.221020 0.947617 0.748124
#
# Coordination Sequence:
#
# PCOD9136663 Si02
#       8
#     4   4   4   4   4   4   4   4
#     4  11  26  46  72 108 145 194 242 299 369 445
#     4  10  21  42  72 101 137 190 241 292 369 437
#     4  10  23  43  74 105 134 190 248 295 360 442
#     4  12  26  46  71 108 140 186 243 302 364 431
#     4  11  22  44  76 100 137 191 239 298 357 440
#     4  12  26  46  73 105 150 190 246 303 359 449
#     4  12  27  46  70 109 151 191 240 308 373 439
#     4  10  21  43  74 102 140 186 241 299 367 435
#
# _framework density 23.541974
#
# number of rings (size 3 to 8) (size 9 to 14) (size 15 to 20)
#    0.000    1.000    3.750    3.750    0.000    7.000 
#    0.000    0.000    0.000    0.000    0.000    0.000 
#    0.000    0.000    0.000    0.000    0.000    0.000 
#
# Total GULP energy -89271.770444 kJ/mol
# GULP energy per Si atom -5579.485653 kJ/mol
# Density = 2.348839 g / cm^3
# Si number density = 23.541974 Si / 1000 Ang^3
#
#
#
# Elastic Constant Matrix: (Units=GPa)
#
#
# Indices 1 2 3 4 5 6 
#
# 1 54.0873 10.7341 28.1799 -0.0004 16.3462 -0.0002
# 2 10.7341 61.4532 11.3189 -0.0005 22.9439 -0.0002
# 3 28.1799 11.3189 149.1065 -0.0012 32.6441 -0.0006
# 4 -0.0004 -0.0005 -0.0012 30.8535 -0.0002 0.1713
# 5 16.3462 22.9439 32.6441 -0.0002 43.8111 -0.0001
# 6 -0.0002 -0.0002 -0.0006 0.1713 -0.0001 18.5392
#
#
#
# Elastic Compliance Matrix: (Units=1/GPa)
#
#
# Indices 1 2 3 4 5 6 
#
# 1 0.021851 -0.001295 -0.002862 0.000000 -0.005342 0.000000
# 2 -0.001295 0.020414 0.001111 0.000000 -0.011036 0.000000
# 3 -0.002862 0.001111 0.008432 0.000000 -0.005797 0.000000
# 4 0.000000 0.000000 0.000000 0.032413 0.000000 -0.000299
# 5 -0.005342 -0.011036 -0.005797 0.000000 0.034917 0.000000
# 6 0.000000 0.000000 0.000000 -0.000299 0.000000 0.053943
#
#
# Mechanical properties :
#
#
# Convention : Reuss Voigt Hill
#
# Bulk Modulus (GPa) = 22.41837 40.56809 31.49323
# Shear Modulus (GPa) = 25.91598 32.93502 29.42550
#
# Velocity S-wave (km/s) = 3.32149 3.74437 3.53925
# Velocity P-wave (km/s) = 4.92475 5.99695 5.48710
#
# Compressibility (1/GPa) = 0.04460628
#
# Stress axis : x y z
#
# Youngs Moduli (GPa) = 45.76410 48.98513 118.59151
#
# Poissons Ratio (x) = 0.06344 0.33939
# Poissons Ratio (y) = 0.05927 -0.13177
# Poissons Ratio (z) = 0.13097 -0.05443
#
# Static dielectric constant tensor:
#      x y z
#    x 2.057600 0.000000 -0.004860 
#    y 0.000000 1.939890 0.000000 
#    z -0.004860 0.000000 1.930020 
# 
# From -- ./inp_files/16678.got.cif
#   From: 2010.05.17/outbox.cif.g08.bks.cpg/sg9_9_cif.got.tgz:16678.got - 2010.06.03 20:04:27.
