data_PCOD9136403
_publ_section_title
;
Structure prediction by ZEFSAII (Michael W. Deem and Ramdas Pophale) SiO2 
 PCOD9136403
Probable space group: C C
;
_chemical_formula_sum "Si O2"
_cell_formula_units_Z 32
_cell_length_a 13.984218
_cell_length_b 5.715373
_cell_length_c 17.788858
_cell_angle_alpha 90.000000
_cell_angle_beta 55.794208
_cell_angle_gamma 90.000000
_cell_volume 1175.841581
_symmetry_space_group_name_H-M "C C"
_symmetry_group_IT_number 9
_symmetry_cell_setting 'monoclinic'
loop_
_space_group_symop_operation_xyz
x,y,z
x,-y,1/2+z
1/2+x,1/2+y,z
1/2+x,1/2-y,1/2+z
loop_
_atom_site_type_symbol
_atom_site_label
_atom_site_fract_x
_atom_site_fract_y
_atom_site_fract_z
Si Si1 0.293610 0.290918 0.053130
Si Si2 0.287496 0.218901 0.532100
Si Si3 0.185424 0.055075 0.280849
Si Si4 0.974698 0.166214 0.606244
Si Si5 0.198026 0.305106 0.420544
Si Si6 0.046301 0.681287 0.424891
Si Si7 0.472946 0.199759 0.838999
Si Si8 0.913935 0.660838 0.697620
O O1 0.228055 0.538192 0.081531
O O2 0.367101 0.296988 0.097000
O O3 0.236395 0.036330 0.070368
O O4 0.383962 0.295955 0.942244
O O5 0.296394 0.252663 0.437557
O O6 0.415980 0.212104 0.511470
O O7 0.098559 0.914935 0.372257
O O8 0.286742 0.877450 0.217047
O O9 0.235151 0.242429 0.319308
O O10 0.092223 0.162922 0.265943
O O11 0.976247 0.413036 0.650897
O O12 0.090813 0.165747 0.505370
O O13 0.961389 0.914597 0.651842
O O14 0.137994 0.559171 0.439281
O O15 0.026647 0.517340 0.360950
O O16 0.405561 0.168262 0.791769
#
# Coordination Sequence:
#
# PCOD9136403 Si02
#       8
#     4   4   4   4   4   4   4   4
#     4  11  22  47  75 100 145 188 251 301 360 443
#     4  11  22  39  70 114 132 180 245 324 349 427
#     4  11  23  45  78 105 141 207 250 305 376 462
#     4  12  27  53  68 111 155 199 233 328 381 445
#     4  11  25  43  79 108 141 199 263 304 373 453
#     4  10  21  40  75 104 143 175 259 314 355 429
#     4  10  23  45  71 104 139 195 249 307 350 468
#     4  12  31  46  74 108 164 189 246 313 404 433
#
# _framework density 27.214552000000001
#
# number of rings (size 3 to 8) (size 9 to 14) (size 15 to 20)
#    0.000    1.000    5.000    2.250   10.500    0.000 
#    6.750    0.000    0.000    0.000    0.000    0.000 
#    0.000    0.000    0.000    0.000    0.000    0.000 
#
# Total GULP energy -89414.139113 kJ/mol
# GULP energy per Si atom -5588.383695 kJ/mol
# Density = 2.715261 g / cm^3
# Si number density = 27.214552 Si / 1000 Ang^3
#
#
#
# Elastic Constant Matrix: (Units=GPa)
#
#
# Indices 1 2 3 4 5 6 
#
# 1 103.9430 31.8114 15.2007 0.0000 -0.3239 0.0026
# 2 31.8114 192.7801 35.8948 0.0010 15.4361 0.0055
# 3 15.2007 35.8948 86.8353 -0.0001 19.3022 0.0002
# 4 0.0000 0.0010 -0.0001 26.3343 -0.0002 13.0412
# 5 -0.3239 15.4361 19.3022 -0.0002 37.4872 0.0001
# 6 0.0026 0.0055 0.0002 13.0412 0.0001 4.1550
#
#
#
# Elastic Compliance Matrix: (Units=1/GPa)
#
#
# Indices 1 2 3 4 5 6 
#
# 1 0.010317 -0.001543 -0.001501 -0.000004 0.001497 0.000008
# 2 -0.001543 0.005904 -0.001837 -0.000006 -0.001498 0.000011
# 3 -0.001501 -0.001837 0.013972 0.000003 -0.006451 -0.000005
# 4 -0.000004 -0.000006 0.000003 -0.068503 0.000000 0.215008
# 5 0.001497 -0.001498 -0.006451 0.000000 0.030627 0.000001
# 6 0.000008 0.000011 -0.000005 0.215008 0.000001 -0.434168
#
#
# Mechanical properties :
#
#
# Convention : Reuss Voigt Hill
#
# Bulk Modulus (GPa) = 48.94621 61.04136 54.99379
# Shear Modulus (GPa) = -11.75701 33.63874 10.94086
#
# Velocity S-wave (km/s) = -2.08074 3.51957 2.00723
# Velocity P-wave (km/s) = 3.50024 6.24459 5.06195
#
# Compressibility (1/GPa) = 0.02043059
#
# Stress axis : x y z
#
# Youngs Moduli (GPa) = 96.92709 169.37874 71.57062
#
# Poissons Ratio (x) = 0.26133 0.10743
# Poissons Ratio (y) = 0.14954 0.13150
# Poissons Ratio (z) = 0.14550 0.31121
#
# Static dielectric constant tensor:
#      x y z
#    x 2.156260 0.000000 0.011940 
#    y 0.000000 2.204930 0.000000 
#    z 0.011940 0.000000 2.180400 
# 
# From -- ./inp_files/30454.got.cif
#   From: 2010.05.17/outbox.cif.g08.bks.cpg/sg9_16_cif.got.tgz:30454.got - 2010.06.03 20:04:27.
