data_PCOD9136259
_publ_section_title
;
Structure prediction by ZEFSAII (Michael W. Deem and Ramdas Pophale) SiO2 
 PCOD9136259
Probable space group: C C
;
_chemical_formula_sum "Si O2"
_cell_formula_units_Z 28
_cell_length_a 11.106844
_cell_length_b 9.768114
_cell_length_c 13.301983
_cell_angle_alpha 90.000000
_cell_angle_beta 47.952618
_cell_angle_gamma 90.000000
_cell_volume 1071.686080
_symmetry_space_group_name_H-M "C C"
_symmetry_group_IT_number 9
_symmetry_cell_setting 'monoclinic'
loop_
_space_group_symop_operation_xyz
x,y,z
x,-y,1/2+z
1/2+x,1/2+y,z
1/2+x,1/2-y,1/2+z
loop_
_atom_site_type_symbol
_atom_site_label
_atom_site_fract_x
_atom_site_fract_y
_atom_site_fract_z
Si Si1 0.913640 0.438663 0.322560
Si Si2 0.209334 0.571203 0.250719
Si Si3 0.891624 0.107602 0.953272
Si Si4 0.764647 0.486029 0.224331
Si Si5 0.363185 0.645702 0.351783
Si Si6 0.845684 0.786266 0.259721
Si Si7 0.638465 0.539067 0.592391
O O1 0.911250 0.419534 0.204250
O O2 0.922150 0.288153 0.362656
O O3 0.730562 0.489905 0.443562
O O4 0.039422 0.547668 0.291631
O O5 0.222865 0.654807 0.346637
O O6 0.258726 0.416979 0.257411
O O7 0.326175 0.635676 0.100533
O O8 0.819122 0.957967 0.964591
O O9 0.085084 0.079940 0.841071
O O10 0.838837 0.198303 0.885892
O O11 0.784252 0.647040 0.243449
O O12 0.778746 0.462492 0.097637
O O13 0.509792 0.572548 0.207348
O O14 0.035274 0.823874 0.134883
#
# Coordination Sequence:
#
# PCOD9136259 Si02
#       7
#     4   4   4   4   4   4   4
#     4  12  24  39  61  97 128 162 212 252 326 384
#     4  10  21  40  62  93 125 163 209 259 313 378
#     4   9  20  41  65  91 124 161 209 260 313 372
#     4  10  21  40  65  92 121 169 206 256 316 382
#     4   9  22  40  64  89 124 165 210 259 311 375
#     4   9  20  42  65  90 119 164 213 256 311 378
#     4   9  22  44  62  90 125 164 209 264 312 371
#
# _framework density 26.127054000000001
#
# number of rings (size 3 to 8) (size 9 to 14) (size 15 to 20)
#    0.000    2.857    0.000    3.429    4.000    4.571 
#   10.286    0.000    0.000    0.000    0.000    0.000 
#    0.000    0.000    0.000    0.000    0.000    0.000 
#
# Total GULP energy -78195.797906 kJ/mol
# GULP energy per Si atom -5585.414136 kJ/mol
# Density = 2.606759 g / cm^3
# Si number density = 26.127054 Si / 1000 Ang^3
#
#
#
# Elastic Constant Matrix: (Units=GPa)
#
#
# Indices 1 2 3 4 5 6 
#
# 1 122.6587 0.7126 9.0722 0.0000 11.0200 0.0000
# 2 0.7126 116.7035 -4.3325 0.0000 -11.0206 0.0000
# 3 9.0722 -4.3325 67.3867 0.0000 -5.7833 0.0000
# 4 0.0000 0.0000 0.0000 13.3693 0.0000 -9.2853
# 5 11.0200 -11.0206 -5.7833 0.0000 30.6965 0.0000
# 6 0.0000 0.0000 0.0000 -9.2853 0.0000 26.2966
#
#
#
# Elastic Compliance Matrix: (Units=1/GPa)
#
#
# Indices 1 2 3 4 5 6 
#
# 1 0.008581 -0.000440 -0.001486 0.000000 -0.003518 0.000000
# 2 -0.000440 0.008941 0.000938 0.000000 0.003545 0.000000
# 3 -0.001486 0.000938 0.015424 0.000000 0.003776 0.000000
# 4 0.000000 0.000000 0.000000 0.099101 0.000000 0.034993
# 5 -0.003518 0.003545 0.003776 0.000000 0.035824 0.000000
# 6 0.000000 0.000000 0.000000 0.034993 0.000000 0.050384
#
#
# Mechanical properties :
#
#
# Convention : Reuss Voigt Hill
#
# Bulk Modulus (GPa) = 32.28704 35.29486 33.79095
# Shear Modulus (GPa) = 21.68693 34.15891 27.92292
#
# Velocity S-wave (km/s) = 2.88420 3.61974 3.27270
# Velocity P-wave (km/s) = 4.84520 5.56851 5.21940
#
# Compressibility (1/GPa) = 0.03097218
#
# Stress axis : x y z
#
# Youngs Moduli (GPa) = 116.53329 111.84464 64.83357
#
# Poissons Ratio (x) = 0.04919 0.09631
# Poissons Ratio (y) = 0.05125 -0.06083
# Poissons Ratio (z) = 0.17311 -0.10494
#
# Static dielectric constant tensor:
#      x y z
#    x 2.123980 0.000000 0.004400 
#    y 0.000000 2.091420 0.000000 
#    z 0.004400 0.000000 2.040810 
# 
# From -- ./inp_files/24607.got.cif
#   From: 2010.05.17/outbox.cif.g08.bks.cpg/sg9_13_cif.got.tgz:24607.got - 2010.06.03 20:04:27.
