data_PCOD9136730
_publ_section_title
;
Structure prediction by ZEFSAII (Michael W. Deem and Ramdas Pophale) SiO2 
 PCOD9136730
Probable space group: C C
;
_chemical_formula_sum "Si O2"
_cell_formula_units_Z 28
_cell_length_a 9.070535
_cell_length_b 12.334130
_cell_length_c 14.744587
_cell_angle_alpha 90.000000
_cell_angle_beta 40.612143
_cell_angle_gamma 90.000000
_cell_volume 1073.771173
_symmetry_space_group_name_H-M "C C"
_symmetry_group_IT_number 9
_symmetry_cell_setting 'monoclinic'
loop_
_space_group_symop_operation_xyz
x,y,z
x,-y,1/2+z
1/2+x,1/2+y,z
1/2+x,1/2-y,1/2+z
loop_
_atom_site_type_symbol
_atom_site_label
_atom_site_fract_x
_atom_site_fract_y
_atom_site_fract_z
Si Si1 0.099980 0.777715 0.188860
Si Si2 0.334409 0.048884 0.863668
Si Si3 0.853137 0.170779 0.505735
Si Si4 0.377259 0.273255 0.792608
Si Si5 0.961585 0.649147 0.411904
Si Si6 0.643199 0.956633 0.580373
Si Si7 0.149656 0.633188 0.881214
O O1 0.146000 0.659742 0.126255
O O2 0.987393 0.756963 0.338399
O O3 0.902203 0.841821 0.231412
O O4 0.335330 0.838238 0.066331
O O5 0.226745 0.165546 0.889600
O O6 0.516324 0.090721 0.855638
O O7 0.305298 0.934249 0.928684
O O8 0.415427 0.009181 0.727165
O O9 0.606968 0.227705 0.639943
O O10 0.925094 0.173856 0.366757
O O11 0.028764 0.254130 0.467341
O O12 0.827771 0.042078 0.534168
O O13 0.231425 0.360763 0.804315
O O14 0.643621 0.943016 0.472342
#
# Coordination Sequence:
#
# PCOD9136730 Si02
#       7
#     4   4   4   4   4   4   4
#     4  11  24  42  66 102 140 186 233 290 359 410
#     4   9  23  43  69 102 136 183 242 283 358 417
#     4  10  23  42  70 100 137 179 238 287 354 415
#     4  10  21  43  67  98 132 184 228 288 349 414
#     4  11  22  44  64  95 143 177 230 296 339 424
#     4  10  22  43  65 106 136 185 236 282 361 416
#     4  11  23  45  73 103 146 184 237 302 346 428
#
# _framework density 26.076319000000002
#
# number of rings (size 3 to 8) (size 9 to 14) (size 15 to 20)
#    0.000    1.714    1.429    1.714    6.000    1.143 
#   23.143    0.000    0.000    0.000    0.000    0.000 
#    0.000    0.000    0.000    0.000    0.000    0.000 
#
# Total GULP energy -77934.114985 kJ/mol
# GULP energy per Si atom -5566.722499 kJ/mol
# Density = 2.601697 g / cm^3
# Si number density = 26.076319 Si / 1000 Ang^3
#
#
#
# Elastic Constant Matrix: (Units=GPa)
#
#
# Indices 1 2 3 4 5 6 
#
# 1 71.4577 32.1055 42.3975 -0.0002 6.6203 0.0000
# 2 32.1055 87.4418 35.4593 -0.0002 12.2160 0.0001
# 3 42.3975 35.4593 112.3853 -0.0008 6.8199 0.0003
# 4 -0.0002 -0.0002 -0.0008 28.3768 0.0003 3.6856
# 5 6.6203 12.2160 6.8199 0.0003 32.6549 0.0000
# 6 0.0000 0.0001 0.0003 3.6856 0.0000 48.2487
#
#
#
# Elastic Compliance Matrix: (Units=1/GPa)
#
#
# Indices 1 2 3 4 5 6 
#
# 1 0.019692 -0.004704 -0.005884 0.000000 -0.001004 0.000000
# 2 -0.004704 0.014801 -0.002651 0.000000 -0.004030 0.000000
# 3 -0.005884 -0.002651 0.011973 0.000000 -0.000316 0.000000
# 4 0.000000 0.000000 0.000000 0.035593 0.000000 -0.002719
# 5 -0.001004 -0.004030 -0.000316 0.000000 0.032400 0.000000
# 6 0.000000 0.000000 0.000000 -0.002719 0.000000 0.020934
#
#
# Mechanical properties :
#
#
# Convention : Reuss Voigt Hill
#
# Bulk Modulus (GPa) = 50.02728 54.57883 52.30306
# Shear Modulus (GPa) = 29.66776 32.61093 31.13934
#
# Velocity S-wave (km/s) = 3.37668 3.54021 3.45941
# Velocity P-wave (km/s) = 5.86764 6.13895 6.00483
#
# Compressibility (1/GPa) = 0.01998909
#
# Stress axis : x y z
#
# Youngs Moduli (GPa) = 50.78300 67.56179 83.52022
#
# Poissons Ratio (x) = 0.31781 0.49140
# Poissons Ratio (y) = 0.23888 0.22141
# Poissons Ratio (z) = 0.29879 0.17910
#
# Static dielectric constant tensor:
#      x y z
#    x 2.130740 0.000000 -0.028450 
#    y 0.000000 2.191480 0.000000 
#    z -0.028450 0.000000 2.023430 
# 
# From -- ./inp_files/23329.got.cif
#   From: 2010.05.17/outbox.cif.g08.bks.cpg/sg9_12_cif.got.tgz:23329.got - 2010.06.03 20:04:27.
