data_PCOD9136326
_publ_section_title
;
Structure prediction by ZEFSAII (Michael W. Deem and Ramdas Pophale) SiO2 
 PCOD9136326
Probable space group: C C
;
_chemical_formula_sum "Si O2"
_cell_formula_units_Z 32
_cell_length_a 12.651969
_cell_length_b 14.201155
_cell_length_c 14.098405
_cell_angle_alpha 90.000000
_cell_angle_beta 37.220976
_cell_angle_gamma 90.000000
_cell_volume 1532.246595
_symmetry_space_group_name_H-M "C C"
_symmetry_group_IT_number 9
_symmetry_cell_setting 'monoclinic'
loop_
_space_group_symop_operation_xyz
x,y,z
x,-y,1/2+z
1/2+x,1/2+y,z
1/2+x,1/2-y,1/2+z
loop_
_atom_site_type_symbol
_atom_site_label
_atom_site_fract_x
_atom_site_fract_y
_atom_site_fract_z
Si Si1 0.505070 0.558041 0.060270
Si Si2 0.437402 0.654977 0.299458
Si Si3 0.499377 0.460318 0.341412
Si Si4 0.392049 0.973280 0.813316
Si Si5 0.839555 0.134072 0.699977
Si Si6 0.659772 0.130281 0.014929
Si Si7 0.187427 0.826904 0.063629
Si Si8 0.137809 0.652011 0.656765
O O1 0.461062 0.635854 0.170089
O O2 0.364088 0.477678 0.184246
O O3 0.497266 0.566061 0.952811
O O4 0.702474 0.520482 0.937198
O O5 0.537733 0.568787 0.283624
O O6 0.242445 0.654772 0.482636
O O7 0.516661 0.757746 0.258244
O O8 0.307783 0.445100 0.434875
O O9 0.619354 0.384847 0.201843
O O10 0.525378 0.055908 0.747445
O O11 0.475356 0.919710 0.663279
O O12 0.355196 0.884970 0.909060
O O13 0.782949 0.158923 0.635494
O O14 0.028295 0.168703 0.600405
O O15 0.699918 0.162829 0.879448
O O16 0.705761 0.215365 0.054400
#
# Coordination Sequence:
#
# PCOD9136326 Si02
#       8
#     4   4   4   4   4   4   4   4
#     4  11  22  44  69  91 138 185 217 273 348 404
#     4  12  24  46  67  98 140 174 231 283 339 416
#     4  11  22  45  68  90 137 181 214 285 344 400
#     4  11  21  40  64  98 137 175 225 277 344 406
#     4  10  21  40  66  99 130 176 212 283 353 388
#     4  11  21  41  66  99 133 166 232 285 337 403
#     4  10  23  40  66  99 132 169 225 287 334 408
#     4  12  26  42  70 100 137 184 224 289 343 409
#
# _framework density 20.884366
#
# number of rings (size 3 to 8) (size 9 to 14) (size 15 to 20)
#    0.000    1.000    6.250    2.250    1.750    2.000 
#    4.500    1.250    0.000    0.000    0.000    0.000 
#    0.000    0.000    0.000    0.000    0.000    0.000 
#
# Total GULP energy -89167.881809 kJ/mol
# GULP energy per Si atom -5572.992613 kJ/mol
# Density = 2.083683 g / cm^3
# Si number density = 20.884366 Si / 1000 Ang^3
#
#
#
# Elastic Constant Matrix: (Units=GPa)
#
#
# Indices 1 2 3 4 5 6 
#
# 1 44.2516 4.4027 25.0524 -0.0002 24.7038 0.0001
# 2 4.4027 112.0527 40.6106 -0.0001 3.9408 0.0001
# 3 25.0524 40.6106 130.3957 -0.0002 12.6185 0.0002
# 4 -0.0002 -0.0001 -0.0002 37.0404 0.0002 -4.9078
# 5 24.7038 3.9408 12.6185 0.0002 19.1113 -0.0001
# 6 0.0001 0.0001 0.0002 -4.9078 -0.0001 17.9920
#
#
#
# Elastic Compliance Matrix: (Units=1/GPa)
#
#
# Indices 1 2 3 4 5 6 
#
# 1 0.086389 0.002966 -0.007110 0.000001 -0.107587 -0.000001
# 2 0.002966 0.010162 -0.003377 0.000000 -0.003700 0.000000
# 3 -0.007110 -0.003377 0.009753 0.000000 0.003448 0.000000
# 4 0.000001 0.000000 0.000000 0.028010 -0.000001 0.007641
# 5 -0.107587 -0.003700 0.003448 -0.000001 0.189881 0.000002
# 6 -0.000001 0.000000 0.000000 0.007641 0.000002 0.057665
#
#
# Mechanical properties :
#
#
# Convention : Reuss Voigt Hill
#
# Bulk Modulus (GPa) = 10.95733 47.42570 29.19152
# Shear Modulus (GPa) = 11.70078 29.27103 20.48590
#
# Velocity S-wave (km/s) = 2.36956 3.74782 3.13536
# Velocity P-wave (km/s) = 3.56994 6.44098 5.20724
#
# Compressibility (1/GPa) = 0.09126308
#
# Stress axis : x y z
#
# Youngs Moduli (GPa) = 11.57549 98.40860 102.53241
#
# Poissons Ratio (x) = -0.29191 0.72903
# Poissons Ratio (y) = -0.03434 0.34621
# Poissons Ratio (z) = 0.08230 0.33229
#
# Static dielectric constant tensor:
#      x y z
#    x 1.757950 0.000000 0.041850 
#    y 0.000000 1.811840 0.000000 
#    z 0.041850 0.000000 1.802340 
# 
# From -- ./inp_files/26019.got.cif
#   From: 2010.05.17/outbox.cif.g08.bks.cpg/sg9_14_cif.got.tgz:26019.got - 2010.06.03 20:04:27.
