data_PCOD9136860
_publ_section_title
;
Structure prediction by ZEFSAII (Michael W. Deem and Ramdas Pophale) SiO2 
 PCOD9136860
Probable space group: C C
;
_chemical_formula_sum "Si O2"
_cell_formula_units_Z 32
_cell_length_a 13.325178
_cell_length_b 11.143417
_cell_length_c 9.564883
_cell_angle_alpha 90.000000
_cell_angle_beta 66.258961
_cell_angle_gamma 90.000000
_cell_volume 1300.079330
_symmetry_space_group_name_H-M "C C"
_symmetry_group_IT_number 9
_symmetry_cell_setting 'monoclinic'
loop_
_space_group_symop_operation_xyz
x,y,z
x,-y,1/2+z
1/2+x,1/2+y,z
1/2+x,1/2-y,1/2+z
loop_
_atom_site_type_symbol
_atom_site_label
_atom_site_fract_x
_atom_site_fract_y
_atom_site_fract_z
Si Si1 0.373090 0.450221 0.430500
Si Si2 0.570190 0.471447 0.492095
Si Si3 0.383185 0.185521 0.373728
Si Si4 0.726295 0.049970 0.274705
Si Si5 0.321305 0.820113 0.586290
Si Si6 0.122907 0.284100 0.040444
Si Si7 0.203421 0.072141 0.645904
Si Si8 0.513646 0.065304 0.821670
O O1 0.467979 0.518638 0.460772
O O2 0.426374 0.319102 0.375586
O O3 0.326379 0.510191 0.317896
O O4 0.271304 0.439093 0.593744
O O5 0.557829 0.341422 0.572242
O O6 0.605850 0.566566 0.587956
O O7 0.664370 0.439764 0.326039
O O8 0.290689 0.167876 0.544681
O O9 0.459626 0.067368 0.338987
O O10 0.335205 0.190722 0.243996
O O11 0.628946 0.952849 0.334935
O O12 0.669648 0.169427 0.367187
O O13 0.233618 0.728223 0.571661
O O14 0.264065 0.946488 0.586387
O O15 0.436687 0.838887 0.443355
O O16 0.043301 0.382432 0.153028
#
# Coordination Sequence:
#
# PCOD9136860 Si02
#       8
#     4   4   4   4   4   4   4   4
#     4  12  27  43  69 101 144 186 238 290 354 417
#     4  11  23  44  67 104 135 191 231 290 360 410
#     4  11  23  43  72 104 134 185 240 288 351 422
#     4  12  25  48  66 100 147 188 234 299 348 421
#     4  10  23  42  72 107 137 183 235 294 348 415
#     4  11  24  44  71 104 141 187 238 292 358 418
#     4  10  21  44  71  98 143 175 238 292 343 418
#     4  11  24  46  74 102 145 187 238 291 350 425
#
# _framework density 24.613882
#
# number of rings (size 3 to 8) (size 9 to 14) (size 15 to 20)
#    0.000    1.000    2.500    3.750    1.750    1.000 
#    2.250    0.000    0.000    0.000    0.000    0.000 
#    0.000    0.000    0.000    0.000    0.000    0.000 
#
# Total GULP energy -89501.829205 kJ/mol
# GULP energy per Si atom -5593.864325 kJ/mol
# Density = 2.455786 g / cm^3
# Si number density = 24.613882 Si / 1000 Ang^3
#
#
#
# Elastic Constant Matrix: (Units=GPa)
#
#
# Indices 1 2 3 4 5 6 
#
# 1 73.8749 9.7340 1.5996 0.0000 10.2650 0.0000
# 2 9.7340 62.5151 2.9680 0.0000 -14.7223 0.0000
# 3 1.5996 2.9680 118.3404 0.0000 -13.1440 0.0000
# 4 0.0000 0.0000 0.0000 29.8125 0.0000 -2.6184
# 5 10.2650 -14.7223 -13.1440 0.0000 41.1422 0.0000
# 6 0.0000 0.0000 0.0000 -2.6184 0.0000 27.9101
#
#
#
# Elastic Compliance Matrix: (Units=1/GPa)
#
#
# Indices 1 2 3 4 5 6 
#
# 1 0.014721 -0.003468 -0.000682 0.000000 -0.005132 0.000000
# 2 -0.003468 0.018293 0.000426 0.000000 0.007548 0.000000
# 3 -0.000682 0.000426 0.008797 0.000000 0.003133 0.000000
# 4 0.000000 0.000000 0.000000 0.033822 0.000000 0.003173
# 5 -0.005132 0.007548 0.003133 0.000000 0.029288 0.000000
# 6 0.000000 0.000000 0.000000 0.003173 0.000000 0.036127
#
#
# Mechanical properties :
#
#
# Convention : Reuss Voigt Hill
#
# Bulk Modulus (GPa) = 29.10073 31.48152 30.29112
# Shear Modulus (GPa) = 31.25961 35.80154 33.53058
#
# Velocity S-wave (km/s) = 3.56757 3.81796 3.69489
# Velocity P-wave (km/s) = 5.36830 5.67923 5.52595
#
# Compressibility (1/GPa) = 0.03436340
#
# Stress axis : x y z
#
# Youngs Moduli (GPa) = 67.92891 54.66446 113.67875
#
# Poissons Ratio (x) = 0.18960 0.07753
# Poissons Ratio (y) = 0.23560 -0.04847
# Poissons Ratio (z) = 0.04633 -0.02331
#
# Static dielectric constant tensor:
#      x y z
#    x 2.020640 0.000000 -0.009290 
#    y 0.000000 1.934450 0.000000 
#    z -0.009290 0.000000 1.919910 
# 
# From -- ./inp_files/9184.got.cif
#   From: 2010.05.17/outbox.cif.g08.bks.cpg/sg9_5_cif.got.tgz:9184.got - 2010.06.03 20:04:27.
