data_PCOD9136363
_publ_section_title
;
Structure prediction by ZEFSAII (Michael W. Deem and Ramdas Pophale) SiO2 
 PCOD9136363
Probable space group: C C
;
_chemical_formula_sum "Si O2"
_cell_formula_units_Z 28
_cell_length_a 9.337812
_cell_length_b 19.649792
_cell_length_c 9.618777
_cell_angle_alpha 90.000000
_cell_angle_beta 46.330374
_cell_angle_gamma 90.000000
_cell_volume 1276.619278
_symmetry_space_group_name_H-M "C C"
_symmetry_group_IT_number 9
_symmetry_cell_setting 'monoclinic'
loop_
_space_group_symop_operation_xyz
x,y,z
x,-y,1/2+z
1/2+x,1/2+y,z
1/2+x,1/2-y,1/2+z
loop_
_atom_site_type_symbol
_atom_site_label
_atom_site_fract_x
_atom_site_fract_y
_atom_site_fract_z
Si Si1 0.573580 0.172641 0.956640
Si Si2 0.361656 0.309003 0.517348
Si Si3 0.634877 0.382567 0.118007
Si Si4 0.280717 0.584586 0.453757
Si Si5 0.537118 0.839603 0.949199
Si Si6 0.619478 0.682710 0.329859
Si Si7 0.308033 0.533750 0.730648
O O1 0.690671 0.197534 0.015586
O O2 0.596637 0.235735 0.834441
O O3 0.675756 0.100662 0.853723
O O4 0.342946 0.164010 0.141457
O O5 0.529132 0.353173 0.327149
O O6 0.453272 0.236794 0.497577
O O7 0.243754 0.338575 0.726687
O O8 0.527135 0.451263 0.144467
O O9 0.588911 0.335920 0.013600
O O10 0.867177 0.383892 0.989473
O O11 0.088815 0.633079 0.567441
O O12 0.465423 0.636136 0.348656
O O13 0.299374 0.533687 0.571135
O O14 0.249289 0.534690 0.344855
#
# Coordination Sequence:
#
# PCOD9136363 Si02
#       7
#     4   4   4   4   4   4   4
#     4  11  20  40  75 101 140 183 238 289 365 414
#     4  11  20  36  68 108 135 181 224 295 352 425
#     4  10  21  40  68  98 139 183 236 279 351 421
#     4  11  28  46  67 102 145 188 237 294 351 431
#     4  12  22  39  67 104 144 178 236 289 354 419
#     4  11  21  41  70 107 136 187 237 296 349 425
#     4  10  26  48  69  98 145 190 236 292 354 429
#
# _framework density 21.932928
#
# number of rings (size 3 to 8) (size 9 to 14) (size 15 to 20)
#    0.000    1.143    4.286    2.571    4.000    3.429 
#    2.571    2.857    0.000    0.000    0.000    0.000 
#    0.000    0.000    0.000    0.000    0.000    0.000 
#
# Total GULP energy -78146.383895 kJ/mol
# GULP energy per Si atom -5581.884564 kJ/mol
# Density = 2.188301 g / cm^3
# Si number density = 21.932928 Si / 1000 Ang^3
#
#
#
# Elastic Constant Matrix: (Units=GPa)
#
#
# Indices 1 2 3 4 5 6 
#
# 1 125.2082 50.1878 39.0080 0.0000 -1.1819 0.0000
# 2 50.1878 97.8566 27.5643 0.0000 9.3479 0.0000
# 3 39.0080 27.5643 75.6815 0.0000 -11.1797 0.0000
# 4 0.0000 0.0000 0.0000 14.9471 0.0000 2.0251
# 5 -1.1819 9.3479 -11.1797 0.0000 18.8930 0.0000
# 6 0.0000 0.0000 0.0000 2.0251 0.0000 28.7582
#
#
#
# Elastic Compliance Matrix: (Units=1/GPa)
#
#
# Indices 1 2 3 4 5 6 
#
# 1 0.011074 -0.004639 -0.003919 0.000000 0.000669 0.000000
# 2 -0.004639 0.014868 -0.004551 0.000000 -0.010340 0.000000
# 3 -0.003919 -0.004551 0.018834 0.000000 0.013151 0.000000
# 4 0.000000 0.000000 0.000000 0.067547 0.000000 -0.004756
# 5 0.000669 -0.010340 0.013151 0.000000 0.065870 0.000000
# 6 0.000000 0.000000 0.000000 -0.004756 0.000000 0.035108
#
#
# Mechanical properties :
#
#
# Convention : Reuss Voigt Hill
#
# Bulk Modulus (GPa) = 53.89129 59.14074 56.51601
# Shear Modulus (GPa) = 20.34962 24.65206 22.50084
#
# Velocity S-wave (km/s) = 3.04930 3.35621 3.20643
# Velocity P-wave (km/s) = 6.08457 6.48396 6.28744
#
# Compressibility (1/GPa) = 0.01855588
#
# Stress axis : x y z
#
# Youngs Moduli (GPa) = 90.30512 67.25758 53.09639
#
# Poissons Ratio (x) = 0.31203 0.20809
# Poissons Ratio (y) = 0.41895 0.24167
# Poissons Ratio (z) = 0.35391 0.30612
#
# Static dielectric constant tensor:
#      x y z
#    x 1.799100 0.000000 0.032950 
#    y 0.000000 1.822510 0.000000 
#    z 0.032950 0.000000 1.873420 
# 
# From -- ./inp_files/5866.got.cif
#   From: 2010.05.17/outbox.cif.g08.bks.cpg/sg9_3_cif.got.tgz:5866.got - 2010.06.03 20:04:27.
