data_PCOD9136142
_publ_section_title
;
Structure prediction by ZEFSAII (Michael W. Deem and Ramdas Pophale) SiO2 
 PCOD9136142
Probable space group: C C
;
_chemical_formula_sum "Si O2"
_cell_formula_units_Z 32
_cell_length_a 4.963125
_cell_length_b 33.364555
_cell_length_c 9.962912
_cell_angle_alpha 90.000000
_cell_angle_beta 121.203985
_cell_angle_gamma 90.000000
_cell_volume 1411.106037
_symmetry_space_group_name_H-M "C C"
_symmetry_group_IT_number 9
_symmetry_cell_setting 'monoclinic'
loop_
_space_group_symop_operation_xyz
x,y,z
x,-y,1/2+z
1/2+x,1/2+y,z
1/2+x,1/2-y,1/2+z
loop_
_atom_site_type_symbol
_atom_site_label
_atom_site_fract_x
_atom_site_fract_y
_atom_site_fract_z
Si Si1 0.702060 0.342255 0.520360
Si Si2 0.046153 0.922545 0.638392
Si Si3 0.282136 0.452559 0.293539
Si Si4 0.779385 0.847991 0.141239
Si Si5 0.758256 0.702496 0.625707
Si Si6 0.609146 0.574762 0.626109
Si Si7 0.694398 0.208723 0.000374
Si Si8 0.698260 0.956295 0.791423
O O1 0.655252 0.379716 0.607400
O O2 0.488208 0.351743 0.332538
O O3 0.541707 0.305230 0.553516
O O4 0.035600 0.325129 0.555661
O O5 0.365498 0.943839 0.766899
O O6 0.905405 0.945923 0.474602
O O7 0.797047 0.927022 0.694324
O O8 0.558623 0.444338 0.259452
O O9 0.173804 0.497811 0.240239
O O10 0.983057 0.422526 0.197940
O O11 0.427339 0.833092 0.083775
O O12 0.925314 0.811452 0.095569
O O13 0.887220 0.886075 0.080900
O O14 0.711826 0.745791 0.550926
O O15 0.986537 0.706992 0.812435
O O16 0.463235 0.547784 0.472637
#
# Coordination Sequence:
#
# PCOD9136142 Si02
#       8
#     4   4   4   4   4   4   4   4
#     4  10  21  40  66  89 123 170 215 256 311 396
#     4  12  25  44  68  97 134 173 227 272 333 394
#     4  12  24  43  72  91 127 185 229 263 330 414
#     4  10  21  40  66  89 124 170 215 256 311 397
#     4  10  21  39  63  93 123 160 209 260 317 384
#     4  12  25  44  68  97 134 174 227 271 334 394
#     4  10  21  39  63  92 123 160 209 260 317 384
#     4  12  26  43  62 102 138 166 217 296 337 371
#
# _framework density 22.677247999999999
#
# number of rings (size 3 to 8) (size 9 to 14) (size 15 to 20)
#    0.000    1.000    1.250    6.000    3.500    0.000 
#    6.750    0.000    0.000    0.000    0.000    0.000 
#    0.000    0.000    0.000    0.000    0.000    0.000 
#
# Total GULP energy -89396.015662 kJ/mol
# GULP energy per Si atom -5587.250979 kJ/mol
# Density = 2.262563 g / cm^3
# Si number density = 22.677248 Si / 1000 Ang^3
#
#
#
# Elastic Constant Matrix: (Units=GPa)
#
#
# Indices 1 2 3 4 5 6 
#
# 1 90.7888 -4.9099 14.0141 0.0000 -8.7270 0.0000
# 2 -4.9099 83.3289 -4.9954 0.0000 -11.0602 0.0000
# 3 14.0141 -4.9954 32.0256 0.0000 -4.6785 0.0000
# 4 0.0000 0.0000 0.0000 27.9789 0.0000 -1.7540
# 5 -8.7270 -11.0602 -4.6785 0.0000 27.9470 0.0000
# 6 0.0000 0.0000 0.0000 -1.7540 0.0000 25.3743
#
#
#
# Elastic Compliance Matrix: (Units=1/GPa)
#
#
# Indices 1 2 3 4 5 6 
#
# 1 0.012105 0.000877 -0.004671 0.000000 0.003345 0.000000
# 2 0.000877 0.012975 0.002491 0.000000 0.005826 0.000000
# 3 -0.004671 0.002491 0.034431 0.000000 0.005291 0.000000
# 4 0.000000 0.000000 0.000000 0.035897 0.000000 0.002481
# 5 0.003345 0.005826 0.005291 0.000000 0.040018 0.000000
# 6 0.000000 0.000000 0.000000 0.002481 0.000000 0.039581
#
#
# Mechanical properties :
#
#
# Convention : Reuss Voigt Hill
#
# Bulk Modulus (GPa) = 17.57345 23.81786 20.69566
# Shear Modulus (GPa) = 25.43485 29.72902 27.58194
#
# Velocity S-wave (km/s) = 3.35267 3.62465 3.49131
# Velocity P-wave (km/s) = 4.77005 5.29559 5.03967
#
# Compressibility (1/GPa) = 0.05690402
#
# Stress axis : x y z
#
# Youngs Moduli (GPa) = 82.61302 77.07178 29.04383
#
# Poissons Ratio (x) = -0.06761 0.13568
# Poissons Ratio (y) = -0.07247 -0.07235
# Poissons Ratio (z) = 0.38592 -0.19199
#
# Static dielectric constant tensor:
#      x y z
#    x 1.794700 0.000000 -0.010870 
#    y 0.000000 1.864770 0.000000 
#    z -0.010870 0.000000 1.806590 
# 
# From -- ./inp_files/4560.got.cif
#   From: 2010.05.17/outbox.cif.g08.bks.cpg/sg9_3_cif.got.tgz:4560.got - 2010.06.03 20:04:27.
