data_PCOD9136268
_publ_section_title
;
Structure prediction by ZEFSAII (Michael W. Deem and Ramdas Pophale) SiO2 
 PCOD9136268
Probable space group: C C
;
_chemical_formula_sum "Si O2"
_cell_formula_units_Z 28
_cell_length_a 10.797697
_cell_length_b 8.078355
_cell_length_c 28.893963
_cell_angle_alpha 90.000000
_cell_angle_beta 29.474634
_cell_angle_gamma 90.000000
_cell_volume 1240.109382
_symmetry_space_group_name_H-M "C C"
_symmetry_group_IT_number 9
_symmetry_cell_setting 'monoclinic'
loop_
_space_group_symop_operation_xyz
x,y,z
x,-y,1/2+z
1/2+x,1/2+y,z
1/2+x,1/2-y,1/2+z
loop_
_atom_site_type_symbol
_atom_site_label
_atom_site_fract_x
_atom_site_fract_y
_atom_site_fract_z
Si Si1 0.096100 0.275411 0.915360
Si Si2 0.470725 0.759585 0.763523
Si Si3 0.430700 0.139029 0.964463
Si Si4 0.461330 0.643260 0.057121
Si Si5 0.823675 0.764827 0.100675
Si Si6 0.822664 0.564601 0.775891
Si Si7 0.152899 0.929588 0.742301
O O1 0.087200 0.162325 0.872652
O O2 0.387131 0.334945 0.825879
O O3 0.935096 0.440362 0.963383
O O4 0.026508 0.173809 0.982987
O O5 0.698530 0.763929 0.652309
O O6 0.589563 0.625055 0.759438
O O7 0.183670 0.694268 0.855476
O O8 0.434668 0.956907 0.782671
O O9 0.432937 0.195809 0.017273
O O10 0.184502 0.203909 0.018031
O O11 0.432674 0.446829 0.074857
O O12 0.527070 0.807711 0.190194
O O13 0.823278 0.642245 0.145144
O O14 0.772726 0.425287 0.753823
#
# Coordination Sequence:
#
# PCOD9136268 Si02
#       7
#     4   4   4   4   4   4   4
#     4  10  23  38  59  93 123 161 217 255 308 387
#     4  10  22  40  64  92 124 164 212 256 310 382
#     4  11  23  41  64  92 130 170 210 266 320 373
#     4  11  23  41  64  92 130 170 210 266 320 373
#     4  10  23  38  59  93 123 161 217 255 308 387
#     4  10  21  40  63  89 124 164 207 263 317 370
#     4  10  21  40  63  89 124 164 207 263 317 370
#
# _framework density 22.578654
#
# number of rings (size 3 to 8) (size 9 to 14) (size 15 to 20)
#    0.000    1.714    0.000    3.429    0.000    6.857 
#    0.000   14.286    0.000    0.000    0.000    0.000 
#    0.000    0.000    0.000    0.000    0.000    0.000 
#
# Total GULP energy -78013.844117 kJ/mol
# GULP energy per Si atom -5572.417437 kJ/mol
# Density = 2.252726 g / cm^3
# Si number density = 22.578654 Si / 1000 Ang^3
#
#
#
# Elastic Constant Matrix: (Units=GPa)
#
#
# Indices 1 2 3 4 5 6 
#
# 1 83.0027 16.1678 63.1294 0.0005 6.7020 0.0006
# 2 16.1678 77.8349 31.6524 -0.0028 14.0108 0.0013
# 3 63.1294 31.6524 127.1500 0.0116 10.2686 -0.0056
# 4 0.0005 -0.0028 0.0116 47.0114 -0.0007 11.1329
# 5 6.7020 14.0108 10.2686 -0.0007 27.6042 -0.0031
# 6 0.0006 0.0013 -0.0056 11.1329 -0.0031 20.7270
#
#
#
# Elastic Compliance Matrix: (Units=1/GPa)
#
#
# Indices 1 2 3 4 5 6 
#
# 1 0.019394 0.000070 -0.009550 0.000003 -0.001191 -0.000005
# 2 0.000070 0.015372 -0.003330 0.000003 -0.006580 -0.000004
# 3 -0.009550 -0.003330 0.013518 -0.000005 -0.001020 0.000007
# 4 0.000003 0.000003 -0.000005 0.024371 -0.000001 -0.013090
# 5 -0.001191 -0.006580 -0.001020 -0.000001 0.040235 0.000007
# 6 -0.000005 -0.000004 0.000007 -0.013090 0.000007 0.055278
#
#
# Mechanical properties :
#
#
# Convention : Reuss Voigt Hill
#
# Bulk Modulus (GPa) = 44.12509 56.65409 50.38959
# Shear Modulus (GPa) = 24.83335 30.87104 27.85220
#
# Velocity S-wave (km/s) = 3.32001 3.70167 3.51602
# Velocity P-wave (km/s) = 5.85507 6.58909 6.23290
#
# Compressibility (1/GPa) = 0.02266284
#
# Stress axis : x y z
#
# Youngs Moduli (GPa) = 51.56240 65.05405 73.97779
#
# Poissons Ratio (x) = -0.00453 0.70650
# Poissons Ratio (y) = -0.00359 0.24633
# Poissons Ratio (z) = 0.49243 0.21661
#
# Static dielectric constant tensor:
#      x y z
#    x 1.858770 0.000000 -0.020950 
#    y 0.000000 1.830590 -0.000010 
#    z -0.020950 -0.000010 1.831980 
# 
# From -- ./inp_files/29784.got.cif
#   From: 2010.05.17/outbox.cif.g08.bks.cpg/sg9_15_cif.got.tgz:29784.got - 2010.06.03 20:04:27.
