data_PCOD9136926
_publ_section_title
;
Structure prediction by ZEFSAII (Michael W. Deem and Ramdas Pophale) SiO2 
 PCOD9136926
Probable space group: C C
;
_chemical_formula_sum "Si O2"
_cell_formula_units_Z 28
_cell_length_a 8.638711
_cell_length_b 13.529307
_cell_length_c 14.688449
_cell_angle_alpha 90.000000
_cell_angle_beta 38.309856
_cell_angle_gamma 90.000000
_cell_volume 1064.221172
_symmetry_space_group_name_H-M "C C"
_symmetry_group_IT_number 9
_symmetry_cell_setting 'monoclinic'
loop_
_space_group_symop_operation_xyz
x,y,z
x,-y,1/2+z
1/2+x,1/2+y,z
1/2+x,1/2-y,1/2+z
loop_
_atom_site_type_symbol
_atom_site_label
_atom_site_fract_x
_atom_site_fract_y
_atom_site_fract_z
Si Si1 0.406120 0.373067 0.236420
Si Si2 0.089045 0.861357 0.490471
Si Si3 0.792119 0.934333 0.878945
Si Si4 0.027177 0.255552 0.191291
Si Si5 0.066497 0.745133 0.014703
Si Si6 0.604804 0.941860 0.617465
Si Si7 0.456373 0.001454 0.378890
O O1 0.450988 0.465364 0.282480
O O2 0.300625 0.281705 0.344167
O O3 0.600844 0.329068 0.075220
O O4 0.167850 0.414147 0.288737
O O5 0.997745 0.775277 0.599580
O O6 0.316550 0.831007 0.321036
O O7 0.194687 0.945821 0.510051
O O8 0.867194 0.902569 0.534098
O O9 0.571991 0.930768 0.904193
O O10 0.955444 0.838655 0.788568
O O11 0.661071 0.958837 0.034794
O O12 0.320421 0.273370 0.072004
O O13 0.009963 0.640889 0.091497
O O14 0.449667 0.955244 0.780826
#
# Coordination Sequence:
#
# PCOD9136926 Si02
#       7
#     4   4   4   4   4   4   4
#     4   9  20  42  64  89 130 172 222 265 329 399
#     4  12  25  42  68 100 135 175 232 274 338 400
#     4   9  22  43  63  91 134 171 218 273 332 392
#     4  12  22  44  67  99 135 177 220 282 337 401
#     4  11  21  42  65  94 132 174 223 269 338 403
#     4  11  25  43  66 103 132 178 229 275 339 398
#     4  10  21  46  63  92 140 171 224 278 329 405
#
# _framework density 26.310320999999998
#
# number of rings (size 3 to 8) (size 9 to 14) (size 15 to 20)
#    0.857    0.571    4.286    0.000    4.000    3.429 
#    2.571    2.857    0.000    0.000    0.000    0.000 
#    0.000    0.000    0.000    0.000    0.000    0.000 
#
# Total GULP energy -78349.558651 kJ/mol
# GULP energy per Si atom -5596.397046 kJ/mol
# Density = 2.625044 g / cm^3
# Si number density = 26.310321 Si / 1000 Ang^3
#
#
#
# Elastic Constant Matrix: (Units=GPa)
#
#
# Indices 1 2 3 4 5 6 
#
# 1 67.8201 -1.6901 22.0749 -0.0030 4.4499 0.0012
# 2 -1.6901 57.6257 12.9370 -0.0030 -6.9062 0.0009
# 3 22.0749 12.9370 119.8714 -0.0083 21.6141 0.0036
# 4 -0.0030 -0.0030 -0.0083 51.9961 0.0036 12.5157
# 5 4.4499 -6.9062 21.6141 0.0036 42.0889 -0.0013
# 6 0.0012 0.0009 0.0036 12.5157 -0.0013 39.1558
#
#
#
# Elastic Compliance Matrix: (Units=1/GPa)
#
#
# Indices 1 2 3 4 5 6 
#
# 1 0.015758 0.001155 -0.003042 0.000001 0.000086 0.000000
# 2 0.001155 0.018605 -0.003030 0.000000 0.004487 0.000000
# 3 -0.003042 -0.003030 0.010206 0.000002 -0.005417 -0.000002
# 4 0.000001 0.000000 0.000002 0.020835 -0.000003 -0.006660
# 5 0.000086 0.004487 -0.005417 -0.000003 0.027268 0.000002
# 6 0.000000 0.000000 -0.000002 -0.006660 0.000002 0.027668
#
#
# Mechanical properties :
#
#
# Convention : Reuss Voigt Hill
#
# Bulk Modulus (GPa) = 28.78799 34.66233 31.72516
# Shear Modulus (GPa) = 35.27282 40.78118 38.02700
#
# Velocity S-wave (km/s) = 3.66546 3.94128 3.80587
# Velocity P-wave (km/s) = 5.37397 5.82363 5.60331
#
# Compressibility (1/GPa) = 0.03473671
#
# Stress axis : x y z
#
# Youngs Moduli (GPa) = 63.45893 53.74867 97.98011
#
# Poissons Ratio (x) = -0.06210 0.29807
# Poissons Ratio (y) = -0.07332 0.29685
# Poissons Ratio (z) = 0.19305 0.16284
#
# Static dielectric constant tensor:
#      x y z
#    x 1.978710 0.000000 0.048470 
#    y 0.000000 2.148190 0.000000 
#    z 0.048470 0.000000 2.072250 
# 
# From -- ./inp_files/23322.got.cif
#   From: 2010.05.17/outbox.cif.g08.bks.cpg/sg9_12_cif.got.tgz:23322.got - 2010.06.03 20:04:27.
