data_PCOD9136408
_publ_section_title
;
Structure prediction by ZEFSAII (Michael W. Deem and Ramdas Pophale) SiO2 
 PCOD9136408
Probable space group: C C
;
_chemical_formula_sum "Si O2"
_cell_formula_units_Z 28
_cell_length_a 15.449392
_cell_length_b 11.373248
_cell_length_c 7.913461
_cell_angle_alpha 90.000000
_cell_angle_beta 65.345054
_cell_angle_gamma 90.000000
_cell_volume 1263.712032
_symmetry_space_group_name_H-M "C C"
_symmetry_group_IT_number 9
_symmetry_cell_setting 'monoclinic'
loop_
_space_group_symop_operation_xyz
x,y,z
x,-y,1/2+z
1/2+x,1/2+y,z
1/2+x,1/2-y,1/2+z
loop_
_atom_site_type_symbol
_atom_site_label
_atom_site_fract_x
_atom_site_fract_y
_atom_site_fract_z
Si Si1 0.969830 0.659922 0.897060
Si Si2 0.666670 0.216012 0.204279
Si Si3 0.530211 0.646883 0.584630
Si Si4 0.868073 0.255443 0.922046
Si Si5 0.656344 0.578787 0.971306
Si Si6 0.515750 0.077161 0.494562
Si Si7 0.273500 0.889591 0.686603
O O1 0.016405 0.629757 0.681105
O O2 0.002350 0.562485 0.008026
O O3 0.858455 0.627858 0.982641
O O4 0.990553 0.789489 0.949279
O O5 0.618596 0.271976 0.076468
O O6 0.638358 0.312206 0.367172
O O7 0.610563 0.102188 0.310286
O O8 0.780182 0.205749 0.101423
O O9 0.445826 0.663438 0.790244
O O10 0.571202 0.516065 0.542940
O O11 0.813555 0.308200 0.803426
O O12 0.928646 0.356609 0.968206
O O13 0.744222 0.508259 0.809898
O O14 0.682940 0.622357 0.136836
#
# Coordination Sequence:
#
# PCOD9136408 Si02
#       7
#     4   4   4   4   4   4   4
#     4  11  22  40  61  95 121 163 218 269 326 373
#     4  11  22  37  63  88 127 169 216 262 322 390
#     4  10  23  38  63  91 134 162 205 282 327 379
#     4  10  21  41  60  95 126 169 215 270 321 377
#     4  12  21  36  62 101 124 160 215 268 328 377
#     4  11  23  38  64  88 125 165 221 269 308 391
#     4  11  20  34  67  88 123 162 212 266 310 373
#
# _framework density 22.156946999999999
#
# number of rings (size 3 to 8) (size 9 to 14) (size 15 to 20)
#    0.000    1.143    2.857    6.000    2.000    0.000 
#    0.000    0.000   12.571    0.000    0.000    0.000 
#    0.000    0.000    0.000    0.000    0.000    0.000 
#
# Total GULP energy -78122.982596 kJ/mol
# GULP energy per Si atom -5580.213043 kJ/mol
# Density = 2.210652 g / cm^3
# Si number density = 22.156947 Si / 1000 Ang^3
#
#
#
# Elastic Constant Matrix: (Units=GPa)
#
#
# Indices 1 2 3 4 5 6 
#
# 1 91.3155 38.0532 32.9710 0.0000 -5.8355 0.0000
# 2 38.0532 59.3944 15.0077 0.0000 -9.5543 0.0000
# 3 32.9710 15.0077 72.8864 0.0000 0.3699 0.0000
# 4 0.0000 0.0000 0.0000 25.6594 0.0000 -4.8181
# 5 -5.8355 -9.5543 0.3699 0.0000 56.3506 0.0000
# 6 0.0000 0.0000 0.0000 -4.8181 0.0000 29.2351
#
#
#
# Elastic Compliance Matrix: (Units=1/GPa)
#
#
# Indices 1 2 3 4 5 6 
#
# 1 0.016940 -0.009372 -0.005734 0.000000 0.000203 0.000000
# 2 -0.009372 0.023480 -0.000611 0.000000 0.003015 0.000000
# 3 -0.005734 -0.000611 0.016444 0.000000 -0.000805 0.000000
# 4 0.000000 0.000000 0.000000 0.040217 0.000000 0.006628
# 5 0.000203 0.003015 -0.000805 0.000000 0.018283 0.000000
# 6 0.000000 0.000000 0.000000 0.006628 0.000000 0.035298
#
#
# Mechanical properties :
#
#
# Convention : Reuss Voigt Hill
#
# Bulk Modulus (GPa) = 39.32257 43.96224 41.64240
# Shear Modulus (GPa) = 26.23690 31.41997 28.82843
#
# Velocity S-wave (km/s) = 3.44487 3.76980 3.61099
# Velocity P-wave (km/s) = 5.79729 6.23161 6.01837
#
# Compressibility (1/GPa) = 0.02543068
#
# Stress axis : x y z
#
# Youngs Moduli (GPa) = 59.03255 42.58935 60.81327
#
# Poissons Ratio (x) = 0.39913 0.34872
# Poissons Ratio (y) = 0.55322 0.03714
# Poissons Ratio (z) = 0.33851 0.02601
#
# Static dielectric constant tensor:
#      x y z
#    x 1.850010 0.000000 -0.017920 
#    y 0.000000 1.792760 0.000000 
#    z -0.017920 0.000000 1.910130 
# 
# From -- ./inp_files/8916.got.cif
#   From: 2010.05.17/outbox.cif.g08.bks.cpg/sg9_5_cif.got.tgz:8916.got - 2010.06.03 20:04:27.
