data_PCOD9136978
_publ_section_title
;
Structure prediction by ZEFSAII (Michael W. Deem and Ramdas Pophale) SiO2 
 PCOD9136978
Probable space group: C C
;
_chemical_formula_sum "Si O2"
_cell_formula_units_Z 24
_cell_length_a 9.552485
_cell_length_b 9.552452
_cell_length_c 9.958568
_cell_angle_alpha 90.000000
_cell_angle_beta 89.999017
_cell_angle_gamma 90.000000
_cell_volume 908.715889
_symmetry_space_group_name_H-M "C C"
_symmetry_group_IT_number 9
_symmetry_cell_setting 'monoclinic'
loop_
_space_group_symop_operation_xyz
x,y,z
x,-y,1/2+z
1/2+x,1/2+y,z
1/2+x,1/2-y,1/2+z
loop_
_atom_site_type_symbol
_atom_site_label
_atom_site_fract_x
_atom_site_fract_y
_atom_site_fract_z
Si Si1 0.484670 0.250001 0.862030
Si Si2 0.289771 0.780010 0.955946
Si Si3 0.679563 0.280013 0.455937
Si Si4 0.984668 0.749999 0.208503
Si Si5 0.954656 0.944897 0.614592
Si Si6 0.514678 0.055106 0.614590
O O1 0.444606 0.377030 0.762159
O O2 0.524737 0.122977 0.762154
O O3 0.625643 0.291654 0.938505
O O4 0.601587 0.606809 0.049889
O O5 0.341475 0.633077 0.020644
O O6 0.367743 0.893188 0.049900
O O7 0.357645 0.790065 0.808382
O O8 0.611698 0.290067 0.308370
O O9 0.843692 0.291656 0.438501
O O10 0.627854 0.133080 0.520632
O O11 0.943011 0.890974 0.132029
O O12 0.026319 0.609022 0.132028
#
# Coordination Sequence:
#
# PCOD9136978 Si02
#       6
#     4   4   4   4   4   4
#     4  10  21  48  79 108 156 194 248 320 374 452
#     4   9  22  48  77 111 148 201 255 304 381 451
#     4   9  22  48  77 111 148 201 255 304 381 451
#     4  10  21  48  79 108 156 194 248 320 374 452
#     4   9  22  48  77 111 148 201 255 304 381 451
#     4   9  22  48  77 111 148 201 255 304 381 451
#
# _framework density 26.410895
#
# number of rings (size 3 to 8) (size 9 to 14) (size 15 to 20)
#    0.000    3.333    0.000    0.000    0.000    2.667 
#    0.000  100.000    0.000    0.000    0.000    0.000 
#    0.000    0.000    0.000    0.000    0.000    0.000 
#
# Total GULP energy -67327.727706 kJ/mol
# GULP energy per Si atom -5610.643975 kJ/mol
# Density = 2.635078 g / cm^3
# Si number density = 26.410895 Si / 1000 Ang^3
#
#
#
# Elastic Constant Matrix: (Units=GPa)
#
#
# Indices 1 2 3 4 5 6 
#
# 1 121.2279 -36.9569 29.9197 0.0000 13.7266 0.0000
# 2 -36.9569 127.7594 22.7891 0.0000 -14.5488 0.0000
# 3 29.9197 22.7891 72.1268 0.0000 -1.7688 0.0000
# 4 0.0000 0.0000 0.0000 17.7189 0.0000 1.0991
# 5 13.7266 -14.5488 -1.7688 0.0000 21.2433 0.0000
# 6 0.0000 0.0000 0.0000 1.0991 0.0000 22.2262
#
#
#
# Elastic Compliance Matrix: (Units=1/GPa)
#
#
# Indices 1 2 3 4 5 6 
#
# 1 0.011528 0.003818 -0.006119 0.000000 -0.005344 0.000000
# 2 0.003818 0.010247 -0.004719 0.000000 0.004158 0.000000
# 3 -0.006119 -0.004719 0.017948 0.000000 0.002216 0.000000
# 4 0.000000 0.000000 0.000000 0.056610 0.000000 -0.002799
# 5 -0.005344 0.004158 0.002216 0.000000 0.053559 0.000000
# 6 0.000000 0.000000 0.000000 -0.002799 0.000000 0.045130
#
#
# Mechanical properties :
#
#
# Convention : Reuss Voigt Hill
#
# Bulk Modulus (GPa) = 38.93857 39.17978 39.05917
# Shear Modulus (GPa) = 22.97524 32.59516 27.78520
#
# Velocity S-wave (km/s) = 2.95263 3.51687 3.24703
# Velocity P-wave (km/s) = 5.13804 5.59983 5.37389
#
# Compressibility (1/GPa) = 0.02568148
#
# Stress axis : x y z
#
# Youngs Moduli (GPa) = 86.74392 97.59079 55.71525
#
# Poissons Ratio (x) = -0.37258 0.34095
# Poissons Ratio (y) = -0.33117 0.26294
# Poissons Ratio (z) = 0.53082 0.46056
#
# Static dielectric constant tensor:
#      x y z
#    x 2.075320 0.000000 -0.004190 
#    y 0.000000 2.074360 0.000000 
#    z -0.004190 0.000000 2.092490 
# 
# From -- ./inp_files/17504.got.cif
#   From: 2010.05.17/outbox.cif.g08.bks.cpg/sg9_9_cif.got.tgz:17504.got - 2010.06.03 20:04:27.
