data_PCOD9136238
_publ_section_title
;
Structure prediction by ZEFSAII (Michael W. Deem and Ramdas Pophale) SiO2 
 PCOD9136238
Probable space group: C C
;
_chemical_formula_sum "Si O2"
_cell_formula_units_Z 28
_cell_length_a 16.662731
_cell_length_b 7.448100
_cell_length_c 24.377721
_cell_angle_alpha 90.000000
_cell_angle_beta 24.588640
_cell_angle_gamma 90.000000
_cell_volume 1258.876229
_symmetry_space_group_name_H-M "C C"
_symmetry_group_IT_number 9
_symmetry_cell_setting 'monoclinic'
loop_
_space_group_symop_operation_xyz
x,y,z
x,-y,1/2+z
1/2+x,1/2+y,z
1/2+x,1/2-y,1/2+z
loop_
_atom_site_type_symbol
_atom_site_label
_atom_site_fract_x
_atom_site_fract_y
_atom_site_fract_z
Si Si1 0.520520 0.591188 0.155270
Si Si2 0.114108 0.730544 0.392983
Si Si3 0.767476 0.625768 0.298276
Si Si4 0.910139 0.168974 0.808428
Si Si5 0.774395 0.948099 0.218285
Si Si6 0.249088 0.395090 0.624874
Si Si7 0.199842 0.472294 0.035190
O O1 0.302660 0.659447 0.308269
O O2 0.558318 0.439041 0.176293
O O3 0.475027 0.504960 0.123994
O O4 0.659987 0.759107 0.063851
O O5 0.133852 0.608645 0.326581
O O6 0.896869 0.734379 0.549630
O O7 0.153461 0.942020 0.363794
O O8 0.757743 0.738859 0.361197
O O9 0.716548 0.762717 0.281773
O O10 0.990422 0.563977 0.156690
O O11 0.031263 0.324773 0.761905
O O12 0.825861 0.038162 0.906272
O O13 0.779561 0.950249 0.150411
O O14 0.278558 0.458508 0.544350
#
# Coordination Sequence:
#
# PCOD9136238 Si02
#       7
#     4   4   4   4   4   4   4
#     4   8  20  40  60  88 116 168 219 235 309 369
#     4   9  20  38  61  91 120 155 211 263 289 381
#     4   9  20  40  64  91 118 163 217 239 319 367
#     4  10  21  40  64  88 128 171 198 265 312 373
#     4   9  20  38  61  91 116 160 205 257 304 364
#     4  11  22  38  60  94 127 157 207 257 325 357
#     4  10  21  40  60  91 127 162 205 260 300 389
#
# _framework density 22.242059000000001
#
# number of rings (size 3 to 8) (size 9 to 14) (size 15 to 20)
#    0.857    1.714    0.000    0.857    4.000    0.000 
#    7.714    1.429    0.000    0.000    0.000    0.000 
#    0.000    0.000    0.000    0.000    0.000    0.000 
#
# Total GULP energy -78022.939555 kJ/mol
# GULP energy per Si atom -5573.067111 kJ/mol
# Density = 2.219144 g / cm^3
# Si number density = 22.242059 Si / 1000 Ang^3
#
#
#
# Elastic Constant Matrix: (Units=GPa)
#
#
# Indices 1 2 3 4 5 6 
#
# 1 89.7651 24.5820 25.6660 -0.0002 22.5249 0.0003
# 2 24.5820 103.3869 0.7000 -0.0009 16.7967 0.0000
# 3 25.6660 0.7000 27.0522 -0.0005 8.2917 -0.0005
# 4 -0.0002 -0.0009 -0.0005 16.4432 0.0002 8.5534
# 5 22.5249 16.7967 8.2917 0.0002 30.5891 -0.0001
# 6 0.0003 0.0000 -0.0005 8.5534 -0.0001 16.9613
#
#
#
# Elastic Compliance Matrix: (Units=1/GPa)
#
#
# Indices 1 2 3 4 5 6 
#
# 1 0.018094 -0.002949 -0.014726 0.000000 -0.007712 -0.000001
# 2 -0.002949 0.011169 0.004061 0.000001 -0.005062 0.000000
# 3 -0.014726 0.004061 0.052559 0.000001 -0.005632 0.000001
# 4 0.000000 0.000001 0.000001 0.082442 -0.000002 -0.041575
# 5 -0.007712 -0.005062 -0.005632 -0.000002 0.042677 0.000001
# 6 -0.000001 0.000000 0.000001 -0.041575 0.000001 0.079924
#
#
# Mechanical properties :
#
#
# Convention : Reuss Voigt Hill
#
# Bulk Modulus (GPa) = 18.31813 35.78890 27.05351
# Shear Modulus (GPa) = 15.04706 24.08246 19.56476
#
# Velocity S-wave (km/s) = 2.60381 3.29408 2.96907
# Velocity P-wave (km/s) = 4.15854 5.53114 4.89321
#
# Compressibility (1/GPa) = 0.05459074
#
# Stress axis : x y z
#
# Youngs Moduli (GPa) = 55.26750 89.53741 19.02632
#
# Poissons Ratio (x) = 0.26408 0.28019
# Poissons Ratio (y) = 0.16301 -0.07726
# Poissons Ratio (z) = 0.81390 -0.36359
#
# Static dielectric constant tensor:
#      x y z
#    x 1.821100 0.000000 -0.038140 
#    y 0.000000 1.805350 0.000000 
#    z -0.038140 0.000000 1.876600 
# 
# From -- ./inp_files/33646.got.cif
#   From: 2010.05.17/outbox.cif.g08.bks.cpg/sg9_17_cif.got.tgz:33646.got - 2010.06.03 20:04:27.
