data_PCOD9136915
_publ_section_title
;
Structure prediction by ZEFSAII (Michael W. Deem and Ramdas Pophale) SiO2 
 PCOD9136915
Probable space group: C C
;
_chemical_formula_sum "Si O2"
_cell_formula_units_Z 32
_cell_length_a 23.150756
_cell_length_b 11.455408
_cell_length_c 11.263150
_cell_angle_alpha 90.000000
_cell_angle_beta 155.745403
_cell_angle_gamma 90.000000
_cell_volume 1227.036805
_symmetry_space_group_name_H-M "C C"
_symmetry_group_IT_number 9
_symmetry_cell_setting 'monoclinic'
loop_
_space_group_symop_operation_xyz
x,y,z
x,-y,1/2+z
1/2+x,1/2+y,z
1/2+x,1/2-y,1/2+z
loop_
_atom_site_type_symbol
_atom_site_label
_atom_site_fract_x
_atom_site_fract_y
_atom_site_fract_z
Si Si1 0.519790 0.794503 0.534510
Si Si2 0.696948 0.736203 0.353336
Si Si3 0.282550 0.153839 0.066853
Si Si4 0.750429 0.166643 0.712850
Si Si5 0.194265 0.493929 0.420564
Si Si6 0.380611 0.229196 0.016968
Si Si7 0.428906 0.512308 0.682915
Si Si8 0.675371 0.437220 0.996232
O O1 0.365938 0.785939 0.189091
O O2 0.631387 0.690157 0.723200
O O3 0.497622 0.782656 0.635310
O O4 0.597524 0.918313 0.661171
O O5 0.675083 0.756049 0.172526
O O6 0.657118 0.859252 0.339432
O O7 0.617540 0.630678 0.270437
O O8 0.389941 0.163570 0.160104
O O9 0.276026 0.032973 0.123446
O O10 0.302187 0.253859 0.201884
O O11 0.855369 0.997617 0.174051
O O12 0.684058 0.049324 0.531102
O O13 0.374840 0.605610 0.018773
O O14 0.367526 0.365736 0.018845
O O15 0.252347 0.166414 0.709517
O O16 0.586367 0.507049 0.927428
#
# Coordination Sequence:
#
# PCOD9136915 Si02
#       8
#     4   4   4   4   4   4   4   4
#     4  10  21  45  74 101 145 195 237 305 368 435
#     4  10  24  46  71 107 149 195 251 303 372 447
#     4  11  24  44  69 102 148 190 242 305 374 439
#     4  10  22  41  67 107 144 180 249 306 355 444
#     4  10  22  44  74 108 146 191 251 305 370 441
#     4  11  23  45  73 103 146 198 241 304 378 437
#     4  11  22  42  74 106 140 194 245 307 362 442
#     4  11  26  43  72 106 146 191 246 303 367 451
#
# _framework density 26.079086
#
# number of rings (size 3 to 8) (size 9 to 14) (size 15 to 20)
#    0.000    1.500    3.750    1.500    5.250    0.000 
#    9.000    5.000    0.000    0.000    0.000    0.000 
#    0.000    0.000    0.000    0.000    0.000    0.000 
#
# Total GULP energy -89353.436984 kJ/mol
# GULP energy per Si atom -5584.589811 kJ/mol
# Density = 2.601973 g / cm^3
# Si number density = 26.079086 Si / 1000 Ang^3
#
#
#
# Elastic Constant Matrix: (Units=GPa)
#
#
# Indices 1 2 3 4 5 6 
#
# 1 138.7245 25.8182 18.3860 0.0000 0.8968 0.0000
# 2 25.8182 126.9591 2.2750 0.0000 -3.4423 0.0000
# 3 18.3860 2.2750 68.8043 0.0000 8.9327 0.0000
# 4 0.0000 0.0000 0.0000 37.7702 0.0000 6.2129
# 5 0.8968 -3.4423 8.9327 0.0000 33.8223 0.0000
# 6 0.0000 0.0000 0.0000 6.2129 0.0000 43.9249
#
#
#
# Elastic Compliance Matrix: (Units=1/GPa)
#
#
# Indices 1 2 3 4 5 6 
#
# 1 0.007765 -0.001538 -0.002047 0.000000 0.000178 0.000000
# 2 -0.001538 0.008212 0.000026 0.000000 0.000870 0.000000
# 3 -0.002047 0.000026 0.015608 0.000000 -0.004065 0.000000
# 4 0.000000 0.000000 0.000000 0.027107 0.000000 -0.003834
# 5 0.000178 0.000870 -0.004065 0.000000 0.030724 0.000000
# 6 0.000000 0.000000 0.000000 -0.003834 0.000000 0.023308
#
#
# Mechanical properties :
#
#
# Convention : Reuss Voigt Hill
#
# Bulk Modulus (GPa) = 40.86899 47.49403 44.18151
# Shear Modulus (GPa) = 39.06348 42.30405 40.68377
#
# Velocity S-wave (km/s) = 3.87445 4.03196 3.95399
# Velocity P-wave (km/s) = 5.97665 6.31875 6.15008
#
# Compressibility (1/GPa) = 0.02446843
#
# Stress axis : x y z
#
# Youngs Moduli (GPa) = 128.78521 121.76814 64.06988
#
# Poissons Ratio (x) = 0.18722 0.13117
# Poissons Ratio (y) = 0.19801 -0.00169
# Poissons Ratio (z) = 0.26366 -0.00322
#
# Static dielectric constant tensor:
#      x y z
#    x 2.106400 0.000000 0.028370 
#    y 0.000000 1.964010 0.000000 
#    z 0.028370 0.000000 2.257430 
# 
# From -- ./inp_files/20970.got.cif
#   From: 2010.05.17/outbox.cif.g08.bks.cpg/sg9_11_cif.got.tgz:20970.got - 2010.06.03 20:04:27.
