data_PCOD9136374
_publ_section_title
;
Structure prediction by ZEFSAII (Michael W. Deem and Ramdas Pophale) SiO2 
 PCOD9136374
Probable space group: C C
;
_chemical_formula_sum "Si O2"
_cell_formula_units_Z 28
_cell_length_a 13.471414
_cell_length_b 18.129516
_cell_length_c 5.293993
_cell_angle_alpha 90.000000
_cell_angle_beta 129.882810
_cell_angle_gamma 90.000000
_cell_volume 992.157307
_symmetry_space_group_name_H-M "C C"
_symmetry_group_IT_number 9
_symmetry_cell_setting 'monoclinic'
loop_
_space_group_symop_operation_xyz
x,y,z
x,-y,1/2+z
1/2+x,1/2+y,z
1/2+x,1/2-y,1/2+z
loop_
_atom_site_type_symbol
_atom_site_label
_atom_site_fract_x
_atom_site_fract_y
_atom_site_fract_z
Si Si1 0.044540 0.817070 0.329830
Si Si2 0.413782 0.969639 0.728678
Si Si3 0.773640 0.162486 0.418990
Si Si4 0.530641 0.215140 0.818206
Si Si5 0.330354 0.827859 0.370166
Si Si6 0.153282 0.931703 0.823175
Si Si7 0.845705 0.956664 0.381198
O O1 0.038161 0.765680 0.578844
O O2 0.145340 0.880438 0.562127
O O3 0.056984 0.763406 0.116547
O O4 0.914015 0.863205 0.049670
O O5 0.269031 0.008870 0.495590
O O6 0.476776 0.992057 0.091019
O O7 0.415705 0.883011 0.676626
O O8 0.806298 0.250203 0.460518
O O9 0.778461 0.122170 0.698029
O O10 0.647455 0.156650 0.041483
O O11 0.394530 0.182570 0.695774
O O12 0.202927 0.874726 0.112589
O O13 0.004817 0.952457 0.639038
O O14 0.806640 0.992377 0.580230
#
# Coordination Sequence:
#
# PCOD9136374 Si02
#       7
#     4   4   4   4   4   4   4
#     4  10  24  38  65  98 134 181 229 289 346 415
#     4  10  22  36  60  93 130 174 211 283 343 402
#     4  10  24  43  71  98 142 187 235 293 350 423
#     4  11  24  41  64  98 139 181 230 287 345 422
#     4  10  22  42  66 103 141 179 239 282 360 425
#     4  10  21  40  69  99 139 177 227 297 351 406
#     4  11  25  46  69 101 137 183 241 291 357 417
#
# _framework density 28.221333000000001
#
# number of rings (size 3 to 8) (size 9 to 14) (size 15 to 20)
#    0.000    1.714    1.429    1.714    4.000   11.429 
#    2.571    2.857    0.000    0.000    0.000    0.000 
#    0.000    0.000    0.000    0.000    0.000    0.000 
#
# Total GULP energy -78176.730273 kJ/mol
# GULP energy per Si atom -5584.052162 kJ/mol
# Density = 2.815710 g / cm^3
# Si number density = 28.221333 Si / 1000 Ang^3
#
#
#
# Elastic Constant Matrix: (Units=GPa)
#
#
# Indices 1 2 3 4 5 6 
#
# 1 94.5985 28.9660 66.6499 0.0000 -18.9995 0.0000
# 2 28.9660 156.7661 38.6561 0.0000 -20.4874 0.0000
# 3 66.6499 38.6561 116.5796 0.0000 -15.0003 0.0000
# 4 0.0000 0.0000 0.0000 68.4949 0.0000 -10.7200
# 5 -18.9995 -20.4874 -15.0003 0.0000 66.7430 0.0000
# 6 0.0000 0.0000 0.0000 -10.7200 0.0000 38.4311
#
#
#
# Elastic Compliance Matrix: (Units=1/GPa)
#
#
# Indices 1 2 3 4 5 6 
#
# 1 0.018288 -0.000570 -0.009905 0.000000 0.002805 0.000000
# 2 -0.000570 0.007149 -0.001836 0.000000 0.001619 0.000000
# 3 -0.009905 -0.001836 0.014844 0.000000 -0.000047 0.000000
# 4 0.000000 0.000000 0.000000 0.015266 0.000000 0.004258
# 5 0.002805 0.001619 -0.000047 0.000000 0.016268 0.000000
# 6 0.000000 0.000000 0.000000 0.004258 0.000000 0.027208
#
#
# Mechanical properties :
#
#
# Convention : Reuss Voigt Hill
#
# Bulk Modulus (GPa) = 63.86960 70.72090 67.29525
# Shear Modulus (GPa) = 38.80048 50.31195 44.55621
#
# Velocity S-wave (km/s) = 3.71194 4.22686 3.97774
# Velocity P-wave (km/s) = 6.40719 6.99540 6.70774
#
# Compressibility (1/GPa) = 0.01565690
#
# Stress axis : x y z
#
# Youngs Moduli (GPa) = 54.68136 139.88645 67.36901
#
# Poissons Ratio (x) = 0.07974 0.66732
# Poissons Ratio (y) = 0.03117 0.12370
# Poissons Ratio (z) = 0.54164 0.25685
#
# Static dielectric constant tensor:
#      x y z
#    x 2.488330 0.000000 0.055440 
#    y 0.000000 2.374720 0.000000 
#    z 0.055440 0.000000 2.266860 
# 
# From -- ./inp_files/2677.got.cif
#   From: 2010.05.17/outbox.cif.g08.bks.cpg/sg9_2_cif.got.tgz:2677.got - 2010.06.03 20:04:27.
