data_PCOD9136991
_publ_section_title
;
Structure prediction by ZEFSAII (Michael W. Deem and Ramdas Pophale) SiO2 
 PCOD9136991
Probable space group: C C
;
_chemical_formula_sum "Si O2"
_cell_formula_units_Z 28
_cell_length_a 15.585497
_cell_length_b 9.718365
_cell_length_c 8.934942
_cell_angle_alpha 90.000000
_cell_angle_beta 56.565647
_cell_angle_gamma 90.000000
_cell_volume 1129.382701
_symmetry_space_group_name_H-M "C C"
_symmetry_group_IT_number 9
_symmetry_cell_setting 'monoclinic'
loop_
_space_group_symop_operation_xyz
x,y,z
x,-y,1/2+z
1/2+x,1/2+y,z
1/2+x,1/2-y,1/2+z
loop_
_atom_site_type_symbol
_atom_site_label
_atom_site_fract_x
_atom_site_fract_y
_atom_site_fract_z
Si Si1 0.530550 0.612233 0.153050
Si Si2 0.678908 0.175617 0.575896
Si Si3 0.646988 0.607322 0.735716
Si Si4 0.268089 0.473693 0.721134
Si Si5 0.853421 0.532404 0.184384
Si Si6 0.390102 0.807354 0.370153
Si Si7 0.800030 0.206380 0.934453
O O1 0.571519 0.750158 0.196651
O O2 0.584698 0.484584 0.176749
O O3 0.413941 0.647022 0.305327
O O4 0.568586 0.625410 0.948427
O O5 0.698032 0.055133 0.671423
O O6 0.765662 0.291862 0.512663
O O7 0.697434 0.118635 0.393862
O O8 0.746406 0.531257 0.718350
O O9 0.689418 0.739058 0.603564
O O10 0.309326 0.597554 0.788537
O O11 0.338244 0.375017 0.547249
O O12 0.907293 0.402957 0.210132
O O13 0.840320 0.649705 0.325847
O O14 0.915659 0.607844 0.994356
#
# Coordination Sequence:
#
# PCOD9136991 Si02
#       7
#     4   4   4   4   4   4   4
#     4  12  26  43  71 108 141 184 248 306 364 442
#     4  11  21  42  64  94 141 183 230 288 364 419
#     4  12  21  45  77 101 140 198 246 299 371 451
#     4  10  22  34  68  98 136 180 234 294 356 422
#     4  12  21  45  77 101 140 198 246 299 371 451
#     4  12  26  43  71 108 141 184 248 306 364 442
#     4  11  19  38  68 104 131 191 240 290 362 429
#
# _framework density 24.792304000000001
#
# number of rings (size 3 to 8) (size 9 to 14) (size 15 to 20)
#    0.000    0.571    8.571    0.000    0.000    2.286 
#    0.000    1.429    0.000    0.000    0.000    0.000 
#    0.000    0.000    0.000    0.000    0.000    0.000 
#
# Total GULP energy -78100.661795 kJ/mol
# GULP energy per Si atom -5578.618700 kJ/mol
# Density = 2.473588 g / cm^3
# Si number density = 24.792304 Si / 1000 Ang^3
#
#
#
# Elastic Constant Matrix: (Units=GPa)
#
#
# Indices 1 2 3 4 5 6 
#
# 1 22.2652 26.4696 24.9973 0.0000 11.9806 0.0000
# 2 26.4696 125.8120 24.6658 0.0000 14.0971 0.0000
# 3 24.9973 24.6658 101.3840 0.0000 24.0353 0.0000
# 4 0.0000 0.0000 0.0000 73.3506 0.0000 6.1558
# 5 11.9806 14.0971 24.0353 0.0000 27.1710 0.0000
# 6 0.0000 0.0000 0.0000 6.1558 0.0000 35.6663
#
#
#
# Elastic Compliance Matrix: (Units=1/GPa)
#
#
# Indices 1 2 3 4 5 6 
#
# 1 0.086222 -0.013352 -0.013463 0.000000 -0.019182 0.000000
# 2 -0.013352 0.010641 0.000780 0.000000 -0.000323 0.000000
# 3 -0.013463 0.000780 0.014782 0.000000 -0.007544 0.000000
# 4 0.000000 0.000000 0.000000 0.013834 0.000000 -0.002388
# 5 -0.019182 -0.000323 -0.007544 0.000000 0.052103 0.000000
# 6 0.000000 0.000000 0.000000 -0.002388 0.000000 0.028450
#
#
# Mechanical properties :
#
#
# Convention : Reuss Voigt Hill
#
# Bulk Modulus (GPa) = 16.78558 44.63628 30.71093
# Shear Modulus (GPa) = 17.98823 38.79281 28.39052
#
# Velocity S-wave (km/s) = 2.69654 3.95994 3.38765
# Velocity P-wave (km/s) = 4.05959 6.24110 5.26458
#
# Compressibility (1/GPa) = 0.05957495
#
# Stress axis : x y z
#
# Youngs Moduli (GPa) = 11.59791 93.97834 67.65095
#
# Poissons Ratio (x) = 1.25476 0.91080
# Poissons Ratio (y) = 0.15485 -0.05276
# Poissons Ratio (z) = 0.15615 -0.07329
#
# Static dielectric constant tensor:
#      x y z
#    x 2.074500 0.000000 0.004650 
#    y 0.000000 1.704550 0.000000 
#    z 0.004650 0.000000 1.946050 
# 
# From -- ./inp_files/10504.got.cif
#   From: 2010.05.17/outbox.cif.g08.bks.cpg/sg9_6_cif.got.tgz:10504.got - 2010.06.03 20:04:27.
