data_PCOD9136074
_publ_section_title
;
Structure prediction by ZEFSAII (Michael W. Deem and Ramdas Pophale) SiO2 
 PCOD9136074
Probable space group: C C
;
_chemical_formula_sum "Si O2"
_cell_formula_units_Z 28
_cell_length_a 14.798497
_cell_length_b 16.772745
_cell_length_c 8.956028
_cell_angle_alpha 90.000000
_cell_angle_beta 33.893561
_cell_angle_gamma 90.000000
_cell_volume 1239.653541
_symmetry_space_group_name_H-M "C C"
_symmetry_group_IT_number 9
_symmetry_cell_setting 'monoclinic'
loop_
_space_group_symop_operation_xyz
x,y,z
x,-y,1/2+z
1/2+x,1/2+y,z
1/2+x,1/2-y,1/2+z
loop_
_atom_site_type_symbol
_atom_site_label
_atom_site_fract_x
_atom_site_fract_y
_atom_site_fract_z
Si Si1 0.591380 0.609100 0.018290
Si Si2 0.931206 0.601199 0.503612
Si Si3 0.985409 0.548444 0.764474
Si Si4 0.061996 0.945388 0.227477
Si Si5 0.259152 0.166201 0.243818
Si Si6 0.750571 0.069345 0.953545
Si Si7 0.433956 0.672396 0.493215
O O1 0.610704 0.534640 0.107687
O O2 0.468477 0.667479 0.269817
O O3 0.767565 0.649579 0.752273
O O4 0.540438 0.571900 0.931303
O O5 0.977734 0.565147 0.600495
O O6 0.881728 0.528314 0.461166
O O7 0.100179 0.628431 0.200717
O O8 0.163600 0.516545 0.562724
O O9 0.908107 0.620131 0.961382
O O10 0.890147 0.929057 0.383465
O O11 0.190006 0.884456 0.976647
O O12 0.107682 0.173205 0.337744
O O13 0.330036 0.251950 0.184103
O O14 0.832502 0.096245 0.688083
#
# Coordination Sequence:
#
# PCOD9136074 Si02
#       7
#     4   4   4   4   4   4   4
#     4  12  23  42  68 103 134 178 226 290 333 411
#     4  10  21  38  67  94 127 171 221 273 326 395
#     4  10  21  40  68  98 130 174 227 277 334 400
#     4  11  23  41  71 100 138 174 231 283 345 397
#     4  11  24  47  68  97 140 186 221 287 341 409
#     4   9  24  41  66  99 133 175 229 281 332 411
#     4  11  26  47  66 101 142 180 227 279 351 405
#
# _framework density 22.586957000000002
#
# number of rings (size 3 to 8) (size 9 to 14) (size 15 to 20)
#    0.857    0.571    2.857    2.571    4.000    3.429 
#    2.571    1.429    0.000    0.000    0.000    0.000 
#    0.000    0.000    0.000    0.000    0.000    0.000 
#
# Total GULP energy -78168.853861 kJ/mol
# GULP energy per Si atom -5583.489562 kJ/mol
# Density = 2.253555 g / cm^3
# Si number density = 22.586957 Si / 1000 Ang^3
#
#
#
# Elastic Constant Matrix: (Units=GPa)
#
#
# Indices 1 2 3 4 5 6 
#
# 1 81.3800 13.6444 42.2163 -0.0010 15.5913 0.0007
# 2 13.6444 57.6880 22.9834 -0.0008 -6.7761 0.0005
# 3 42.2163 22.9834 139.1066 -0.0015 -5.5893 0.0012
# 4 -0.0010 -0.0008 -0.0015 38.4887 0.0008 -7.4279
# 5 15.5913 -6.7761 -5.5893 0.0008 37.8477 -0.0006
# 6 0.0007 0.0005 0.0012 -7.4279 -0.0006 12.5297
#
#
#
# Elastic Compliance Matrix: (Units=1/GPa)
#
#
# Indices 1 2 3 4 5 6 
#
# 1 0.016957 -0.002995 -0.004983 0.000000 -0.008258 -0.000001
# 2 -0.002995 0.019404 -0.002120 0.000000 0.004395 0.000000
# 3 -0.004983 -0.002120 0.009173 0.000000 0.003028 0.000000
# 4 0.000000 0.000000 0.000000 0.029338 0.000000 0.017392
# 5 -0.008258 0.004395 0.003028 0.000000 0.031057 0.000001
# 6 -0.000001 0.000000 0.000000 0.017392 0.000001 0.090121
#
#
# Mechanical properties :
#
#
# Convention : Reuss Voigt Hill
#
# Bulk Modulus (GPa) = 39.46846 48.42919 43.94882
# Shear Modulus (GPa) = 22.25247 31.06192 26.65719
#
# Velocity S-wave (km/s) = 3.14218 3.71241 3.43913
# Velocity P-wave (km/s) = 5.53862 6.31378 5.93886
#
# Compressibility (1/GPa) = 0.02533669
#
# Stress axis : x y z
#
# Youngs Moduli (GPa) = 58.97140 51.53552 109.01550
#
# Poissons Ratio (x) = 0.15437 0.54324
# Poissons Ratio (y) = 0.17664 0.23115
# Poissons Ratio (z) = 0.29386 0.10927
#
# Static dielectric constant tensor:
#      x y z
#    x 1.840850 0.000000 -0.037360 
#    y 0.000000 1.816070 0.000000 
#    z -0.037360 0.000000 1.864900 
# 
# From -- ./inp_files/9914.got.cif
#   From: 2010.05.17/outbox.cif.g08.bks.cpg/sg9_5_cif.got.tgz:9914.got - 2010.06.03 20:04:27.
