data_PCOD9136491
_publ_section_title
;
Structure prediction by ZEFSAII (Michael W. Deem and Ramdas Pophale) SiO2 
 PCOD9136491
Probable space group: C C
;
_chemical_formula_sum "Si O2"
_cell_formula_units_Z 28
_cell_length_a 5.177213
_cell_length_b 14.260984
_cell_length_c 15.084526
_cell_angle_alpha 90.000000
_cell_angle_beta 106.064726
_cell_angle_gamma 90.000000
_cell_volume 1070.231795
_symmetry_space_group_name_H-M "C C"
_symmetry_group_IT_number 9
_symmetry_cell_setting 'monoclinic'
loop_
_space_group_symop_operation_xyz
x,y,z
x,-y,1/2+z
1/2+x,1/2+y,z
1/2+x,1/2-y,1/2+z
loop_
_atom_site_type_symbol
_atom_site_label
_atom_site_fract_x
_atom_site_fract_y
_atom_site_fract_z
Si Si1 0.949240 0.544262 0.753270
Si Si2 0.788700 0.979612 0.446688
Si Si3 0.035172 0.288613 0.161803
Si Si4 0.756217 0.576078 0.390070
Si Si5 0.166445 0.818456 0.520663
Si Si6 0.177018 0.629573 0.186320
Si Si7 0.988348 0.250330 0.827865
O O1 0.745638 0.481633 0.794051
O O2 0.152115 0.574811 0.851027
O O3 0.847639 0.631646 0.686064
O O4 0.114560 0.478079 0.701551
O O5 0.958336 0.904043 0.516158
O O6 0.530131 0.033477 0.459663
O O7 0.005361 0.051201 0.426758
O O8 0.069318 0.275955 0.061059
O O9 0.315837 0.304599 0.238477
O O10 0.938980 0.184422 0.179436
O O11 0.795650 0.684150 0.369665
O O12 0.447530 0.841117 0.593879
O O13 0.171648 0.804925 0.415017
O O14 0.139736 0.675607 0.280251
#
# Coordination Sequence:
#
# PCOD9136491 Si02
#       7
#     4   4   4   4   4   4   4
#     4   9  21  42  67  99 134 187 232 285 359 420
#     4  10  21  41  67  96 134 179 232 282 349 417
#     4  11  23  42  68  99 136 187 232 297 359 430
#     4   9  21  38  70  98 125 187 228 286 349 423
#     4  11  25  40  62 102 139 176 237 294 349 427
#     4  10  24  42  66 100 140 179 238 299 351 428
#     4  10  21  43  64  96 136 179 233 289 356 425
#
# _framework density 26.162557
#
# number of rings (size 3 to 8) (size 9 to 14) (size 15 to 20)
#    0.857    1.143    1.429    0.857    4.000    2.286 
#    2.571    0.000    0.000    0.000    0.000    0.000 
#    0.000    0.000    0.000    0.000    0.000    0.000 
#
# Total GULP energy -78149.011784 kJ/mol
# GULP energy per Si atom -5582.072270 kJ/mol
# Density = 2.610301 g / cm^3
# Si number density = 26.162557 Si / 1000 Ang^3
#
#
#
# Elastic Constant Matrix: (Units=GPa)
#
#
# Indices 1 2 3 4 5 6 
#
# 1 75.9152 3.8273 26.2307 0.0000 14.6440 0.0000
# 2 3.8273 73.9388 25.0119 0.0000 0.0365 0.0000
# 3 26.2307 25.0119 136.0535 0.0000 20.8016 0.0000
# 4 0.0000 0.0000 0.0000 48.0614 0.0000 -5.3069
# 5 14.6440 0.0365 20.8016 0.0000 27.6776 0.0000
# 6 0.0000 0.0000 0.0000 -5.3069 0.0000 12.5013
#
#
#
# Elastic Compliance Matrix: (Units=1/GPa)
#
#
# Indices 1 2 3 4 5 6 
#
# 1 0.015097 -0.000143 -0.001879 0.000000 -0.006575 0.000000
# 2 -0.000143 0.014546 -0.003000 0.000000 0.002311 0.000000
# 3 -0.001879 -0.003000 0.009164 0.000000 -0.005889 0.000000
# 4 0.000000 0.000000 0.000000 0.021830 0.000000 0.009267
# 5 -0.006575 0.002311 -0.005889 0.000000 0.044033 0.000000
# 6 0.000000 0.000000 0.000000 0.009267 0.000000 0.083926
#
#
# Mechanical properties :
#
#
# Convention : Reuss Voigt Hill
#
# Bulk Modulus (GPa) = 34.76545 44.00526 39.38536
# Shear Modulus (GPa) = 24.01221 33.03722 28.52471
#
# Velocity S-wave (km/s) = 3.03282 3.55740 3.30553
# Velocity P-wave (km/s) = 5.05778 5.80774 5.44569
#
# Compressibility (1/GPa) = 0.02876419
#
# Stress axis : x y z
#
# Youngs Moduli (GPa) = 66.23622 68.74861 109.11911
#
# Poissons Ratio (x) = 0.00980 0.20506
# Poissons Ratio (y) = 0.00944 0.32735
# Poissons Ratio (z) = 0.12447 0.20624
#
# Static dielectric constant tensor:
#      x y z
#    x 2.106210 0.000000 -0.029380 
#    y 0.000000 2.121060 0.000000 
#    z -0.029380 0.000000 2.040520 
# 
# From -- ./inp_files/21780.got.cif
#   From: 2010.05.17/outbox.cif.g08.bks.cpg/sg9_11_cif.got.tgz:21780.got - 2010.06.03 20:04:27.
