data_PCOD9136820
_publ_section_title
;
Structure prediction by ZEFSAII (Michael W. Deem and Ramdas Pophale) SiO2 
 PCOD9136820
Probable space group: C C
;
_chemical_formula_sum "Si O2"
_cell_formula_units_Z 32
_cell_length_a 12.134972
_cell_length_b 14.185072
_cell_length_c 8.201663
_cell_angle_alpha 90.000000
_cell_angle_beta 109.856089
_cell_angle_gamma 90.000000
_cell_volume 1327.863820
_symmetry_space_group_name_H-M "C C"
_symmetry_group_IT_number 9
_symmetry_cell_setting 'monoclinic'
loop_
_space_group_symop_operation_xyz
x,y,z
x,-y,1/2+z
1/2+x,1/2+y,z
1/2+x,1/2-y,1/2+z
loop_
_atom_site_type_symbol
_atom_site_label
_atom_site_fract_x
_atom_site_fract_y
_atom_site_fract_z
Si Si1 0.446950 0.389972 0.980480
Si Si2 0.945022 0.910697 0.361502
Si Si3 0.332844 0.019360 0.809210
Si Si4 0.800337 0.166421 0.084016
Si Si5 0.062251 0.307799 0.615129
Si Si6 0.120001 0.265348 0.000838
Si Si7 0.799234 0.631977 0.054037
Si Si8 0.434232 0.863790 0.104973
O O1 0.497987 0.488139 0.938287
O O2 0.358128 0.365037 0.786557
O O3 0.408771 0.408137 0.151464
O O4 0.527266 0.297188 0.037794
O O5 0.844897 0.890570 0.447513
O O6 0.037958 0.827121 0.439057
O O7 0.433773 0.077403 0.769573
O O8 0.266736 0.955866 0.647666
O O9 0.254486 0.099049 0.855077
O O10 0.384371 0.939369 0.951903
O O11 0.661745 0.158124 0.041926
O O12 0.847981 0.273912 0.080275
O O13 0.937741 0.357846 0.593224
O O14 0.121394 0.309354 0.823303
O O15 0.248009 0.226047 0.101901
O O16 0.057972 0.328218 0.102891
#
# Coordination Sequence:
#
# PCOD9136820 Si02
#       8
#     4   4   4   4   4   4   4   4
#     4  11  22  45  75 102 147 184 241 300 354 431
#     4  10  23  43  71 110 139 185 241 298 359 425
#     4  10  22  42  71  97 140 173 243 286 354 421
#     4  11  24  47  69 107 146 188 242 291 367 429
#     4  11  23  43  68 100 141 190 235 287 364 431
#     4  10  22  41  70  98 145 178 239 288 358 426
#     4  11  23  45  66  99 134 188 229 300 348 421
#     4  10  21  44  68 105 136 182 232 296 352 430
#
# _framework density 24.098856000000001
#
# number of rings (size 3 to 8) (size 9 to 14) (size 15 to 20)
#    0.000    1.500    2.500    2.250    0.000    4.000 
#    9.000    2.500    0.000    0.000    0.000    0.000 
#    0.000    0.000    0.000    0.000    0.000    0.000 
#
# Total GULP energy -89313.347036 kJ/mol
# GULP energy per Si atom -5582.084190 kJ/mol
# Density = 2.404401 g / cm^3
# Si number density = 24.098856 Si / 1000 Ang^3
#
#
#
# Elastic Constant Matrix: (Units=GPa)
#
#
# Indices 1 2 3 4 5 6 
#
# 1 108.0873 4.9645 37.2525 0.0000 -11.7530 0.0000
# 2 4.9645 67.2540 20.5983 0.0000 -6.2426 0.0000
# 3 37.2525 20.5983 106.3462 0.0000 -26.7954 0.0000
# 4 0.0000 0.0000 0.0000 45.8335 0.0000 -13.9446
# 5 -11.7530 -6.2426 -26.7954 0.0000 24.3499 0.0000
# 6 0.0000 0.0000 0.0000 -13.9446 0.0000 21.8309
#
#
#
# Elastic Compliance Matrix: (Units=1/GPa)
#
#
# Indices 1 2 3 4 5 6 
#
# 1 0.010568 0.000400 -0.003415 0.000000 0.001445 0.000000
# 2 0.000400 0.015838 -0.002955 0.000000 0.001001 0.000000
# 3 -0.003415 -0.002955 0.014619 0.000000 0.013681 0.000000
# 4 0.000000 0.000000 0.000000 0.027081 0.000000 0.017298
# 5 0.001445 0.001001 0.013681 0.000000 0.057077 0.000000
# 6 0.000000 0.000000 0.000000 0.017298 0.000000 0.056856
#
#
# Mechanical properties :
#
#
# Convention : Reuss Voigt Hill
#
# Bulk Modulus (GPa) = 34.38416 45.25758 39.82087
# Shear Modulus (GPa) = 24.54902 32.99435 28.77169
#
# Velocity S-wave (km/s) = 3.19514 3.70418 3.45904
# Velocity P-wave (km/s) = 5.28307 6.09224 5.70203
#
# Compressibility (1/GPa) = 0.02908316
#
# Stress axis : x y z
#
# Youngs Moduli (GPa) = 94.62914 63.14095 68.40324
#
# Poissons Ratio (x) = -0.02526 0.23361
# Poissons Ratio (y) = -0.03785 0.20216
# Poissons Ratio (z) = 0.32317 0.18661
#
# Static dielectric constant tensor:
#      x y z
#    x 1.937890 0.000000 -0.001070 
#    y 0.000000 1.904860 0.000000 
#    z -0.001070 0.000000 2.059770 
# 
# From -- ./inp_files/7501.got.cif
#   From: 2010.05.17/outbox.cif.g08.bks.cpg/sg9_4_cif.got.tgz:7501.got - 2010.06.03 20:04:27.
