data_PCOD9136944
_publ_section_title
;
Structure prediction by ZEFSAII (Michael W. Deem and Ramdas Pophale) SiO2 
 PCOD9136944
Probable space group: C C
;
_chemical_formula_sum "Si O2"
_cell_formula_units_Z 32
_cell_length_a 4.972520
_cell_length_b 19.905804
_cell_length_c 12.996336
_cell_angle_alpha 90.000000
_cell_angle_beta 86.936430
_cell_angle_gamma 90.000000
_cell_volume 1284.564981
_symmetry_space_group_name_H-M "C C"
_symmetry_group_IT_number 9
_symmetry_cell_setting 'monoclinic'
loop_
_space_group_symop_operation_xyz
x,y,z
x,-y,1/2+z
1/2+x,1/2+y,z
1/2+x,1/2-y,1/2+z
loop_
_atom_site_type_symbol
_atom_site_label
_atom_site_fract_x
_atom_site_fract_y
_atom_site_fract_z
Si Si1 0.245700 0.629736 0.681130
Si Si2 0.171307 0.590256 0.459669
Si Si3 0.610027 0.675420 0.020908
Si Si4 0.699598 0.657373 0.370382
Si Si5 0.611590 0.999240 0.773555
Si Si6 0.132420 0.931184 0.680465
Si Si7 0.593343 0.752666 0.627008
Si Si8 0.851036 0.723840 0.814132
O O1 0.154819 0.589122 0.581814
O O2 0.247452 0.572195 0.767186
O O3 0.504527 0.673806 0.641909
O O4 0.027832 0.681363 0.730230
O O5 0.477727 0.608057 0.425930
O O6 0.079964 0.527950 0.390760
O O7 0.974130 0.650054 0.426726
O O8 0.626630 0.599870 0.066517
O O9 0.339704 0.714636 0.058939
O O10 0.680289 0.681542 0.899232
O O11 0.060279 0.770864 0.869519
O O12 0.720922 0.628880 0.254935
O O13 0.338390 0.784535 0.577915
O O14 0.335982 0.989643 0.714068
O O15 0.829769 0.951093 0.714957
O O16 0.661681 0.768720 0.744667
#
# Coordination Sequence:
#
# PCOD9136944 Si02
#       8
#     4   4   4   4   4   4   4   4
#     4  12  28  48  73 110 158 196 258 313 380 444
#     4  10  25  45  72 103 139 198 241 309 366 439
#     4  12  27  47  75 108 150 191 247 307 399 439
#     4  10  22  41  71 100 138 181 250 287 376 445
#     4  10  25  46  74 102 142 199 258 302 365 445
#     4  10  21  46  70 101 135 191 250 312 352 446
#     4  12  27  48  70 112 150 194 236 316 383 462
#     4  12  29  43  73 112 150 194 240 316 371 464
#
# _framework density 24.911155000000001
#
# number of rings (size 3 to 8) (size 9 to 14) (size 15 to 20)
#    0.000    1.000    2.500    1.500   12.250    1.000 
#    4.500    0.000    0.000    0.000    0.000    0.000 
#    0.000    0.000    0.000    0.000    0.000    0.000 
#
# Total GULP energy -89484.619761 kJ/mol
# GULP energy per Si atom -5592.788735 kJ/mol
# Density = 2.485446 g / cm^3
# Si number density = 24.911155 Si / 1000 Ang^3
#
#
#
# Elastic Constant Matrix: (Units=GPa)
#
#
# Indices 1 2 3 4 5 6 
#
# 1 119.3860 6.5088 6.2352 0.0000 -4.2935 0.0000
# 2 6.5088 47.0831 -8.9434 0.0000 -9.5120 0.0000
# 3 6.2352 -8.9434 73.3975 0.0000 -11.3824 0.0000
# 4 0.0000 0.0000 0.0000 26.9762 0.0000 -6.9232
# 5 -4.2935 -9.5120 -11.3824 0.0000 28.0575 0.0000
# 6 0.0000 0.0000 0.0000 -6.9232 0.0000 19.9110
#
#
#
# Elastic Compliance Matrix: (Units=1/GPa)
#
#
# Indices 1 2 3 4 5 6 
#
# 1 0.008503 -0.001208 -0.000780 0.000000 0.000575 0.000000
# 2 -0.001208 0.024282 0.004599 0.000000 0.009913 0.000000
# 3 -0.000780 0.004599 0.015446 0.000000 0.007706 0.000000
# 4 0.000000 0.000000 0.000000 0.040702 0.000000 0.014152
# 5 0.000575 0.009913 0.007706 0.000000 0.042216 0.000000
# 6 0.000000 0.000000 0.000000 0.014152 0.000000 0.055144
#
#
# Mechanical properties :
#
#
# Convention : Reuss Voigt Hill
#
# Bulk Modulus (GPa) = 18.70793 27.49643 23.10218
# Shear Modulus (GPa) = 25.13953 30.72667 27.93310
#
# Velocity S-wave (km/s) = 3.18019 3.51586 3.35223
# Velocity P-wave (km/s) = 4.58377 5.24819 4.92719
#
# Compressibility (1/GPa) = 0.05345326
#
# Stress axis : x y z
#
# Youngs Moduli (GPa) = 117.59912 41.18255 64.74141
#
# Poissons Ratio (x) = 0.04973 0.05052
# Poissons Ratio (y) = 0.14200 -0.29772
# Poissons Ratio (z) = 0.09176 -0.18938
#
# Static dielectric constant tensor:
#      x y z
#    x 1.979860 0.000000 0.007000 
#    y 0.000000 2.049530 0.000000 
#    z 0.007000 0.000000 1.973540 
# 
# From -- ./inp_files/13616.got.cif
#   From: 2010.05.17/outbox.cif.g08.bks.cpg/sg9_7_cif.got.tgz:13616.got - 2010.06.03 20:04:27.
