data_PCOD9136147
_publ_section_title
;
Structure prediction by ZEFSAII (Michael W. Deem and Ramdas Pophale) SiO2 
 PCOD9136147
Probable space group: C C
;
_chemical_formula_sum "Si O2"
_cell_formula_units_Z 32
_cell_length_a 13.465248
_cell_length_b 5.487700
_cell_length_c 19.595667
_cell_angle_alpha 90.000000
_cell_angle_beta 89.792077
_cell_angle_gamma 90.000000
_cell_volume 1447.977819
_symmetry_space_group_name_H-M "C C"
_symmetry_group_IT_number 9
_symmetry_cell_setting 'monoclinic'
loop_
_space_group_symop_operation_xyz
x,y,z
x,-y,1/2+z
1/2+x,1/2+y,z
1/2+x,1/2-y,1/2+z
loop_
_atom_site_type_symbol
_atom_site_label
_atom_site_fract_x
_atom_site_fract_y
_atom_site_fract_z
Si Si1 0.111720 0.599787 0.339160
Si Si2 0.186260 0.110988 0.124302
Si Si3 0.028874 0.665006 0.550042
Si Si4 0.575334 0.344298 0.025354
Si Si5 0.748349 0.956346 0.228299
Si Si6 0.696174 0.411412 0.899759
Si Si7 0.368031 0.839434 0.162017
Si Si8 0.381599 0.893725 0.806733
O O1 0.173123 0.628550 0.268458
O O2 0.146908 0.330898 0.364903
O O3 0.994563 0.610129 0.329156
O O4 0.143260 0.831528 0.383721
O O5 0.145088 0.307920 0.070754
O O6 0.184214 0.231983 0.198691
O O7 0.112250 0.890061 0.103426
O O8 0.298518 0.024138 0.120193
O O9 0.018947 0.406612 0.515136
O O10 0.968954 0.676627 0.620715
O O11 0.008851 0.916154 0.510660
O O12 0.673650 0.359719 0.978917
O O13 0.835243 0.856006 0.276746
O O14 0.805463 0.091904 0.167692
O O15 0.806199 0.446952 0.869052
O O16 0.376923 0.930072 0.240144
#
# Coordination Sequence:
#
# PCOD9136147 Si02
#       8
#     4   4   4   4   4   4   4   4
#     4  11  24  42  69  95 130 173 217 269 338 372
#     4   9  22  37  64  93 127 174 204 268 330 376
#     4  10  23  40  63  93 126 171 210 263 325 382
#     4  10  23  46  63  89 135 171 219 270 318 384
#     4  10  21  39  63  99 138 159 215 274 329 399
#     4  11  24  47  64  95 133 170 228 271 314 396
#     4  11  21  39  65  96 134 159 219 264 328 395
#     4  10  24  40  67  98 125 175 210 273 330 386
#
# _framework density 22.099785000000001
#
# number of rings (size 3 to 8) (size 9 to 14) (size 15 to 20)
#    0.750    1.000    1.250    2.250    5.250    1.000 
#    4.500    0.000    0.000    0.000    0.000    0.000 
#    0.000    0.000    0.000    0.000    0.000    0.000 
#
# Total GULP energy -89075.944132 kJ/mol
# GULP energy per Si atom -5567.246508 kJ/mol
# Density = 2.204948 g / cm^3
# Si number density = 22.099785 Si / 1000 Ang^3
#
#
#
# Elastic Constant Matrix: (Units=GPa)
#
#
# Indices 1 2 3 4 5 6 
#
# 1 106.0069 33.7482 22.6738 0.0000 -15.5703 0.0000
# 2 33.7482 115.4435 18.3917 0.0000 -7.5304 0.0000
# 3 22.6738 18.3917 49.8927 0.0000 -27.4839 0.0000
# 4 0.0000 0.0000 0.0000 21.8368 0.0000 -3.7144
# 5 -15.5703 -7.5304 -27.4839 0.0000 35.5052 0.0000
# 6 0.0000 0.0000 0.0000 -3.7144 0.0000 19.7098
#
#
#
# Elastic Compliance Matrix: (Units=1/GPa)
#
#
# Indices 1 2 3 4 5 6 
#
# 1 0.011223 -0.002671 -0.002993 0.000000 0.002039 0.000000
# 2 -0.002671 0.009867 -0.003340 0.000000 -0.001664 0.000000
# 3 -0.002993 -0.003340 0.037520 0.000000 0.027023 0.000000
# 4 0.000000 0.000000 0.000000 0.047311 0.000000 0.008916
# 5 0.002039 -0.001664 0.027023 0.000000 0.049624 0.000000
# 6 0.000000 0.000000 0.000000 0.008916 0.000000 0.052416
#
#
# Mechanical properties :
#
#
# Convention : Reuss Voigt Hill
#
# Bulk Modulus (GPa) = 24.62915 46.77449 35.70182
# Shear Modulus (GPa) = 20.87663 28.51234 24.69448
#
# Velocity S-wave (km/s) = 3.07686 3.59578 3.34639
# Velocity P-wave (km/s) = 4.87765 6.20086 5.57862
#
# Compressibility (1/GPa) = 0.04060229
#
# Stress axis : x y z
#
# Youngs Moduli (GPa) = 89.10034 101.35141 26.65254
#
# Poissons Ratio (x) = 0.27073 0.07976
# Poissons Ratio (y) = 0.23800 0.08901
# Poissons Ratio (z) = 0.26666 0.33850
#
# Static dielectric constant tensor:
#      x y z
#    x 1.753980 0.000000 -0.009400 
#    y 0.000000 1.956870 0.000000 
#    z -0.009400 0.000000 1.860780 
# 
# From -- ./inp_files/32977.got.cif
#   From: 2010.05.17/outbox.cif.g08.bks.cpg/sg9_17_cif.got.tgz:32977.got - 2010.06.03 20:04:27.
