data_PCOD9136742
_publ_section_title
;
Structure prediction by ZEFSAII (Michael W. Deem and Ramdas Pophale) SiO2 
 PCOD9136742
Probable space group: C C
;
_chemical_formula_sum "Si O2"
_cell_formula_units_Z 32
_cell_length_a 21.695111
_cell_length_b 7.168617
_cell_length_c 9.312503
_cell_angle_alpha 90.000000
_cell_angle_beta 76.612635
_cell_angle_gamma 90.000000
_cell_volume 1408.961992
_symmetry_space_group_name_H-M "C C"
_symmetry_group_IT_number 9
_symmetry_cell_setting 'monoclinic'
loop_
_space_group_symop_operation_xyz
x,y,z
x,-y,1/2+z
1/2+x,1/2+y,z
1/2+x,1/2-y,1/2+z
loop_
_atom_site_type_symbol
_atom_site_label
_atom_site_fract_x
_atom_site_fract_y
_atom_site_fract_z
Si Si1 0.625000 0.608889 0.251400
Si Si2 0.585894 0.182739 0.246314
Si Si3 0.894328 0.672079 0.948790
Si Si4 0.711396 0.508860 0.472507
Si Si5 0.033962 0.615552 0.954879
Si Si6 0.728530 0.123703 0.142539
Si Si7 0.339494 0.084568 0.272339
Si Si8 0.310871 0.487459 0.861668
O O1 0.592531 0.405916 0.252767
O O2 0.669779 0.595155 0.367030
O O3 0.573560 0.762103 0.318389
O O4 0.668407 0.634868 0.085821
O O5 0.656727 0.097789 0.233003
O O6 0.541128 0.093963 0.391005
O O7 0.562530 0.135708 0.098333
O O8 0.896425 0.522146 0.819355
O O9 0.865749 0.862076 0.900392
O O10 0.962356 0.687593 0.985187
O O11 0.848152 0.593400 0.097947
O O12 0.726540 0.668253 0.580486
O O13 0.777980 0.469606 0.360278
O O14 0.782632 0.089752 0.229578
O O15 0.750783 0.994751 0.000121
O O16 0.332588 0.298784 0.326160
#
# Coordination Sequence:
#
# PCOD9136742 Si02
#       8
#     4   4   4   4   4   4   4   4
#     4  11  23  47  69 108 141 186 234 293 368 421
#     4  11  26  45  71 105 142 185 242 297 358 418
#     4  12  28  45  71 103 146 195 244 286 351 434
#     4  10  23  42  72 107 139 174 234 296 363 422
#     4  12  27  48  69 102 145 199 244 286 346 434
#     4  10  21  43  69 106 136 171 236 287 365 419
#     4  11  26  47  70 109 142 185 240 300 360 421
#     4  11  24  45  71 106 139 189 226 299 365 419
#
# _framework density 22.711755
#
# number of rings (size 3 to 8) (size 9 to 14) (size 15 to 20)
#    0.000    1.000    3.750    2.250   10.500    3.000 
#    0.000    0.000    0.000    0.000    0.000    0.000 
#    0.000    0.000    0.000    0.000    0.000    0.000 
#
# Total GULP energy -89492.956362 kJ/mol
# GULP energy per Si atom -5593.309773 kJ/mol
# Density = 2.266006 g / cm^3
# Si number density = 22.711755 Si / 1000 Ang^3
#
#
#
# Elastic Constant Matrix: (Units=GPa)
#
#
# Indices 1 2 3 4 5 6 
#
# 1 72.8148 10.3350 6.9033 0.0000 9.7334 0.0000
# 2 10.3350 90.1851 11.5150 0.0000 4.3499 0.0000
# 3 6.9033 11.5150 75.7936 0.0000 7.7365 0.0000
# 4 0.0000 0.0000 0.0000 34.4286 0.0000 -3.2856
# 5 9.7334 4.3499 7.7365 0.0000 28.2198 0.0000
# 6 0.0000 0.0000 0.0000 -3.2856 0.0000 27.3174
#
#
#
# Elastic Compliance Matrix: (Units=1/GPa)
#
#
# Indices 1 2 3 4 5 6 
#
# 1 0.014611 -0.001367 -0.000648 0.000000 -0.004651 0.000000
# 2 -0.001367 0.011483 -0.001530 0.000000 -0.000879 0.000000
# 3 -0.000648 -0.001530 0.013825 0.000000 -0.003331 0.000000
# 4 0.000000 0.000000 0.000000 0.029383 0.000000 0.003534
# 5 -0.004651 -0.000879 -0.003331 0.000000 0.038089 0.000000
# 6 0.000000 0.000000 0.000000 0.003534 0.000000 0.037032
#
#
# Mechanical properties :
#
#
# Convention : Reuss Voigt Hill
#
# Bulk Modulus (GPa) = 30.46269 32.92225 31.69247
# Shear Modulus (GPa) = 30.77752 31.99584 31.38668
#
# Velocity S-wave (km/s) = 3.68521 3.75744 3.72150
# Velocity P-wave (km/s) = 5.61690 5.77509 5.69654
#
# Compressibility (1/GPa) = 0.03282704
#
# Stress axis : x y z
#
# Youngs Moduli (GPa) = 68.44303 87.08700 72.33149
#
# Poissons Ratio (x) = 0.11907 0.04689
# Poissons Ratio (y) = 0.09358 0.11069
# Poissons Ratio (z) = 0.04437 0.13327
#
# Static dielectric constant tensor:
#      x y z
#    x 1.854450 0.000000 -0.034590 
#    y 0.000000 1.853740 0.000000 
#    z -0.034590 0.000000 1.842030 
# 
# From -- ./inp_files/11333.got.cif
#   From: 2010.05.17/outbox.cif.g08.bks.cpg/sg9_6_cif.got.tgz:11333.got - 2010.06.03 20:04:27.
