data_PCOD9136912
_publ_section_title
;
Structure prediction by ZEFSAII (Michael W. Deem and Ramdas Pophale) SiO2 
 PCOD9136912
Probable space group: C C
;
_chemical_formula_sum "Si O2"
_cell_formula_units_Z 32
_cell_length_a 9.441141
_cell_length_b 15.675563
_cell_length_c 11.275202
_cell_angle_alpha 90.000000
_cell_angle_beta 55.999582
_cell_angle_gamma 90.000000
_cell_volume 1383.388111
_symmetry_space_group_name_H-M "C C"
_symmetry_group_IT_number 9
_symmetry_cell_setting 'monoclinic'
loop_
_space_group_symop_operation_xyz
x,y,z
x,-y,1/2+z
1/2+x,1/2+y,z
1/2+x,1/2-y,1/2+z
loop_
_atom_site_type_symbol
_atom_site_label
_atom_site_fract_x
_atom_site_fract_y
_atom_site_fract_z
Si Si1 0.924760 0.223340 0.456100
Si Si2 0.597588 0.837184 0.728585
Si Si3 0.270062 0.554575 0.950583
Si Si4 0.497423 0.596458 0.639896
Si Si5 0.129952 0.380554 0.962403
Si Si6 0.637094 0.509956 0.883421
Si Si7 0.763328 0.666321 0.705773
Si Si8 0.279520 0.833497 0.716986
O O1 0.957988 0.159961 0.551429
O O2 0.789300 0.175976 0.434317
O O3 0.863080 0.309713 0.550921
O O4 0.108869 0.223870 0.306723
O O5 0.703045 0.871090 0.566809
O O6 0.604442 0.902415 0.834377
O O7 0.685343 0.758917 0.755110
O O8 0.414121 0.813349 0.760052
O O9 0.323685 0.582576 0.793835
O O10 0.146005 0.473888 0.013870
O O11 0.452826 0.522581 0.910842
O O12 0.586401 0.514199 0.540212
O O13 0.645647 0.632693 0.653568
O O14 0.959431 0.332259 0.080448
O O15 0.735803 0.598403 0.822795
O O16 0.728860 0.431729 0.770919
#
# Coordination Sequence:
#
# PCOD9136912 Si02
#       8
#     4   4   4   4   4   4   4   4
#     4  11  25  44  73 104 147 193 251 314 380 454
#     4  12  28  45  77 107 155 198 264 308 388 461
#     4  11  24  44  74 105 141 206 242 319 376 455
#     4  10  21  45  73 101 141 197 258 297 381 462
#     4  12  26  45  66 111 151 183 251 323 382 443
#     4  10  22  46  70 106 149 191 259 313 382 451
#     4  11  26  43  70 110 144 202 248 318 386 452
#     4  11  24  48  73 104 148 206 255 310 375 476
#
# _framework density 23.131613999999999
#
# number of rings (size 3 to 8) (size 9 to 14) (size 15 to 20)
#    0.000    1.000    3.750    3.000    7.000    0.000 
#    4.500    0.000    0.000    0.000    0.000    0.000 
#    0.000    0.000    0.000    0.000    0.000    0.000 
#
# Total GULP energy -89377.298321 kJ/mol
# GULP energy per Si atom -5586.081145 kJ/mol
# Density = 2.307897 g / cm^3
# Si number density = 23.131614 Si / 1000 Ang^3
#
#
#
# Elastic Constant Matrix: (Units=GPa)
#
#
# Indices 1 2 3 4 5 6 
#
# 1 106.9240 11.9063 28.4040 0.0000 -13.3270 0.0000
# 2 11.9063 64.6325 27.2913 0.0000 -11.4108 0.0000
# 3 28.4040 27.2913 74.2730 0.0000 -4.4981 0.0000
# 4 0.0000 0.0000 0.0000 35.2881 0.0000 2.0019
# 5 -13.3270 -11.4108 -4.4981 0.0000 41.4786 0.0000
# 6 0.0000 0.0000 0.0000 2.0019 0.0000 29.9005
#
#
#
# Elastic Compliance Matrix: (Units=1/GPa)
#
#
# Indices 1 2 3 4 5 6 
#
# 1 0.010780 0.000264 -0.004032 0.000000 0.003099 0.000000
# 2 0.000264 0.019129 -0.006851 0.000000 0.004604 0.000000
# 3 -0.004032 -0.006851 0.017445 0.000000 -0.001288 0.000000
# 4 0.000000 0.000000 0.000000 0.028446 0.000000 -0.001904
# 5 0.003099 0.004604 -0.001288 0.000000 0.026231 0.000000
# 6 0.000000 0.000000 0.000000 -0.001904 0.000000 0.033572
#
#
# Mechanical properties :
#
#
# Convention : Reuss Voigt Hill
#
# Bulk Modulus (GPa) = 38.29018 42.33697 40.31357
# Shear Modulus (GPa) = 30.20271 33.21529 31.70900
#
# Velocity S-wave (km/s) = 3.61735 3.79347 3.70646
# Velocity P-wave (km/s) = 5.83405 6.12614 5.98188
#
# Compressibility (1/GPa) = 0.02611636
#
# Stress axis : x y z
#
# Youngs Moduli (GPa) = 92.76085 52.27597 57.32260
#
# Poissons Ratio (x) = -0.01379 0.23112
# Poissons Ratio (y) = -0.02446 0.39272
# Poissons Ratio (z) = 0.37401 0.35814
#
# Static dielectric constant tensor:
#      x y z
#    x 1.829110 0.000000 0.036490 
#    y 0.000000 2.013380 0.000000 
#    z 0.036490 0.000000 1.996240 
# 
# From -- ./inp_files/14713.got.cif
#   From: 2010.05.17/outbox.cif.g08.bks.cpg/sg9_8_cif.got.tgz:14713.got - 2010.06.03 20:04:27.
