data_PCOD9136973
_publ_section_title
;
Structure prediction by ZEFSAII (Michael W. Deem and Ramdas Pophale) SiO2 
 PCOD9136973
Probable space group: C C
;
_chemical_formula_sum "Si O2"
_cell_formula_units_Z 32
_cell_length_a 7.534611
_cell_length_b 31.917447
_cell_length_c 5.849896
_cell_angle_alpha 90.000000
_cell_angle_beta 68.732088
_cell_angle_gamma 90.000000
_cell_volume 1311.003596
_symmetry_space_group_name_H-M "C C"
_symmetry_group_IT_number 9
_symmetry_cell_setting 'monoclinic'
loop_
_space_group_symop_operation_xyz
x,y,z
x,-y,1/2+z
1/2+x,1/2+y,z
1/2+x,1/2-y,1/2+z
loop_
_atom_site_type_symbol
_atom_site_label
_atom_site_fract_x
_atom_site_fract_y
_atom_site_fract_z
Si Si1 0.877790 0.807613 0.058470
Si Si2 0.369312 0.519805 0.734410
Si Si3 0.941676 0.508604 0.382864
Si Si4 0.028045 0.886950 0.177378
Si Si5 0.926844 0.600454 0.225874
Si Si6 0.777697 0.721566 0.266613
Si Si7 0.597697 0.176970 0.354340
Si Si8 0.814622 0.352436 0.381647
O O1 0.754297 0.770113 0.219284
O O2 0.805954 0.809862 0.831617
O O3 0.874820 0.854263 0.153726
O O4 0.094023 0.793338 0.989157
O O5 0.425277 0.503434 0.450042
O O6 0.139725 0.515961 0.824223
O O7 0.442802 0.566966 0.728942
O O8 0.848748 0.505263 0.681228
O O9 0.982869 0.557341 0.314752
O O10 0.117550 0.867335 0.363476
O O11 0.217580 0.888520 0.927564
O O12 0.891048 0.606016 0.975259
O O13 0.080791 0.636240 0.206114
O O14 0.785543 0.688053 0.055948
O O15 0.973341 0.713922 0.307390
O O16 0.474624 0.161923 0.629653
#
# Coordination Sequence:
#
# PCOD9136973 Si02
#       8
#     4   4   4   4   4   4   4   4
#     4  12  25  45  74 101 149 193 246 310 373 454
#     4  10  25  45  70 106 149 188 253 315 379 458
#     4  10  24  43  68 104 145 191 244 310 378 452
#     4  11  25  45  73 105 144 192 252 305 381 448
#     4  10  23  45  73  99 141 187 247 303 378 443
#     4  11  25  47  65 111 142 191 245 305 375 443
#     4  10  24  44  71 101 139 188 246 304 367 452
#     4  10  21  48  70 101 145 186 247 310 367 456
#
# _framework density 24.408781000000001
#
# number of rings (size 3 to 8) (size 9 to 14) (size 15 to 20)
#    0.000    1.500    3.750    0.750   10.500    3.000 
#    6.750    0.000    0.000    0.000    0.000    0.000 
#    0.000    0.000    0.000    0.000    0.000    0.000 
#
# Total GULP energy -89350.374700 kJ/mol
# GULP energy per Si atom -5584.398419 kJ/mol
# Density = 2.435323 g / cm^3
# Si number density = 24.408781 Si / 1000 Ang^3
#
#
#
# Elastic Constant Matrix: (Units=GPa)
#
#
# Indices 1 2 3 4 5 6 
#
# 1 96.5958 52.6359 31.4758 0.0000 19.4217 0.0000
# 2 52.6359 139.0836 25.5993 0.0000 11.5977 0.0000
# 3 31.4758 25.5993 100.9124 0.0000 17.9005 0.0000
# 4 0.0000 0.0000 0.0000 23.4089 0.0000 -0.1018
# 5 19.4217 11.5977 17.9005 0.0000 37.0116 0.0000
# 6 0.0000 0.0000 0.0000 -0.1018 0.0000 31.9134
#
#
#
# Elastic Compliance Matrix: (Units=1/GPa)
#
#
# Indices 1 2 3 4 5 6 
#
# 1 0.014746 -0.004697 -0.002512 0.000000 -0.005051 0.000000
# 2 -0.004697 0.009123 -0.000852 0.000000 0.000018 0.000000
# 3 -0.002512 -0.000852 0.011626 0.000000 -0.004037 0.000000
# 4 0.000000 0.000000 0.000000 0.042719 0.000000 0.000136
# 5 -0.005051 0.000018 -0.004037 0.000000 0.031616 0.000000
# 6 0.000000 0.000000 0.000000 0.000136 0.000000 0.031335
#
#
# Mechanical properties :
#
#
# Convention : Reuss Voigt Hill
#
# Bulk Modulus (GPa) = 51.62211 61.77931 56.70071
# Shear Modulus (GPa) = 30.53528 33.59216 32.06372
#
# Velocity S-wave (km/s) = 3.54078 3.71379 3.62831
# Velocity P-wave (km/s) = 6.15720 6.61474 6.39007
#
# Compressibility (1/GPa) = 0.01937155
#
# Stress axis : x y z
#
# Youngs Moduli (GPa) = 67.81515 109.61455 86.01766
#
# Poissons Ratio (x) = 0.51486 0.21607
# Poissons Ratio (y) = 0.31853 0.07333
# Poissons Ratio (z) = 0.17034 0.09344
#
# Static dielectric constant tensor:
#      x y z
#    x 1.931670 0.000000 0.025810 
#    y 0.000000 1.951700 0.000000 
#    z 0.025810 0.000000 2.032050 
# 
# From -- ./inp_files/1394.got.cif
#   From: 2010.05.17/outbox.cif.g08.bks.cpg/sg9_1_cif.got.tgz:1394.got - 2010.06.03 20:04:27.
