data_PCOD9136717
_publ_section_title
;
Structure prediction by ZEFSAII (Michael W. Deem and Ramdas Pophale) SiO2 
 PCOD9136717
Probable space group: C C
;
_chemical_formula_sum "Si O2"
_cell_formula_units_Z 32
_cell_length_a 7.963881
_cell_length_b 20.188018
_cell_length_c 8.640908
_cell_angle_alpha 90.000000
_cell_angle_beta 80.159894
_cell_angle_gamma 90.000000
_cell_volume 1368.803939
_symmetry_space_group_name_H-M "C C"
_symmetry_group_IT_number 9
_symmetry_cell_setting 'monoclinic'
loop_
_space_group_symop_operation_xyz
x,y,z
x,-y,1/2+z
1/2+x,1/2+y,z
1/2+x,1/2-y,1/2+z
loop_
_atom_site_type_symbol
_atom_site_label
_atom_site_fract_x
_atom_site_fract_y
_atom_site_fract_z
Si Si1 0.560930 0.643114 0.009780
Si Si2 0.670259 0.603123 0.343318
Si Si3 0.176433 0.648147 0.123377
Si Si4 0.992677 0.772225 0.000409
Si Si5 0.986530 0.523045 0.016128
Si Si6 0.543321 0.886780 0.942501
Si Si7 0.103482 0.723945 0.647067
Si Si8 0.241898 0.039601 0.793076
O O1 0.645603 0.621581 0.163594
O O2 0.362290 0.628759 0.038816
O O3 0.568128 0.722029 0.019145
O O4 0.644182 0.606138 0.851472
O O5 0.561696 0.653316 0.464864
O O6 0.632173 0.524912 0.361463
O O7 0.863373 0.613001 0.377740
O O8 0.107934 0.718201 0.072573
O O9 0.060408 0.585782 0.090558
O O10 0.175546 0.649018 0.308848
O O11 0.010326 0.744368 0.820472
O O12 0.810225 0.775394 0.115594
O O13 0.107056 0.460857 0.965726
O O14 0.912873 0.546160 0.866613
O O15 0.824399 0.486484 0.122168
O O16 0.532749 0.845441 0.099617
#
# Coordination Sequence:
#
# PCOD9136717 Si02
#       8
#     4   4   4   4   4   4   4   4
#     4  11  24  41  68  96 136 177 223 276 335 402
#     4  10  21  43  66  96 133 173 223 276 332 399
#     4  12  24  44  67  99 137 178 224 280 336 407
#     4  11  25  45  69  98 141 181 225 281 340 404
#     4  11  23  42  70  96 130 180 221 276 340 404
#     4  11  23  42  70 101 132 175 229 276 339 407
#     4  11  25  44  69 101 136 180 227 282 340 405
#     4  11  21  45  67  95 133 180 220 273 346 396
#
# _framework density 23.378073000000001
#
# number of rings (size 3 to 8) (size 9 to 14) (size 15 to 20)
#    0.000    1.000    3.750    4.500    3.500    2.000 
#    6.750    0.000    0.000    0.000    0.000    0.000 
#    0.000    0.000    0.000    0.000    0.000    0.000 
#
# Total GULP energy -89284.603829 kJ/mol
# GULP energy per Si atom -5580.287739 kJ/mol
# Density = 2.332486 g / cm^3
# Si number density = 23.378073 Si / 1000 Ang^3
#
#
#
# Elastic Constant Matrix: (Units=GPa)
#
#
# Indices 1 2 3 4 5 6 
#
# 1 58.9662 11.4799 8.5511 0.0000 -3.0170 0.0000
# 2 11.4799 70.3724 24.2820 0.0000 0.9883 0.0000
# 3 8.5511 24.2820 61.7364 0.0000 -5.0887 0.0000
# 4 0.0000 0.0000 0.0000 34.0754 0.0000 -4.2709
# 5 -3.0170 0.9883 -5.0887 0.0000 20.0734 0.0000
# 6 0.0000 0.0000 0.0000 -4.2709 0.0000 29.5914
#
#
#
# Elastic Compliance Matrix: (Units=1/GPa)
#
#
# Indices 1 2 3 4 5 6 
#
# 1 0.017755 -0.002491 -0.001276 0.000000 0.002468 0.000000
# 2 -0.002491 0.016915 -0.006544 0.000000 -0.002866 0.000000
# 3 -0.001276 -0.006544 0.019364 0.000000 0.005039 0.000000
# 4 0.000000 0.000000 0.000000 0.029887 0.000000 0.004314
# 5 0.002468 -0.002866 0.005039 0.000000 0.051607 0.000000
# 6 0.000000 0.000000 0.000000 0.004314 0.000000 0.034416
#
#
# Mechanical properties :
#
#
# Convention : Reuss Voigt Hill
#
# Bulk Modulus (GPa) = 29.92964 31.07790 30.50377
# Shear Modulus (GPa) = 24.78889 26.53218 25.66054
#
# Velocity S-wave (km/s) = 3.25983 3.37251 3.31665
# Velocity P-wave (km/s) = 5.19605 5.33737 5.26718
#
# Compressibility (1/GPa) = 0.03341170
#
# Stress axis : x y z
#
# Youngs Moduli (GPa) = 56.32187 59.12002 51.64239
#
# Poissons Ratio (x) = 0.14725 0.06591
# Poissons Ratio (y) = 0.14028 0.33795
# Poissons Ratio (z) = 0.07188 0.38689
#
# Static dielectric constant tensor:
#      x y z
#    x 1.920500 0.000000 -0.034200 
#    y 0.000000 1.938340 0.000000 
#    z -0.034200 0.000000 1.956570 
# 
# From -- ./inp_files/5763.got.cif
#   From: 2010.05.17/outbox.cif.g08.bks.cpg/sg9_3_cif.got.tgz:5763.got - 2010.06.03 20:04:27.
