data_PCOD9136202
_publ_section_title
;
Structure prediction by ZEFSAII (Michael W. Deem and Ramdas Pophale) SiO2 
 PCOD9136202
Probable space group: C C
;
_chemical_formula_sum "Si O2"
_cell_formula_units_Z 32
_cell_length_a 6.279085
_cell_length_b 18.271011
_cell_length_c 11.666340
_cell_angle_alpha 90.000000
_cell_angle_beta 74.699842
_cell_angle_gamma 90.000000
_cell_volume 1290.985393
_symmetry_space_group_name_H-M "C C"
_symmetry_group_IT_number 9
_symmetry_cell_setting 'monoclinic'
loop_
_space_group_symop_operation_xyz
x,y,z
x,-y,1/2+z
1/2+x,1/2+y,z
1/2+x,1/2-y,1/2+z
loop_
_atom_site_type_symbol
_atom_site_label
_atom_site_fract_x
_atom_site_fract_y
_atom_site_fract_z
Si Si1 0.748660 0.183280 0.560450
Si Si2 0.635394 0.032694 0.843302
Si Si3 0.628679 0.602305 0.106106
Si Si4 0.408320 0.659426 0.926441
Si Si5 0.314811 0.122046 0.739431
Si Si6 0.517575 0.188153 0.115539
Si Si7 0.507032 0.450420 0.105778
Si Si8 0.228347 0.631565 0.320554
O O1 0.514161 0.163503 0.650281
O O2 0.722256 0.187271 0.427485
O O3 0.843438 0.247187 0.626902
O O4 0.930833 0.117807 0.543143
O O5 0.783292 0.083480 0.906478
O O6 0.420651 0.077428 0.830911
O O7 0.785467 0.031451 0.707556
O O8 0.615705 0.946395 0.875392
O O9 0.582994 0.526914 0.046446
O O10 0.474924 0.610739 0.240508
O O11 0.879730 0.615889 0.100538
O O12 0.539230 0.659408 0.027144
O O13 0.601330 0.669449 0.807093
O O14 0.198160 0.707553 0.991682
O O15 0.204598 0.068413 0.663707
O O16 0.614280 0.167546 0.225174
#
# Coordination Sequence:
#
# PCOD9136202 Si02
#       8
#     4   4   4   4   4   4   4   4
#     4  11  25  46  68 106 140 189 241 289 355 425
#     4   9  18  38  68 112 132 178 232 284 355 417
#     4  10  21  42  69 103 137 181 231 292 353 417
#     4  10  21  40  68 104 138 181 227 287 351 423
#     4  10  21  39  68 105 139 178 227 293 347 418
#     4  11  25  46  68 104 141 191 240 286 357 427
#     4   9  20  39  68 100 140 176 229 291 351 421
#     4  10  23  44  71  98 147 182 231 294 349 418
#
# _framework density 24.787268999999998
#
# number of rings (size 3 to 8) (size 9 to 14) (size 15 to 20)
#    0.000    2.000    0.000    2.250    0.000    7.000 
#   18.000    0.000    0.000    0.000    0.000    0.000 
#    0.000    0.000    0.000    0.000    0.000    0.000 
#
# Total GULP energy -89309.541756 kJ/mol
# GULP energy per Si atom -5581.846360 kJ/mol
# Density = 2.473085 g / cm^3
# Si number density = 24.787269 Si / 1000 Ang^3
#
#
#
# Elastic Constant Matrix: (Units=GPa)
#
#
# Indices 1 2 3 4 5 6 
#
# 1 138.9872 29.7717 43.1807 0.0000 0.2406 0.0000
# 2 29.7717 72.3578 8.6863 0.0000 1.8217 0.0000
# 3 43.1807 8.6863 88.8476 0.0000 -2.4260 0.0000
# 4 0.0000 0.0000 0.0000 25.7100 0.0000 8.1981
# 5 0.2406 1.8217 -2.4260 0.0000 46.2866 0.0000
# 6 0.0000 0.0000 0.0000 8.1981 0.0000 20.9153
#
#
#
# Elastic Compliance Matrix: (Units=1/GPa)
#
#
# Indices 1 2 3 4 5 6 
#
# 1 0.009186 -0.003278 -0.004148 0.000000 -0.000136 0.000000
# 2 -0.003278 0.015172 0.000094 0.000000 -0.000575 0.000000
# 3 -0.004148 0.000094 0.013281 0.000000 0.000714 0.000000
# 4 0.000000 0.000000 0.000000 0.044451 0.000000 -0.017423
# 5 -0.000136 -0.000575 0.000714 0.000000 0.021665 0.000000
# 6 0.000000 0.000000 0.000000 -0.017423 0.000000 0.054641
#
#
# Mechanical properties :
#
#
# Convention : Reuss Voigt Hill
#
# Bulk Modulus (GPa) = 43.52348 51.49667 47.51007
# Shear Modulus (GPa) = 27.66723 33.15264 30.40993
#
# Velocity S-wave (km/s) = 3.34456 3.66113 3.50642
# Velocity P-wave (km/s) = 5.70191 6.22032 5.96675
#
# Compressibility (1/GPa) = 0.02297610
#
# Stress axis : x y z
#
# Youngs Moduli (GPa) = 108.86183 65.91003 75.29376
#
# Poissons Ratio (x) = 0.21607 0.31229
# Poissons Ratio (y) = 0.35687 -0.00709
# Poissons Ratio (z) = 0.45152 -0.00621
#
# Static dielectric constant tensor:
#      x y z
#    x 1.926300 0.000000 -0.034420 
#    y 0.000000 2.099140 0.000000 
#    z -0.034420 0.000000 1.959580 
# 
# From -- ./inp_files/13467.got.cif
#   From: 2010.05.17/outbox.cif.g08.bks.cpg/sg9_7_cif.got.tgz:13467.got - 2010.06.03 20:04:27.
