data_PCOD9136544
_publ_section_title
;
Structure prediction by ZEFSAII (Michael W. Deem and Ramdas Pophale) SiO2 
 PCOD9136544
Probable space group: C C
;
_chemical_formula_sum "Si O2"
_cell_formula_units_Z 32
_cell_length_a 9.122380
_cell_length_b 11.789007
_cell_length_c 15.102393
_cell_angle_alpha 90.000000
_cell_angle_beta 110.163738
_cell_angle_gamma 90.000000
_cell_volume 1524.625681
_symmetry_space_group_name_H-M "C C"
_symmetry_group_IT_number 9
_symmetry_cell_setting 'monoclinic'
loop_
_space_group_symop_operation_xyz
x,y,z
x,-y,1/2+z
1/2+x,1/2+y,z
1/2+x,1/2-y,1/2+z
loop_
_atom_site_type_symbol
_atom_site_label
_atom_site_fract_x
_atom_site_fract_y
_atom_site_fract_z
Si Si1 0.255980 0.528559 0.503260
Si Si2 0.148544 0.472617 0.670626
Si Si3 0.942489 0.773396 0.966590
Si Si4 0.639765 0.123793 0.828593
Si Si5 0.031464 0.146108 0.097320
Si Si6 0.773024 0.308249 0.986897
Si Si7 0.819656 0.566768 0.039233
Si Si8 0.422744 0.307072 0.759612
O O1 0.172176 0.522454 0.578592
O O2 0.327653 0.649667 0.498983
O O3 0.149677 0.473727 0.404739
O O4 0.407075 0.448465 0.542300
O O5 0.202443 0.565184 0.753609
O O6 0.256342 0.361504 0.702966
O O7 0.966312 0.445182 0.636582
O O8 0.939231 0.829324 0.867952
O O9 0.128583 0.774256 0.021932
O O10 0.877117 0.648610 0.971694
O O11 0.732505 0.232368 0.890351
O O12 0.468736 0.173993 0.770472
O O13 0.036715 0.143421 0.206084
O O14 0.181950 0.121783 0.069519
O O15 0.938670 0.261999 0.055656
O O16 0.775724 0.444122 0.989354
#
# Coordination Sequence:
#
# PCOD9136544 Si02
#       8
#     4   4   4   4   4   4   4   4
#     4  10  21  43  73  97 138 185 226 286 355 417
#     4  11  23  41  71 101 139 182 234 288 352 422
#     4  11  22  43  71  96 141 184 229 284 361 413
#     4  10  21  41  74  97 134 187 225 283 355 403
#     4  10  22  44  70  98 136 181 231 291 348 413
#     4  10  23  45  69  97 141 180 232 288 351 413
#     4  12  25  41  72 106 132 190 239 283 357 428
#     4  10  21  42  66  98 137 179 224 287 349 411
#
# _framework density 20.988759000000002
#
# number of rings (size 3 to 8) (size 9 to 14) (size 15 to 20)
#    0.000    1.500    2.500    3.750    3.500    0.000 
#    0.000   13.750   11.000    0.000    0.000    0.000 
#    0.000    0.000    0.000    0.000    0.000    0.000 
#
# Total GULP energy -89100.767813 kJ/mol
# GULP energy per Si atom -5568.797988 kJ/mol
# Density = 2.094099 g / cm^3
# Si number density = 20.988759 Si / 1000 Ang^3
#
#
#
# Elastic Constant Matrix: (Units=GPa)
#
#
# Indices 1 2 3 4 5 6 
#
# 1 138.6681 63.5243 36.9447 0.0000 -4.5419 0.0000
# 2 63.5243 131.5870 43.4716 0.0000 -0.6854 0.0000
# 3 36.9447 43.4716 95.6545 0.0000 -9.9199 0.0000
# 4 0.0000 0.0000 0.0000 20.6184 0.0000 -2.4326
# 5 -4.5419 -0.6854 -9.9199 0.0000 20.0719 0.0000
# 6 0.0000 0.0000 0.0000 -2.4326 0.0000 42.4486
#
#
#
# Elastic Compliance Matrix: (Units=1/GPa)
#
#
# Indices 1 2 3 4 5 6 
#
# 1 0.009561 -0.004036 -0.001738 0.000000 0.001167 0.000000
# 2 -0.004036 0.010707 -0.003546 0.000000 -0.002300 0.000000
# 3 -0.001738 -0.003546 0.013369 0.000000 0.006093 0.000000
# 4 0.000000 0.000000 0.000000 0.048830 0.000000 0.002798
# 5 0.001167 -0.002300 0.006093 0.000000 0.053018 0.000000
# 6 0.000000 0.000000 0.000000 0.002798 0.000000 0.023718
#
#
# Mechanical properties :
#
#
# Convention : Reuss Voigt Hill
#
# Bulk Modulus (GPa) = 66.67225 72.64341 69.65783
# Shear Modulus (GPa) = 27.34602 31.42573 29.38587
#
# Velocity S-wave (km/s) = 3.61347 3.87365 3.74582
# Velocity P-wave (km/s) = 7.01742 7.39545 7.20891
#
# Compressibility (1/GPa) = 0.01499874
#
# Stress axis : x y z
#
# Youngs Moduli (GPa) = 104.58689 93.39505 74.80082
#
# Poissons Ratio (x) = 0.37691 0.12999
# Poissons Ratio (y) = 0.42207 0.26524
# Poissons Ratio (z) = 0.18176 0.33117
#
# Static dielectric constant tensor:
#      x y z
#    x 1.784360 0.000000 0.022320 
#    y 0.000000 1.801040 0.000000 
#    z 0.022320 0.000000 1.827980 
# 
# From -- ./inp_files/22920.got.cif
#   From: 2010.05.17/outbox.cif.g08.bks.cpg/sg9_12_cif.got.tgz:22920.got - 2010.06.03 20:04:27.
