data_PCOD9136093
_publ_section_title
;
Structure prediction by ZEFSAII (Michael W. Deem and Ramdas Pophale) SiO2 
 PCOD9136093
Probable space group: C C
;
_chemical_formula_sum "Si O2"
_cell_formula_units_Z 32
_cell_length_a 19.864133
_cell_length_b 14.184117
_cell_length_c 5.226267
_cell_angle_alpha 90.000000
_cell_angle_beta 68.214075
_cell_angle_gamma 90.000000
_cell_volume 1367.355518
_symmetry_space_group_name_H-M "C C"
_symmetry_group_IT_number 9
_symmetry_cell_setting 'monoclinic'
loop_
_space_group_symop_operation_xyz
x,y,z
x,-y,1/2+z
1/2+x,1/2+y,z
1/2+x,1/2-y,1/2+z
loop_
_atom_site_type_symbol
_atom_site_label
_atom_site_fract_x
_atom_site_fract_y
_atom_site_fract_z
Si Si1 0.037750 0.639239 0.028020
Si Si2 0.729385 0.606903 0.311492
Si Si3 0.793661 0.606419 0.721485
Si Si4 0.982532 0.139695 0.129390
Si Si5 0.959611 0.635457 0.635305
Si Si6 0.334680 0.441746 0.041651
Si Si7 0.185652 0.441810 0.115207
Si Si8 0.061129 0.864038 0.021524
O O1 0.047983 0.751383 0.042166
O O2 0.015152 0.599492 0.337472
O O3 0.112760 0.608001 0.799004
O O4 0.977051 0.611242 0.904335
O O5 0.773116 0.652895 0.482205
O O6 0.761722 0.500304 0.242435
O O7 0.643407 0.609194 0.473633
O O8 0.749439 0.652670 0.014160
O O9 0.878431 0.608885 0.666792
O O10 0.042541 0.111492 0.255315
O O11 0.972611 0.251914 0.115234
O O12 0.907180 0.108661 0.356800
O O13 0.006253 0.099981 0.819619
O O14 0.333494 0.529174 0.839901
O O15 0.260098 0.389046 0.079341
O O16 0.187132 0.529262 0.316467
#
# Coordination Sequence:
#
# PCOD9136093 Si02
#       8
#     4   4   4   4   4   4   4   4
#     4  10  21  39  60  89 114 160 201 245 303 354
#     4  10  21  39  56  83 122 158 194 244 296 356
#     4  10  21  39  56  83 122 158 194 244 296 356
#     4  10  21  39  60  89 114 160 201 245 303 354
#     4  10  21  39  61  84 124 153 204 250 288 367
#     4  10  21  39  58  86 120 147 195 250 301 361
#     4  10  21  39  58  86 120 147 195 250 301 361
#     4  10  21  39  61  84 124 153 204 250 288 367
#
# _framework density 23.402837999999999
#
# number of rings (size 3 to 8) (size 9 to 14) (size 15 to 20)
#    0.000    2.000    0.000    3.000    0.000    1.000 
#   27.000    3.750    0.000    0.000    0.000    0.000 
#    0.000    0.000    0.000    0.000    0.000    0.000 
#
# Total GULP energy -89337.494003 kJ/mol
# GULP energy per Si atom -5583.593375 kJ/mol
# Density = 2.334957 g / cm^3
# Si number density = 23.402838 Si / 1000 Ang^3
#
#
#
# Elastic Constant Matrix: (Units=GPa)
#
#
# Indices 1 2 3 4 5 6 
#
# 1 121.3782 4.1158 11.1461 0.0000 -11.0555 0.0000
# 2 4.1158 55.4920 -1.2390 0.0000 4.4187 0.0000
# 3 11.1461 -1.2390 124.5283 0.0000 -0.0819 0.0000
# 4 0.0000 0.0000 0.0000 -21.4487 0.0000 30.6987
# 5 -11.0555 4.4187 -0.0819 0.0000 43.9597 0.0000
# 6 0.0000 0.0000 0.0000 30.6987 0.0000 -37.6897
#
#
#
# Elastic Compliance Matrix: (Units=1/GPa)
#
#
# Indices 1 2 3 4 5 6 
#
# 1 0.008541 -0.000828 -0.000771 0.000000 0.002230 0.000000
# 2 -0.000828 0.018250 0.000254 0.000000 -0.002042 0.000000
# 3 -0.000771 0.000254 0.008102 0.000000 -0.000204 0.000000
# 4 0.000000 0.000000 0.000000 0.281226 0.000000 0.229062
# 5 0.002230 -0.002042 -0.000204 0.000000 0.023514 0.000000
# 6 0.000000 0.000000 0.000000 0.229062 0.000000 0.160042
#
#
# Mechanical properties :
#
#
# Convention : Reuss Voigt Hill
#
# Bulk Modulus (GPa) = 31.05335 36.60492 33.82914
# Shear Modulus (GPa) = 9.74473 16.12266 12.93369
#
# Velocity S-wave (km/s) = 2.04278 2.62757 2.35341
# Velocity P-wave (km/s) = 4.34302 4.98806 4.67667
#
# Compressibility (1/GPa) = 0.03220264
#
# Stress axis : x y z
#
# Youngs Moduli (GPa) = 117.08634 54.79344 123.43046
#
# Poissons Ratio (x) = 0.04538 0.09519
# Poissons Ratio (y) = 0.09697 -0.03140
# Poissons Ratio (z) = 0.09030 -0.01394
#
# Static dielectric constant tensor:
#      x y z
#    x 1.911710 0.000000 0.039130 
#    y 0.000000 1.811930 0.000000 
#    z 0.039130 0.000000 1.906080 
# 
# From -- ./inp_files/2963.got.cif
#   From: 2010.05.17/outbox.cif.g08.bks.cpg/sg9_2_cif.got.tgz:2963.got - 2010.06.03 20:04:27.
