data_PCOD9136593
_publ_section_title
;
Structure prediction by ZEFSAII (Michael W. Deem and Ramdas Pophale) SiO2 
 PCOD9136593
Probable space group: C C
;
_chemical_formula_sum "Si O2"
_cell_formula_units_Z 32
_cell_length_a 27.746037
_cell_length_b 6.560903
_cell_length_c 15.139426
_cell_angle_alpha 90.000000
_cell_angle_beta 147.771136
_cell_angle_gamma 90.000000
_cell_volume 1469.763996
_symmetry_space_group_name_H-M "C C"
_symmetry_group_IT_number 9
_symmetry_cell_setting 'monoclinic'
loop_
_space_group_symop_operation_xyz
x,y,z
x,-y,1/2+z
1/2+x,1/2+y,z
1/2+x,1/2-y,1/2+z
loop_
_atom_site_type_symbol
_atom_site_label
_atom_site_fract_x
_atom_site_fract_y
_atom_site_fract_z
Si Si1 0.012380 0.248382 0.036560
Si Si2 0.134298 0.551808 0.483061
Si Si3 0.821856 0.147584 0.698673
Si Si4 0.333820 0.638110 0.069295
Si Si5 0.018735 0.910852 0.348243
Si Si6 0.119976 0.850160 0.865971
Si Si7 0.262062 0.057314 0.965256
Si Si8 0.657152 0.082372 0.217375
O O1 0.048664 0.126091 0.176637
O O2 0.066413 0.464773 0.112215
O O3 0.028343 0.128654 0.968122
O O4 0.904764 0.243031 0.879384
O O5 0.227853 0.664635 0.603962
O O6 0.045389 0.691516 0.349095
O O7 0.125817 0.387229 0.393961
O O8 0.148686 0.445584 0.599649
O O9 0.820576 0.275876 0.606087
O O10 0.833789 0.920019 0.675114
O O11 0.425545 0.526120 0.180706
O O12 0.326895 0.876670 0.032209
O O13 0.241554 0.550924 0.884005
O O14 0.093478 0.048853 0.416782
O O15 0.207884 0.943900 0.958764
O O16 0.189438 0.188609 0.795168
#
# Coordination Sequence:
#
# PCOD9136593 Si02
#       8
#     4   4   4   4   4   4   4   4
#     4  10  23  44  64  99 138 180 226 288 348 410
#     4  11  23  42  65 100 138 180 235 285 342 415
#     4  10  21  42  66  95 134 176 231 286 336 411
#     4  10  21  43  65  97 130 176 226 285 345 415
#     4  10  25  42  68  95 142 177 229 289 344 412
#     4  12  23  40  68  99 130 180 232 284 343 418
#     4  11  21  42  71  94 131 184 224 281 354 404
#     4  10  23  39  67  95 141 175 225 284 350 413
#
# _framework density 21.772202
#
# number of rings (size 3 to 8) (size 9 to 14) (size 15 to 20)
#    0.000    1.500    3.750    0.750    3.500    4.000 
#    2.250    1.250    0.000    0.000    0.000    0.000 
#    0.000    0.000    0.000    0.000    0.000    0.000 
#
# Total GULP energy -89073.187063 kJ/mol
# GULP energy per Si atom -5567.074191 kJ/mol
# Density = 2.172265 g / cm^3
# Si number density = 21.772202 Si / 1000 Ang^3
#
#
#
# Elastic Constant Matrix: (Units=GPa)
#
#
# Indices 1 2 3 4 5 6 
#
# 1 65.5882 31.8832 3.5513 0.0000 5.8441 0.0000
# 2 31.8832 123.6368 48.9721 0.0000 3.7786 0.0000
# 3 3.5513 48.9721 72.0481 0.0000 2.1457 0.0000
# 4 0.0000 0.0000 0.0000 38.3278 0.0000 2.3461
# 5 5.8441 3.7786 2.1457 0.0000 23.7704 0.0000
# 6 0.0000 0.0000 0.0000 2.3461 0.0000 25.9968
#
#
#
# Elastic Compliance Matrix: (Units=1/GPa)
#
#
# Indices 1 2 3 4 5 6 
#
# 1 0.018264 -0.005858 0.003196 0.000000 -0.003848 0.000000
# 2 -0.005858 0.012975 -0.008535 0.000000 0.000148 0.000000
# 3 0.003196 -0.008535 0.019559 0.000000 -0.001195 0.000000
# 4 0.000000 0.000000 0.000000 0.026236 0.000000 -0.002368
# 5 -0.003848 0.000148 -0.001195 0.000000 0.043099 0.000000
# 6 0.000000 0.000000 0.000000 -0.002368 0.000000 0.038680
#
#
# Mechanical properties :
#
#
# Convention : Reuss Voigt Hill
#
# Bulk Modulus (GPa) = 35.20598 47.78738 41.49668
# Shear Modulus (GPa) = 26.22253 29.41008 27.81630
#
# Velocity S-wave (km/s) = 3.47422 3.67932 3.57824
# Velocity P-wave (km/s) = 5.68321 6.32822 6.01437
#
# Compressibility (1/GPa) = 0.02840426
#
# Stress axis : x y z
#
# Youngs Moduli (GPa) = 54.75172 77.07044 51.12730
#
# Poissons Ratio (x) = 0.45151 -0.16342
# Poissons Ratio (y) = 0.32076 0.43637
# Poissons Ratio (z) = -0.17501 0.65780
#
# Static dielectric constant tensor:
#      x y z
#    x 1.794970 0.000000 0.025600 
#    y 0.000000 1.919280 0.000000 
#    z 0.025600 0.000000 1.821180 
# 
# From -- ./inp_files/31762.got.cif
#   From: 2010.05.17/outbox.cif.g08.bks.cpg/sg9_16_cif.got.tgz:31762.got - 2010.06.03 20:04:27.
