data_PCOD9136180
_publ_section_title
;
Structure prediction by ZEFSAII (Michael W. Deem and Ramdas Pophale) SiO2 
 PCOD9136180
Probable space group: C C
;
_chemical_formula_sum "Si O2"
_cell_formula_units_Z 32
_cell_length_a 15.103373
_cell_length_b 10.091105
_cell_length_c 25.789781
_cell_angle_alpha 90.000000
_cell_angle_beta 157.398606
_cell_angle_gamma 90.000000
_cell_volume 1510.604622
_symmetry_space_group_name_H-M "C C"
_symmetry_group_IT_number 9
_symmetry_cell_setting 'monoclinic'
loop_
_space_group_symop_operation_xyz
x,y,z
x,-y,1/2+z
1/2+x,1/2+y,z
1/2+x,1/2-y,1/2+z
loop_
_atom_site_type_symbol
_atom_site_label
_atom_site_fract_x
_atom_site_fract_y
_atom_site_fract_z
Si Si1 0.854930 0.346235 0.998610
Si Si2 0.468358 0.965904 0.657184
Si Si3 0.440877 0.906006 0.868434
Si Si4 0.562179 0.387847 0.738239
Si Si5 0.925825 0.173774 0.668463
Si Si6 0.379319 0.306883 0.260612
Si Si7 0.467468 0.488515 0.902351
Si Si8 0.600714 0.800268 0.447416
O O1 0.687061 0.381774 0.860678
O O2 0.731940 0.229210 0.964398
O O3 0.903403 0.463444 0.067171
O O4 0.102435 0.310054 0.109244
O O5 0.479804 0.807207 0.667242
O O6 0.734650 0.013838 0.810420
O O7 0.235281 0.994065 0.565496
O O8 0.225252 0.837899 0.780568
O O9 0.459240 0.835631 0.823555
O O10 0.656256 0.856720 0.018153
O O11 0.460731 0.063617 0.873352
O O12 0.537405 0.540508 0.708056
O O13 0.313651 0.319800 0.602805
O O14 0.983588 0.176126 0.760388
O O15 0.447395 0.417066 0.340564
O O16 0.461214 0.333246 0.883523
#
# Coordination Sequence:
#
# PCOD9136180 Si02
#       8
#     4   4   4   4   4   4   4   4
#     4  10  21  41  66  92 123 177 220 260 321 402
#     4  10  21  39  66  92 130 164 218 269 314 382
#     4  11  22  39  60  92 129 162 211 273 320 376
#     4  11  22  39  67  90 126 172 216 259 330 389
#     4  11  22  37  64  93 124 167 216 269 322 379
#     4  11  21  41  65  94 124 169 220 267 323 389
#     4  10  21  40  67  92 129 170 214 262 325 387
#     4  10  22  40  61  91 131 165 211 271 323 380
#
# _framework density 21.183572000000002
#
# number of rings (size 3 to 8) (size 9 to 14) (size 15 to 20)
#    0.000    1.500    3.750    2.250    0.000    0.000 
#    4.500    0.000    0.000    0.000    0.000    0.000 
#    0.000    0.000    0.000    0.000    0.000    0.000 
#
# Total GULP energy -89116.683971 kJ/mol
# GULP energy per Si atom -5569.792748 kJ/mol
# Density = 2.113536 g / cm^3
# Si number density = 21.183572 Si / 1000 Ang^3
#
#
#
# Elastic Constant Matrix: (Units=GPa)
#
#
# Indices 1 2 3 4 5 6 
#
# 1 42.2012 5.2917 23.2524 0.0012 13.4639 0.0000
# 2 5.2917 96.6055 34.2818 0.0062 -0.9763 -0.0016
# 3 23.2524 34.2818 76.9576 0.0208 18.6649 -0.0017
# 4 0.0012 0.0062 0.0208 17.3705 -0.0038 -4.6011
# 5 13.4639 -0.9763 18.6649 -0.0038 31.8076 0.0002
# 6 0.0000 -0.0016 -0.0017 -4.6011 0.0002 12.8104
#
#
#
# Elastic Compliance Matrix: (Units=1/GPa)
#
#
# Indices 1 2 3 4 5 6 
#
# 1 0.030434 0.000935 -0.007572 0.000005 -0.008410 0.000001
# 2 0.000935 0.012821 -0.006988 0.000005 0.004098 0.000002
# 3 -0.007572 -0.006988 0.020602 -0.000026 -0.009098 -0.000007
# 4 0.000005 0.000005 -0.000026 0.063622 0.000020 0.022851
# 5 -0.008410 0.004098 -0.009098 0.000020 0.040464 0.000006
# 6 0.000001 0.000002 -0.000007 0.022851 0.000006 0.086269
#
#
# Mechanical properties :
#
#
# Convention : Reuss Voigt Hill
#
# Bulk Modulus (GPa) = 27.31724 37.93515 32.62619
# Shear Modulus (GPa) = 17.02620 22.59357 19.80988
#
# Velocity S-wave (km/s) = 2.83812 3.26937 3.06134
# Velocity P-wave (km/s) = 4.86450 5.67436 5.28497
#
# Compressibility (1/GPa) = 0.03660692
#
# Stress axis : x y z
#
# Youngs Moduli (GPa) = 32.85764 77.99493 48.53974
#
# Poissons Ratio (x) = -0.07293 0.36756
# Poissons Ratio (y) = -0.03072 0.33919
# Poissons Ratio (z) = 0.24881 0.54503
#
# Static dielectric constant tensor:
#      x y z
#    x 1.786370 0.000000 0.041650 
#    y 0.000000 1.789570 0.000000 
#    z 0.041650 0.000000 1.822630 
# 
# From -- ./inp_files/19128.got.cif
#   From: 2010.05.17/outbox.cif.g08.bks.cpg/sg9_10_cif.got.tgz:19128.got - 2010.06.03 20:04:27.
