data_PCOD9136384
_publ_section_title
;
Structure prediction by ZEFSAII (Michael W. Deem and Ramdas Pophale) SiO2 
 PCOD9136384
Probable space group: C C
;
_chemical_formula_sum "Si O2"
_cell_formula_units_Z 32
_cell_length_a 8.543017
_cell_length_b 12.650382
_cell_length_c 13.006184
_cell_angle_alpha 90.000000
_cell_angle_beta 91.793974
_cell_angle_gamma 90.000000
_cell_volume 1404.920942
_symmetry_space_group_name_H-M "C C"
_symmetry_group_IT_number 9
_symmetry_cell_setting 'monoclinic'
loop_
_space_group_symop_operation_xyz
x,y,z
x,-y,1/2+z
1/2+x,1/2+y,z
1/2+x,1/2-y,1/2+z
loop_
_atom_site_type_symbol
_atom_site_label
_atom_site_fract_x
_atom_site_fract_y
_atom_site_fract_z
Si Si1 0.654560 0.196564 0.771580
Si Si2 0.549391 0.499900 0.651315
Si Si3 0.670017 0.221815 0.008224
Si Si4 0.807626 0.648830 0.696159
Si Si5 0.308009 0.531623 0.307114
Si Si6 0.864547 0.778782 0.093328
Si Si7 0.953814 0.099488 0.964552
Si Si8 0.657255 0.775103 0.883395
O O1 0.490931 0.165979 0.715330
O O2 0.766787 0.253936 0.691827
O O3 0.736845 0.083193 0.787665
O O4 0.639042 0.245987 0.886115
O O5 0.713610 0.538076 0.700848
O O6 0.425313 0.436117 0.718726
O O7 0.452617 0.608276 0.619415
O O8 0.578055 0.428649 0.553089
O O9 0.759772 0.305877 0.082690
O O10 0.506530 0.203449 0.062165
O O11 0.784697 0.121953 0.009587
O O12 0.737859 0.710969 0.792653
O O13 0.432964 0.505689 0.398577
O O14 0.168202 0.607967 0.336543
O O15 0.752922 0.785550 0.991772
O O16 0.004503 0.205572 0.906003
#
# Coordination Sequence:
#
# PCOD9136384 Si02
#       8
#     4   4   4   4   4   4   4   4
#     4  10  22  43  67 103 146 182 247 301 362 439
#     4  10  21  43  64  97 140 187 233 295 371 433
#     4  10  22  40  68 101 137 190 239 298 359 438
#     4  11  22  41  70 102 140 185 244 296 362 440
#     4  10  22  41  69  94 137 189 231 301 365 426
#     4  10  21  40  70  98 142 187 235 304 363 428
#     4  11  22  41  66 103 137 184 244 291 367 444
#     4  12  22  41  70 104 135 188 243 294 367 440
#
# _framework density 22.777080000000002
#
# number of rings (size 3 to 8) (size 9 to 14) (size 15 to 20)
#    0.000    1.500    3.750    1.500    1.750    0.000 
#    0.000   10.000    2.750    0.000    0.000    0.000 
#    0.000    0.000    0.000    0.000    0.000    0.000 
#
# Total GULP energy -89172.189833 kJ/mol
# GULP energy per Si atom -5573.261865 kJ/mol
# Density = 2.272524 g / cm^3
# Si number density = 22.777080 Si / 1000 Ang^3
#
#
#
# Elastic Constant Matrix: (Units=GPa)
#
#
# Indices 1 2 3 4 5 6 
#
# 1 103.3257 7.8782 57.4817 0.0000 -7.9801 0.0000
# 2 7.8782 42.4084 22.9895 0.0000 -8.2053 0.0000
# 3 57.4817 22.9895 137.8170 0.0000 -10.7987 0.0000
# 4 0.0000 0.0000 0.0000 32.8827 0.0000 -3.5879
# 5 -7.9801 -8.2053 -10.7987 0.0000 35.1513 0.0000
# 6 0.0000 0.0000 0.0000 -3.5879 0.0000 19.8244
#
#
#
# Elastic Compliance Matrix: (Units=1/GPa)
#
#
# Indices 1 2 3 4 5 6 
#
# 1 0.012682 0.000801 -0.005311 0.000000 0.001435 0.000000
# 2 0.000801 0.026804 -0.004407 0.000000 0.005085 0.000000
# 3 -0.005311 -0.004407 0.010278 0.000000 0.000923 0.000000
# 4 0.000000 0.000000 0.000000 0.031024 0.000000 0.005615
# 5 0.001435 0.005085 0.000923 0.000000 0.030245 0.000000
# 6 0.000000 0.000000 0.000000 0.005615 0.000000 0.051459
#
#
# Mechanical properties :
#
#
# Convention : Reuss Voigt Hill
#
# Bulk Modulus (GPa) = 31.31740 51.13887 41.22813
# Shear Modulus (GPa) = 26.18210 30.58515 28.38363
#
# Velocity S-wave (km/s) = 3.39410 3.66840 3.53391
# Velocity P-wave (km/s) = 5.39808 6.35952 5.89842
#
# Compressibility (1/GPa) = 0.03193113
#
# Stress axis : x y z
#
# Youngs Moduli (GPa) = 78.84970 37.30753 97.29051
#
# Poissons Ratio (x) = -0.02987 0.51669
# Poissons Ratio (y) = -0.06312 0.42873
# Poissons Ratio (z) = 0.41875 0.16440
#
# Static dielectric constant tensor:
#      x y z
#    x 1.886870 0.000000 0.031990 
#    y 0.000000 1.877140 0.000000 
#    z 0.031990 0.000000 1.984540 
# 
# From -- ./inp_files/14757.got.cif
#   From: 2010.05.17/outbox.cif.g08.bks.cpg/sg9_8_cif.got.tgz:14757.got - 2010.06.03 20:04:27.
