data_PCOD9136145
_publ_section_title
;
Structure prediction by ZEFSAII (Michael W. Deem and Ramdas Pophale) SiO2 
 PCOD9136145
Probable space group: C C
;
_chemical_formula_sum "Si O2"
_cell_formula_units_Z 28
_cell_length_a 5.469808
_cell_length_b 9.549354
_cell_length_c 28.089912
_cell_angle_alpha 90.000000
_cell_angle_beta 45.285274
_cell_angle_gamma 90.000000
_cell_volume 1042.636837
_symmetry_space_group_name_H-M "C C"
_symmetry_group_IT_number 9
_symmetry_cell_setting 'monoclinic'
loop_
_space_group_symop_operation_xyz
x,y,z
x,-y,1/2+z
1/2+x,1/2+y,z
1/2+x,1/2-y,1/2+z
loop_
_atom_site_type_symbol
_atom_site_label
_atom_site_fract_x
_atom_site_fract_y
_atom_site_fract_z
Si Si1 0.836960 0.134200 0.754110
Si Si2 0.133954 0.571510 0.508912
Si Si3 0.424081 0.655914 0.637738
Si Si4 0.310738 0.098227 0.314343
Si Si5 0.639063 0.952485 0.862438
Si Si6 0.858378 0.634174 0.981284
Si Si7 0.131427 0.448414 0.613483
O O1 0.458625 0.062237 0.793485
O O2 0.916750 0.294172 0.757958
O O3 0.887184 0.051527 0.796403
O O4 0.011481 0.107837 0.679348
O O5 0.379871 0.702407 0.469373
O O6 0.148531 0.519557 0.560314
O O7 0.744285 0.634464 0.557655
O O8 0.153214 0.436839 0.472701
O O9 0.127591 0.561947 0.655668
O O10 0.361883 0.821388 0.651018
O O11 0.475526 0.140391 0.342848
O O12 0.899800 0.114691 0.364354
O O13 0.375378 0.045995 0.929710
O O14 0.514119 0.623083 0.061437
#
# Coordination Sequence:
#
# PCOD9136145 Si02
#       7
#     4   4   4   4   4   4   4
#     4  10  24  42  66  98 139 185 234 292 353 427
#     4  10  22  40  64  96 131 174 229 285 355 420
#     4  10  21  40  62  95 131 170 231 279 354 419
#     4  10  25  44  66 101 136 181 237 283 359 419
#     4  10  26  43  68 100 137 182 232 290 358 425
#     4  10  23  40  65  96 134 178 232 287 358 421
#     4  10  21  39  63  98 128 178 221 292 349 421
#
# _framework density 26.854987999999999
#
# number of rings (size 3 to 8) (size 9 to 14) (size 15 to 20)
#    0.857    1.143    0.000    1.714    6.000    2.286 
#    0.000    0.000    0.000    0.000    0.000    0.000 
#    0.000    0.000    0.000    0.000    0.000    0.000 
#
# Total GULP energy -78012.417953 kJ/mol
# GULP energy per Si atom -5572.315568 kJ/mol
# Density = 2.679387 g / cm^3
# Si number density = 26.854988 Si / 1000 Ang^3
#
#
#
# Elastic Constant Matrix: (Units=GPa)
#
#
# Indices 1 2 3 4 5 6 
#
# 1 126.1740 66.1209 26.3030 -0.0012 33.6381 -0.0001
# 2 66.1209 158.8024 25.2281 -0.0010 23.1124 0.0003
# 3 26.3030 25.2281 101.7790 -0.0041 14.0710 0.0016
# 4 -0.0012 -0.0010 -0.0041 36.7257 0.0017 15.9094
# 5 33.6381 23.1124 14.0710 0.0017 43.8415 -0.0003
# 6 -0.0001 0.0003 0.0016 15.9094 -0.0003 50.8621
#
#
#
# Elastic Compliance Matrix: (Units=1/GPa)
#
#
# Indices 1 2 3 4 5 6 
#
# 1 0.011987 -0.003809 -0.001214 0.000001 -0.006800 0.000000
# 2 -0.003809 0.008186 -0.000892 0.000000 -0.001107 0.000000
# 3 -0.001214 -0.000892 0.010638 0.000002 -0.002013 -0.000001
# 4 0.000001 0.000000 0.000002 0.031497 -0.000002 -0.009852
# 5 -0.006800 -0.001107 -0.002013 -0.000002 0.029257 0.000001
# 6 0.000000 0.000000 -0.000001 -0.009852 0.000001 0.022743
#
#
# Mechanical properties :
#
#
# Convention : Reuss Voigt Hill
#
# Bulk Modulus (GPa) = 52.67852 69.11772 60.89812
# Shear Modulus (GPa) = 37.74632 44.22610 40.98621
#
# Velocity S-wave (km/s) = 3.75315 4.06254 3.91091
# Velocity P-wave (km/s) = 6.20000 6.91368 6.56654
#
# Compressibility (1/GPa) = 0.01898307
#
# Stress axis : x y z
#
# Youngs Moduli (GPa) = 83.42063 122.16385 94.00084
#
# Poissons Ratio (x) = 0.46529 0.11409
# Poissons Ratio (y) = 0.31772 0.08382
# Poissons Ratio (z) = 0.10125 0.10893
#
# Static dielectric constant tensor:
#      x y z
#    x 2.170840 0.000000 -0.103800 
#    y 0.000000 2.188480 0.000000 
#    z -0.103800 0.000000 2.125450 
# 
# From -- ./inp_files/34719.got.cif
#   From: 2010.05.17/outbox.cif.g08.bks.cpg/sg9_18_cif.got.tgz:34719.got - 2010.06.03 20:04:27.
