data_PCOD9136806
_publ_section_title
;
Structure prediction by ZEFSAII (Michael W. Deem and Ramdas Pophale) SiO2 
 PCOD9136806
Probable space group: C C
;
_chemical_formula_sum "Si O2"
_cell_formula_units_Z 24
_cell_length_a 9.747234
_cell_length_b 11.793669
_cell_length_c 12.216114
_cell_angle_alpha 90.000000
_cell_angle_beta 142.921545
_cell_angle_gamma 90.000000
_cell_volume 846.670584
_symmetry_space_group_name_H-M "C C"
_symmetry_group_IT_number 9
_symmetry_cell_setting 'monoclinic'
loop_
_space_group_symop_operation_xyz
x,y,z
x,-y,1/2+z
1/2+x,1/2+y,z
1/2+x,1/2-y,1/2+z
loop_
_atom_site_type_symbol
_atom_site_label
_atom_site_fract_x
_atom_site_fract_y
_atom_site_fract_z
Si Si1 0.762760 0.117947 0.297910
Si Si2 0.114881 0.663599 0.442054
Si Si3 0.021986 0.336374 0.226998
Si Si4 0.436947 0.396598 0.348053
Si Si5 0.874174 0.617974 0.871205
Si Si6 0.699936 0.396622 0.821014
O O1 0.673353 0.106927 0.364628
O O2 0.818497 0.249983 0.334593
O O3 0.961985 0.029902 0.390628
O O4 0.568477 0.098233 0.084556
O O5 0.277570 0.619187 0.640766
O O6 0.130143 0.801985 0.453061
O O7 0.857918 0.639251 0.318142
O O8 0.278949 0.360720 0.350907
O O9 0.963511 0.393029 0.304429
O O10 0.006722 0.197986 0.215985
O O11 0.859309 0.380804 0.028296
O O12 0.674939 0.529933 0.778483
#
# Coordination Sequence:
#
# PCOD9136806 Si02
#       6
#     4   4   4   4   4   4
#     4  12  25  43  63  97 134 169 208 270 324 382
#     4  10  21  44  66  93 125 166 220 260 321 381
#     4  10  21  44  66  93 125 166 220 260 321 381
#     4  10  22  42  70  90 125 172 212 269 320 374
#     4  12  25  43  63  97 134 169 208 270 324 382
#     4  10  22  42  70  90 125 172 212 269 320 374
#
# _framework density 28.346326000000001
#
# number of rings (size 3 to 8) (size 9 to 14) (size 15 to 20)
#    0.000    1.333    3.333    3.000    0.000    1.333 
#   12.000    0.000    0.000    0.000    0.000    0.000 
#    0.000    0.000    0.000    0.000    0.000    0.000 
#
# Total GULP energy -67286.599478 kJ/mol
# GULP energy per Si atom -5607.216623 kJ/mol
# Density = 2.828181 g / cm^3
# Si number density = 28.346326 Si / 1000 Ang^3
#
#
#
# Elastic Constant Matrix: (Units=GPa)
#
#
# Indices 1 2 3 4 5 6 
#
# 1 121.4849 75.2639 52.2912 0.0017 -29.4035 0.0004
# 2 75.2639 277.4354 37.1423 0.0007 -16.7333 0.0004
# 3 52.2912 37.1423 156.5875 0.0018 -52.9884 0.0011
# 4 0.0017 0.0007 0.0018 17.8505 0.0013 6.8786
# 5 -29.4035 -16.7333 -52.9884 0.0013 46.3442 0.0006
# 6 0.0004 0.0004 0.0011 6.8786 0.0006 47.8770
#
#
#
# Elastic Compliance Matrix: (Units=1/GPa)
#
#
# Indices 1 2 3 4 5 6 
#
# 1 0.011730 -0.002676 -0.001779 -0.000001 0.004442 0.000000
# 2 -0.002676 0.004342 -0.000294 0.000000 -0.000466 0.000000
# 3 -0.001779 -0.000294 0.010818 -0.000002 0.011133 0.000000
# 4 -0.000001 0.000000 -0.000002 0.059304 -0.000004 -0.008520
# 5 0.004442 -0.000466 0.011133 -0.000004 0.036957 0.000000
# 6 0.000000 0.000000 0.000000 -0.008520 0.000000 0.022111
#
#
# Mechanical properties :
#
#
# Convention : Reuss Voigt Hill
#
# Bulk Modulus (GPa) = 57.50271 98.32252 77.91262
# Shear Modulus (GPa) = 31.14143 48.46836 39.80489
#
# Velocity S-wave (km/s) = 3.31812 4.13954 3.75138
# Velocity P-wave (km/s) = 5.91690 7.59007 6.80510
#
# Compressibility (1/GPa) = 0.01739048
#
# Stress axis : x y z
#
# Youngs Moduli (GPa) = 85.24852 230.32614 92.44131
#
# Poissons Ratio (x) = 0.61639 0.16450
# Poissons Ratio (y) = 0.22814 0.02718
# Poissons Ratio (z) = 0.15170 0.06771
#
# Static dielectric constant tensor:
#      x y z
#    x 2.252750 0.000000 -0.002930 
#    y 0.000000 2.400290 0.000000 
#    z -0.002930 0.000000 2.169850 
# 
# From -- ./inp_files/16318.got.cif
#   From: 2010.05.17/outbox.cif.g08.bks.cpg/sg9_9_cif.got.tgz:16318.got - 2010.06.03 20:04:27.
