data_PCOD9136627
_publ_section_title
;
Structure prediction by ZEFSAII (Michael W. Deem and Ramdas Pophale) SiO2 
 PCOD9136627
Probable space group: C C
;
_chemical_formula_sum "Si O2"
_cell_formula_units_Z 28
_cell_length_a 13.485948
_cell_length_b 6.301839
_cell_length_c 14.221202
_cell_angle_alpha 90.000000
_cell_angle_beta 112.885815
_cell_angle_gamma 90.000000
_cell_volume 1113.467489
_symmetry_space_group_name_H-M "C C"
_symmetry_group_IT_number 9
_symmetry_cell_setting 'monoclinic'
loop_
_space_group_symop_operation_xyz
x,y,z
x,-y,1/2+z
1/2+x,1/2+y,z
1/2+x,1/2-y,1/2+z
loop_
_atom_site_type_symbol
_atom_site_label
_atom_site_fract_x
_atom_site_fract_y
_atom_site_fract_z
Si Si1 0.727630 0.260496 0.546940
Si Si2 0.695138 0.242592 0.839551
Si Si3 0.336824 0.476338 0.744037
Si Si4 0.867527 0.419059 0.001198
Si Si5 0.994715 0.748201 0.371454
Si Si6 0.022934 0.536895 0.203664
Si Si7 0.186271 0.109714 0.692750
O O1 0.785629 0.075143 0.628428
O O2 0.818410 0.353590 0.510283
O O3 0.618770 0.222367 0.446855
O O4 0.679032 0.469606 0.784482
O O5 0.766380 0.102489 0.795227
O O6 0.762063 0.272161 0.958524
O O7 0.588140 0.112035 0.798191
O O8 0.688046 0.557692 0.107596
O O9 0.454748 0.510408 0.835541
O O10 0.298271 0.235175 0.730474
O O11 0.926943 0.374809 0.925521
O O12 0.957036 0.383913 0.112208
O O13 0.956807 0.668388 0.254709
O O14 0.094053 0.706632 0.169453
#
# Coordination Sequence:
#
# PCOD9136627 Si02
#       7
#     4   4   4   4   4   4   4
#     4  11  23  44  67 103 141 186 252 300 368 456
#     4   9  21  40  66  98 138 180 238 294 368 442
#     4   9  20  42  65  97 141 179 233 298 367 437
#     4  11  23  43  70 100 142 193 233 308 374 446
#     4  11  23  44  73 105 148 196 244 309 383 446
#     4  11  23  45  70 101 145 189 244 311 370 450
#     4  10  21  42  69 100 137 189 240 304 368 455
#
# _framework density 25.146671000000001
#
# number of rings (size 3 to 8) (size 9 to 14) (size 15 to 20)
#    0.000    1.714    1.429    3.429    0.000    3.429 
#    7.714    7.143    0.000    0.000    0.000    0.000 
#    0.000    0.000    0.000    0.000    0.000    0.000 
#
# Total GULP energy -78091.867286 kJ/mol
# GULP energy per Si atom -5577.990520 kJ/mol
# Density = 2.508944 g / cm^3
# Si number density = 25.146671 Si / 1000 Ang^3
#
#
#
# Elastic Constant Matrix: (Units=GPa)
#
#
# Indices 1 2 3 4 5 6 
#
# 1 63.8349 7.7819 29.9174 0.0000 4.1601 0.0000
# 2 7.7819 76.6917 45.7780 0.0000 11.5161 0.0000
# 3 29.9174 45.7780 135.9542 0.0000 15.7145 0.0000
# 4 0.0000 0.0000 0.0000 41.8960 0.0000 -2.1388
# 5 4.1601 11.5161 15.7145 0.0000 47.7657 0.0000
# 6 0.0000 0.0000 0.0000 -2.1388 0.0000 29.6256
#
#
#
# Elastic Compliance Matrix: (Units=1/GPa)
#
#
# Indices 1 2 3 4 5 6 
#
# 1 0.017499 0.000691 -0.004042 0.000000 -0.000361 0.000000
# 2 0.000691 0.016574 -0.005472 0.000000 -0.002256 0.000000
# 3 -0.004042 -0.005472 0.010285 0.000000 -0.001712 0.000000
# 4 0.000000 0.000000 0.000000 0.023957 0.000000 0.001730
# 5 -0.000361 -0.002256 -0.001712 0.000000 0.022074 0.000000
# 6 0.000000 0.000000 0.000000 0.001730 0.000000 0.033879
#
#
# Mechanical properties :
#
#
# Convention : Reuss Voigt Hill
#
# Bulk Modulus (GPa) = 37.43499 49.27061 43.35280
# Shear Modulus (GPa) = 33.15237 36.72437 34.93837
#
# Velocity S-wave (km/s) = 3.63486 3.82567 3.73149
# Velocity P-wave (km/s) = 5.70397 6.25701 5.98688
#
# Compressibility (1/GPa) = 0.02671298
#
# Stress axis : x y z
#
# Youngs Moduli (GPa) = 57.14644 60.33470 97.22594
#
# Poissons Ratio (x) = -0.04170 0.39296
# Poissons Ratio (y) = -0.03950 0.53204
# Poissons Ratio (z) = 0.23097 0.33016
#
# Static dielectric constant tensor:
#      x y z
#    x 2.085610 0.000000 0.075370 
#    y 0.000000 2.017200 0.000000 
#    z 0.075370 0.000000 2.019440 
# 
# From -- ./inp_files/17973.got.cif
#   From: 2010.05.17/outbox.cif.g08.bks.cpg/sg9_9_cif.got.tgz:17973.got - 2010.06.03 20:04:27.
