data_PCOD9136028
_publ_section_title
;
Structure prediction by ZEFSAII (Michael W. Deem and Ramdas Pophale) SiO2 
 PCOD9136028
Probable space group: C C
;
_chemical_formula_sum "Si O2"
_cell_formula_units_Z 28
_cell_length_a 10.344852
_cell_length_b 9.191458
_cell_length_c 21.898832
_cell_angle_alpha 90.000000
_cell_angle_beta 34.933288
_cell_angle_gamma 90.000000
_cell_volume 1192.333860
_symmetry_space_group_name_H-M "C C"
_symmetry_group_IT_number 9
_symmetry_cell_setting 'monoclinic'
loop_
_space_group_symop_operation_xyz
x,y,z
x,-y,1/2+z
1/2+x,1/2+y,z
1/2+x,1/2-y,1/2+z
loop_
_atom_site_type_symbol
_atom_site_label
_atom_site_fract_x
_atom_site_fract_y
_atom_site_fract_z
Si Si1 0.548710 0.420330 0.958910
Si Si2 0.237472 0.015202 0.002741
Si Si3 0.497728 0.753108 0.780226
Si Si4 0.720684 0.065716 0.304254
Si Si5 0.573263 0.776707 0.153076
Si Si6 0.684851 0.504820 0.272258
Si Si7 0.963385 0.776660 0.163928
O O1 0.736074 0.293775 0.881772
O O2 0.548866 0.477957 0.888801
O O3 0.666029 0.535625 0.959645
O O4 0.309573 0.358191 0.075044
O O5 0.136854 0.852403 0.052226
O O6 0.141115 0.151938 0.077322
O O7 0.494100 0.989143 0.924093
O O8 0.621979 0.850377 0.782497
O O9 0.538074 0.586970 0.782212
O O10 0.582132 0.785034 0.679088
O O11 0.902362 0.179211 0.261365
O O12 0.832845 0.918508 0.237893
O O13 0.406941 0.905096 0.196337
O O14 0.786935 0.657311 0.210299
#
# Coordination Sequence:
#
# PCOD9136028 Si02
#       7
#     4   4   4   4   4   4   4
#     4  10  22  41  65  90 126 166 206 257 310 368
#     4  10  21  39  64  91 125 166 207 256 313 369
#     4   9  20  41  62  89 127 160 208 261 304 372
#     4   9  20  41  61  86 124 163 205 252 305 369
#     4  10  22  40  63  93 123 160 210 253 307 372
#     4  10  22  40  64  94 125 163 211 258 310 371
#     4  10  21  38  63  91 124 162 205 259 313 365
#
# _framework density 23.483355
#
# number of rings (size 3 to 8) (size 9 to 14) (size 15 to 20)
#    0.000    2.286    0.000    1.714    0.000   14.857 
#    0.000   14.286    0.000    6.857    0.000    0.000 
#    0.000    0.000    0.000    0.000    0.000    0.000 
#
# Total GULP energy -78022.361330 kJ/mol
# GULP energy per Si atom -5573.025809 kJ/mol
# Density = 2.342991 g / cm^3
# Si number density = 23.483355 Si / 1000 Ang^3
#
#
#
# Elastic Constant Matrix: (Units=GPa)
#
#
# Indices 1 2 3 4 5 6 
#
# 1 59.8924 17.5851 4.5615 0.0000 -12.1635 0.0000
# 2 17.5851 105.2367 9.7702 -0.0001 -7.9384 0.0000
# 3 4.5615 9.7702 57.9627 -0.0004 -21.6658 0.0000
# 4 0.0000 -0.0001 -0.0004 38.8344 0.0001 -3.4194
# 5 -12.1635 -7.9384 -21.6658 0.0001 34.1370 0.0000
# 6 0.0000 0.0000 0.0000 -3.4194 0.0000 33.3194
#
#
#
# Elastic Compliance Matrix: (Units=1/GPa)
#
#
# Indices 1 2 3 4 5 6 
#
# 1 0.018826 -0.002762 0.001640 0.000000 0.007107 0.000000
# 2 -0.002762 0.010125 -0.001281 0.000000 0.000557 0.000000
# 3 0.001640 -0.001281 0.022873 0.000000 0.014803 0.000000
# 4 0.000000 0.000000 0.000000 0.025985 0.000000 0.002667
# 5 0.007107 0.000557 0.014803 0.000000 0.041351 0.000000
# 6 0.000000 0.000000 0.000000 0.002667 0.000000 0.030286
#
#
# Mechanical properties :
#
#
# Convention : Reuss Voigt Hill
#
# Bulk Modulus (GPa) = 21.26826 31.88059 26.57443
# Shear Modulus (GPa) = 29.42502 34.00317 31.71410
#
# Velocity S-wave (km/s) = 3.54364 3.80935 3.67889
# Velocity P-wave (km/s) = 5.08129 5.74051 5.42093
#
# Compressibility (1/GPa) = 0.04701842
#
# Stress axis : x y z
#
# Youngs Moduli (GPa) = 53.11813 98.76653 43.72048
#
# Poissons Ratio (x) = 0.27280 -0.07172
# Poissons Ratio (y) = 0.14671 0.05600
# Poissons Ratio (z) = -0.08714 0.12652
#
# Static dielectric constant tensor:
#      x y z
#    x 2.003120 0.000000 0.011790 
#    y 0.000000 1.883020 0.000000 
#    z 0.011790 0.000000 1.970600 
# 
# From -- ./inp_files/29777.got.cif
#   From: 2010.05.17/outbox.cif.g08.bks.cpg/sg9_15_cif.got.tgz:29777.got - 2010.06.03 20:04:27.
