data_PCOD9137962
_publ_section_title
;
Structure prediction by ZEFSAII (Michael W. Deem and Ramdas Pophale) SiO2 
 PCOD9137962
Probable space group: C C
;
_chemical_formula_sum "Si O2"
_cell_formula_units_Z 28
_cell_length_a 8.000138
_cell_length_b 13.409442
_cell_length_c 12.969266
_cell_angle_alpha 90.000000
_cell_angle_beta 122.780394
_cell_angle_gamma 90.000000
_cell_volume 1169.745682
_symmetry_space_group_name_H-M "C C"
_symmetry_group_IT_number 9
_symmetry_cell_setting 'monoclinic'
loop_
_space_group_symop_operation_xyz
x,y,z
x,-y,1/2+z
1/2+x,1/2+y,z
1/2+x,1/2-y,1/2+z
loop_
_atom_site_type_symbol
_atom_site_label
_atom_site_fract_x
_atom_site_fract_y
_atom_site_fract_z
Si Si1 0.806910 0.475664 0.304730
Si Si2 0.598185 0.707891 0.976098
Si Si3 0.695911 0.191666 0.728354
Si Si4 0.282703 0.829549 0.131017
Si Si5 0.649313 0.960407 0.763941
Si Si6 0.996108 0.333847 0.525878
Si Si7 0.089245 0.025669 0.425206
O O1 0.701352 0.387747 0.203456
O O2 0.640654 0.527109 0.320268
O O3 0.966086 0.528697 0.283083
O O4 0.947752 0.422729 0.434401
O O5 0.638336 0.758994 0.099654
O O6 0.794635 0.727957 0.975403
O O7 0.394697 0.732929 0.848072
O O8 0.596405 0.586195 0.975605
O O9 0.500789 0.207676 0.732466
O O10 0.698963 0.069891 0.729176
O O11 0.165007 0.738643 0.045540
O O12 0.264926 0.913076 0.037471
O O13 0.575002 0.879977 0.658092
O O14 0.870263 0.933201 0.877189
#
# Coordination Sequence:
#
# PCOD9137962 Si02
#       7
#     4   4   4   4   4   4   4
#     4  10  22  46  66  96 144 182 230 288 348 416
#     4  10  23  44  69 101 142 181 234 288 349 420
#     4  10  23  44  69 101 142 181 234 288 349 420
#     4  11  26  44  69 104 139 181 236 288 348 418
#     4  10  24  47  71 101 142 183 236 284 351 421
#     4  11  26  44  69 104 139 181 236 288 348 418
#     4  10  24  47  71 101 142 183 236 284 351 421
#
# _framework density 23.936827999999998
#
# number of rings (size 3 to 8) (size 9 to 14) (size 15 to 20)
#    0.000    1.714    0.000    3.429   14.000    1.143 
#   15.429    0.000    0.000    0.000    0.000    0.000 
#    0.000    0.000    0.000    0.000    0.000    0.000 
#
# Total GULP energy -78157.905252 kJ/mol
# GULP energy per Si atom -5582.707518 kJ/mol
# Density = 2.388235 g / cm^3
# Si number density = 23.936828 Si / 1000 Ang^3
#
#
#
# Elastic Constant Matrix: (Units=GPa)
#
#
# Indices 1 2 3 4 5 6 
#
# 1 60.0429 29.9135 32.5182 0.0000 7.3319 0.0000
# 2 29.9135 57.0812 22.2077 0.0000 -0.5639 0.0000
# 3 32.5182 22.2077 115.7605 0.0000 19.3238 0.0000
# 4 0.0000 0.0000 0.0000 20.5772 0.0000 -0.5160
# 5 7.3319 -0.5639 19.3238 0.0000 49.5535 0.0000
# 6 0.0000 0.0000 0.0000 -0.5160 0.0000 15.3105
#
#
#
# Elastic Compliance Matrix: (Units=1/GPa)
#
#
# Indices 1 2 3 4 5 6 
#
# 1 0.025013 -0.011379 -0.004497 0.000000 -0.002077 0.000000
# 2 -0.011379 0.024251 -0.001907 0.000000 0.002703 0.000000
# 3 -0.004497 -0.001907 0.010868 0.000000 -0.003594 0.000000
# 4 0.000000 0.000000 0.000000 0.048639 0.000000 0.001639
# 5 -0.002077 0.002703 -0.003594 0.000000 0.021920 0.000000
# 6 0.000000 0.000000 0.000000 0.001639 0.000000 0.065370
#
#
# Mechanical properties :
#
#
# Convention : Reuss Voigt Hill
#
# Bulk Modulus (GPa) = 40.70752 44.68481 42.69616
# Shear Modulus (GPa) = 20.84954 26.97124 23.91039
#
# Velocity S-wave (km/s) = 2.95451 3.36038 3.16396
# Velocity P-wave (km/s) = 5.35556 5.81072 5.58778
#
# Compressibility (1/GPa) = 0.02456548
#
# Stress axis : x y z
#
# Youngs Moduli (GPa) = 39.97967 41.23578 92.01739
#
# Poissons Ratio (x) = 0.46922 0.41377
# Poissons Ratio (y) = 0.45493 0.17548
# Poissons Ratio (z) = 0.17977 0.07864
#
# Static dielectric constant tensor:
#      x y z
#    x 1.978800 0.000000 0.003070 
#    y 0.000000 1.941440 0.000000 
#    z 0.003070 0.000000 1.964510 
# 
# From -- ./inp_files/23426.got.cif
#   From: 2010.05.17/outbox.cif.g08.bks.cpg/sg9_12_cif.got.tgz:23426.got - 2010.06.03 20:04:27.
