data_PCOD9137647
_publ_section_title
;
Structure prediction by ZEFSAII (Michael W. Deem and Ramdas Pophale) SiO2 
 PCOD9137647
Probable space group: C C
;
_chemical_formula_sum "Si O2"
_cell_formula_units_Z 28
_cell_length_a 9.546587
_cell_length_b 10.632734
_cell_length_c 15.085948
_cell_angle_alpha 90.000000
_cell_angle_beta 130.964287
_cell_angle_gamma 90.000000
_cell_volume 1156.327145
_symmetry_space_group_name_H-M "C C"
_symmetry_group_IT_number 9
_symmetry_cell_setting 'monoclinic'
loop_
_space_group_symop_operation_xyz
x,y,z
x,-y,1/2+z
1/2+x,1/2+y,z
1/2+x,1/2-y,1/2+z
loop_
_atom_site_type_symbol
_atom_site_label
_atom_site_fract_x
_atom_site_fract_y
_atom_site_fract_z
Si Si1 0.954980 0.403866 0.402770
Si Si2 0.270439 0.706114 0.923691
Si Si3 0.898463 0.549051 0.212051
Si Si4 0.478366 0.491249 0.064254
Si Si5 0.124233 0.245913 0.704070
Si Si6 0.756694 0.964245 0.651723
Si Si7 0.584947 0.826630 0.177056
O O1 0.960656 0.521140 0.337907
O O2 0.750674 0.347770 0.314522
O O3 0.102367 0.304100 0.423913
O O4 0.042892 0.448053 0.529772
O O5 0.187573 0.754652 0.796598
O O6 0.338444 0.559756 0.938895
O O7 0.443673 0.770108 0.045745
O O8 0.677681 0.548244 0.124122
O O9 0.269200 0.659423 0.216507
O O10 0.964337 0.426911 0.183845
O O11 0.513458 0.342024 0.088072
O O12 0.392334 0.529385 0.124469
O O13 0.749475 0.095896 0.698252
O O14 0.988632 0.330014 0.705826
#
# Coordination Sequence:
#
# PCOD9137647 Si02
#       7
#     4   4   4   4   4   4   4
#     4   9  21  39  63 100 133 185 227 288 346 413
#     4  10  23  41  71 103 144 179 235 285 350 408
#     4   9  21  43  66 100 143 178 235 287 343 411
#     4  10  23  40  68 101 136 182 228 284 347 408
#     4  10  22  43  68  93 137 184 232 284 347 410
#     4  10  23  42  65  98 136 181 233 284 348 409
#     4  10  23  46  69 103 141 187 230 292 343 417
#
# _framework density 24.214600999999998
#
# number of rings (size 3 to 8) (size 9 to 14) (size 15 to 20)
#    0.000    2.286    0.000    0.000   14.000    6.857 
#    0.000    2.857    0.000    0.000    0.000    0.000 
#    0.000    0.000    0.000    0.000    0.000    0.000 
#
# Total GULP energy -78169.448893 kJ/mol
# GULP energy per Si atom -5583.532064 kJ/mol
# Density = 2.415949 g / cm^3
# Si number density = 24.214601 Si / 1000 Ang^3
#
#
#
# Elastic Constant Matrix: (Units=GPa)
#
#
# Indices 1 2 3 4 5 6 
#
# 1 108.5137 33.7177 16.4721 0.0000 9.5422 0.0000
# 2 33.7177 94.3077 33.8662 0.0000 4.3292 0.0000
# 3 16.4721 33.8662 121.9936 0.0000 1.3516 0.0000
# 4 0.0000 0.0000 0.0000 30.9871 0.0000 1.5763
# 5 9.5422 4.3292 1.3516 0.0000 30.9261 0.0000
# 6 0.0000 0.0000 0.0000 1.5763 0.0000 38.5282
#
#
#
# Elastic Compliance Matrix: (Units=1/GPa)
#
#
# Indices 1 2 3 4 5 6 
#
# 1 0.010616 -0.003515 -0.000427 0.000000 -0.002765 0.000000
# 2 -0.003515 0.013012 -0.003131 0.000000 -0.000600 0.000000
# 3 -0.000427 -0.003131 0.009122 0.000000 0.000171 0.000000
# 4 0.000000 0.000000 0.000000 0.032339 0.000000 -0.001323
# 5 -0.002765 -0.000600 0.000171 0.000000 0.033265 0.000000
# 6 0.000000 0.000000 0.000000 -0.001323 0.000000 0.026009
#
#
# Mechanical properties :
#
#
# Convention : Reuss Voigt Hill
#
# Bulk Modulus (GPa) = 53.75248 54.76967 54.26107
# Shear Modulus (GPa) = 34.55188 36.13889 35.34539
#
# Velocity S-wave (km/s) = 3.78153 3.86741 3.82471
# Velocity P-wave (km/s) = 6.42754 6.52763 6.47778
#
# Compressibility (1/GPa) = 0.01860379
#
# Stress axis : x y z
#
# Youngs Moduli (GPa) = 94.20113 76.85062 109.62408
#
# Poissons Ratio (x) = 0.27014 0.04680
# Poissons Ratio (y) = 0.33113 0.34323
# Poissons Ratio (z) = 0.04021 0.24062
#
# Static dielectric constant tensor:
#      x y z
#    x 1.903570 0.000000 -0.006820 
#    y 0.000000 2.060870 0.000000 
#    z -0.006820 0.000000 1.941870 
# 
# From -- ./inp_files/23596.got.cif
#   From: 2010.05.17/outbox.cif.g08.bks.cpg/sg9_12_cif.got.tgz:23596.got - 2010.06.03 20:04:27.
