data_PCOD9137145
_publ_section_title
;
Structure prediction by ZEFSAII (Michael W. Deem and Ramdas Pophale) SiO2 
 PCOD9137145
Probable space group: C C
;
_chemical_formula_sum "Si O2"
_cell_formula_units_Z 28
_cell_length_a 20.609011
_cell_length_b 7.886606
_cell_length_c 9.204612
_cell_angle_alpha 90.000000
_cell_angle_beta 50.873073
_cell_angle_gamma 90.000000
_cell_volume 1160.578511
_symmetry_space_group_name_H-M "C C"
_symmetry_group_IT_number 9
_symmetry_cell_setting 'monoclinic'
loop_
_space_group_symop_operation_xyz
x,y,z
x,-y,1/2+z
1/2+x,1/2+y,z
1/2+x,1/2-y,1/2+z
loop_
_atom_site_type_symbol
_atom_site_label
_atom_site_fract_x
_atom_site_fract_y
_atom_site_fract_z
Si Si1 0.639760 0.725879 0.781180
Si Si2 0.211783 0.769901 0.683325
Si Si3 0.303702 0.574079 0.982426
Si Si4 0.013086 0.709011 0.929599
Si Si5 0.413060 0.555422 0.086939
Si Si6 0.680258 0.481958 0.980426
Si Si7 0.990030 0.610093 0.625823
O O1 0.733208 0.786943 0.613781
O O2 0.616059 0.628248 0.667322
O O3 0.638133 0.602809 0.921639
O O4 0.578726 0.872647 0.915378
O O5 0.261105 0.600569 0.591160
O O6 0.227625 0.900892 0.529040
O O7 0.112246 0.732320 0.820213
O O8 0.233709 0.859246 0.803582
O O9 0.384010 0.607951 0.968106
O O10 0.334031 0.529516 0.779612
O O11 0.999897 0.635494 0.784413
O O12 0.966602 0.579088 0.106393
O O13 0.977079 0.899377 0.989554
O O14 0.440584 0.725016 0.134448
#
# Coordination Sequence:
#
# PCOD9137145 Si02
#       7
#     4   4   4   4   4   4   4
#     4  11  23  45  74 108 143 190 254 305 369 435
#     4  11  23  45  74 110 145 190 260 300 371 436
#     4  12  26  49  72 107 152 196 237 318 375 441
#     4  12  28  49  77 110 149 204 253 305 371 460
#     4  12  28  52  72 108 162 196 242 308 399 433
#     4  10  22  39  68 111 140 184 236 322 351 432
#     4  12  28  49  77 110 149 204 252 308 368 461
#
# _framework density 24.125897999999999
#
# number of rings (size 3 to 8) (size 9 to 14) (size 15 to 20)
#    0.000    0.571    4.286    3.429    4.000    0.000 
#   15.429    0.000    0.000    0.000    0.000    0.000 
#    0.000    0.000    0.000    0.000    0.000    0.000 
#
# Total GULP energy -78307.832979 kJ/mol
# GULP energy per Si atom -5593.416641 kJ/mol
# Density = 2.407099 g / cm^3
# Si number density = 24.125898 Si / 1000 Ang^3
#
#
#
# Elastic Constant Matrix: (Units=GPa)
#
#
# Indices 1 2 3 4 5 6 
#
# 1 58.9319 39.6852 33.9990 0.0000 15.7701 0.0000
# 2 39.6852 125.5521 37.0163 0.0000 6.7379 0.0000
# 3 33.9990 37.0163 90.4791 0.0000 25.6460 0.0000
# 4 0.0000 0.0000 0.0000 46.2688 0.0000 1.8219
# 5 15.7701 6.7379 25.6460 0.0000 46.1899 0.0000
# 6 0.0000 0.0000 0.0000 1.8219 0.0000 30.6271
#
#
#
# Elastic Compliance Matrix: (Units=1/GPa)
#
#
# Indices 1 2 3 4 5 6 
#
# 1 0.025725 -0.006164 -0.005827 0.000000 -0.004648 0.000000
# 2 -0.006164 0.010564 -0.002570 0.000000 0.001990 0.000000
# 3 -0.005827 -0.002570 0.016168 0.000000 -0.006612 0.000000
# 4 0.000000 0.000000 0.000000 0.021664 0.000000 -0.001289
# 5 -0.004648 0.001990 -0.006612 0.000000 0.026618 0.000000
# 6 0.000000 0.000000 0.000000 -0.001289 0.000000 0.032728
#
#
# Mechanical properties :
#
#
# Convention : Reuss Voigt Hill
#
# Bulk Modulus (GPa) = 42.85461 55.15158 49.00309
# Shear Modulus (GPa) = 29.34847 35.56798 32.45822
#
# Velocity S-wave (km/s) = 3.49158 3.84378 3.67191
# Velocity P-wave (km/s) = 5.83578 6.52756 6.19134
#
# Compressibility (1/GPa) = 0.02333471
#
# Stress axis : x y z
#
# Youngs Moduli (GPa) = 38.87199 94.66117 61.85203
#
# Poissons Ratio (x) = 0.58348 0.36044
# Poissons Ratio (y) = 0.23960 0.15895
# Poissons Ratio (z) = 0.22652 0.24326
#
# Static dielectric constant tensor:
#      x y z
#    x 1.921040 0.000000 -0.050710 
#    y 0.000000 1.962680 0.000000 
#    z -0.050710 0.000000 1.921280 
# 
# From -- ./inp_files/10430.got.cif
#   From: 2010.05.17/outbox.cif.g08.bks.cpg/sg9_6_cif.got.tgz:10430.got - 2010.06.03 20:04:27.
