data_PCOD9137752
_publ_section_title
;
Structure prediction by ZEFSAII (Michael W. Deem and Ramdas Pophale) SiO2 
 PCOD9137752
Probable space group: C C
;
_chemical_formula_sum "Si O2"
_cell_formula_units_Z 20
_cell_length_a 7.921084
_cell_length_b 20.957732
_cell_length_c 5.293685
_cell_angle_alpha 90.000000
_cell_angle_beta 114.820661
_cell_angle_gamma 90.000000
_cell_volume 797.616268
_symmetry_space_group_name_H-M "C C"
_symmetry_group_IT_number 9
_symmetry_cell_setting 'monoclinic'
loop_
_space_group_symop_operation_xyz
x,y,z
x,-y,1/2+z
1/2+x,1/2+y,z
1/2+x,1/2-y,1/2+z
loop_
_atom_site_type_symbol
_atom_site_label
_atom_site_fract_x
_atom_site_fract_y
_atom_site_fract_z
Si Si1 0.785790 0.878393 0.868280
Si Si2 0.948791 0.670454 0.438860
Si Si3 0.884575 0.916618 0.435306
Si Si4 0.035948 0.203396 0.199941
Si Si5 0.297915 0.035583 0.310763
O O1 0.613046 0.834490 0.838989
O O2 0.747894 0.917621 0.586663
O O3 0.966188 0.834764 0.905223
O O4 0.826357 0.929699 0.114473
O O5 0.998846 0.721943 0.683060
O O6 0.744753 0.694344 0.236041
O O7 0.906927 0.597414 0.475999
O O8 0.916017 0.838929 0.428889
O O9 0.077448 0.946862 0.651917
O O10 0.337832 0.982845 0.546981
#
# Coordination Sequence:
#
# PCOD9137752 Si02
#       5
#     4   4   4   4   4
#     4  10  22  44  67 109 139 181 236 298 369 430
#     4  11  23  46  74 108 154 186 249 299 365 445
#     4   9  21  45  69  98 140 182 242 294 363 419
#     4   9  23  41  68 108 137 195 221 311 366 417
#     4  11  25  48  74 107 146 200 246 298 357 431
#
# _framework density 25.074712000000002
#
# number of rings (size 3 to 8) (size 9 to 14) (size 15 to 20)
#    1.200    0.800    0.000    2.400    0.000    4.800 
#   10.800    6.000    0.000    0.000    0.000    0.000 
#    0.000    0.000    0.000    0.000    0.000    0.000 
#
# Total GULP energy -55685.802749 kJ/mol
# GULP energy per Si atom -5568.580275 kJ/mol
# Density = 2.501764 g / cm^3
# Si number density = 25.074712 Si / 1000 Ang^3
#
#
#
# Elastic Constant Matrix: (Units=GPa)
#
#
# Indices 1 2 3 4 5 6 
#
# 1 110.7617 16.8047 28.1978 0.0000 -12.6650 0.0000
# 2 16.8047 94.4674 21.3204 0.0000 -0.2298 0.0000
# 3 28.1978 21.3204 88.9942 0.0000 -34.8936 0.0000
# 4 0.0000 0.0000 0.0000 12.1624 0.0000 14.1046
# 5 -12.6650 -0.2298 -34.8936 0.0000 37.9576 0.0000
# 6 0.0000 0.0000 0.0000 14.1046 0.0000 32.7614
#
#
#
# Elastic Compliance Matrix: (Units=1/GPa)
#
#
# Indices 1 2 3 4 5 6 
#
# 1 0.009958 -0.001217 -0.002445 0.000000 0.001067 0.000000
# 2 -0.001217 0.011691 -0.003982 0.000000 -0.003996 0.000000
# 3 -0.002445 -0.003982 0.019757 0.000000 0.017323 0.000000
# 4 0.000000 0.000000 0.000000 0.164203 0.000000 -0.070693
# 5 0.001067 -0.003996 0.017323 0.000000 0.042601 0.000000
# 6 0.000000 0.000000 0.000000 -0.070693 0.000000 0.060959
#
#
# Mechanical properties :
#
#
# Convention : Reuss Voigt Hill
#
# Bulk Modulus (GPa) = 38.28744 47.42991 42.85867
# Shear Modulus (GPa) = 15.00769 31.76966 23.38868
#
# Velocity S-wave (km/s) = 2.44912 3.56336 3.05742
# Velocity P-wave (km/s) = 4.82701 5.99053 5.43997
#
# Compressibility (1/GPa) = 0.02611823
#
# Stress axis : x y z
#
# Youngs Moduli (GPa) = 100.42659 85.53514 50.61429
#
# Poissons Ratio (x) = 0.10409 0.12375
# Poissons Ratio (y) = 0.12221 0.20154
# Poissons Ratio (z) = 0.24554 0.34060
#
# Static dielectric constant tensor:
#      x y z
#    x 2.003730 0.000000 -0.006570 
#    y 0.000000 2.052230 0.000000 
#    z -0.006570 0.000000 2.079850 
# 
# From -- ./inp_files/895.got.cif
#   From: 2010.05.17/outbox.cif.g08.bks.cpg/sg9_1_cif.got.tgz:895.got - 2010.06.03 20:04:27.
