data_PCOD9137413
_publ_section_title
;
Structure prediction by ZEFSAII (Michael W. Deem and Ramdas Pophale) SiO2 
 PCOD9137413
Probable space group: C C
;
_chemical_formula_sum "Si O2"
_cell_formula_units_Z 32
_cell_length_a 12.846758
_cell_length_b 12.299322
_cell_length_c 10.317281
_cell_angle_alpha 90.000000
_cell_angle_beta 130.107619
_cell_angle_gamma 90.000000
_cell_volume 1246.832598
_symmetry_space_group_name_H-M "C C"
_symmetry_group_IT_number 9
_symmetry_cell_setting 'monoclinic'
loop_
_space_group_symop_operation_xyz
x,y,z
x,-y,1/2+z
1/2+x,1/2+y,z
1/2+x,1/2-y,1/2+z
loop_
_atom_site_type_symbol
_atom_site_label
_atom_site_fract_x
_atom_site_fract_y
_atom_site_fract_z
Si Si1 0.029930 0.795464 0.320930
Si Si2 0.948301 0.738123 0.820018
Si Si3 0.598505 0.571793 0.119249
Si Si4 0.872812 0.060090 0.124167
Si Si5 0.114551 0.429142 0.022794
Si Si6 0.184329 0.297161 0.322933
Si Si7 0.852292 0.472206 0.190351
Si Si8 0.325219 0.176626 0.990222
O O1 0.024649 0.887640 0.427465
O O2 0.074903 0.684219 0.426151
O O3 0.163885 0.813328 0.340567
O O4 0.886798 0.764391 0.141935
O O5 0.917567 0.864970 0.779391
O O6 0.858924 0.653995 0.660905
O O7 0.911051 0.702860 0.933149
O O8 0.096582 0.716848 0.882539
O O9 0.666712 0.682037 0.235357
O O10 0.720260 0.496795 0.169206
O O11 0.501749 0.515344 0.148298
O O12 0.825936 0.153038 0.982674
O O13 0.749110 0.984489 0.069014
O O14 0.986480 0.503209 0.882871
O O15 0.130357 0.394350 0.185277
O O16 0.850386 0.557890 0.071763
#
# Coordination Sequence:
#
# PCOD9137413 Si02
#       8
#     4   4   4   4   4   4   4   4
#     4   9  21  42  70  98 131 179 221 277 334 411
#     4  11  25  40  65 100 132 177 221 286 330 397
#     4   9  22  41  69 101 131 175 221 274 337 404
#     4  11  24  42  65 102 136 170 224 282 339 392
#     4  10  22  41  72  96 128 176 232 269 332 410
#     4  10  23  40  68  95 132 175 222 276 331 403
#     4  10  22  43  68  99 126 180 222 273 335 410
#     4  10  23  41  69  97 136 174 227 275 340 399
#
# _framework density 25.665033000000001
#
# number of rings (size 3 to 8) (size 9 to 14) (size 15 to 20)
#    0.000    2.000    1.250    0.000   14.000    1.000 
#    2.250    2.500    0.000    0.000    0.000    0.000 
#    0.000    0.000    0.000    0.000    0.000    0.000 
#
# Total GULP energy -89529.579278 kJ/mol
# GULP energy per Si atom -5595.598705 kJ/mol
# Density = 2.560662 g / cm^3
# Si number density = 25.665033 Si / 1000 Ang^3
#
#
#
# Elastic Constant Matrix: (Units=GPa)
#
#
# Indices 1 2 3 4 5 6 
#
# 1 164.2511 32.2955 31.4396 0.0000 12.1423 0.0000
# 2 32.2955 85.3921 24.4201 0.0000 17.4225 0.0000
# 3 31.4396 24.4201 58.6661 0.0000 11.6841 0.0000
# 4 0.0000 0.0000 0.0000 24.5561 0.0000 13.3570
# 5 12.1423 17.4225 11.6841 0.0000 38.0754 0.0000
# 6 0.0000 0.0000 0.0000 13.3570 0.0000 37.5287
#
#
#
# Elastic Compliance Matrix: (Units=1/GPa)
#
#
# Indices 1 2 3 4 5 6 
#
# 1 0.007028 -0.001701 -0.002947 0.000000 -0.000558 0.000000
# 2 -0.001701 0.014533 -0.004177 0.000000 -0.004826 0.000000
# 3 -0.002947 -0.004177 0.021084 0.000000 -0.003619 0.000000
# 4 0.000000 0.000000 0.000000 0.050500 0.000000 -0.017974
# 5 -0.000558 -0.004826 -0.003619 0.000000 0.029761 0.000000
# 6 0.000000 0.000000 0.000000 -0.017974 0.000000 0.033043
#
#
# Mechanical properties :
#
#
# Convention : Reuss Voigt Hill
#
# Bulk Modulus (GPa) = 40.00701 53.84664 46.92683
# Shear Modulus (GPa) = 27.48293 34.70896 31.09594
#
# Velocity S-wave (km/s) = 3.27591 3.68147 3.48459
# Velocity P-wave (km/s) = 5.47090 6.25276 5.87485
#
# Compressibility (1/GPa) = 0.02499562
#
# Stress axis : x y z
#
# Youngs Moduli (GPa) = 142.28516 68.80815 47.42869
#
# Poissons Ratio (x) = 0.11707 0.13977
# Poissons Ratio (y) = 0.24208 0.19809
# Poissons Ratio (z) = 0.41932 0.28739
#
# Static dielectric constant tensor:
#      x y z
#    x 1.966110 0.000000 -0.020870 
#    y 0.000000 2.063610 0.000000 
#    z -0.020870 0.000000 2.074590 
# 
# From -- ./inp_files/16891.got.cif
#   From: 2010.05.17/outbox.cif.g08.bks.cpg/sg9_9_cif.got.tgz:16891.got - 2010.06.03 20:04:27.
