data_PCOD9137469
_publ_section_title
;
Structure prediction by ZEFSAII (Michael W. Deem and Ramdas Pophale) SiO2 
 PCOD9137469
Probable space group: C C
;
_chemical_formula_sum "Si O2"
_cell_formula_units_Z 28
_cell_length_a 13.144453
_cell_length_b 5.198297
_cell_length_c 14.910840
_cell_angle_alpha 90.000000
_cell_angle_beta 84.047958
_cell_angle_gamma 90.000000
_cell_volume 1013.346843
_symmetry_space_group_name_H-M "C C"
_symmetry_group_IT_number 9
_symmetry_cell_setting 'monoclinic'
loop_
_space_group_symop_operation_xyz
x,y,z
x,-y,1/2+z
1/2+x,1/2+y,z
1/2+x,1/2-y,1/2+z
loop_
_atom_site_type_symbol
_atom_site_label
_atom_site_fract_x
_atom_site_fract_y
_atom_site_fract_z
Si Si1 0.389540 0.393770 0.551170
Si Si2 0.784982 0.669182 0.997179
Si Si3 0.787262 0.250904 0.895075
Si Si4 0.850133 0.816779 0.817527
Si Si5 0.091805 0.042402 0.926050
Si Si6 0.147780 0.233474 0.735074
Si Si7 0.540158 0.232311 0.691842
O O1 0.334134 0.666579 0.573609
O O2 0.317151 0.161211 0.514012
O O3 0.477949 0.475115 0.470760
O O4 0.457206 0.268860 0.621393
O O5 0.824766 0.555512 0.888193
O O6 0.662385 0.650431 0.000615
O O7 0.795615 0.947214 0.928442
O O8 0.664398 0.297769 0.895768
O O9 0.848572 0.136502 0.803899
O O10 0.767160 0.747602 0.746944
O O11 0.968137 0.750418 0.786457
O O12 0.098338 0.222833 0.839289
O O13 0.102833 0.470175 0.684693
O O14 0.116104 0.971931 0.691002
#
# Coordination Sequence:
#
# PCOD9137469 Si02
#       7
#     4   4   4   4   4   4   4
#     4  11  23  42  62  98 137 178 216 277 339 402
#     4   8  20  39  63  92 119 164 228 266 318 376
#     4   9  20  42  67  98 119 174 232 271 322 384
#     4  10  22  42  66  96 132 168 224 283 322 389
#     4   9  21  42  70  94 125 173 232 278 320 389
#     4  11  25  45  65 100 134 177 228 272 334 398
#     4  12  29  40  67 104 138 182 212 271 353 408
#
# _framework density 27.631208999999998
#
# number of rings (size 3 to 8) (size 9 to 14) (size 15 to 20)
#    0.857    1.143    0.000    2.571    6.000    2.286 
#    5.143    0.000    0.000    0.000    0.000    0.000 
#    0.000    0.000    0.000    0.000    0.000    0.000 
#
# Total GULP energy -77989.013518 kJ/mol
# GULP energy per Si atom -5570.643823 kJ/mol
# Density = 2.756832 g / cm^3
# Si number density = 27.631209 Si / 1000 Ang^3
#
#
#
# Elastic Constant Matrix: (Units=GPa)
#
#
# Indices 1 2 3 4 5 6 
#
# 1 146.8007 45.3054 14.0314 0.0000 25.1320 0.0000
# 2 45.3054 232.4279 32.3744 0.0000 29.4474 0.0000
# 3 14.0314 32.3744 86.0812 0.0000 24.2394 0.0000
# 4 0.0000 0.0000 0.0000 31.8143 0.0000 23.5375
# 5 25.1320 29.4474 24.2394 0.0000 51.2295 0.0000
# 6 0.0000 0.0000 0.0000 23.5375 0.0000 30.0567
#
#
#
# Elastic Compliance Matrix: (Units=1/GPa)
#
#
# Indices 1 2 3 4 5 6 
#
# 1 0.007689 -0.001106 0.000053 0.000000 -0.003162 0.000000
# 2 -0.001106 0.004900 -0.001179 0.000000 -0.001716 0.000000
# 3 0.000053 -0.001179 0.013693 0.000000 -0.005827 0.000000
# 4 0.000000 0.000000 0.000000 0.074727 0.000000 -0.058519
# 5 -0.003162 -0.001716 -0.005827 0.000000 0.024814 0.000000
# 6 0.000000 0.000000 0.000000 -0.058519 0.000000 0.079097
#
#
# Mechanical properties :
#
#
# Convention : Reuss Voigt Hill
#
# Bulk Modulus (GPa) = 45.83539 72.08136 58.95838
# Shear Modulus (GPa) = 23.07805 47.52669 35.30237
#
# Velocity S-wave (km/s) = 2.89315 4.15183 3.57827
# Velocity P-wave (km/s) = 5.27112 7.00908 6.20128
#
# Compressibility (1/GPa) = 0.02181720
#
# Stress axis : x y z
#
# Youngs Moduli (GPa) = 130.04915 204.09903 73.03228
#
# Poissons Ratio (x) = 0.22565 -0.00385
# Poissons Ratio (y) = 0.14378 0.08613
# Poissons Ratio (z) = -0.00685 0.24069
#
# Static dielectric constant tensor:
#      x y z
#    x 1.998500 0.000000 -0.022910 
#    y 0.000000 2.172820 0.000000 
#    z -0.022910 0.000000 2.526510 
# 
# From -- ./inp_files/30309.got.cif
#   From: 2010.05.17/outbox.cif.g08.bks.cpg/sg9_16_cif.got.tgz:30309.got - 2010.06.03 20:04:27.
