data_PCOD9137410
_publ_section_title
;
Structure prediction by ZEFSAII (Michael W. Deem and Ramdas Pophale) SiO2 
 PCOD9137410
Probable space group: C C
;
_chemical_formula_sum "Si O2"
_cell_formula_units_Z 32
_cell_length_a 12.323806
_cell_length_b 6.788446
_cell_length_c 14.486787
_cell_angle_alpha 90.000000
_cell_angle_beta 97.573418
_cell_angle_gamma 90.000000
_cell_volume 1201.385081
_symmetry_space_group_name_H-M "C C"
_symmetry_group_IT_number 9
_symmetry_cell_setting 'monoclinic'
loop_
_space_group_symop_operation_xyz
x,y,z
x,-y,1/2+z
1/2+x,1/2+y,z
1/2+x,1/2-y,1/2+z
loop_
_atom_site_type_symbol
_atom_site_label
_atom_site_fract_x
_atom_site_fract_y
_atom_site_fract_z
Si Si1 0.238540 0.588018 0.780610
Si Si2 0.454588 0.747222 0.760497
Si Si3 0.619481 0.239854 0.419489
Si Si4 0.930477 0.829531 0.537756
Si Si5 0.706521 0.912484 0.569808
Si Si6 0.466138 0.782356 0.558358
Si Si7 0.327954 0.180934 0.871515
Si Si8 0.505685 0.276578 0.744835
O O1 0.337215 0.746183 0.795537
O O2 0.235053 0.494622 0.675747
O O3 0.281816 0.409108 0.850453
O O4 0.126482 0.705110 0.785656
O O5 0.559210 0.840424 0.821269
O O6 0.438587 0.841057 0.658641
O O7 0.487917 0.513356 0.756105
O O8 0.510188 0.311470 0.460262
O O9 0.709535 0.395278 0.393072
O O10 0.673844 0.093945 0.499862
O O11 0.802922 0.780711 0.536520
O O12 0.992745 0.745057 0.633761
O O13 0.922134 0.063086 0.548440
O O14 0.595984 0.787372 0.564772
O O15 0.408739 0.879735 0.464334
O O16 0.407593 0.172745 0.791685
#
# Coordination Sequence:
#
# PCOD9137410 Si02
#       8
#     4   4   4   4   4   4   4   4
#     4  11  21  46  75 100 141 188 231 299 357 418
#     4  10  23  44  68 100 147 189 232 290 355 418
#     4  12  25  45  72 104 140 189 233 291 355 426
#     4  11  22  47  71 102 144 185 233 294 358 417
#     4  12  24  46  74 102 143 185 235 298 359 415
#     4  11  24  45  69 102 142 188 230 292 354 418
#     4  11  23  42  69  99 143 178 233 291 349 415
#     4  10  22  41  72 105 136 188 241 285 359 421
#
# _framework density 26.635922000000001
#
# number of rings (size 3 to 8) (size 9 to 14) (size 15 to 20)
#    0.000    1.000    6.250    2.250    1.750    0.000 
#    4.500    0.000    0.000    0.000    0.000    0.000 
#    0.000    0.000    0.000    0.000    0.000    0.000 
#
# Total GULP energy -89402.378749 kJ/mol
# GULP energy per Si atom -5587.648672 kJ/mol
# Density = 2.657530 g / cm^3
# Si number density = 26.635922 Si / 1000 Ang^3
#
#
#
# Elastic Constant Matrix: (Units=GPa)
#
#
# Indices 1 2 3 4 5 6 
#
# 1 209.9751 9.8041 39.6172 0.0000 -10.3366 0.0000
# 2 9.8041 63.9235 -0.1371 0.0000 -2.8515 0.0000
# 3 39.6172 -0.1371 147.0970 0.0000 0.0722 0.0000
# 4 0.0000 0.0000 0.0000 23.0489 0.0000 1.3583
# 5 -10.3366 -2.8515 0.0722 0.0000 57.8742 0.0000
# 6 0.0000 0.0000 0.0000 1.3583 0.0000 40.0042
#
#
#
# Elastic Compliance Matrix: (Units=1/GPa)
#
#
# Indices 1 2 3 4 5 6 
#
# 1 0.005100 -0.000746 -0.001375 0.000000 0.000876 0.000000
# 2 -0.000746 0.015787 0.000215 0.000000 0.000644 0.000000
# 3 -0.001375 0.000215 0.007169 0.000000 -0.000244 0.000000
# 4 0.000000 0.000000 0.000000 0.043473 0.000000 -0.001476
# 5 0.000876 0.000644 -0.000244 0.000000 0.017467 0.000000
# 6 0.000000 0.000000 0.000000 -0.001476 0.000000 0.025048
#
#
# Mechanical properties :
#
#
# Convention : Reuss Voigt Hill
#
# Bulk Modulus (GPa) = 41.24531 57.72935 49.48733
# Shear Modulus (GPa) = 39.70265 48.96622 44.33443
#
# Velocity S-wave (km/s) = 3.86498 4.29225 4.08421
# Velocity P-wave (km/s) = 5.95280 6.80332 6.39222
#
# Compressibility (1/GPa) = 0.02424518
#
# Stress axis : x y z
#
# Youngs Moduli (GPa) = 196.08703 63.34193 139.49373
#
# Poissons Ratio (x) = 0.04726 0.19175
# Poissons Ratio (y) = 0.14629 -0.03004
# Poissons Ratio (z) = 0.26955 -0.01364
#
# Static dielectric constant tensor:
#      x y z
#    x 2.104420 0.000000 -0.060740 
#    y 0.000000 2.187120 0.000000 
#    z -0.060740 0.000000 2.097250 
# 
# From -- ./inp_files/24387.got.cif
#   From: 2010.05.17/outbox.cif.g08.bks.cpg/sg9_13_cif.got.tgz:24387.got - 2010.06.03 20:04:27.
