data_PCOD9137028
_publ_section_title
;
Structure prediction by ZEFSAII (Michael W. Deem and Ramdas Pophale) SiO2 
 PCOD9137028
Probable space group: C C
;
_chemical_formula_sum "Si O2"
_cell_formula_units_Z 32
_cell_length_a 20.876320
_cell_length_b 8.946244
_cell_length_c 8.120347
_cell_angle_alpha 90.000000
_cell_angle_beta 109.192154
_cell_angle_gamma 90.000000
_cell_volume 1432.303620
_symmetry_space_group_name_H-M "C C"
_symmetry_group_IT_number 9
_symmetry_cell_setting 'monoclinic'
loop_
_space_group_symop_operation_xyz
x,y,z
x,-y,1/2+z
1/2+x,1/2+y,z
1/2+x,1/2-y,1/2+z
loop_
_atom_site_type_symbol
_atom_site_label
_atom_site_fract_x
_atom_site_fract_y
_atom_site_fract_z
Si Si1 0.684240 0.141610 0.252220
Si Si2 0.761822 0.285886 0.914949
Si Si3 0.449059 0.628197 0.754974
Si Si4 0.777247 0.403984 0.295919
Si Si5 0.912826 0.268705 0.420441
Si Si6 0.987628 0.201512 0.164636
Si Si7 0.124393 0.365677 0.362431
Si Si8 0.322887 0.524486 0.797806
O O1 0.722802 0.293640 0.339461
O O2 0.643905 0.039438 0.347625
O O3 0.747559 0.046147 0.223560
O O4 0.631330 0.169857 0.061470
O O5 0.764107 0.422369 0.793723
O O6 0.687743 0.218648 0.836917
O O7 0.813938 0.151858 0.927449
O O8 0.773200 0.350661 0.104774
O O9 0.462906 0.742052 0.616329
O O10 0.484283 0.469486 0.735775
O O11 0.366257 0.608194 0.694521
O O12 0.467846 0.682822 0.955152
O O13 0.854390 0.383605 0.418519
O O14 0.943091 0.291141 0.264094
O O15 0.872739 0.111889 0.370926
O O16 0.057624 0.292557 0.232548
#
# Coordination Sequence:
#
# PCOD9137028 Si02
#       8
#     4   4   4   4   4   4   4   4
#     4   9  21  40  66  91 119 170 210 271 331 382
#     4  10  22  38  60  98 131 161 203 274 328 385
#     4  11  21  37  69  95 124 175 211 267 326 379
#     4  10  22  37  62  95 131 158 207 271 339 381
#     4  10  22  40  67  94 125 171 216 269 314 391
#     4  11  22  40  62  97 128 167 226 259 306 385
#     4  10  23  43  63  89 128 166 218 266 308 397
#     4   9  19  35  69  95 124 154 221 271 324 384
#
# _framework density 22.341632000000001
#
# number of rings (size 3 to 8) (size 9 to 14) (size 15 to 20)
#    0.000    2.000    2.500    0.750   10.500    3.000 
#    2.250    2.500    0.000    0.000    0.000    0.000 
#    0.000    0.000    0.000    0.000    0.000    0.000 
#
# Total GULP energy -89155.738061 kJ/mol
# GULP energy per Si atom -5572.233629 kJ/mol
# Density = 2.229078 g / cm^3
# Si number density = 22.341632 Si / 1000 Ang^3
#
#
#
# Elastic Constant Matrix: (Units=GPa)
#
#
# Indices 1 2 3 4 5 6 
#
# 1 65.4958 9.1221 23.5347 0.0000 0.5432 0.0000
# 2 9.1221 40.3453 11.2513 0.0000 -2.9807 0.0000
# 3 23.5347 11.2513 100.9359 0.0000 2.5951 0.0000
# 4 0.0000 0.0000 0.0000 27.4087 0.0000 -2.7649
# 5 0.5432 -2.9807 2.5951 0.0000 20.9139 0.0000
# 6 0.0000 0.0000 0.0000 -2.7649 0.0000 23.0710
#
#
#
# Elastic Compliance Matrix: (Units=1/GPa)
#
#
# Indices 1 2 3 4 5 6 
#
# 1 0.016973 -0.002855 -0.003629 0.000000 -0.000397 0.000000
# 2 -0.002855 0.026402 -0.002384 0.000000 0.004133 0.000000
# 3 -0.003629 -0.002384 0.011061 0.000000 -0.001618 0.000000
# 4 0.000000 0.000000 0.000000 0.036931 0.000000 0.004426
# 5 -0.000397 0.004133 -0.001618 0.000000 0.048615 0.000000
# 6 0.000000 0.000000 0.000000 0.004426 0.000000 0.043875
#
#
# Mechanical properties :
#
#
# Convention : Reuss Voigt Hill
#
# Bulk Modulus (GPa) = 27.24773 32.73257 29.99015
# Shear Modulus (GPa) = 23.38358 25.13666 24.26012
#
# Velocity S-wave (km/s) = 3.23869 3.35790 3.29883
# Velocity P-wave (km/s) = 5.11936 5.45130 5.28794
#
# Compressibility (1/GPa) = 0.03670030
#
# Stress axis : x y z
#
# Youngs Moduli (GPa) = 58.91674 37.87652 90.40990
#
# Poissons Ratio (x) = 0.10814 0.32810
# Poissons Ratio (y) = 0.16820 0.21550
# Poissons Ratio (z) = 0.21381 0.09028
#
# Static dielectric constant tensor:
#      x y z
#    x 1.871190 0.000000 -0.012550 
#    y 0.000000 1.869380 0.000000 
#    z -0.012550 0.000000 1.897170 
# 
# From -- ./inp_files/11361.got.cif
#   From: 2010.05.17/outbox.cif.g08.bks.cpg/sg9_6_cif.got.tgz:11361.got - 2010.06.03 20:04:27.
