data_PCOD9137641
_publ_section_title
;
Structure prediction by ZEFSAII (Michael W. Deem and Ramdas Pophale) SiO2 
 PCOD9137641
Probable space group: C C
;
_chemical_formula_sum "Si O2"
_cell_formula_units_Z 32
_cell_length_a 6.539411
_cell_length_b 19.723030
_cell_length_c 16.151974
_cell_angle_alpha 90.000000
_cell_angle_beta 44.508711
_cell_angle_gamma 90.000000
_cell_volume 1460.383295
_symmetry_space_group_name_H-M "C C"
_symmetry_group_IT_number 9
_symmetry_cell_setting 'monoclinic'
loop_
_space_group_symop_operation_xyz
x,y,z
x,-y,1/2+z
1/2+x,1/2+y,z
1/2+x,1/2-y,1/2+z
loop_
_atom_site_type_symbol
_atom_site_label
_atom_site_fract_x
_atom_site_fract_y
_atom_site_fract_z
Si Si1 0.750000 0.834222 0.425030
Si Si2 0.145990 0.135887 0.530982
Si Si3 0.009773 0.079219 0.396705
Si Si4 0.108563 0.670941 0.780113
Si Si5 0.694954 0.631267 0.164011
Si Si6 0.354981 0.021241 0.580507
Si Si7 0.691140 0.217944 0.328055
Si Si8 0.731213 0.440880 0.305139
O O1 0.618212 0.846752 0.373130
O O2 0.482255 0.824396 0.564575
O O3 0.973591 0.771883 0.349044
O O4 0.938876 0.897330 0.402533
O O5 0.029594 0.127092 0.470973
O O6 0.176648 0.062294 0.563603
O O7 0.465667 0.169032 0.439295
O O8 0.929098 0.179051 0.650112
O O9 0.116050 0.116436 0.282686
O O10 0.693426 0.044105 0.474865
O O11 0.220141 0.014386 0.349599
O O12 0.903184 0.735311 0.822298
O O13 0.982389 0.606817 0.766774
O O14 0.774967 0.558179 0.101661
O O15 0.410803 0.670882 0.211999
O O16 0.262550 0.047029 0.698245
#
# Coordination Sequence:
#
# PCOD9137641 Si02
#       8
#     4   4   4   4   4   4   4   4
#     4  11  24  45  68  99 142 185 231 281 336 407
#     4  12  25  44  73 101 135 183 233 284 351 407
#     4  11  24  43  71 103 142 174 222 292 354 410
#     4  11  25  44  72  97 137 187 234 279 334 407
#     4  11  25  47  70 101 143 180 227 287 348 409
#     4  11  22  44  73  99 139 174 225 295 350 407
#     4  11  27  46  65 102 139 189 233 278 337 407
#     4  10  22  43  68 104 133 176 225 282 352 404
#
# _framework density 21.912056
#
# number of rings (size 3 to 8) (size 9 to 14) (size 15 to 20)
#    0.000    1.000    5.000    0.750    3.500    2.000 
#    4.500    0.000    0.000    0.000    0.000    0.000 
#    0.000    0.000    0.000    0.000    0.000    0.000 
#
# Total GULP energy -89380.705241 kJ/mol
# GULP energy per Si atom -5586.294078 kJ/mol
# Density = 2.186218 g / cm^3
# Si number density = 21.912056 Si / 1000 Ang^3
#
#
#
# Elastic Constant Matrix: (Units=GPa)
#
#
# Indices 1 2 3 4 5 6 
#
# 1 54.0070 23.8476 34.9965 0.0000 -13.3108 0.0000
# 2 23.8476 88.0813 23.1759 0.0000 -7.4157 0.0000
# 3 34.9965 23.1759 128.1261 0.0000 -22.3526 0.0000
# 4 0.0000 0.0000 0.0000 32.7808 0.0000 -14.4745
# 5 -13.3108 -7.4157 -22.3526 0.0000 42.6089 0.0000
# 6 0.0000 0.0000 0.0000 -14.4745 0.0000 20.2677
#
#
#
# Elastic Compliance Matrix: (Units=1/GPa)
#
#
# Indices 1 2 3 4 5 6 
#
# 1 0.025192 -0.005090 -0.005220 0.000000 0.004246 0.000000
# 2 -0.005090 0.012991 -0.000927 0.000000 0.000184 0.000000
# 3 -0.005220 -0.000927 0.010001 0.000000 0.003454 0.000000
# 4 0.000000 0.000000 0.000000 0.044556 0.000000 0.031820
# 5 0.004246 0.000184 0.003454 0.000000 0.026640 0.000000
# 6 0.000000 0.000000 0.000000 0.031820 0.000000 0.072065
#
#
# Mechanical properties :
#
#
# Convention : Reuss Voigt Hill
#
# Bulk Modulus (GPa) = 38.89506 48.25050 43.57278
# Shear Modulus (GPa) = 22.47306 31.67776 27.07541
#
# Velocity S-wave (km/s) = 3.20598 3.80633 3.51898
# Velocity P-wave (km/s) = 5.61190 6.43315 6.03651
#
# Compressibility (1/GPa) = 0.02571021
#
# Stress axis : x y z
#
# Youngs Moduli (GPa) = 39.69443 76.97792 99.99057
#
# Poissons Ratio (x) = 0.39181 0.52192
# Poissons Ratio (y) = 0.20204 0.09273
# Poissons Ratio (z) = 0.20719 0.07139
#
# Static dielectric constant tensor:
#      x y z
#    x 1.769980 0.000000 -0.044380 
#    y 0.000000 1.847600 0.000000 
#    z -0.044380 0.000000 1.792110 
# 
# From -- ./inp_files/13363.got.cif
#   From: 2010.05.17/outbox.cif.g08.bks.cpg/sg9_7_cif.got.tgz:13363.got - 2010.06.03 20:04:27.
