data_PCOD9137744
_publ_section_title
;
Structure prediction by ZEFSAII (Michael W. Deem and Ramdas Pophale) SiO2 
 PCOD9137744
Probable space group: C C
;
_chemical_formula_sum "Si O2"
_cell_formula_units_Z 32
_cell_length_a 8.973932
_cell_length_b 11.722468
_cell_length_c 13.943313
_cell_angle_alpha 90.000000
_cell_angle_beta 67.525402
_cell_angle_gamma 90.000000
_cell_volume 1355.385568
_symmetry_space_group_name_H-M "C C"
_symmetry_group_IT_number 9
_symmetry_cell_setting 'monoclinic'
loop_
_space_group_symop_operation_xyz
x,y,z
x,-y,1/2+z
1/2+x,1/2+y,z
1/2+x,1/2-y,1/2+z
loop_
_atom_site_type_symbol
_atom_site_label
_atom_site_fract_x
_atom_site_fract_y
_atom_site_fract_z
Si Si1 0.349210 0.320062 0.152020
Si Si2 0.599335 0.876141 0.601576
Si Si3 0.588396 0.498189 0.068646
Si Si4 0.342397 0.807720 0.018563
Si Si5 0.127934 0.356851 0.823111
Si Si6 0.921480 0.006370 0.789734
Si Si7 0.202226 0.095735 0.849744
Si Si8 0.515047 0.879827 0.152410
O O1 0.442048 0.201303 0.119478
O O2 0.377491 0.371273 0.251827
O O3 0.163546 0.324906 0.171643
O O4 0.441250 0.418083 0.066322
O O5 0.750628 0.809555 0.517914
O O6 0.631643 0.875783 0.708338
O O7 0.572839 0.006420 0.582556
O O8 0.679465 0.569653 0.967114
O O9 0.708485 0.400981 0.078844
O O10 0.512474 0.558667 0.179236
O O11 0.447988 0.795976 0.087771
O O12 0.447282 0.861223 0.908293
O O13 0.255353 0.439811 0.843447
O O14 0.176072 0.228233 0.835443
O O15 0.056339 0.026091 0.835856
O O16 0.375811 0.075523 0.758824
#
# Coordination Sequence:
#
# PCOD9137744 Si02
#       8
#     4   4   4   4   4   4   4   4
#     4   9  21  41  68  95 133 174 232 274 339 410
#     4  11  22  48  68  96 134 187 217 292 344 401
#     4   9  21  43  64  93 140 175 217 294 333 400
#     4  11  25  45  65 102 137 174 241 272 348 421
#     4  12  24  39  73  99 132 186 228 275 357 414
#     4  10  22  44  66  97 141 176 224 289 339 408
#     4  12  24  43  69 100 139 181 231 288 347 412
#     4  12  23  43  71 100 136 181 228 290 343 404
#
# _framework density 23.609518000000001
#
# number of rings (size 3 to 8) (size 9 to 14) (size 15 to 20)
#    0.750    0.500    5.000    0.750    5.250    1.000 
#    2.250    0.000    0.000    0.000    0.000    0.000 
#    0.000    0.000    0.000    0.000    0.000    0.000 
#
# Total GULP energy -89421.567245 kJ/mol
# GULP energy per Si atom -5588.847953 kJ/mol
# Density = 2.355578 g / cm^3
# Si number density = 23.609518 Si / 1000 Ang^3
#
#
#
# Elastic Constant Matrix: (Units=GPa)
#
#
# Indices 1 2 3 4 5 6 
#
# 1 120.1821 15.5966 8.0640 0.0000 -21.5814 0.0000
# 2 15.5966 72.2232 -10.1041 0.0000 -9.5776 0.0000
# 3 8.0640 -10.1041 60.7054 0.0000 -18.4433 0.0000
# 4 0.0000 0.0000 0.0000 15.7592 0.0000 -11.5767
# 5 -21.5814 -9.5776 -18.4433 0.0000 31.2496 0.0000
# 6 0.0000 0.0000 0.0000 -11.5767 0.0000 29.0503
#
#
#
# Elastic Compliance Matrix: (Units=1/GPa)
#
#
# Indices 1 2 3 4 5 6 
#
# 1 0.009619 -0.001122 0.000547 0.000000 0.006622 0.000000
# 2 -0.001122 0.015682 0.004854 0.000000 0.006896 0.000000
# 3 0.000547 0.004854 0.021659 0.000000 0.014649 0.000000
# 4 0.000000 0.000000 0.000000 0.089720 0.000000 0.035754
# 5 0.006622 0.006896 0.014649 0.000000 0.047333 0.000000
# 6 0.000000 0.000000 0.000000 0.035754 0.000000 0.048671
#
#
# Mechanical properties :
#
#
# Convention : Reuss Voigt Hill
#
# Bulk Modulus (GPa) = 18.01217 31.13595 24.57406
# Shear Modulus (GPa) = 20.60743 31.18209 25.89476
#
# Velocity S-wave (km/s) = 2.95760 3.63814 3.31538
# Velocity P-wave (km/s) = 4.39419 5.55560 5.00867
#
# Compressibility (1/GPa) = 0.05551801
#
# Stress axis : x y z
#
# Youngs Moduli (GPa) = 103.96362 63.76732 46.17062
#
# Poissons Ratio (x) = 0.07158 -0.02527
# Poissons Ratio (y) = 0.11670 -0.22413
# Poissons Ratio (z) = -0.05689 -0.30956
#
# Static dielectric constant tensor:
#      x y z
#    x 1.945100 0.000000 -0.052940 
#    y 0.000000 1.894180 0.000000 
#    z -0.052940 0.000000 1.935310 
# 
# From -- ./inp_files/22692.got.cif
#   From: 2010.05.17/outbox.cif.g08.bks.cpg/sg9_12_cif.got.tgz:22692.got - 2010.06.03 20:04:27.
