data_PCOD9137820
_publ_section_title
;
Structure prediction by ZEFSAII (Michael W. Deem and Ramdas Pophale) SiO2 
 PCOD9137820
Probable space group: C C
;
_chemical_formula_sum "Si O2"
_cell_formula_units_Z 32
_cell_length_a 25.116033
_cell_length_b 7.637121
_cell_length_c 12.035544
_cell_angle_alpha 90.000000
_cell_angle_beta 145.788863
_cell_angle_gamma 90.000000
_cell_volume 1297.990081
_symmetry_space_group_name_H-M "C C"
_symmetry_group_IT_number 9
_symmetry_cell_setting 'monoclinic'
loop_
_space_group_symop_operation_xyz
x,y,z
x,-y,1/2+z
1/2+x,1/2+y,z
1/2+x,1/2-y,1/2+z
loop_
_atom_site_type_symbol
_atom_site_label
_atom_site_fract_x
_atom_site_fract_y
_atom_site_fract_z
Si Si1 0.186330 0.756797 0.231940
Si Si2 0.122611 0.852672 0.328752
Si Si3 0.941659 0.237595 0.625783
Si Si4 0.774248 0.922922 0.698732
Si Si5 0.217793 0.845933 0.715134
Si Si6 0.929991 0.616635 0.526065
Si Si7 0.132667 0.755468 0.792360
Si Si8 0.856287 0.768037 0.201718
O O1 0.102127 0.752069 0.177036
O O2 0.198056 0.595052 0.169389
O O3 0.267561 0.760792 0.467567
O O4 0.193088 0.945021 0.181613
O O5 0.186817 0.777521 0.539770
O O6 0.158621 0.044545 0.363380
O O7 0.023243 0.876403 0.216039
O O8 0.849864 0.202206 0.391350
O O9 0.961632 0.441831 0.642516
O O10 0.932673 0.190435 0.739310
O O11 0.710889 0.862496 0.486887
O O12 0.839381 0.075394 0.759097
O O13 0.332877 0.822572 0.925390
O O14 0.155037 0.751094 0.699951
O O15 0.884515 0.601029 0.323902
O O16 0.028187 0.716363 0.662654
#
# Coordination Sequence:
#
# PCOD9137820 Si02
#       8
#     4   4   4   4   4   4   4   4
#     4  10  22  44  71 103 139 191 237 298 368 435
#     4  11  22  46  71 103 149 189 241 306 366 449
#     4  11  26  46  73 108 144 193 250 300 379 442
#     4  11  24  48  69 103 150 191 246 299 367 445
#     4  11  22  45  76  98 147 195 236 305 376 438
#     4  12  24  46  69 107 144 192 244 308 368 444
#     4  11  26  42  71 112 141 191 253 298 380 441
#     4  11  24  45  72 100 150 186 247 306 362 440
#
# _framework density 24.653500000000001
#
# number of rings (size 3 to 8) (size 9 to 14) (size 15 to 20)
#    0.000    1.000    5.000    1.500    3.500    4.000 
#    4.500    0.000    0.000    0.000    0.000    0.000 
#    0.000    0.000    0.000    0.000    0.000    0.000 
#
# Total GULP energy -89125.928360 kJ/mol
# GULP energy per Si atom -5570.370523 kJ/mol
# Density = 2.459739 g / cm^3
# Si number density = 24.653500 Si / 1000 Ang^3
#
#
#
# Elastic Constant Matrix: (Units=GPa)
#
#
# Indices 1 2 3 4 5 6 
#
# 1 189.6976 74.1663 18.9905 0.0000 -22.9405 0.0000
# 2 74.1663 77.7757 15.5441 0.0000 -9.7478 0.0000
# 3 18.9905 15.5441 64.2588 0.0000 -3.0994 0.0000
# 4 0.0000 0.0000 0.0000 31.0333 0.0000 0.9204
# 5 -22.9405 -9.7478 -3.0994 0.0000 47.2361 0.0000
# 6 0.0000 0.0000 0.0000 0.9204 0.0000 41.6568
#
#
#
# Elastic Compliance Matrix: (Units=1/GPa)
#
#
# Indices 1 2 3 4 5 6 
#
# 1 0.008719 -0.007883 -0.000546 0.000000 0.002572 0.000000
# 2 -0.007883 0.020959 -0.002725 0.000000 0.000318 0.000000
# 3 -0.000546 -0.002725 0.016395 0.000000 0.000248 0.000000
# 4 0.000000 0.000000 0.000000 0.032245 0.000000 -0.000712
# 5 0.002572 0.000318 0.000248 0.000000 0.022501 0.000000
# 6 0.000000 0.000000 0.000000 -0.000712 0.000000 0.024021
#
#
# Mechanical properties :
#
#
# Convention : Reuss Voigt Hill
#
# Bulk Modulus (GPa) = 42.07849 61.01487 51.54668
# Shear Modulus (GPa) = 32.24345 38.85400 35.54873
#
# Velocity S-wave (km/s) = 3.62036 3.97420 3.80140
# Velocity P-wave (km/s) = 5.88057 6.77213 6.34203
#
# Compressibility (1/GPa) = 0.02376511
#
# Stress axis : x y z
#
# Youngs Moduli (GPa) = 114.68735 47.71138 60.99596
#
# Poissons Ratio (x) = 0.37612 0.03329
# Poissons Ratio (y) = 0.90411 0.16621
# Poissons Ratio (z) = 0.06260 0.13001
#
# Static dielectric constant tensor:
#      x y z
#    x 2.320970 0.000000 0.133030 
#    y 0.000000 2.029300 0.000000 
#    z 0.133030 0.000000 1.988300 
# 
# From -- ./inp_files/20815.got.cif
#   From: 2010.05.17/outbox.cif.g08.bks.cpg/sg9_11_cif.got.tgz:20815.got - 2010.06.03 20:04:27.
