data_PCOD9137926
_publ_section_title
;
Structure prediction by ZEFSAII (Michael W. Deem and Ramdas Pophale) SiO2 
 PCOD9137926
Probable space group: C C
;
_chemical_formula_sum "Si O2"
_cell_formula_units_Z 28
_cell_length_a 10.117906
_cell_length_b 9.021170
_cell_length_c 13.572249
_cell_angle_alpha 90.000000
_cell_angle_beta 66.050992
_cell_angle_gamma 90.000000
_cell_volume 1132.158859
_symmetry_space_group_name_H-M "C C"
_symmetry_group_IT_number 9
_symmetry_cell_setting 'monoclinic'
loop_
_space_group_symop_operation_xyz
x,y,z
x,-y,1/2+z
1/2+x,1/2+y,z
1/2+x,1/2-y,1/2+z
loop_
_atom_site_type_symbol
_atom_site_label
_atom_site_fract_x
_atom_site_fract_y
_atom_site_fract_z
Si Si1 0.492620 0.820375 0.919850
Si Si2 0.758428 0.496552 0.595936
Si Si3 0.603575 0.777717 0.566434
Si Si4 0.887004 0.074282 0.064832
Si Si5 0.857083 0.556441 0.264830
Si Si6 0.404517 0.275339 0.974947
Si Si7 0.828875 0.797725 0.789883
O O1 0.384239 0.861636 0.861628
O O2 0.658987 0.846242 0.839694
O O3 0.502234 0.653027 0.958927
O O4 0.412220 0.913084 0.031924
O O5 0.640653 0.612136 0.593289
O O6 0.733591 0.448099 0.716542
O O7 0.784168 0.350742 0.523548
O O8 0.742905 0.868778 0.554957
O O9 0.478156 0.859214 0.664128
O O10 0.559994 0.783444 0.464402
O O11 0.896253 0.135576 0.171560
O O12 0.879245 0.899620 0.064111
O O13 0.864308 0.379318 0.281895
O O14 0.393970 0.349718 0.873171
#
# Coordination Sequence:
#
# PCOD9137926 Si02
#       7
#     4   4   4   4   4   4   4
#     4  11  23  41  76 102 143 190 240 297 363 430
#     4  10  22  45  72 104 142 191 242 303 362 431
#     4  10  23  48  71 102 148 181 242 303 356 430
#     4  11  26  48  71 107 148 190 243 311 363 428
#     4  11  20  42  76 105 136 198 238 299 374 427
#     4  11  27  40  74 108 141 194 247 293 373 435
#     4  12  25  44  74 110 144 196 246 296 377 435
#
# _framework density 24.731511999999999
#
# number of rings (size 3 to 8) (size 9 to 14) (size 15 to 20)
#    0.000    1.143    5.714    0.000    6.000    2.286 
#    0.000    2.857   12.571    0.000    0.000    0.000 
#    0.000    0.000    0.000    0.000    0.000    0.000 
#
# Total GULP energy -78065.280602 kJ/mol
# GULP energy per Si atom -5576.091472 kJ/mol
# Density = 2.467522 g / cm^3
# Si number density = 24.731512 Si / 1000 Ang^3
#
#
#
# Elastic Constant Matrix: (Units=GPa)
#
#
# Indices 1 2 3 4 5 6 
#
# 1 110.6937 22.1683 34.8802 0.0000 24.7588 0.0000
# 2 22.1683 120.4762 25.5156 0.0000 -12.4765 0.0000
# 3 34.8802 25.5156 113.3383 0.0000 28.0595 0.0000
# 4 0.0000 0.0000 0.0000 29.9761 0.0000 1.7954
# 5 24.7588 -12.4765 28.0595 0.0000 35.4273 0.0000
# 6 0.0000 0.0000 0.0000 1.7954 0.0000 33.2147
#
#
#
# Elastic Compliance Matrix: (Units=1/GPa)
#
#
# Indices 1 2 3 4 5 6 
#
# 1 0.011800 -0.002878 -0.000860 0.000000 -0.008579 0.000000
# 2 -0.002878 0.010474 -0.003587 0.000000 0.008541 0.000000
# 3 -0.000860 -0.003587 0.012513 0.000000 -0.010573 0.000000
# 4 0.000000 0.000000 0.000000 0.033468 0.000000 -0.001809
# 5 -0.008579 0.008541 -0.010573 0.000000 0.045604 0.000000
# 6 0.000000 0.000000 0.000000 -0.001809 0.000000 0.030205
#
#
# Mechanical properties :
#
#
# Convention : Reuss Voigt Hill
#
# Bulk Modulus (GPa) = 49.65613 56.62627 53.14120
# Shear Modulus (GPa) = 30.22508 37.18655 33.70582
#
# Velocity S-wave (km/s) = 3.49969 3.88185 3.69571
# Velocity P-wave (km/s) = 6.03756 6.56032 6.30436
#
# Compressibility (1/GPa) = 0.02013850
#
# Stress axis : x y z
#
# Youngs Moduli (GPa) = 84.74560 95.47432 79.91828
#
# Poissons Ratio (x) = 0.27474 0.06870
# Poissons Ratio (y) = 0.24387 0.28665
# Poissons Ratio (z) = 0.07285 0.34245
#
# Static dielectric constant tensor:
#      x y z
#    x 2.035370 0.000000 0.046650 
#    y 0.000000 2.074780 0.000000 
#    z 0.046650 0.000000 2.020970 
# 
# From -- ./inp_files/24173.got.cif
#   From: 2010.05.17/outbox.cif.g08.bks.cpg/sg9_13_cif.got.tgz:24173.got - 2010.06.03 20:04:27.
