data_PCOD9137196
_publ_section_title
;
Structure prediction by ZEFSAII (Michael W. Deem and Ramdas Pophale) SiO2 
 PCOD9137196
Probable space group: C C
;
_chemical_formula_sum "Si O2"
_cell_formula_units_Z 20
_cell_length_a 6.982411
_cell_length_b 22.041600
_cell_length_c 7.299008
_cell_angle_alpha 90.000000
_cell_angle_beta 138.836410
_cell_angle_gamma 90.000000
_cell_volume 739.396898
_symmetry_space_group_name_H-M "C C"
_symmetry_group_IT_number 9
_symmetry_cell_setting 'monoclinic'
loop_
_space_group_symop_operation_xyz
x,y,z
x,-y,1/2+z
1/2+x,1/2+y,z
1/2+x,1/2-y,1/2+z
loop_
_atom_site_type_symbol
_atom_site_label
_atom_site_fract_x
_atom_site_fract_y
_atom_site_fract_z
Si Si1 0.218780 0.706854 0.356460
Si Si2 0.767398 0.120848 0.734174
Si Si3 0.517853 0.707492 0.190908
Si Si4 0.279074 0.059687 0.570698
Si Si5 0.864447 0.003810 0.982146
O O1 0.420393 0.760773 0.583107
O O2 0.367849 0.685556 0.272788
O O3 0.203528 0.654848 0.499329
O O4 0.315052 0.239373 0.460886
O O5 0.481132 0.115842 0.661753
O O6 0.002589 0.158012 0.020309
O O7 0.850570 0.049222 0.787790
O O8 0.071847 0.044328 0.254838
O O9 0.047157 0.055906 0.565757
O O10 0.522827 0.007284 0.781715
#
# Coordination Sequence:
#
# PCOD9137196 Si02
#       5
#     4   4   4   4   4
#     4  10  22  40  63  97 134 169 219 279 338 404
#     4  10  24  38  72  92 136 176 230 264 352 398
#     4  10  22  40  63  97 134 169 219 279 338 404
#     4  10  23  43  64  94 132 176 229 278 337 397
#     4  10  23  43  64  94 132 176 229 278 337 397
#
# _framework density 27.049071000000001
#
# number of rings (size 3 to 8) (size 9 to 14) (size 15 to 20)
#    1.200    0.800    0.000    2.400    5.600    0.000 
#    7.200    0.000    0.000    0.000    0.000    0.000 
#    0.000    0.000    0.000    0.000    0.000    0.000 
#
# Total GULP energy -55880.925816 kJ/mol
# GULP energy per Si atom -5588.092582 kJ/mol
# Density = 2.698751 g / cm^3
# Si number density = 27.049071 Si / 1000 Ang^3
#
#
#
# Elastic Constant Matrix: (Units=GPa)
#
#
# Indices 1 2 3 4 5 6 
#
# 1 89.7840 7.6943 20.7359 0.0000 14.1650 0.0000
# 2 7.6943 60.3419 3.7157 0.0000 23.1583 0.0000
# 3 20.7359 3.7157 154.2072 0.0000 9.2890 0.0000
# 4 0.0000 0.0000 0.0000 27.7203 0.0000 7.8834
# 5 14.1650 23.1583 9.2890 0.0000 42.1520 0.0000
# 6 0.0000 0.0000 0.0000 7.8834 0.0000 41.4842
#
#
#
# Elastic Compliance Matrix: (Units=1/GPa)
#
#
# Indices 1 2 3 4 5 6 
#
# 1 0.012050 -0.000018 -0.001395 0.000000 -0.003732 0.000000
# 2 -0.000018 0.021006 0.000194 0.000000 -0.011577 0.000000
# 3 -0.001395 0.000194 0.006735 0.000000 -0.001122 0.000000
# 4 0.000000 0.000000 0.000000 0.038136 0.000000 -0.007247
# 5 -0.003732 -0.011577 -0.001122 0.000000 0.031585 0.000000
# 6 0.000000 0.000000 0.000000 -0.007247 0.000000 0.025483
#
#
# Mechanical properties :
#
#
# Convention : Reuss Voigt Hill
#
# Bulk Modulus (GPa) = 26.77250 40.95830 33.86540
# Shear Modulus (GPa) = 33.35878 40.41710 36.88794
#
# Velocity S-wave (km/s) = 3.51560 3.86970 3.69689
# Velocity P-wave (km/s) = 5.13795 5.92800 5.54706
#
# Compressibility (1/GPa) = 0.03735177
#
# Stress axis : x y z
#
# Youngs Moduli (GPa) = 82.98475 47.60601 148.47163
#
# Poissons Ratio (x) = 0.00088 0.20714
# Poissons Ratio (y) = 0.00153 -0.02876
# Poissons Ratio (z) = 0.11578 -0.00922
#
# Static dielectric constant tensor:
#      x y z
#    x 2.265610 0.000000 -0.054100 
#    y 0.000000 2.208280 0.000000 
#    z -0.054100 0.000000 2.071660 
# 
# From -- ./inp_files/4102.got.cif
#   From: 2010.05.17/outbox.cif.g08.bks.cpg/sg9_3_cif.got.tgz:4102.got - 2010.06.03 20:04:27.
