data_PCOD9137800
_publ_section_title
;
Structure prediction by ZEFSAII (Michael W. Deem and Ramdas Pophale) SiO2 
 PCOD9137800
Probable space group: C C
;
_chemical_formula_sum "Si O2"
_cell_formula_units_Z 32
_cell_length_a 12.696427
_cell_length_b 6.987127
_cell_length_c 18.340749
_cell_angle_alpha 90.000000
_cell_angle_beta 52.442954
_cell_angle_gamma 90.000000
_cell_volume 1289.827832
_symmetry_space_group_name_H-M "C C"
_symmetry_group_IT_number 9
_symmetry_cell_setting 'monoclinic'
loop_
_space_group_symop_operation_xyz
x,y,z
x,-y,1/2+z
1/2+x,1/2+y,z
1/2+x,1/2-y,1/2+z
loop_
_atom_site_type_symbol
_atom_site_label
_atom_site_fract_x
_atom_site_fract_y
_atom_site_fract_z
Si Si1 0.731350 0.217620 0.887980
Si Si2 0.900329 0.875733 0.178931
Si Si3 0.711581 0.577952 0.687046
Si Si4 0.644200 0.024619 0.712485
Si Si5 0.680360 0.555035 0.534754
Si Si6 0.916106 0.678040 0.714119
Si Si7 0.749617 0.794061 0.922895
Si Si8 0.029034 0.813369 0.863479
O O1 0.840438 0.217771 0.777383
O O2 0.696493 0.997394 0.919269
O O3 0.603837 0.325591 0.908037
O O4 0.776779 0.323628 0.941777
O O5 0.923470 0.098462 0.190899
O O6 0.845599 0.431663 0.177888
O O7 0.047142 0.817064 0.095617
O O8 0.666099 0.799356 0.705657
O O9 0.598991 0.455668 0.775856
O O10 0.788785 0.122260 0.663313
O O11 0.729103 0.522153 0.595844
O O12 0.565425 0.103274 0.816491
O O13 0.657652 0.354374 0.503308
O O14 0.555144 0.094275 0.682973
O O15 0.814450 0.686167 0.825797
O O16 0.873225 0.839623 0.924493
#
# Coordination Sequence:
#
# PCOD9137800 Si02
#       8
#     4   4   4   4   4   4   4   4
#     4  10  23  47  71 102 141 195 236 296 373 430
#     4   9  21  44  70 103 141 183 251 304 356 439
#     4  11  23  39  67 108 136 179 242 293 362 447
#     4   9  20  41  71  99 131 187 235 294 369 424
#     4  12  25  43  66 108 144 188 243 303 361 434
#     4   9  19  43  75  92 135 194 235 301 376 432
#     4  10  23  45  66 100 145 178 243 306 358 436
#     4  10  22  44  70 100 135 188 241 301 367 436
#
# _framework density 24.809511000000001
#
# number of rings (size 3 to 8) (size 9 to 14) (size 15 to 20)
#    0.000    2.000    0.000    3.750    0.000    9.000 
#   18.000    1.250    0.000    0.000    0.000    0.000 
#    0.000    0.000    0.000    0.000    0.000    0.000 
#
# Total GULP energy -89570.221361 kJ/mol
# GULP energy per Si atom -5598.138835 kJ/mol
# Density = 2.475304 g / cm^3
# Si number density = 24.809511 Si / 1000 Ang^3
#
#
#
# Elastic Constant Matrix: (Units=GPa)
#
#
# Indices 1 2 3 4 5 6 
#
# 1 168.8753 24.2001 46.7180 0.0000 13.1962 0.0000
# 2 24.2001 94.2993 34.2689 0.0000 18.0052 0.0001
# 3 46.7180 34.2689 98.1920 0.0000 22.3334 0.0000
# 4 0.0000 0.0000 0.0000 31.4760 0.0000 10.5437
# 5 13.1962 18.0052 22.3334 0.0000 33.5130 0.0000
# 6 0.0000 0.0001 0.0000 10.5437 0.0000 34.2576
#
#
#
# Elastic Compliance Matrix: (Units=1/GPa)
#
#
# Indices 1 2 3 4 5 6 
#
# 1 0.006859 -0.000608 -0.002960 0.000000 -0.000402 0.000000
# 2 -0.000608 0.012765 -0.003136 0.000000 -0.004529 0.000000
# 3 -0.002960 -0.003136 0.014189 0.000000 -0.006606 0.000000
# 4 0.000000 0.000000 0.000000 0.035422 0.000000 -0.010902
# 5 -0.000402 -0.004529 -0.006606 0.000000 0.036833 0.000000
# 6 0.000000 0.000000 0.000000 -0.010902 0.000000 0.032546
#
#
# Mechanical properties :
#
#
# Convention : Reuss Voigt Hill
#
# Bulk Modulus (GPa) = 49.00462 63.52675 56.26568
# Shear Modulus (GPa) = 31.48176 36.92797 34.20486
#
# Velocity S-wave (km/s) = 3.56608 3.86224 3.71711
# Velocity P-wave (km/s) = 6.06227 6.74912 6.41490
#
# Compressibility (1/GPa) = 0.02040624
#
# Stress axis : x y z
#
# Youngs Moduli (GPa) = 145.79743 78.34055 70.47670
#
# Poissons Ratio (x) = 0.04762 0.20860
# Poissons Ratio (y) = 0.08863 0.22098
# Poissons Ratio (z) = 0.43153 0.24564
#
# Static dielectric constant tensor:
#      x y z
#    x 1.989730 0.000000 -0.012980 
#    y 0.000000 2.009320 0.000000 
#    z -0.012980 0.000000 1.964530 
# 
# From -- ./inp_files/35904.got.cif
#   From: 2010.05.17/outbox.cif.g08.bks.cpg/sg9_18_cif.got.tgz:35904.got - 2010.06.03 20:04:27.
