data_PCOD9137683
_publ_section_title
;
Structure prediction by ZEFSAII (Michael W. Deem and Ramdas Pophale) SiO2 
 PCOD9137683
Probable space group: C C
;
_chemical_formula_sum "Si O2"
_cell_formula_units_Z 32
_cell_length_a 8.347871
_cell_length_b 14.703116
_cell_length_c 12.406376
_cell_angle_alpha 90.000000
_cell_angle_beta 61.017892
_cell_angle_gamma 90.000000
_cell_volume 1332.062057
_symmetry_space_group_name_H-M "C C"
_symmetry_group_IT_number 9
_symmetry_cell_setting 'monoclinic'
loop_
_space_group_symop_operation_xyz
x,y,z
x,-y,1/2+z
1/2+x,1/2+y,z
1/2+x,1/2-y,1/2+z
loop_
_atom_site_type_symbol
_atom_site_label
_atom_site_fract_x
_atom_site_fract_y
_atom_site_fract_z
Si Si1 0.682510 0.898415 0.814430
Si Si2 0.238980 0.468738 0.115530
Si Si3 0.981034 0.908336 0.389649
Si Si4 0.009974 0.797578 0.979700
Si Si5 0.961760 0.362173 0.089777
Si Si6 0.582316 0.599187 0.267214
Si Si7 0.576933 0.729567 0.703426
Si Si8 0.702049 0.321083 0.511714
O O1 0.732696 0.990107 0.735991
O O2 0.622111 0.823066 0.748281
O O3 0.870898 0.870944 0.812505
O O4 0.526154 0.902746 0.954501
O O5 0.377871 0.384494 0.052521
O O6 0.039092 0.432636 0.150647
O O7 0.312636 0.547700 0.011492
O O8 0.931160 0.828304 0.321857
O O9 0.122146 0.868784 0.432410
O O10 0.070457 0.994745 0.302381
O O11 0.904665 0.719004 0.948778
O O12 0.055692 0.760796 0.082845
O O13 0.149885 0.842003 0.847859
O O14 0.753904 0.334946 0.159240
O O15 0.071624 0.267281 0.068966
O O16 0.683196 0.616794 0.123190
#
# Coordination Sequence:
#
# PCOD9137683 Si02
#       8
#     4   4   4   4   4   4   4   4
#     4  12  21  43  71  96 136 180 232 283 343 406
#     4  10  22  43  70  95 128 179 235 279 344 406
#     4  11  21  39  74  99 128 182 231 286 341 406
#     4  10  24  43  66 101 132 179 227 279 345 412
#     4  11  23  44  68 100 135 182 230 282 344 411
#     4  11  21  40  71  95 131 177 232 283 338 412
#     4  12  25  41  68 101 142 177 231 283 345 412
#     4  11  21  43  70  97 130 182 232 273 346 411
#
# _framework density 24.022905999999999
#
# number of rings (size 3 to 8) (size 9 to 14) (size 15 to 20)
#    0.000    1.000    7.500    0.750    1.750    1.000 
#    6.750    0.000    0.000    0.000    0.000    0.000 
#    0.000    0.000    0.000    0.000    0.000    0.000 
#
# Total GULP energy -89507.882826 kJ/mol
# GULP energy per Si atom -5594.242677 kJ/mol
# Density = 2.396823 g / cm^3
# Si number density = 24.022906 Si / 1000 Ang^3
#
#
#
# Elastic Constant Matrix: (Units=GPa)
#
#
# Indices 1 2 3 4 5 6 
#
# 1 53.5600 18.4064 -0.9138 0.0000 23.6428 0.0000
# 2 18.4064 88.4490 29.0813 0.0000 25.3208 0.0000
# 3 -0.9138 29.0813 79.3830 0.0000 31.0510 0.0000
# 4 0.0000 0.0000 0.0000 51.0006 0.0000 21.5221
# 5 23.6428 25.3208 31.0510 0.0000 42.1728 0.0000
# 6 0.0000 0.0000 0.0000 21.5221 0.0000 36.6151
#
#
#
# Elastic Compliance Matrix: (Units=1/GPa)
#
#
# Indices 1 2 3 4 5 6 
#
# 1 0.029800 -0.003173 0.010246 0.000000 -0.022345 0.000000
# 2 -0.003173 0.014360 -0.003681 0.000000 -0.004133 0.000000
# 3 0.010246 -0.003681 0.021694 0.000000 -0.019507 0.000000
# 4 0.000000 0.000000 0.000000 0.026076 0.000000 -0.015327
# 5 -0.022345 -0.004133 -0.019507 0.000000 0.053082 0.000000
# 6 0.000000 0.000000 0.000000 -0.015327 0.000000 0.036320
#
#
# Mechanical properties :
#
#
# Convention : Reuss Voigt Hill
#
# Bulk Modulus (GPa) = 13.76719 34.94887 24.35803
# Shear Modulus (GPa) = 25.15605 37.61223 31.38414
#
# Velocity S-wave (km/s) = 3.23951 3.96116 3.61837
# Velocity P-wave (km/s) = 4.44251 5.95826 5.25532
#
# Compressibility (1/GPa) = 0.07263646
#
# Stress axis : x y z
#
# Youngs Moduli (GPa) = 33.55755 69.64018 46.09659
#
# Poissons Ratio (x) = 0.22099 -0.47230
# Poissons Ratio (y) = 0.10649 0.16966
# Poissons Ratio (z) = -0.34382 0.25631
#
# Static dielectric constant tensor:
#      x y z
#    x 1.940380 0.000000 -0.023490 
#    y 0.000000 1.887490 0.000000 
#    z -0.023490 0.000000 1.942390 
# 
# From -- ./inp_files/14573.got.cif
#   From: 2010.05.17/outbox.cif.g08.bks.cpg/sg9_8_cif.got.tgz:14573.got - 2010.06.03 20:04:27.
