data_PCOD9137651
_publ_section_title
;
Structure prediction by ZEFSAII (Michael W. Deem and Ramdas Pophale) SiO2 
 PCOD9137651
Probable space group: C C
;
_chemical_formula_sum "Si O2"
_cell_formula_units_Z 28
_cell_length_a 8.654468
_cell_length_b 11.631507
_cell_length_c 13.643889
_cell_angle_alpha 90.000000
_cell_angle_beta 129.501875
_cell_angle_gamma 90.000000
_cell_volume 1059.763310
_symmetry_space_group_name_H-M "C C"
_symmetry_group_IT_number 9
_symmetry_cell_setting 'monoclinic'
loop_
_space_group_symop_operation_xyz
x,y,z
x,-y,1/2+z
1/2+x,1/2+y,z
1/2+x,1/2-y,1/2+z
loop_
_atom_site_type_symbol
_atom_site_label
_atom_site_fract_x
_atom_site_fract_y
_atom_site_fract_z
Si Si1 0.225470 0.934714 0.179940
Si Si2 0.030973 0.281534 0.198118
Si Si3 0.744819 0.444971 0.421672
Si Si4 0.813919 0.887857 0.076231
Si Si5 0.948897 0.652634 0.174330
Si Si6 0.296120 0.503114 0.261804
Si Si7 0.897942 0.323418 0.947418
O O1 0.339869 0.825163 0.180939
O O2 0.986114 0.920844 0.070022
O O3 0.252714 0.931901 0.308521
O O4 0.324403 0.052971 0.180132
O O5 0.173290 0.393828 0.250842
O O6 0.184056 0.196035 0.312787
O O7 0.964062 0.240218 0.062691
O O8 0.854184 0.347248 0.526235
O O9 0.526765 0.476151 0.374487
O O10 0.871157 0.558682 0.495597
O O11 0.904352 0.784501 0.182558
O O12 0.787515 0.996072 0.139163
O O13 0.590807 0.846385 0.956609
O O14 0.178153 0.612367 0.256606
#
# Coordination Sequence:
#
# PCOD9137651 Si02
#       7
#     4   4   4   4   4   4   4
#     4  10  24  44  66 103 134 179 247 275 350 433
#     4  10  22  45  65 103 139 180 235 291 341 432
#     4  11  22  43  67  95 139 182 229 295 347 417
#     4  10  22  43  68  97 134 182 229 285 349 414
#     4  11  22  46  67  94 139 181 221 299 350 400
#     4   9  21  43  62  97 136 172 239 278 339 425
#     4  11  23  44  69  99 145 182 234 291 356 413
#
# _framework density 26.420992999999999
#
# number of rings (size 3 to 8) (size 9 to 14) (size 15 to 20)
#    0.000    1.714    4.286    0.857    6.000    1.143 
#    7.714    0.000    0.000    0.000    0.000    0.000 
#    0.000    0.000    0.000    0.000    0.000    0.000 
#
# Total GULP energy -78266.097170 kJ/mol
# GULP energy per Si atom -5590.435512 kJ/mol
# Density = 2.636086 g / cm^3
# Si number density = 26.420993 Si / 1000 Ang^3
#
#
#
# Elastic Constant Matrix: (Units=GPa)
#
#
# Indices 1 2 3 4 5 6 
#
# 1 171.4938 30.9150 34.6267 0.0000 17.9456 0.0000
# 2 30.9150 65.8194 1.3232 0.0000 1.1475 0.0000
# 3 34.6267 1.3232 96.1660 0.0000 0.3645 0.0000
# 4 0.0000 0.0000 0.0000 32.0030 0.0000 1.7267
# 5 17.9456 1.1475 0.3645 0.0000 46.7941 0.0000
# 6 0.0000 0.0000 0.0000 1.7267 0.0000 48.5318
#
#
#
# Elastic Compliance Matrix: (Units=1/GPa)
#
#
# Indices 1 2 3 4 5 6 
#
# 1 0.007217 -0.003292 -0.002543 0.000000 -0.002667 0.000000
# 2 -0.003292 0.016706 0.000952 0.000000 0.000846 0.000000
# 3 -0.002543 0.000952 0.011298 0.000000 0.000864 0.000000
# 4 0.000000 0.000000 0.000000 0.031307 0.000000 -0.001114
# 5 -0.002667 0.000846 0.000864 0.000000 0.022366 0.000000
# 6 0.000000 0.000000 0.000000 -0.001114 0.000000 0.020645
#
#
# Mechanical properties :
#
#
# Convention : Reuss Voigt Hill
#
# Bulk Modulus (GPa) = 39.28579 51.91210 45.59894
# Shear Modulus (GPa) = 39.12681 43.24007 41.18344
#
# Velocity S-wave (km/s) = 3.85242 4.04986 3.95237
# Velocity P-wave (km/s) = 5.88979 6.44664 6.17449
#
# Compressibility (1/GPa) = 0.02545450
#
# Stress axis : x y z
#
# Youngs Moduli (GPa) = 138.55700 59.86027 88.51060
#
# Poissons Ratio (x) = 0.19708 0.22511
# Poissons Ratio (y) = 0.45617 -0.08430
# Poissons Ratio (z) = 0.35239 -0.05701
#
# Static dielectric constant tensor:
#      x y z
#    x 2.088380 0.000000 -0.012960 
#    y 0.000000 2.067020 0.000000 
#    z -0.012960 0.000000 2.153720 
# 
# From -- ./inp_files/14439.got.cif
#   From: 2010.05.17/outbox.cif.g08.bks.cpg/sg9_8_cif.got.tgz:14439.got - 2010.06.03 20:04:27.
