data_PCOD9137323
_publ_section_title
;
Structure prediction by ZEFSAII (Michael W. Deem and Ramdas Pophale) SiO2 
 PCOD9137323
Probable space group: C C
;
_chemical_formula_sum "Si O2"
_cell_formula_units_Z 32
_cell_length_a 9.359460
_cell_length_b 10.070447
_cell_length_c 20.180246
_cell_angle_alpha 90.000000
_cell_angle_beta 43.319903
_cell_angle_gamma 90.000000
_cell_volume 1304.953796
_symmetry_space_group_name_H-M "C C"
_symmetry_group_IT_number 9
_symmetry_cell_setting 'monoclinic'
loop_
_space_group_symop_operation_xyz
x,y,z
x,-y,1/2+z
1/2+x,1/2+y,z
1/2+x,1/2-y,1/2+z
loop_
_atom_site_type_symbol
_atom_site_label
_atom_site_fract_x
_atom_site_fract_y
_atom_site_fract_z
Si Si1 0.540290 0.270932 0.803660
Si Si2 0.904725 0.428025 0.459631
Si Si3 0.164358 0.401382 0.964496
Si Si4 0.822985 0.987414 0.040707
Si Si5 0.663414 0.344234 0.375727
Si Si6 0.545677 0.855069 0.812010
Si Si7 0.464924 0.494547 0.138115
Si Si8 0.496195 0.787986 0.679099
O O1 0.508584 0.193049 0.884634
O O2 0.396288 0.400677 0.854346
O O3 0.414331 0.170606 0.796737
O O4 0.777808 0.305805 0.714559
O O5 0.664664 0.413133 0.559648
O O6 0.034621 0.477759 0.478879
O O7 0.910955 0.551687 0.405534
O O8 0.192166 0.399850 0.033504
O O9 0.091316 0.261905 0.957428
O O10 0.045297 0.022583 0.932696
O O11 0.683418 0.121003 0.090930
O O12 0.877916 0.944174 0.096158
O O13 0.582987 0.284509 0.334992
O O14 0.466650 0.831282 0.765123
O O15 0.770413 0.928120 0.734251
O O16 0.537295 0.368358 0.156340
#
# Coordination Sequence:
#
# PCOD9137323 Si02
#       8
#     4   4   4   4   4   4   4   4
#     4  10  22  41  64  94 127 169 218 260 328 394
#     4  11  21  43  71  90 135 175 213 278 331 388
#     4   9  23  40  63  97 123 167 221 259 329 387
#     4  11  23  43  65  97 133 172 219 275 330 392
#     4   9  21  43  64  94 129 170 217 264 330 392
#     4  10  23  40  67  99 129 173 221 270 333 390
#     4  11  23  41  68  99 134 173 220 277 332 391
#     4  11  24  39  66 102 130 173 227 267 333 402
#
# _framework density 24.521941999999999
#
# number of rings (size 3 to 8) (size 9 to 14) (size 15 to 20)
#    0.750    1.000    2.500    1.500    3.500    2.000 
#    0.000    3.750    0.000    0.000    0.000    0.000 
#    0.000    0.000    0.000    0.000    0.000    0.000 
#
# Total GULP energy -89360.577461 kJ/mol
# GULP energy per Si atom -5585.036091 kJ/mol
# Density = 2.446613 g / cm^3
# Si number density = 24.521942 Si / 1000 Ang^3
#
#
#
# Elastic Constant Matrix: (Units=GPa)
#
#
# Indices 1 2 3 4 5 6 
#
# 1 105.1468 25.8224 21.5657 0.0000 -10.7367 0.0000
# 2 25.8224 62.1845 14.4093 0.0000 2.0498 0.0000
# 3 21.5657 14.4093 52.7827 0.0000 -22.6101 0.0000
# 4 0.0000 0.0000 0.0000 24.8631 0.0000 2.2716
# 5 -10.7367 2.0498 -22.6101 0.0000 45.2677 0.0000
# 6 0.0000 0.0000 0.0000 2.2716 0.0000 36.9684
#
#
#
# Elastic Compliance Matrix: (Units=1/GPa)
#
#
# Indices 1 2 3 4 5 6 
#
# 1 0.011239 -0.004045 -0.002885 0.000000 0.001408 0.000000
# 2 -0.004045 0.019202 -0.005563 0.000000 -0.004607 0.000000
# 3 -0.002885 -0.005563 0.027298 0.000000 0.013202 0.000000
# 4 0.000000 0.000000 0.000000 0.040447 0.000000 -0.002485
# 5 0.001408 -0.004607 0.013202 0.000000 0.029228 0.000000
# 6 0.000000 0.000000 0.000000 -0.002485 0.000000 0.027203
#
#
# Mechanical properties :
#
#
# Convention : Reuss Voigt Hill
#
# Bulk Modulus (GPa) = 30.53052 38.18989 34.36020
# Shear Modulus (GPa) = 26.24384 31.97426 29.10905
#
# Velocity S-wave (km/s) = 3.27497 3.61488 3.44911
# Velocity P-wave (km/s) = 5.17473 5.74723 5.46848
#
# Compressibility (1/GPa) = 0.03275411
#
# Stress axis : x y z
#
# Youngs Moduli (GPa) = 88.97288 52.07823 36.63238
#
# Poissons Ratio (x) = 0.21067 0.10567
# Poissons Ratio (y) = 0.35991 0.20378
# Poissons Ratio (z) = 0.25665 0.28970
#
# Static dielectric constant tensor:
#      x y z
#    x 1.970470 0.000000 -0.006110 
#    y 0.000000 1.973670 0.000000 
#    z -0.006110 0.000000 1.920530 
# 
# From -- ./inp_files/32560.got.cif
#   From: 2010.05.17/outbox.cif.g08.bks.cpg/sg9_17_cif.got.tgz:32560.got - 2010.06.03 20:04:27.
