data_PCOD9137580
_publ_section_title
;
Structure prediction by ZEFSAII (Michael W. Deem and Ramdas Pophale) SiO2 
 PCOD9137580
Probable space group: C C
;
_chemical_formula_sum "Si O2"
_cell_formula_units_Z 28
_cell_length_a 7.954224
_cell_length_b 25.514819
_cell_length_c 5.074546
_cell_angle_alpha 90.000000
_cell_angle_beta 87.061583
_cell_angle_gamma 90.000000
_cell_volume 1028.528004
_symmetry_space_group_name_H-M "C C"
_symmetry_group_IT_number 9
_symmetry_cell_setting 'monoclinic'
loop_
_space_group_symop_operation_xyz
x,y,z
x,-y,1/2+z
1/2+x,1/2+y,z
1/2+x,1/2-y,1/2+z
loop_
_atom_site_type_symbol
_atom_site_label
_atom_site_fract_x
_atom_site_fract_y
_atom_site_fract_z
Si Si1 0.664670 0.838618 0.497200
Si Si2 0.456774 0.032306 0.635315
Si Si3 0.355013 0.289151 0.101610
Si Si4 0.477893 0.624068 0.241166
Si Si5 0.700002 0.278740 0.234205
Si Si6 0.835182 0.631989 0.333115
Si Si7 0.862260 0.967388 0.109648
O O1 0.817569 0.877697 0.561560
O O2 0.687047 0.778742 0.599691
O O3 0.496971 0.860456 0.635222
O O4 0.695490 0.825402 0.187924
O O5 0.371101 0.083533 0.525253
O O6 0.659936 0.039534 0.611494
O O7 0.414278 0.014328 0.933027
O O8 0.454187 0.318522 0.865660
O O9 0.503573 0.290413 0.303708
O O10 0.297176 0.233658 0.996329
O O11 0.448270 0.583636 0.482967
O O12 0.673302 0.620291 0.159745
O O13 0.791199 0.319708 0.035946
O O14 0.908885 0.013188 0.895944
#
# Coordination Sequence:
#
# PCOD9137580 Si02
#       7
#     4   4   4   4   4   4   4
#     4  11  23  44  71 101 146 194 254 316 381 456
#     4  10  23  47  74 117 154 201 260 320 388 473
#     4  10  24  44  71  99 152 191 263 314 385 467
#     4  10  24  44  68 108 143 198 251 309 391 461
#     4  10  24  47  67 108 145 202 254 314 387 465
#     4  11  24  48  78 110 151 207 250 325 387 463
#     4  10  22  42  75 107 153 199 252 318 393 463
#
# _framework density 27.223374
#
# number of rings (size 3 to 8) (size 9 to 14) (size 15 to 20)
#    0.000    1.714    1.429    0.857    2.000    9.143 
#   10.286    7.143    0.000    0.000    0.000    0.000 
#    0.000    0.000    0.000    0.000    0.000    0.000 
#
# Total GULP energy -78409.780617 kJ/mol
# GULP energy per Si atom -5600.698615 kJ/mol
# Density = 2.716141 g / cm^3
# Si number density = 27.223374 Si / 1000 Ang^3
#
#
#
# Elastic Constant Matrix: (Units=GPa)
#
#
# Indices 1 2 3 4 5 6 
#
# 1 158.3961 35.7819 45.8270 0.0000 -23.6536 0.0000
# 2 35.7819 100.1204 16.3663 0.0000 -11.1599 0.0000
# 3 45.8270 16.3663 101.2691 0.0000 -12.8850 0.0000
# 4 0.0000 0.0000 0.0000 45.4327 0.0000 -3.8969
# 5 -23.6536 -11.1599 -12.8850 0.0000 32.1940 0.0000
# 6 0.0000 0.0000 0.0000 -3.8969 0.0000 30.0409
#
#
#
# Elastic Compliance Matrix: (Units=1/GPa)
#
#
# Indices 1 2 3 4 5 6 
#
# 1 0.008221 -0.002002 -0.002862 0.000000 0.004201 0.000000
# 2 -0.002002 0.011038 -0.000609 0.000000 0.002112 0.000000
# 3 -0.002862 -0.000609 0.011563 0.000000 0.002314 0.000000
# 4 0.000000 0.000000 0.000000 0.022258 0.000000 0.002887
# 5 0.004201 0.002112 0.002314 0.000000 0.035806 0.000000
# 6 0.000000 0.000000 0.000000 0.002887 0.000000 0.033662
#
#
# Mechanical properties :
#
#
# Convention : Reuss Voigt Hill
#
# Bulk Modulus (GPa) = 50.31414 61.74846 56.03130
# Shear Modulus (GPa) = 35.68352 38.98754 37.33553
#
# Velocity S-wave (km/s) = 3.62438 3.78846 3.70733
# Velocity P-wave (km/s) = 6.00308 6.47055 6.24119
#
# Compressibility (1/GPa) = 0.01987513
#
# Stress axis : x y z
#
# Youngs Moduli (GPa) = 121.64128 90.59258 86.48469
#
# Poissons Ratio (x) = 0.18136 0.24753
# Poissons Ratio (y) = 0.24352 0.05270
# Poissons Ratio (z) = 0.34816 0.05520
#
# Static dielectric constant tensor:
#      x y z
#    x 2.181800 0.000000 0.074010 
#    y 0.000000 2.149120 0.000000 
#    z 0.074010 0.000000 2.193700 
# 
# From -- ./inp_files/1822.got.cif
#   From: 2010.05.17/outbox.cif.g08.bks.cpg/sg9_1_cif.got.tgz:1822.got - 2010.06.03 20:04:27.
