data_PCOD9137927
_publ_section_title
;
Structure prediction by ZEFSAII (Michael W. Deem and Ramdas Pophale) SiO2 
 PCOD9137927
Probable space group: C C
;
_chemical_formula_sum "Si O2"
_cell_formula_units_Z 28
_cell_length_a 8.436104
_cell_length_b 12.032077
_cell_length_c 13.571650
_cell_angle_alpha 90.000000
_cell_angle_beta 60.807346
_cell_angle_gamma 90.000000
_cell_volume 1202.601582
_symmetry_space_group_name_H-M "C C"
_symmetry_group_IT_number 9
_symmetry_cell_setting 'monoclinic'
loop_
_space_group_symop_operation_xyz
x,y,z
x,-y,1/2+z
1/2+x,1/2+y,z
1/2+x,1/2-y,1/2+z
loop_
_atom_site_type_symbol
_atom_site_label
_atom_site_fract_x
_atom_site_fract_y
_atom_site_fract_z
Si Si1 0.501220 0.378618 0.770800
Si Si2 0.253244 0.828166 0.326469
Si Si3 0.531594 0.347281 0.981811
Si Si4 0.439226 0.098817 0.946400
Si Si5 0.306359 0.584148 0.735041
Si Si6 0.883220 0.538055 0.164992
Si Si7 0.929734 0.700538 0.321862
O O1 0.418017 0.259445 0.775617
O O2 0.397706 0.472808 0.745296
O O3 0.713141 0.384487 0.685043
O O4 0.490571 0.403919 0.890137
O O5 0.258190 0.883227 0.434707
O O6 0.082147 0.751586 0.347433
O O7 0.297517 0.926538 0.236606
O O8 0.395022 0.394041 0.102963
O O9 0.488123 0.218065 0.977976
O O10 0.751005 0.350764 0.930313
O O11 0.593032 0.071599 0.818727
O O12 0.466304 0.017397 0.031766
O O13 0.363939 0.690544 0.782501
O O14 0.983326 0.611064 0.219433
#
# Coordination Sequence:
#
# PCOD9137927 Si02
#       7
#     4   4   4   4   4   4   4
#     4  10  24  45  69 107 142 188 248 292 369 439
#     4  11  25  47  71 110 146 182 254 303 360 447
#     4   9  21  44  76  96 147 195 236 308 365 430
#     4  10  24  43  73 106 147 196 245 299 373 441
#     4  11  21  46  73 102 147 197 238 303 367 433
#     4  11  23  48  72 101 150 190 235 308 366 433
#     4  10  22  45  72 106 135 190 248 299 366 431
#
# _framework density 23.282855999999999
#
# number of rings (size 3 to 8) (size 9 to 14) (size 15 to 20)
#    0.000    1.714    2.857    0.857    2.000    3.429 
#    5.143    0.000    0.000    0.000    0.000    0.000 
#    0.000    0.000    0.000    0.000    0.000    0.000 
#
# Total GULP energy -78171.624984 kJ/mol
# GULP energy per Si atom -5583.687499 kJ/mol
# Density = 2.322986 g / cm^3
# Si number density = 23.282856 Si / 1000 Ang^3
#
#
#
# Elastic Constant Matrix: (Units=GPa)
#
#
# Indices 1 2 3 4 5 6 
#
# 1 110.7474 28.2183 40.7635 0.0000 14.5146 0.0000
# 2 28.2183 100.6520 34.2716 0.0000 19.2057 0.0000
# 3 40.7635 34.2716 138.4500 0.0000 1.8542 0.0000
# 4 0.0000 0.0000 0.0000 13.0546 0.0000 22.0045
# 5 14.5146 19.2057 1.8542 0.0000 12.6566 0.0000
# 6 0.0000 0.0000 0.0000 22.0045 0.0000 37.3024
#
#
#
# Elastic Compliance Matrix: (Units=1/GPa)
#
#
# Indices 1 2 3 4 5 6 
#
# 1 0.012020 0.000486 -0.003472 0.000001 -0.014014 0.000000
# 2 0.000486 0.015560 -0.003678 0.000000 -0.023631 0.000000
# 3 -0.003472 -0.003678 0.009045 0.000000 0.008238 0.000000
# 4 0.000001 0.000000 0.000000 13.471495 0.000002 -7.946773
# 5 -0.014014 -0.023631 0.008238 0.000002 0.129734 -0.000001
# 6 0.000000 0.000000 0.000000 -7.946773 -0.000001 4.714572
#
#
# Mechanical properties :
#
#
# Convention : Reuss Voigt Hill
#
# Bulk Modulus (GPa) = 42.92221 61.81736 52.36979
# Shear Modulus (GPa) = 0.27213 29.04246 14.65729
#
# Velocity S-wave (km/s) = 0.34225 3.53565 2.51177
# Velocity P-wave (km/s) = 4.31640 6.57845 5.56360
#
# Compressibility (1/GPa) = 0.02329796
#
# Stress axis : x y z
#
# Youngs Moduli (GPa) = 83.19297 64.26531 110.55536
#
# Poissons Ratio (x) = -0.03125 0.38382
# Poissons Ratio (y) = -0.04045 0.40668
# Poissons Ratio (z) = 0.28883 0.23640
#
# Static dielectric constant tensor:
#      x y z
#    x 1.954140 0.000000 0.011150 
#    y 0.000000 1.865430 0.000000 
#    z 0.011150 0.000000 2.004000 
# 
# From -- ./inp_files/22840.got.cif
#   From: 2010.05.17/outbox.cif.g08.bks.cpg/sg9_12_cif.got.tgz:22840.got - 2010.06.03 20:04:27.
