data_PCOD9137539
_publ_section_title
;
Structure prediction by ZEFSAII (Michael W. Deem and Ramdas Pophale) SiO2 
 PCOD9137539
Probable space group: C C
;
_chemical_formula_sum "Si O2"
_cell_formula_units_Z 32
_cell_length_a 10.547328
_cell_length_b 10.742512
_cell_length_c 12.752896
_cell_angle_alpha 90.000000
_cell_angle_beta 62.837456
_cell_angle_gamma 90.000000
_cell_volume 1285.606415
_symmetry_space_group_name_H-M "C C"
_symmetry_group_IT_number 9
_symmetry_cell_setting 'monoclinic'
loop_
_space_group_symop_operation_xyz
x,y,z
x,-y,1/2+z
1/2+x,1/2+y,z
1/2+x,1/2-y,1/2+z
loop_
_atom_site_type_symbol
_atom_site_label
_atom_site_fract_x
_atom_site_fract_y
_atom_site_fract_z
Si Si1 0.586450 0.862884 0.868470
Si Si2 0.660480 0.143260 0.014166
Si Si3 0.403841 0.577657 0.276671
Si Si4 0.229503 0.981205 0.293459
Si Si5 0.963953 0.854845 0.514057
Si Si6 0.578810 0.349449 0.194460
Si Si7 0.138193 0.238962 0.301354
Si Si8 0.533683 0.058322 0.712654
O O1 0.739129 0.897074 0.856570
O O2 0.598175 0.753969 0.776387
O O3 0.529362 0.973060 0.819034
O O4 0.495291 0.792027 0.989232
O O5 0.818655 0.123652 0.003500
O O6 0.603938 0.275490 0.080917
O O7 0.574200 0.030055 0.100201
O O8 0.636919 0.170074 0.901248
O O9 0.440536 0.617355 0.144122
O O10 0.436723 0.429735 0.258820
O O11 0.499839 0.652922 0.324287
O O12 0.251435 0.130454 0.287450
O O13 0.192569 0.952828 0.185802
O O14 0.369535 0.902933 0.265629
O O15 0.097464 0.936005 0.417474
O O16 0.142572 0.330175 0.198570
#
# Coordination Sequence:
#
# PCOD9137539 Si02
#       8
#     4   4   4   4   4   4   4   4
#     4  10  22  42  70 101 145 190 243 314 368 452
#     4  11  24  47  73 106 142 203 247 318 387 444
#     4  11  22  43  71 106 139 199 248 303 372 453
#     4  10  23  45  71 107 146 194 246 318 373 459
#     4  11  22  44  78  98 141 202 251 305 397 446
#     4   9  20  42  72  95 144 181 246 303 369 444
#     4  11  25  44  68 107 152 184 253 311 370 455
#     4  11  24  45  67 104 149 191 248 316 374 445
#
# _framework density 24.890979000000002
#
# number of rings (size 3 to 8) (size 9 to 14) (size 15 to 20)
#    0.000    1.500    2.500    3.000    0.000    6.000 
#   13.500    0.000    0.000    0.000    0.000    0.000 
#    0.000    0.000    0.000    0.000    0.000    0.000 
#
# Total GULP energy -89365.088358 kJ/mol
# GULP energy per Si atom -5585.318022 kJ/mol
# Density = 2.483433 g / cm^3
# Si number density = 24.890979 Si / 1000 Ang^3
#
#
#
# Elastic Constant Matrix: (Units=GPa)
#
#
# Indices 1 2 3 4 5 6 
#
# 1 121.5976 18.7933 40.8337 0.0000 -1.6644 0.0000
# 2 18.7933 109.7404 30.6311 0.0000 5.5511 0.0000
# 3 40.8337 30.6311 86.7528 0.0000 10.0643 0.0000
# 4 0.0000 0.0000 0.0000 36.3279 0.0000 2.7664
# 5 -1.6644 5.5511 10.0643 0.0000 37.2328 0.0000
# 6 0.0000 0.0000 0.0000 2.7664 0.0000 46.5766
#
#
#
# Elastic Compliance Matrix: (Units=1/GPa)
#
#
# Indices 1 2 3 4 5 6 
#
# 1 0.009900 -0.000474 -0.004699 0.000000 0.001783 0.000000
# 2 -0.000474 0.010143 -0.003283 0.000000 -0.000646 0.000000
# 3 -0.004699 -0.003283 0.015347 0.000000 -0.003869 0.000000
# 4 0.000000 0.000000 0.000000 0.027652 0.000000 -0.001642
# 5 0.001783 -0.000646 -0.003869 0.000000 0.028080 0.000000
# 6 0.000000 0.000000 0.000000 -0.001642 0.000000 0.021568
#
#
# Mechanical properties :
#
#
# Convention : Reuss Voigt Hill
#
# Bulk Modulus (GPa) = 54.12264 55.40077 54.76171
# Shear Modulus (GPa) = 36.82964 39.21629 38.02296
#
# Velocity S-wave (km/s) = 3.85078 3.97359 3.91267
# Velocity P-wave (km/s) = 6.44689 6.58470 6.51616
#
# Compressibility (1/GPa) = 0.01847656
#
# Stress axis : x y z
#
# Youngs Moduli (GPa) = 101.01492 98.59341 65.15943
#
# Poissons Ratio (x) = 0.04672 0.30620
# Poissons Ratio (y) = 0.04787 0.21393
# Poissons Ratio (z) = 0.47469 0.32371
#
# Static dielectric constant tensor:
#      x y z
#    x 1.976790 0.000000 0.007230 
#    y 0.000000 2.058630 0.000000 
#    z 0.007230 0.000000 2.016460 
# 
# From -- ./inp_files/24636.got.cif
#   From: 2010.05.17/outbox.cif.g08.bks.cpg/sg9_13_cif.got.tgz:24636.got - 2010.06.03 20:04:27.
