data_PCOD9137691
_publ_section_title
;
Structure prediction by ZEFSAII (Michael W. Deem and Ramdas Pophale) SiO2 
 PCOD9137691
Probable space group: C C
;
_chemical_formula_sum "Si O2"
_cell_formula_units_Z 32
_cell_length_a 6.910174
_cell_length_b 21.076281
_cell_length_c 13.355014
_cell_angle_alpha 90.000000
_cell_angle_beta 44.765735
_cell_angle_gamma 90.000000
_cell_volume 1369.712235
_symmetry_space_group_name_H-M "C C"
_symmetry_group_IT_number 9
_symmetry_cell_setting 'monoclinic'
loop_
_space_group_symop_operation_xyz
x,y,z
x,-y,1/2+z
1/2+x,1/2+y,z
1/2+x,1/2-y,1/2+z
loop_
_atom_site_type_symbol
_atom_site_label
_atom_site_fract_x
_atom_site_fract_y
_atom_site_fract_z
Si Si1 0.805730 0.200787 0.712800
Si Si2 0.708944 0.137279 0.139897
Si Si3 0.016940 0.012594 0.954403
Si Si4 0.942130 0.197045 0.242609
Si Si5 0.949856 0.212125 0.886968
Si Si6 0.425271 0.887028 0.252543
Si Si7 0.754678 0.607286 0.464808
Si Si8 0.241889 0.587030 0.438226
O O1 0.672926 0.253001 0.687824
O O2 0.571754 0.145839 0.792585
O O3 0.853995 0.222704 0.808773
O O4 0.076796 0.166211 0.570570
O O5 0.825893 0.068690 0.065956
O O6 0.426775 0.126761 0.302808
O O7 0.929057 0.169252 0.135738
O O8 0.710317 0.186273 0.047011
O O9 0.880604 0.980264 0.907559
O O10 0.071881 0.954510 0.009152
O O11 0.307425 0.044385 0.821135
O O12 0.641616 0.231751 0.360320
O O13 0.166646 0.153876 0.809445
O O14 0.633690 0.887907 0.084007
O O15 0.982419 0.585971 0.460830
O O16 0.446397 0.637836 0.315231
#
# Coordination Sequence:
#
# PCOD9137691 Si02
#       8
#     4   4   4   4   4   4   4   4
#     4  11  23  47  80 105 148 197 244 294 382 437
#     4  10  25  48  70 108 150 189 245 306 363 430
#     4  11  24  44  71 103 150 193 247 300 366 436
#     4  10  26  45  74 107 150 191 243 306 365 443
#     4  10  23  45  74 104 148 191 240 302 363 438
#     4  10  22  43  71 102 143 191 241 302 354 430
#     4  11  24  42  77 108 144 196 245 301 368 442
#     4  11  23  44  69 105 141 188 247 301 359 428
#
# _framework density 23.362572
#
# number of rings (size 3 to 8) (size 9 to 14) (size 15 to 20)
#    0.000    1.500    2.500    0.750    3.500    6.000 
#    2.250    8.750    0.000    0.000    0.000    0.000 
#    0.000    0.000    0.000    0.000    0.000    0.000 
#
# Total GULP energy -89522.769006 kJ/mol
# GULP energy per Si atom -5595.173063 kJ/mol
# Density = 2.330940 g / cm^3
# Si number density = 23.362572 Si / 1000 Ang^3
#
#
#
# Elastic Constant Matrix: (Units=GPa)
#
#
# Indices 1 2 3 4 5 6 
#
# 1 147.1835 64.2445 23.3171 0.0000 -2.6746 0.0000
# 2 64.2445 149.1820 45.5548 0.0000 3.1298 0.0000
# 3 23.3171 45.5548 76.3191 0.0000 12.1571 0.0000
# 4 0.0000 0.0000 0.0000 35.8874 0.0000 -2.7565
# 5 -2.6746 3.1298 12.1571 0.0000 25.7064 0.0000
# 6 0.0000 0.0000 0.0000 -2.7565 0.0000 41.5361
#
#
#
# Elastic Compliance Matrix: (Units=1/GPa)
#
#
# Indices 1 2 3 4 5 6 
#
# 1 0.008448 -0.003429 -0.000801 0.000000 0.001675 0.000000
# 2 -0.003429 0.009637 -0.004825 0.000000 0.000752 0.000000
# 3 -0.000801 -0.004825 0.017463 0.000000 -0.007755 0.000000
# 4 0.000000 0.000000 0.000000 0.028008 0.000000 0.001859
# 5 0.001675 0.000752 -0.007755 0.000000 0.042651 0.000000
# 6 0.000000 0.000000 0.000000 0.001859 0.000000 0.024199
#
#
# Mechanical properties :
#
#
# Convention : Reuss Voigt Hill
#
# Bulk Modulus (GPa) = 57.34340 70.99082 64.16711
# Shear Modulus (GPa) = 32.39851 36.59719 34.49785
#
# Velocity S-wave (km/s) = 3.72798 3.96218 3.84686
# Velocity P-wave (km/s) = 6.56724 7.16829 6.87434
#
# Compressibility (1/GPa) = 0.01743880
#
# Stress axis : x y z
#
# Youngs Moduli (GPa) = 118.36820 103.76407 57.26445
#
# Poissons Ratio (x) = 0.35576 0.04590
# Poissons Ratio (y) = 0.40584 0.27628
# Poissons Ratio (z) = 0.09487 0.50063
#
# Static dielectric constant tensor:
#      x y z
#    x 1.911040 0.000000 -0.034010 
#    y 0.000000 1.888280 0.000000 
#    z -0.034010 0.000000 1.908590 
# 
# From -- ./inp_files/22303.got.cif
#   From: 2010.05.17/outbox.cif.g08.bks.cpg/sg9_12_cif.got.tgz:22303.got - 2010.06.03 20:04:27.
