data_PCOD9137834
_publ_section_title
;
Structure prediction by ZEFSAII (Michael W. Deem and Ramdas Pophale) SiO2 
 PCOD9137834
Probable space group: C C
;
_chemical_formula_sum "Si O2"
_cell_formula_units_Z 32
_cell_length_a 11.107375
_cell_length_b 9.432956
_cell_length_c 13.281398
_cell_angle_alpha 90.000000
_cell_angle_beta 113.054333
_cell_angle_gamma 90.000000
_cell_volume 1280.424785
_symmetry_space_group_name_H-M "C C"
_symmetry_group_IT_number 9
_symmetry_cell_setting 'monoclinic'
loop_
_space_group_symop_operation_xyz
x,y,z
x,-y,1/2+z
1/2+x,1/2+y,z
1/2+x,1/2-y,1/2+z
loop_
_atom_site_type_symbol
_atom_site_label
_atom_site_fract_x
_atom_site_fract_y
_atom_site_fract_z
Si Si1 0.588550 0.877893 0.316360
Si Si2 0.822995 0.434030 0.131863
Si Si3 0.555233 0.329291 0.983123
Si Si4 0.068103 0.961622 0.301990
Si Si5 0.925051 0.757348 0.502400
Si Si6 0.604650 0.825052 0.901464
Si Si7 0.852372 0.058031 0.562418
Si Si8 0.700669 0.676177 0.199439
O O1 0.438996 0.857079 0.229740
O O2 0.583878 0.806913 0.424785
O O3 0.693404 0.811008 0.273139
O O4 0.603923 0.044787 0.325818
O O5 0.804875 0.598281 0.159518
O O6 0.863912 0.383237 0.032987
O O7 0.679747 0.365286 0.093316
O O8 0.540702 0.454501 0.896021
O O9 0.430201 0.337891 0.012598
O O10 0.137641 0.816824 0.354273
O O11 0.935422 0.946599 0.192455
O O12 0.166421 0.054006 0.268571
O O13 0.963000 0.711193 0.402367
O O14 0.067445 0.800845 0.592613
O O15 0.849525 0.901309 0.509445
O O16 0.707527 0.879019 0.019388
#
# Coordination Sequence:
#
# PCOD9137834 Si02
#       8
#     4   4   4   4   4   4   4   4
#     4  10  26  41  66 111 143 180 251 298 369 435
#     4  11  21  43  77  97 142 193 238 303 359 438
#     4  11  22  46  73 101 140 199 241 290 377 435
#     4  10  22  44  73 103 137 196 248 281 382 433
#     4  10  22  46  69 105 142 186 240 301 364 430
#     4  12  25  45  67 112 145 185 245 311 365 436
#     4  11  24  46  72 102 154 189 241 315 358 439
#     4   9  20  45  69  99 137 190 236 291 360 440
#
# _framework density 24.991706000000001
#
# number of rings (size 3 to 8) (size 9 to 14) (size 15 to 20)
#    0.000    1.500    3.750    1.500    1.750    5.000 
#   11.250    0.000    0.000    0.000    0.000    0.000 
#    0.000    0.000    0.000    0.000    0.000    0.000 
#
# Total GULP energy -89369.616788 kJ/mol
# GULP energy per Si atom -5585.601049 kJ/mol
# Density = 2.493482 g / cm^3
# Si number density = 24.991706 Si / 1000 Ang^3
#
#
#
# Elastic Constant Matrix: (Units=GPa)
#
#
# Indices 1 2 3 4 5 6 
#
# 1 105.8842 50.2570 24.8024 0.0000 2.5030 0.0000
# 2 50.2570 138.3909 17.1419 0.0000 -11.1521 0.0000
# 3 24.8024 17.1419 49.7470 0.0000 14.7579 0.0000
# 4 0.0000 0.0000 0.0000 26.8386 0.0000 -0.9654
# 5 2.5030 -11.1521 14.7579 0.0000 38.6658 0.0000
# 6 0.0000 0.0000 0.0000 -0.9654 0.0000 44.2369
#
#
#
# Elastic Compliance Matrix: (Units=1/GPa)
#
#
# Indices 1 2 3 4 5 6 
#
# 1 0.012440 -0.003929 -0.004819 0.000000 -0.000099 0.000000
# 2 -0.003929 0.009254 -0.002365 0.000000 0.003826 0.000000
# 3 -0.004819 -0.002365 0.026421 0.000000 -0.010454 0.000000
# 4 0.000000 0.000000 0.000000 0.037289 0.000000 0.000814
# 5 -0.000099 0.003826 -0.010454 0.000000 0.030963 0.000000
# 6 0.000000 0.000000 0.000000 0.000814 0.000000 0.022623
#
#
# Mechanical properties :
#
#
# Convention : Reuss Voigt Hill
#
# Bulk Modulus (GPa) = 38.62638 53.15828 45.89233
# Shear Modulus (GPa) = 29.43854 35.40300 32.42077
#
# Velocity S-wave (km/s) = 3.43583 3.76784 3.60566
# Velocity P-wave (km/s) = 5.58830 6.34393 5.97806
#
# Compressibility (1/GPa) = 0.02588904
#
# Stress axis : x y z
#
# Youngs Moduli (GPa) = 80.38447 108.06248 37.84911
#
# Poissons Ratio (x) = 0.42455 0.18240
# Poissons Ratio (y) = 0.31581 0.08951
# Poissons Ratio (z) = 0.38738 0.25557
#
# Static dielectric constant tensor:
#      x y z
#    x 1.968650 0.000000 0.017780 
#    y 0.000000 1.982290 0.000000 
#    z 0.017780 0.000000 2.115960 
# 
# From -- ./inp_files/24393.got.cif
#   From: 2010.05.17/outbox.cif.g08.bks.cpg/sg9_13_cif.got.tgz:24393.got - 2010.06.03 20:04:27.
