data_PCOD9137403
_publ_section_title
;
Structure prediction by ZEFSAII (Michael W. Deem and Ramdas Pophale) SiO2 
 PCOD9137403
Probable space group: C C
;
_chemical_formula_sum "Si O2"
_cell_formula_units_Z 32
_cell_length_a 18.946350
_cell_length_b 8.807193
_cell_length_c 22.525740
_cell_angle_alpha 90.000000
_cell_angle_beta 157.268169
_cell_angle_gamma 90.000000
_cell_volume 1452.446189
_symmetry_space_group_name_H-M "C C"
_symmetry_group_IT_number 9
_symmetry_cell_setting 'monoclinic'
loop_
_space_group_symop_operation_xyz
x,y,z
x,-y,1/2+z
1/2+x,1/2+y,z
1/2+x,1/2-y,1/2+z
loop_
_atom_site_type_symbol
_atom_site_label
_atom_site_fract_x
_atom_site_fract_y
_atom_site_fract_z
Si Si1 0.915250 0.422103 0.732750
Si Si2 0.480090 0.480058 0.488339
Si Si3 0.793065 0.532441 0.320037
Si Si4 0.967891 0.748433 0.902491
Si Si5 0.854060 0.209137 0.189878
Si Si6 0.689416 0.038553 0.859886
Si Si7 0.543775 0.765821 0.953037
Si Si8 0.518968 0.647380 0.200177
O O1 0.877638 0.605641 0.704548
O O2 0.733693 0.319778 0.586391
O O3 0.993837 0.354912 0.854750
O O4 0.062194 0.415985 0.793579
O O5 0.645637 0.410535 0.655837
O O6 0.544113 0.634578 0.509006
O O7 0.316072 0.516552 0.404940
O O8 0.428846 0.371882 0.393864
O O9 0.831346 0.360714 0.330840
O O10 0.988662 0.612726 0.461909
O O11 0.689137 0.562338 0.300999
O O12 0.886868 0.833277 0.783037
O O13 0.146556 0.668736 0.013865
O O14 0.981846 0.125056 0.241471
O O15 0.569362 0.174375 0.738596
O O16 0.834424 0.107195 0.020737
#
# Coordination Sequence:
#
# PCOD9137403 Si02
#       8
#     4   4   4   4   4   4   4   4
#     4  11  24  43  64  95 137 170 219 280 334 390
#     4  11  23  44  66  96 139 175 220 281 337 397
#     4  11  23  43  65 101 134 171 228 283 330 393
#     4  12  21  43  65  96 137 172 215 283 336 386
#     4  11  22  41  65  98 132 172 220 277 330 401
#     4  10  23  46  65  96 139 176 220 281 335 402
#     4  12  20  43  67  96 129 172 222 276 330 392
#     4  10  22  41  71  92 133 176 220 271 338 401
#
# _framework density 22.031796
#
# number of rings (size 3 to 8) (size 9 to 14) (size 15 to 20)
#    0.000    1.000    6.250    1.500    0.000    1.000 
#    6.750    0.000    0.000    0.000    0.000    0.000 
#    0.000    0.000    0.000    0.000    0.000    0.000 
#
# Total GULP energy -89099.798805 kJ/mol
# GULP energy per Si atom -5568.737425 kJ/mol
# Density = 2.198165 g / cm^3
# Si number density = 22.031796 Si / 1000 Ang^3
#
#
#
# Elastic Constant Matrix: (Units=GPa)
#
#
# Indices 1 2 3 4 5 6 
#
# 1 179.8830 59.4606 40.9445 -0.0014 27.5872 -0.0003
# 2 59.4606 44.2544 18.6645 0.0009 -5.8544 0.0001
# 3 40.9445 18.6645 55.2112 0.0003 8.4408 0.0002
# 4 -0.0014 0.0009 0.0003 27.1185 -0.0003 5.6515
# 5 27.5872 -5.8544 8.4408 -0.0003 26.1944 -0.0001
# 6 -0.0003 0.0001 0.0002 5.6515 -0.0001 42.4184
#
#
#
# Elastic Compliance Matrix: (Units=1/GPa)
#
#
# Indices 1 2 3 4 5 6 
#
# 1 0.019788 -0.030094 -0.000302 0.000002 -0.027469 0.000000
# 2 -0.030094 0.074421 -0.010759 -0.000003 0.051794 0.000000
# 3 -0.000302 -0.010759 0.023447 0.000000 -0.009642 0.000000
# 4 0.000002 -0.000003 0.000000 0.037928 -0.000002 -0.005053
# 5 -0.027469 0.051794 -0.009642 -0.000002 0.081789 0.000000
# 6 0.000000 0.000000 0.000000 -0.005053 0.000000 0.024248
#
#
# Mechanical properties :
#
#
# Convention : Reuss Voigt Hill
#
# Bulk Modulus (GPa) = 28.29147 57.49863 42.89505
# Shear Modulus (GPa) = 14.05621 29.83153 21.94387
#
# Velocity S-wave (km/s) = 2.52860 3.68370 3.15939
# Velocity P-wave (km/s) = 4.62538 6.65188 5.72895
#
# Compressibility (1/GPa) = 0.03534634
#
# Stress axis : x y z
#
# Youngs Moduli (GPa) = 50.53485 13.43707 42.64861
#
# Poissons Ratio (x) = 0.40438 0.01287
# Poissons Ratio (y) = 1.52081 0.45886
# Poissons Ratio (z) = 0.01525 0.14457
#
# Static dielectric constant tensor:
#      x y z
#    x 1.852860 0.000000 -0.001680 
#    y 0.000000 1.829050 0.000000 
#    z -0.001680 0.000000 1.883490 
# 
# From -- ./inp_files/35989.got.cif
#   From: 2010.05.17/outbox.cif.g08.bks.cpg/sg9_18_cif.got.tgz:35989.got - 2010.06.03 20:04:27.
