data_PCOD9137420
_publ_section_title
;
Structure prediction by ZEFSAII (Michael W. Deem and Ramdas Pophale) SiO2 
 PCOD9137420
Probable space group: C C
;
_chemical_formula_sum "Si O2"
_cell_formula_units_Z 32
_cell_length_a 12.877172
_cell_length_b 14.244148
_cell_length_c 8.346390
_cell_angle_alpha 90.000000
_cell_angle_beta 52.407823
_cell_angle_gamma 90.000000
_cell_volume 1213.068389
_symmetry_space_group_name_H-M "C C"
_symmetry_group_IT_number 9
_symmetry_cell_setting 'monoclinic'
loop_
_space_group_symop_operation_xyz
x,y,z
x,-y,1/2+z
1/2+x,1/2+y,z
1/2+x,1/2-y,1/2+z
loop_
_atom_site_type_symbol
_atom_site_label
_atom_site_fract_x
_atom_site_fract_y
_atom_site_fract_z
Si Si1 0.314310 0.704459 0.004490
Si Si2 0.280270 0.979038 0.711806
Si Si3 0.942047 0.395274 0.824937
Si Si4 0.104651 0.908852 0.615115
Si Si5 0.137818 0.386187 0.885796
Si Si6 0.258216 0.693577 0.689710
Si Si7 0.838535 0.012213 0.431314
Si Si8 0.987130 0.286100 0.275817
O O1 0.219664 0.706340 0.249766
O O2 0.421374 0.786473 0.893766
O O3 0.256482 0.714803 0.879476
O O4 0.347002 0.594543 0.981839
O O5 0.396196 0.920045 0.689070
O O6 0.170197 0.914402 0.730443
O O7 0.340332 0.041751 0.516906
O O8 0.209445 0.053337 0.892824
O O9 0.080778 0.424252 0.770795
O O10 0.036720 0.809909 0.648240
O O11 0.981864 0.976931 0.723002
O O12 0.229948 0.453049 0.904241
O O13 0.010914 0.364024 0.116947
O O14 0.319818 0.591796 0.587268
O O15 0.107034 0.692855 0.782352
O O16 0.351123 0.762224 0.492680
#
# Coordination Sequence:
#
# PCOD9137420 Si02
#       8
#     4   4   4   4   4   4   4   4
#     4  12  26  44  73 112 143 194 263 305 371 455
#     4  10  24  46  68 105 139 189 246 303 393 431
#     4  11  27  47  74 106 148 192 250 318 376 464
#     4  10  22  41  75  95 142 187 240 311 360 462
#     4  11  27  45  73 110 152 199 245 323 380 459
#     4  10  24  45  71 106 148 197 245 316 372 453
#     4  10  25  46  71 107 151 200 245 312 390 438
#     4  10  23  44  69 101 143 194 246 294 388 440
#
# _framework density 26.379387000000001
#
# number of rings (size 3 to 8) (size 9 to 14) (size 15 to 20)
#    0.000    1.500    0.000    2.250   15.750    2.000 
#    0.000    0.000    0.000    0.000    0.000    0.000 
#    0.000    0.000    0.000    0.000    0.000    0.000 
#
# Total GULP energy -89423.394303 kJ/mol
# GULP energy per Si atom -5588.962144 kJ/mol
# Density = 2.631935 g / cm^3
# Si number density = 26.379387 Si / 1000 Ang^3
#
#
#
# Elastic Constant Matrix: (Units=GPa)
#
#
# Indices 1 2 3 4 5 6 
#
# 1 117.7658 16.6147 17.1396 0.0000 10.3397 0.0000
# 2 16.6147 104.1328 30.1150 0.0000 -3.1647 0.0000
# 3 17.1396 30.1150 114.4109 0.0000 0.3526 0.0000
# 4 0.0000 0.0000 0.0000 44.3026 0.0000 5.4218
# 5 10.3397 -3.1647 0.3526 0.0000 35.8302 0.0000
# 6 0.0000 0.0000 0.0000 5.4218 0.0000 23.1657
#
#
#
# Elastic Compliance Matrix: (Units=1/GPa)
#
#
# Indices 1 2 3 4 5 6 
#
# 1 0.009052 -0.001231 -0.001024 0.000000 -0.002711 0.000000
# 2 -0.001231 0.010594 -0.002608 0.000000 0.001316 0.000000
# 3 -0.001024 -0.002608 0.009580 0.000000 -0.000029 0.000000
# 4 0.000000 0.000000 0.000000 0.023238 0.000000 -0.005439
# 5 -0.002711 0.001316 -0.000029 0.000000 0.028808 0.000000
# 6 0.000000 0.000000 0.000000 -0.005439 0.000000 0.044440
#
#
# Mechanical properties :
#
#
# Convention : Reuss Voigt Hill
#
# Bulk Modulus (GPa) = 51.27917 51.56091 51.42004
# Shear Modulus (GPa) = 35.22673 38.82238 37.02456
#
# Velocity S-wave (km/s) = 3.65826 3.84043 3.75045
# Velocity P-wave (km/s) = 6.10943 6.26526 6.18784
#
# Compressibility (1/GPa) = 0.01950109
#
# Stress axis : x y z
#
# Youngs Moduli (GPa) = 110.47209 94.39529 104.37973
#
# Poissons Ratio (x) = 0.11616 0.10686
# Poissons Ratio (y) = 0.13595 0.27224
# Poissons Ratio (z) = 0.11310 0.24620
#
# Static dielectric constant tensor:
#      x y z
#    x 2.136450 0.000000 0.018480 
#    y 0.000000 2.097300 0.000000 
#    z 0.018480 0.000000 2.153710 
# 
# From -- ./inp_files/7555.got.cif
#   From: 2010.05.17/outbox.cif.g08.bks.cpg/sg9_4_cif.got.tgz:7555.got - 2010.06.03 20:04:27.
