data_PCOD9137158
_publ_section_title
;
Structure prediction by ZEFSAII (Michael W. Deem and Ramdas Pophale) SiO2 
 PCOD9137158
Probable space group: C C
;
_chemical_formula_sum "Si O2"
_cell_formula_units_Z 24
_cell_length_a 13.284670
_cell_length_b 15.425787
_cell_length_c 11.466135
_cell_angle_alpha 90.000000
_cell_angle_beta 158.026479
_cell_angle_gamma 90.000000
_cell_volume 879.211723
_symmetry_space_group_name_H-M "C C"
_symmetry_group_IT_number 9
_symmetry_cell_setting 'monoclinic'
loop_
_space_group_symop_operation_xyz
x,y,z
x,-y,1/2+z
1/2+x,1/2+y,z
1/2+x,1/2-y,1/2+z
loop_
_atom_site_type_symbol
_atom_site_label
_atom_site_fract_x
_atom_site_fract_y
_atom_site_fract_z
Si Si1 0.606080 0.535861 0.015210
Si Si2 0.542062 0.803350 0.355499
Si Si3 0.579332 0.190291 0.149471
Si Si4 0.952196 0.966807 0.094325
Si Si5 0.567911 0.127563 0.649318
Si Si6 0.260384 0.699021 0.648784
O O1 0.573312 0.468709 0.090386
O O2 0.845320 0.596036 0.319089
O O3 0.638439 0.520420 0.910326
O O4 0.344632 0.598898 0.731718
O O5 0.533937 0.848577 0.470776
O O6 0.433618 0.850315 0.126935
O O7 0.853091 0.780272 0.668180
O O8 0.787021 0.272052 0.368139
O O9 0.751930 0.115427 0.395641
O O10 0.767273 0.050872 0.894609
O O11 0.733998 0.203297 0.762523
O O12 0.979021 0.743443 0.316588
#
# Coordination Sequence:
#
# PCOD9137158 Si02
#       6
#     4   4   4   4   4   4
#     4  11  27  46  75 108 151 205 247 316 379 443
#     4  10  22  39  71 103 143 188 242 292 359 437
#     4  10  24  48  70 103 140 193 242 305 372 443
#     4  11  27  48  72 108 148 196 256 309 377 460
#     4  11  24  43  71 106 149 196 244 310 374 435
#     4  11  22  42  69 106 149 186 241 302 371 442
#
# _framework density 27.297180000000001
#
# number of rings (size 3 to 8) (size 9 to 14) (size 15 to 20)
#    0.000    1.333    1.667    2.000    7.000    5.333 
#    0.000    0.000    0.000    0.000    0.000    0.000 
#    0.000    0.000    0.000    0.000    0.000    0.000 
#
# Total GULP energy -66985.946465 kJ/mol
# GULP energy per Si atom -5582.162205 kJ/mol
# Density = 2.723505 g / cm^3
# Si number density = 27.297180 Si / 1000 Ang^3
#
#
#
# Elastic Constant Matrix: (Units=GPa)
#
#
# Indices 1 2 3 4 5 6 
#
# 1 86.2319 24.8915 83.4506 0.0008 -28.5851 0.0007
# 2 24.8915 33.4125 31.9055 0.0001 -8.4828 0.0002
# 3 83.4506 31.9055 140.0190 0.0026 -34.3954 0.0009
# 4 0.0008 0.0001 0.0026 45.2875 0.0016 7.2930
# 5 -28.5851 -8.4828 -34.3954 0.0016 84.3554 0.0004
# 6 0.0007 0.0002 0.0009 7.2930 0.0004 24.1048
#
#
#
# Elastic Compliance Matrix: (Units=1/GPa)
#
#
# Indices 1 2 3 4 5 6 
#
# 1 0.029117 -0.006469 -0.015131 0.000000 0.003047 0.000000
# 2 -0.006469 0.039698 -0.005276 0.000000 -0.000352 0.000000
# 3 -0.015131 -0.005276 0.017750 -0.000001 0.001580 0.000000
# 4 0.000000 0.000000 -0.000001 0.023212 -0.000001 -0.007023
# 5 0.003047 -0.000352 0.001580 -0.000001 0.013496 0.000000
# 6 0.000000 0.000000 0.000000 -0.007023 0.000000 0.043610
#
#
# Mechanical properties :
#
#
# Convention : Reuss Voigt Hill
#
# Bulk Modulus (GPa) = 30.47740 60.01762 45.24751
# Shear Modulus (GPa) = 21.59141 38.71061 30.15101
#
# Velocity S-wave (km/s) = 2.81548 3.76988 3.32708
# Velocity P-wave (km/s) = 4.66460 6.40186 5.60099
#
# Compressibility (1/GPa) = 0.03281120
#
# Stress axis : x y z
#
# Youngs Moduli (GPa) = 34.34421 25.19040 56.33732
#
# Poissons Ratio (x) = 0.16297 0.85244
# Poissons Ratio (y) = 0.22219 0.29726
# Poissons Ratio (z) = 0.51966 0.13291
#
# Static dielectric constant tensor:
#      x y z
#    x 2.301910 0.000000 -0.063990 
#    y 0.000000 2.159920 0.000000 
#    z -0.063990 0.000000 2.151040 
# 
# From -- ./inp_files/1538.got.cif
#   From: 2010.05.17/outbox.cif.g08.bks.cpg/sg9_1_cif.got.tgz:1538.got - 2010.06.03 20:04:27.
