data_PCOD9137047
_publ_section_title
;
Structure prediction by ZEFSAII (Michael W. Deem and Ramdas Pophale) SiO2 
 PCOD9137047
Probable space group: C C
;
_chemical_formula_sum "Si O2"
_cell_formula_units_Z 28
_cell_length_a 14.945364
_cell_length_b 19.606561
_cell_length_c 9.731994
_cell_angle_alpha 90.000000
_cell_angle_beta 151.214184
_cell_angle_gamma 90.000000
_cell_volume 1373.216988
_symmetry_space_group_name_H-M "C C"
_symmetry_group_IT_number 9
_symmetry_cell_setting 'monoclinic'
loop_
_space_group_symop_operation_xyz
x,y,z
x,-y,1/2+z
1/2+x,1/2+y,z
1/2+x,1/2-y,1/2+z
loop_
_atom_site_type_symbol
_atom_site_label
_atom_site_fract_x
_atom_site_fract_y
_atom_site_fract_z
Si Si1 0.667510 0.964783 0.197200
Si Si2 0.719691 0.081134 0.071351
Si Si3 0.807450 0.370279 0.747447
Si Si4 0.475843 0.212129 0.700170
Si Si5 0.631103 0.392509 0.235803
Si Si6 0.092723 0.951171 0.696288
Si Si7 0.703952 0.341642 0.054548
O O1 0.715577 0.964283 0.425676
O O2 0.867163 0.947809 0.393414
O O3 0.621207 0.036753 0.059557
O O4 0.493921 0.912340 0.953051
O O5 0.919259 0.102799 0.398693
O O6 0.628959 0.152473 0.905215
O O7 0.679565 0.357921 0.444119
O O8 0.689293 0.414888 0.697282
O O9 0.862604 0.303322 0.908770
O O10 0.538719 0.288955 0.801160
O O11 0.367257 0.192991 0.691230
O O12 0.671452 0.472627 0.306392
O O13 0.739352 0.354943 0.260400
O O14 0.155219 0.912513 0.917220
#
# Coordination Sequence:
#
# PCOD9137047 Si02
#       7
#     4   4   4   4   4   4   4
#     4  10  22  38  61  93 132 171 213 271 318 389
#     4  10  22  39  62  93 131 170 221 263 332 383
#     4  10  24  39  63  97 132 165 222 265 327 390
#     4  10  24  43  66  91 125 186 213 266 327 400
#     4  11  22  39  66  97 132 161 220 278 321 387
#     4  10  22  40  65  95 127 178 207 274 331 379
#     4  11  22  42  69  90 131 175 220 263 328 394
#
# _framework density 20.390076000000001
#
# number of rings (size 3 to 8) (size 9 to 14) (size 15 to 20)
#    0.000    1.714    1.429    1.714   16.000    0.000 
#    0.000    5.714    0.000    0.000    0.000    0.000 
#    0.000    0.000    0.000    0.000    0.000    0.000 
#
# Total GULP energy -78069.776687 kJ/mol
# GULP energy per Si atom -5576.412620 kJ/mol
# Density = 2.034367 g / cm^3
# Si number density = 20.390076 Si / 1000 Ang^3
#
#
#
# Elastic Constant Matrix: (Units=GPa)
#
#
# Indices 1 2 3 4 5 6 
#
# 1 79.7087 25.2836 34.7246 0.0000 -16.8254 0.0000
# 2 25.2836 60.3012 17.5138 0.0000 -14.8215 0.0000
# 3 34.7246 17.5138 73.4020 0.0000 -27.0851 0.0000
# 4 0.0000 0.0000 0.0000 -10.0535 0.0000 5.5187
# 5 -16.8254 -14.8215 -27.0851 0.0000 42.8902 0.0000
# 6 0.0000 0.0000 0.0000 5.5187 0.0000 9.7562
#
#
#
# Elastic Compliance Matrix: (Units=1/GPa)
#
#
# Indices 1 2 3 4 5 6 
#
# 1 0.017222 -0.005096 -0.006634 0.000000 0.000806 0.000000
# 2 -0.005096 0.020027 -0.000719 0.000000 0.004467 0.000000
# 3 -0.006634 -0.000719 0.020707 0.000000 0.010225 0.000000
# 4 0.000000 0.000000 0.000000 -0.075900 0.000000 0.042934
# 5 0.000806 0.004467 0.010225 0.000000 0.031632 0.000000
# 6 0.000000 0.000000 0.000000 0.042934 0.000000 0.078213
#
#
# Mechanical properties :
#
#
# Convention : Reuss Voigt Hill
#
# Bulk Modulus (GPa) = 30.25081 40.93954 35.59518
# Shear Modulus (GPa) = 39.11754 17.57791 28.34773
#
# Velocity S-wave (km/s) = 4.38477 2.93931 3.73268
# Velocity P-wave (km/s) = 6.36422 5.62505 6.00601
#
# Compressibility (1/GPa) = 0.03305696
#
# Stress axis : x y z
#
# Youngs Moduli (GPa) = 58.06370 49.93219 48.29338
#
# Poissons Ratio (x) = 0.25447 0.32039
# Poissons Ratio (y) = 0.29591 0.03473
# Poissons Ratio (z) = 0.38521 0.03591
#
# Static dielectric constant tensor:
#      x y z
#    x 1.780070 0.000000 0.058930 
#    y 0.000000 1.929870 0.000000 
#    z 0.058930 0.000000 1.774580 
# 
# From -- ./inp_files/5548.got.cif
#   From: 2010.05.17/outbox.cif.g08.bks.cpg/sg9_3_cif.got.tgz:5548.got - 2010.06.03 20:04:27.
