data_PCOD9137202
_publ_section_title
;
Structure prediction by ZEFSAII (Michael W. Deem and Ramdas Pophale) SiO2 
 PCOD9137202
Probable space group: C C
;
_chemical_formula_sum "Si O2"
_cell_formula_units_Z 20
_cell_length_a 20.736694
_cell_length_b 6.264225
_cell_length_c 12.715282
_cell_angle_alpha 90.000000
_cell_angle_beta 146.784533
_cell_angle_gamma 90.000000
_cell_volume 904.786768
_symmetry_space_group_name_H-M "C C"
_symmetry_group_IT_number 9
_symmetry_cell_setting 'monoclinic'
loop_
_space_group_symop_operation_xyz
x,y,z
x,-y,1/2+z
1/2+x,1/2+y,z
1/2+x,1/2-y,1/2+z
loop_
_atom_site_type_symbol
_atom_site_label
_atom_site_fract_x
_atom_site_fract_y
_atom_site_fract_z
Si Si1 0.680440 0.389453 0.193060
Si Si2 0.567301 0.928488 0.376541
Si Si3 0.078343 0.939214 0.754770
Si Si4 0.382202 0.282894 0.107662
Si Si5 0.255727 0.207836 0.130581
O O1 0.593702 0.510948 0.154146
O O2 0.766151 0.237108 0.377458
O O3 0.764651 0.557494 0.245127
O O4 0.597342 0.254247 0.001822
O O5 0.580238 0.809610 0.282989
O O6 0.445085 0.052206 0.204026
O O7 0.662173 0.110130 0.527935
O O8 0.969401 0.054539 0.665925
O O9 0.193126 0.044996 0.964236
O O10 0.352713 0.325012 0.190439
#
# Coordination Sequence:
#
# PCOD9137202 Si02
#       5
#     4   4   4   4   4
#     4  10  22  40  64  94 124 165 214 260 323 380
#     4  10  22  42  62  86 136 160 202 276 304 384
#     4   9  21  40  60  92 124 163 210 255 318 386
#     4  10  22  40  64  94 124 165 214 260 323 380
#     4   9  21  40  60  92 124 163 210 255 318 386
#
# _framework density 22.104655000000001
#
# number of rings (size 3 to 8) (size 9 to 14) (size 15 to 20)
#    0.000    2.400    0.000    0.000    2.800   11.200 
#   14.400    0.000    0.000    0.000    0.000    0.000 
#    0.000    0.000    0.000    0.000    0.000    0.000 
#
# Total GULP energy -55707.373181 kJ/mol
# GULP energy per Si atom -5570.737318 kJ/mol
# Density = 2.205434 g / cm^3
# Si number density = 22.104655 Si / 1000 Ang^3
#
#
#
# Elastic Constant Matrix: (Units=GPa)
#
#
# Indices 1 2 3 4 5 6 
#
# 1 78.4803 -9.6902 5.1006 0.0000 -11.1440 0.0000
# 2 -9.6902 35.5139 9.2196 0.0000 -9.3603 0.0000
# 3 5.1006 9.2196 58.3893 0.0000 1.3115 0.0000
# 4 0.0000 0.0000 0.0000 26.1355 0.0000 -15.1468
# 5 -11.1440 -9.3603 1.3115 0.0000 21.3392 0.0000
# 6 0.0000 0.0000 0.0000 -15.1468 0.0000 37.5547
#
#
#
# Elastic Compliance Matrix: (Units=1/GPa)
#
#
# Indices 1 2 3 4 5 6 
#
# 1 0.015634 0.008169 -0.002923 0.000000 0.011928 0.000000
# 2 0.008169 0.037867 -0.007172 0.000000 0.021317 0.000000
# 3 -0.002923 -0.007172 0.018645 0.000000 -0.005818 0.000000
# 4 0.000000 0.000000 0.000000 0.049934 0.000000 0.020140
# 5 0.011928 0.021317 -0.005818 0.000000 0.062799 0.000000
# 6 0.000000 0.000000 0.000000 0.020140 0.000000 0.034751
#
#
# Mechanical properties :
#
#
# Convention : Reuss Voigt Hill
#
# Bulk Modulus (GPa) = 14.64269 20.18262 17.41266
# Shear Modulus (GPa) = 20.30476 28.18945 24.24711
#
# Velocity S-wave (km/s) = 3.03409 3.57497 3.31558
# Velocity P-wave (km/s) = 4.34889 5.11770 4.74888
#
# Compressibility (1/GPa) = 0.06829345
#
# Stress axis : x y z
#
# Youngs Moduli (GPa) = 63.96178 26.40813 53.63399
#
# Poissons Ratio (x) = -0.21572 0.15680
# Poissons Ratio (y) = -0.52248 0.38464
# Poissons Ratio (z) = 0.18699 0.18939
#
# Static dielectric constant tensor:
#      x y z
#    x 1.919010 0.000000 -0.013970 
#    y 0.000000 1.800450 0.000000 
#    z -0.013970 0.000000 1.802200 
# 
# From -- ./inp_files/3579.got.cif
#   From: 2010.05.17/outbox.cif.g08.bks.cpg/sg9_2_cif.got.tgz:3579.got - 2010.06.03 20:04:27.
