data_PCOD9137162
_publ_section_title
;
Structure prediction by ZEFSAII (Michael W. Deem and Ramdas Pophale) SiO2 
 PCOD9137162
Probable space group: C C
;
_chemical_formula_sum "Si O2"
_cell_formula_units_Z 32
_cell_length_a 12.560963
_cell_length_b 13.709914
_cell_length_c 9.662697
_cell_angle_alpha 90.000000
_cell_angle_beta 79.757494
_cell_angle_gamma 90.000000
_cell_volume 1637.492639
_symmetry_space_group_name_H-M "C C"
_symmetry_group_IT_number 9
_symmetry_cell_setting 'monoclinic'
loop_
_space_group_symop_operation_xyz
x,y,z
x,-y,1/2+z
1/2+x,1/2+y,z
1/2+x,1/2-y,1/2+z
loop_
_atom_site_type_symbol
_atom_site_label
_atom_site_fract_x
_atom_site_fract_y
_atom_site_fract_z
Si Si1 0.933000 0.911470 0.917850
Si Si2 0.786021 0.463371 0.537623
Si Si3 0.918236 0.720841 0.100001
Si Si4 0.509641 0.932526 0.928308
Si Si5 0.472883 0.287182 0.383126
Si Si6 0.097378 0.430430 0.619309
Si Si7 0.343507 0.415964 0.626517
Si Si8 0.637911 0.462649 0.311107
O O1 0.881748 0.917611 0.776394
O O2 0.922841 0.804679 0.984935
O O3 0.055583 0.951009 0.873792
O O4 0.876356 0.984713 0.039560
O O5 0.828198 0.360586 0.588610
O O6 0.891048 0.532628 0.502532
O O7 0.731930 0.449791 0.401490
O O8 0.694874 0.509922 0.655491
O O9 0.907033 0.765453 0.256896
O O10 0.031784 0.661881 0.075949
O O11 0.518877 0.816351 0.922221
O O12 0.528846 0.966524 0.766961
O O13 0.595721 0.985425 0.005748
O O14 0.402715 0.333069 0.522388
O O15 0.565091 0.365427 0.323561
O O16 0.215486 0.403726 0.643496
#
# Coordination Sequence:
#
# PCOD9137162 Si02
#       8
#     4   4   4   4   4   4   4   4
#     4  11  23  42  61  89 125 156 202 254 296 360
#     4  11  23  40  63  90 121 161 202 249 306 360
#     4  10  23  40  59  88 124 155 199 253 300 359
#     4  10  22  40  59  87 124 156 200 255 299 356
#     4  10  22  40  60  89 121 155 201 251 299 359
#     4  10  22  40  60  86 119 158 197 246 305 357
#     4  11  23  40  63  88 118 162 201 245 303 357
#     4  11  22  40  63  89 120 161 202 247 304 362
#
# _framework density 19.542072000000001
#
# number of rings (size 3 to 8) (size 9 to 14) (size 15 to 20)
#    0.000    1.500    0.000    6.750    0.000   10.000 
#    0.000    1.250    0.000    0.000    0.000    0.000 
#    0.000    0.000    0.000    0.000    0.000    0.000 
#
# Total GULP energy -89405.526112 kJ/mol
# GULP energy per Si atom -5587.845382 kJ/mol
# Density = 1.949759 g / cm^3
# Si number density = 19.542072 Si / 1000 Ang^3
#
#
#
# Elastic Constant Matrix: (Units=GPa)
#
#
# Indices 1 2 3 4 5 6 
#
# 1 58.6012 13.5411 22.3845 0.0000 17.8537 0.0000
# 2 13.5411 102.5906 64.6230 0.0000 9.6002 0.0000
# 3 22.3845 64.6230 110.0812 0.0000 0.6256 0.0000
# 4 0.0000 0.0000 0.0000 36.7409 0.0000 7.1040
# 5 17.8537 9.6002 0.6256 0.0000 19.2119 0.0000
# 6 0.0000 0.0000 0.0000 7.1040 0.0000 9.1337
#
#
#
# Elastic Compliance Matrix: (Units=1/GPa)
#
#
# Indices 1 2 3 4 5 6 
#
# 1 0.027326 0.003685 -0.007567 0.000000 -0.026989 0.000000
# 2 0.003685 0.017104 -0.010724 0.000000 -0.011622 0.000000
# 3 -0.007567 -0.010724 0.016851 0.000000 0.011842 0.000000
# 4 0.000000 0.000000 0.000000 0.032035 0.000000 -0.024916
# 5 -0.026989 -0.011622 0.011842 0.000000 0.082554 0.000000
# 6 0.000000 0.000000 0.000000 -0.024916 0.000000 0.128864
#
#
# Mechanical properties :
#
#
# Convention : Reuss Voigt Hill
#
# Bulk Modulus (GPa) = 31.18209 52.48558 41.83383
# Shear Modulus (GPa) = 14.50810 24.39893 19.45352
#
# Velocity S-wave (km/s) = 2.72766 3.53729 3.15853
# Velocity P-wave (km/s) = 5.09031 6.60298 5.89536
#
# Compressibility (1/GPa) = 0.03206969
#
# Stress axis : x y z
#
# Youngs Moduli (GPa) = 36.59534 58.46617 59.34330
#
# Poissons Ratio (x) = -0.21545 0.44902
# Poissons Ratio (y) = -0.13485 0.63640
# Poissons Ratio (z) = 0.27690 0.62700
#
# Static dielectric constant tensor:
#      x y z
#    x 1.667740 0.000000 0.002110 
#    y 0.000000 1.677380 0.000000 
#    z 0.002110 0.000000 1.676660 
# 
# From -- ./inp_files/7454.got.cif
#   From: 2010.05.17/outbox.cif.g08.bks.cpg/sg9_4_cif.got.tgz:7454.got - 2010.06.03 20:04:27.
