data_PCOD9137798
_publ_section_title
;
Structure prediction by ZEFSAII (Michael W. Deem and Ramdas Pophale) SiO2 
 PCOD9137798
Probable space group: C C
;
_chemical_formula_sum "Si O2"
_cell_formula_units_Z 32
_cell_length_a 11.748026
_cell_length_b 8.678655
_cell_length_c 28.838807
_cell_angle_alpha 90.000000
_cell_angle_beta 28.806074
_cell_angle_gamma 90.000000
_cell_volume 1416.783158
_symmetry_space_group_name_H-M "C C"
_symmetry_group_IT_number 9
_symmetry_cell_setting 'monoclinic'
loop_
_space_group_symop_operation_xyz
x,y,z
x,-y,1/2+z
1/2+x,1/2+y,z
1/2+x,1/2-y,1/2+z
loop_
_atom_site_type_symbol
_atom_site_label
_atom_site_fract_x
_atom_site_fract_y
_atom_site_fract_z
Si Si1 0.914190 0.744066 0.788030
Si Si2 0.123005 0.707132 0.808542
Si Si3 0.992101 0.562964 0.470289
Si Si4 0.591420 0.226922 0.118802
Si Si5 0.708471 0.143330 0.973244
Si Si6 0.075065 0.045507 0.398911
Si Si7 0.716087 0.517346 0.479885
Si Si8 0.237444 0.431714 0.107768
O O1 0.709552 0.874000 0.861306
O O2 0.773610 0.579084 0.842133
O O3 0.062316 0.788147 0.781090
O O4 0.094072 0.710240 0.681322
O O5 0.389489 0.652442 0.704283
O O6 0.145618 0.798404 0.848558
O O7 0.893062 0.603593 0.895014
O O8 0.071041 0.448075 0.482409
O O9 0.853046 0.713433 0.538773
O O10 0.792754 0.506447 0.506001
O O11 0.558374 0.067667 0.158198
O O12 0.583105 0.181421 0.067439
O O13 0.780260 0.316281 0.934260
O O14 0.927179 0.041744 0.911527
O O15 0.895369 0.087276 0.504862
O O16 0.436037 0.507667 0.572859
#
# Coordination Sequence:
#
# PCOD9137798 Si02
#       8
#     4   4   4   4   4   4   4   4
#     4  12  21  42  74 100 141 192 240 292 362 438
#     4  12  24  43  73 104 139 195 241 292 380 434
#     4  11  22  43  70 101 145 189 244 306 362 441
#     4  10  22  44  70 105 141 188 251 302 360 447
#     4  10  22  44  69  99 142 187 236 302 369 425
#     4  11  22  43  71  99 140 190 238 293 366 436
#     4  11  24  42  66 104 148 185 234 309 362 429
#     4  11  23  43  71 104 144 188 240 304 367 430
#
# _framework density 22.586379000000001
#
# number of rings (size 3 to 8) (size 9 to 14) (size 15 to 20)
#    0.000    1.000    7.500    1.500    1.750    0.000 
#    4.500    1.250    5.500    0.000    0.000    0.000 
#    0.000    0.000    0.000    0.000    0.000    0.000 
#
# Total GULP energy -89103.642595 kJ/mol
# GULP energy per Si atom -5568.977662 kJ/mol
# Density = 2.253497 g / cm^3
# Si number density = 22.586379 Si / 1000 Ang^3
#
#
#
# Elastic Constant Matrix: (Units=GPa)
#
#
# Indices 1 2 3 4 5 6 
#
# 1 109.8490 11.6117 7.5085 -0.0012 -2.9888 0.0001
# 2 11.6117 20.7264 6.1140 -0.0017 11.2709 0.0001
# 3 7.5085 6.1140 99.8860 -0.0120 -5.1775 0.0010
# 4 -0.0012 -0.0017 -0.0120 15.4990 -0.0017 1.4323
# 5 -2.9888 11.2709 -5.1775 -0.0017 26.3256 0.0005
# 6 0.0001 0.0001 0.0010 1.4323 0.0005 41.0915
#
#
#
# Elastic Compliance Matrix: (Units=1/GPa)
#
#
# Indices 1 2 3 4 5 6 
#
# 1 0.010095 -0.008175 -0.000018 0.000000 0.004643 0.000000
# 2 -0.008175 0.072414 -0.005529 0.000000 -0.033018 0.000000
# 3 -0.000018 -0.005529 0.010582 0.000008 0.004446 -0.000001
# 4 0.000000 0.000000 0.000008 0.064729 0.000006 -0.002256
# 5 0.004643 -0.033018 0.004446 0.000006 0.053524 -0.000001
# 6 0.000000 0.000000 -0.000001 -0.002256 -0.000001 0.024415
#
#
# Mechanical properties :
#
#
# Convention : Reuss Voigt Hill
#
# Bulk Modulus (GPa) = 15.23321 31.21444 23.22382
# Shear Modulus (GPa) = 17.53870 30.26503 23.90186
#
# Velocity S-wave (km/s) = 2.78963 3.66453 3.25659
# Velocity P-wave (km/s) = 4.13946 5.63516 4.94420
#
# Compressibility (1/GPa) = 0.06564607
#
# Stress axis : x y z
#
# Youngs Moduli (GPa) = 99.05802 13.80955 94.50301
#
# Poissons Ratio (x) = 0.11289 0.00168
# Poissons Ratio (y) = 0.80980 0.52254
# Poissons Ratio (z) = 0.00177 0.07636
#
# Static dielectric constant tensor:
#      x y z
#    x 1.863160 0.000000 0.015220 
#    y 0.000000 1.940230 0.000000 
#    z 0.015220 0.000000 1.925500 
# 
# From -- ./inp_files/24229.got.cif
#   From: 2010.05.17/outbox.cif.g08.bks.cpg/sg9_13_cif.got.tgz:24229.got - 2010.06.03 20:04:27.
