data_PCOD9137816
_publ_section_title
;
Structure prediction by ZEFSAII (Michael W. Deem and Ramdas Pophale) SiO2 
 PCOD9137816
Probable space group: C C
;
_chemical_formula_sum "Si O2"
_cell_formula_units_Z 28
_cell_length_a 6.537778
_cell_length_b 14.381689
_cell_length_c 15.559127
_cell_angle_alpha 90.000000
_cell_angle_beta 121.711982
_cell_angle_gamma 90.000000
_cell_volume 1244.521301
_symmetry_space_group_name_H-M "C C"
_symmetry_group_IT_number 9
_symmetry_cell_setting 'monoclinic'
loop_
_space_group_symop_operation_xyz
x,y,z
x,-y,1/2+z
1/2+x,1/2+y,z
1/2+x,1/2-y,1/2+z
loop_
_atom_site_type_symbol
_atom_site_label
_atom_site_fract_x
_atom_site_fract_y
_atom_site_fract_z
Si Si1 0.303190 0.122543 0.430810
Si Si2 0.080313 0.223604 0.896760
Si Si3 0.677651 0.382334 0.103113
Si Si4 0.704169 0.075226 0.753289
Si Si5 0.235137 0.499679 0.063060
Si Si6 0.032740 0.671288 0.087026
Si Si7 0.271882 0.378998 0.808187
O O1 0.442482 0.215187 0.436470
O O2 0.232148 0.117279 0.514317
O O3 0.499209 0.040801 0.461967
O O4 0.041728 0.127742 0.328219
O O5 0.216220 0.299282 0.865644
O O6 0.889252 0.158991 0.806703
O O7 0.273896 0.160018 0.987439
O O8 0.479252 0.459446 0.079118
O O9 0.580736 0.280329 0.102455
O O10 0.928900 0.396328 0.206778
O O11 0.725315 0.041034 0.658798
O O12 0.759071 0.988102 0.827896
O O13 0.212348 0.610331 0.068054
O O14 0.068628 0.634417 0.190844
#
# Coordination Sequence:
#
# PCOD9137816 Si02
#       7
#     4   4   4   4   4   4   4
#     4  11  22  43  65  97 138 183 236 291 354 427
#     4  12  24  45  71 103 146 187 235 306 355 430
#     4  11  22  45  64 101 138 182 236 294 354 426
#     4  10  25  41  69 102 136 186 239 294 357 429
#     4  10  22  44  70  98 145 180 238 303 349 431
#     4  11  23  44  70 102 136 190 236 293 367 417
#     4  11  24  44  67 103 141 184 244 291 360 430
#
# _framework density 22.498608999999998
#
# number of rings (size 3 to 8) (size 9 to 14) (size 15 to 20)
#    0.000    1.143    2.857    2.571    2.000    3.429 
#   10.286    0.000    0.000    0.000    0.000    0.000 
#    0.000    0.000    0.000    0.000    0.000    0.000 
#
# Total GULP energy -78210.480695 kJ/mol
# GULP energy per Si atom -5586.462907 kJ/mol
# Density = 2.244740 g / cm^3
# Si number density = 22.498609 Si / 1000 Ang^3
#
#
#
# Elastic Constant Matrix: (Units=GPa)
#
#
# Indices 1 2 3 4 5 6 
#
# 1 91.6830 21.0058 40.9309 0.0000 24.7723 0.0000
# 2 21.0058 69.7024 29.1534 0.0000 16.1533 0.0000
# 3 40.9309 29.1534 82.6716 0.0000 24.7968 0.0000
# 4 0.0000 0.0000 0.0000 30.4676 0.0000 1.4873
# 5 24.7723 16.1533 24.7968 0.0000 38.1028 0.0000
# 6 0.0000 0.0000 0.0000 1.4873 0.0000 42.3568
#
#
#
# Elastic Compliance Matrix: (Units=1/GPa)
#
#
# Indices 1 2 3 4 5 6 
#
# 1 0.015127 -0.000933 -0.005379 0.000000 -0.005939 0.000000
# 2 -0.000933 0.017409 -0.004530 0.000000 -0.003826 0.000000
# 3 -0.005379 -0.004530 0.018305 0.000000 -0.006495 0.000000
# 4 0.000000 0.000000 0.000000 0.032878 0.000000 -0.001154
# 5 -0.005939 -0.003826 -0.006495 0.000000 0.035955 0.000000
# 6 0.000000 0.000000 0.000000 -0.001154 0.000000 0.023649
#
#
# Mechanical properties :
#
#
# Convention : Reuss Voigt Hill
#
# Bulk Modulus (GPa) = 34.29646 47.35970 40.82808
# Shear Modulus (GPa) = 28.61634 32.38324 30.49979
#
# Velocity S-wave (km/s) = 3.57026 3.79798 3.68588
# Velocity P-wave (km/s) = 5.68090 6.35049 6.02500
#
# Compressibility (1/GPa) = 0.02915753
#
# Stress axis : x y z
#
# Youngs Moduli (GPa) = 66.10739 57.44133 54.63044
#
# Poissons Ratio (x) = 0.05357 0.29387
# Poissons Ratio (y) = 0.06165 0.24746
# Poissons Ratio (z) = 0.35561 0.26020
#
# Static dielectric constant tensor:
#      x y z
#    x 1.836450 0.000000 0.022090 
#    y 0.000000 1.821900 0.000000 
#    z 0.022090 0.000000 1.909120 
# 
# From -- ./inp_files/21696.got.cif
#   From: 2010.05.17/outbox.cif.g08.bks.cpg/sg9_11_cif.got.tgz:21696.got - 2010.06.03 20:04:27.
