data_PCOD9137871
_publ_section_title
;
Structure prediction by ZEFSAII (Michael W. Deem and Ramdas Pophale) SiO2 
 PCOD9137871
Probable space group: C C
;
_chemical_formula_sum "Si O2"
_cell_formula_units_Z 32
_cell_length_a 15.803169
_cell_length_b 6.650729
_cell_length_c 14.788735
_cell_angle_alpha 90.000000
_cell_angle_beta 60.728231
_cell_angle_gamma 90.000000
_cell_volume 1355.861916
_symmetry_space_group_name_H-M "C C"
_symmetry_group_IT_number 9
_symmetry_cell_setting 'monoclinic'
loop_
_space_group_symop_operation_xyz
x,y,z
x,-y,1/2+z
1/2+x,1/2+y,z
1/2+x,1/2-y,1/2+z
loop_
_atom_site_type_symbol
_atom_site_label
_atom_site_fract_x
_atom_site_fract_y
_atom_site_fract_z
Si Si1 0.230010 0.069887 0.892160
Si Si2 0.021727 0.769575 0.524308
Si Si3 0.910426 0.053480 0.679465
Si Si4 0.997715 0.558033 0.165656
Si Si5 0.221326 0.679329 0.019001
Si Si6 0.019003 0.514294 0.861053
Si Si7 0.392215 0.368379 0.876674
Si Si8 0.221568 0.690386 0.228481
O O1 0.135890 0.196344 0.973588
O O2 0.323651 0.189660 0.875974
O O3 0.219014 0.107881 0.790543
O O4 0.231276 0.852406 0.937944
O O5 0.980540 0.657768 0.633238
O O6 0.987635 0.636580 0.457605
O O7 0.978676 0.987949 0.560720
O O8 0.939219 0.989103 0.767386
O O9 0.811485 0.944295 0.710730
O O10 0.916321 0.291431 0.674236
O O11 0.992685 0.560879 0.275184
O O12 0.107700 0.608575 0.074025
O O13 0.310639 0.520499 0.961231
O O14 0.226628 0.747979 0.120854
O O15 0.133576 0.463203 0.798121
O O16 0.974953 0.740633 0.888015
#
# Coordination Sequence:
#
# PCOD9137871 Si02
#       8
#     4   4   4   4   4   4   4   4
#     4  10  22  45  66  99 146 190 232 309 358 431
#     4  11  22  44  69  99 145 186 243 298 369 429
#     4  11  24  42  70 100 142 190 241 298 361 443
#     4  11  23  45  69 102 142 190 239 303 369 429
#     4  11  23  43  73 103 143 193 242 296 373 434
#     4  10  24  45  70 102 147 188 240 310 358 439
#     4  11  24  41  69 103 143 188 244 295 372 437
#     4   9  24  45  68 108 150 185 249 299 360 440
#
# _framework density 23.601224999999999
#
# number of rings (size 3 to 8) (size 9 to 14) (size 15 to 20)
#    0.000    1.500    3.750    0.000    5.250    0.000 
#    0.000    3.750    2.750    0.000    0.000    0.000 
#    0.000    0.000    0.000    0.000    0.000    0.000 
#
# Total GULP energy -89217.637459 kJ/mol
# GULP energy per Si atom -5576.102341 kJ/mol
# Density = 2.354751 g / cm^3
# Si number density = 23.601225 Si / 1000 Ang^3
#
#
#
# Elastic Constant Matrix: (Units=GPa)
#
#
# Indices 1 2 3 4 5 6 
#
# 1 84.3383 39.5888 42.2570 0.0000 -8.8632 0.0000
# 2 39.5888 77.5067 36.9174 0.0000 -8.5652 0.0000
# 3 42.2570 36.9174 101.8988 0.0000 -7.5661 0.0000
# 4 0.0000 0.0000 0.0000 31.3219 0.0000 -2.2782
# 5 -8.8632 -8.5652 -7.5661 0.0000 21.0507 0.0000
# 6 0.0000 0.0000 0.0000 -2.2782 0.0000 36.3892
#
#
#
# Elastic Compliance Matrix: (Units=1/GPa)
#
#
# Indices 1 2 3 4 5 6 
#
# 1 0.017543 -0.006361 -0.004741 0.000000 0.003094 0.000000
# 2 -0.006361 0.018312 -0.003742 0.000000 0.003428 0.000000
# 3 -0.004741 -0.003742 0.013227 0.000000 0.001235 0.000000
# 4 0.000000 0.000000 0.000000 0.032073 0.000000 0.002008
# 5 0.003094 0.003428 0.001235 0.000000 0.050646 0.000000
# 6 0.000000 0.000000 0.000000 0.002008 0.000000 0.027606
#
#
# Mechanical properties :
#
#
# Convention : Reuss Voigt Hill
#
# Bulk Modulus (GPa) = 51.55899 55.69669 53.62784
# Shear Modulus (GPa) = 25.56754 27.41774 26.49264
#
# Velocity S-wave (km/s) = 3.29494 3.41208 3.35402
# Velocity P-wave (km/s) = 6.03066 6.25886 6.14582
#
# Compressibility (1/GPa) = 0.01939526
#
# Stress axis : x y z
#
# Youngs Moduli (GPa) = 57.00171 54.60820 75.60175
#
# Poissons Ratio (x) = 0.34734 0.35842
# Poissons Ratio (y) = 0.36257 0.28291
# Poissons Ratio (z) = 0.27024 0.20435
#
# Static dielectric constant tensor:
#      x y z
#    x 1.933330 0.000000 -0.022870 
#    y 0.000000 1.876830 0.000000 
#    z -0.022870 0.000000 1.945090 
# 
# From -- ./inp_files/26452.got.cif
#   From: 2010.05.17/outbox.cif.g08.bks.cpg/sg9_14_cif.got.tgz:26452.got - 2010.06.03 20:04:27.
