data_PCOD9137400
_publ_section_title
;
Structure prediction by ZEFSAII (Michael W. Deem and Ramdas Pophale) SiO2 
 PCOD9137400
Probable space group: C C
;
_chemical_formula_sum "Si O2"
_cell_formula_units_Z 32
_cell_length_a 13.583007
_cell_length_b 12.037387
_cell_length_c 8.805292
_cell_angle_alpha 90.000000
_cell_angle_beta 69.384476
_cell_angle_gamma 90.000000
_cell_volume 1347.507325
_symmetry_space_group_name_H-M "C C"
_symmetry_group_IT_number 9
_symmetry_cell_setting 'monoclinic'
loop_
_space_group_symop_operation_xyz
x,y,z
x,-y,1/2+z
1/2+x,1/2+y,z
1/2+x,1/2-y,1/2+z
loop_
_atom_site_type_symbol
_atom_site_label
_atom_site_fract_x
_atom_site_fract_y
_atom_site_fract_z
Si Si1 0.256500 0.394666 0.823430
Si Si2 0.548742 0.426398 0.573120
Si Si3 0.781032 0.716711 0.378104
Si Si4 0.419891 0.439807 0.350721
Si Si5 0.066729 0.743793 0.822204
Si Si6 0.673807 0.321125 0.248853
Si Si7 0.623364 0.971340 0.158195
Si Si8 0.499578 0.812850 0.669312
O O1 0.354911 0.449505 0.850884
O O2 0.257085 0.269329 0.768488
O O3 0.214128 0.476237 0.714474
O O4 0.168275 0.397702 0.999994
O O5 0.453453 0.429745 0.505629
O O6 0.525330 0.534408 0.691330
O O7 0.548210 0.325076 0.691983
O O8 0.645585 0.407298 0.400393
O O9 0.840910 0.836862 0.364310
O O10 0.687199 0.736010 0.311011
O O11 0.727938 0.660807 0.554909
O O12 0.882469 0.649277 0.270951
O O13 0.052160 0.615043 0.786994
O O14 0.000650 0.757934 0.013286
O O15 0.564278 0.253510 0.266604
O O16 0.568218 0.077216 0.115917
#
# Coordination Sequence:
#
# PCOD9137400 Si02
#       8
#     4   4   4   4   4   4   4   4
#     4  11  20  37  69 105 138 171 235 295 354 415
#     4  12  27  42  71 104 151 189 235 306 376 424
#     4  11  23  46  74 102 143 194 245 293 362 437
#     4  12  25  43  72 113 137 191 250 303 355 439
#     4  11  24  44  69 104 145 188 240 304 371 427
#     4  10  22  42  69 106 145 183 229 306 369 420
#     4  11  19  37  69 104 140 174 226 298 366 407
#     4  10  22  41  71 102 143 186 238 301 361 437
#
# _framework density 23.747551999999999
#
# number of rings (size 3 to 8) (size 9 to 14) (size 15 to 20)
#    0.000    1.000    5.000    3.000    1.750    0.000 
#    2.250    0.000    8.250    0.000    0.000    0.000 
#    0.000    0.000    0.000    0.000    0.000    0.000 
#
# Total GULP energy -89268.681976 kJ/mol
# GULP energy per Si atom -5579.292623 kJ/mol
# Density = 2.369350 g / cm^3
# Si number density = 23.747552 Si / 1000 Ang^3
#
#
#
# Elastic Constant Matrix: (Units=GPa)
#
#
# Indices 1 2 3 4 5 6 
#
# 1 84.0126 15.7902 49.2735 0.0000 6.1872 0.0000
# 2 15.7902 70.0993 31.2628 0.0000 12.9048 0.0000
# 3 49.2735 31.2628 148.8806 0.0000 9.5451 0.0000
# 4 0.0000 0.0000 0.0000 45.6146 0.0000 -0.2842
# 5 6.1872 12.9048 9.5451 0.0000 45.4518 0.0000
# 6 0.0000 0.0000 0.0000 -0.2842 0.0000 30.0771
#
#
#
# Elastic Compliance Matrix: (Units=1/GPa)
#
#
# Indices 1 2 3 4 5 6 
#
# 1 0.014895 -0.001152 -0.004641 0.000000 -0.000726 0.000000
# 2 -0.001152 0.016514 -0.002834 0.000000 -0.003937 0.000000
# 3 -0.004641 -0.002834 0.008875 0.000000 -0.000427 0.000000
# 4 0.000000 0.000000 0.000000 0.021924 0.000000 0.000207
# 5 -0.000726 -0.003937 -0.000427 0.000000 0.023308 0.000000
# 6 0.000000 0.000000 0.000000 0.000207 0.000000 0.033250
#
#
# Mechanical properties :
#
#
# Convention : Reuss Voigt Hill
#
# Bulk Modulus (GPa) = 43.42171 55.07175 49.24673
# Shear Modulus (GPa) = 34.79567 38.00644 36.40105
#
# Velocity S-wave (km/s) = 3.83199 4.00489 3.91939
# Velocity P-wave (km/s) = 6.15656 6.68029 6.42377
#
# Compressibility (1/GPa) = 0.02302995
#
# Stress axis : x y z
#
# Youngs Moduli (GPa) = 67.13661 60.55644 112.67110
#
# Poissons Ratio (x) = 0.06974 0.52294
# Poissons Ratio (y) = 0.07732 0.31932
# Poissons Ratio (z) = 0.31160 0.17162
#
# Static dielectric constant tensor:
#      x y z
#    x 1.939800 0.000000 -0.066120 
#    y 0.000000 1.953470 0.000000 
#    z -0.066120 0.000000 2.037240 
# 
# From -- ./inp_files/9070.got.cif
#   From: 2010.05.17/outbox.cif.g08.bks.cpg/sg9_5_cif.got.tgz:9070.got - 2010.06.03 20:04:27.
