data_PCOD9137799
_publ_section_title
;
Structure prediction by ZEFSAII (Michael W. Deem and Ramdas Pophale) SiO2 
 PCOD9137799
Probable space group: C C
;
_chemical_formula_sum "Si O2"
_cell_formula_units_Z 28
_cell_length_a 13.110965
_cell_length_b 6.568299
_cell_length_c 13.394525
_cell_angle_alpha 90.000000
_cell_angle_beta 91.010181
_cell_angle_gamma 90.000000
_cell_volume 1153.313526
_symmetry_space_group_name_H-M "C C"
_symmetry_group_IT_number 9
_symmetry_cell_setting 'monoclinic'
loop_
_space_group_symop_operation_xyz
x,y,z
x,-y,1/2+z
1/2+x,1/2+y,z
1/2+x,1/2-y,1/2+z
loop_
_atom_site_type_symbol
_atom_site_label
_atom_site_fract_x
_atom_site_fract_y
_atom_site_fract_z
Si Si1 0.175230 0.358200 0.720340
Si Si2 0.488880 0.294220 0.621829
Si Si3 0.793425 0.467288 0.783201
Si Si4 0.847748 0.510051 0.496868
Si Si5 0.823835 0.851123 0.117257
Si Si6 0.591237 0.207047 0.831100
Si Si7 0.617571 0.623275 0.540467
O O1 0.222613 0.533697 0.650951
O O2 0.128936 0.475396 0.814199
O O3 0.099954 0.239368 0.644867
O O4 0.260907 0.194895 0.753194
O O5 0.437741 0.110046 0.561473
O O6 0.408619 0.478171 0.619778
O O7 0.515479 0.243610 0.736853
O O8 0.582297 0.393192 0.561613
O O9 0.838528 0.331645 0.696305
O O10 0.686729 0.357418 0.809674
O O11 0.864340 0.458384 0.880367
O O12 0.826677 0.271995 0.515030
O O13 0.740025 0.619139 0.524611
O O14 0.565178 0.270466 0.944014
#
# Coordination Sequence:
#
# PCOD9137799 Si02
#       7
#     4   4   4   4   4   4   4
#     4  11  21  46  71  98 141 182 233 294 352 431
#     4  12  25  45  68 106 147 181 241 295 354 441
#     4  10  22  44  70 100 134 186 235 287 359 423
#     4  11  25  45  70 103 139 191 240 288 365 427
#     4  11  23  42  69 100 141 177 229 294 344 428
#     4  10  25  42  70 101 139 186 235 290 361 423
#     4  11  23  48  68 100 145 187 237 298 359 425
#
# _framework density 24.277871999999999
#
# number of rings (size 3 to 8) (size 9 to 14) (size 15 to 20)
#    0.000    1.143    4.286    0.857    6.000    1.143 
#    2.571    0.000    0.000    0.000    0.000    0.000 
#    0.000    0.000    0.000    0.000    0.000    0.000 
#
# Total GULP energy -78322.842882 kJ/mol
# GULP energy per Si atom -5594.488777 kJ/mol
# Density = 2.422261 g / cm^3
# Si number density = 24.277872 Si / 1000 Ang^3
#
#
#
# Elastic Constant Matrix: (Units=GPa)
#
#
# Indices 1 2 3 4 5 6 
#
# 1 43.9057 13.2827 15.8335 0.0000 6.8222 0.0000
# 2 13.2827 114.1515 22.9739 0.0000 8.9904 0.0000
# 3 15.8335 22.9739 101.8135 0.0000 26.5095 0.0000
# 4 0.0000 0.0000 0.0000 30.0554 0.0000 5.9495
# 5 6.8222 8.9904 26.5095 0.0000 39.2495 0.0000
# 6 0.0000 0.0000 0.0000 5.9495 0.0000 51.8662
#
#
#
# Elastic Compliance Matrix: (Units=1/GPa)
#
#
# Indices 1 2 3 4 5 6 
#
# 1 0.024756 -0.002154 -0.002878 0.000000 -0.001866 0.000000
# 2 -0.002154 0.009388 -0.001603 0.000000 -0.000693 0.000000
# 3 -0.002878 -0.001603 0.012626 0.000000 -0.007660 0.000000
# 4 0.000000 0.000000 0.000000 0.034045 0.000000 -0.003905
# 5 -0.001866 -0.000693 -0.007660 0.000000 0.031135 0.000000
# 6 0.000000 0.000000 0.000000 -0.003905 0.000000 0.019728
#
#
# Mechanical properties :
#
#
# Convention : Reuss Voigt Hill
#
# Bulk Modulus (GPa) = 29.85171 40.45011 35.15091
# Shear Modulus (GPa) = 32.02786 38.08628 35.05707
#
# Velocity S-wave (km/s) = 3.63605 3.96506 3.80411
# Velocity P-wave (km/s) = 5.47269 6.13675 5.81421
#
# Compressibility (1/GPa) = 0.03349892
#
# Stress axis : x y z
#
# Youngs Moduli (GPa) = 40.39493 106.51709 79.20426
#
# Poissons Ratio (x) = 0.22948 0.22795
# Poissons Ratio (y) = 0.08703 0.12695
# Poissons Ratio (z) = 0.11626 0.17073
#
# Static dielectric constant tensor:
#      x y z
#    x 2.025630 0.000000 -0.035680 
#    y 0.000000 1.914730 0.000000 
#    z -0.035680 0.000000 1.932320 
# 
# From -- ./inp_files/25225.got.cif
#   From: 2010.05.17/outbox.cif.g08.bks.cpg/sg9_13_cif.got.tgz:25225.got - 2010.06.03 20:04:27.
