data_PCOD9137082
_publ_section_title
;
Structure prediction by ZEFSAII (Michael W. Deem and Ramdas Pophale) SiO2 
 PCOD9137082
Probable space group: C C
;
_chemical_formula_sum "Si O2"
_cell_formula_units_Z 24
_cell_length_a 10.028756
_cell_length_b 9.271562
_cell_length_c 9.793731
_cell_angle_alpha 90.000000
_cell_angle_beta 79.724121
_cell_angle_gamma 90.000000
_cell_volume 896.036470
_symmetry_space_group_name_H-M "C C"
_symmetry_group_IT_number 9
_symmetry_cell_setting 'monoclinic'
loop_
_space_group_symop_operation_xyz
x,y,z
x,-y,1/2+z
1/2+x,1/2+y,z
1/2+x,1/2-y,1/2+z
loop_
_atom_site_type_symbol
_atom_site_label
_atom_site_fract_x
_atom_site_fract_y
_atom_site_fract_z
Si Si1 0.340510 0.237772 0.861890
Si Si2 0.214767 0.208625 0.245670
Si Si3 0.541133 0.290886 0.515915
Si Si4 0.385623 0.510377 0.666940
Si Si5 0.453787 0.008268 0.646124
Si Si6 0.566058 0.728682 0.545724
O O1 0.338665 0.381088 0.772289
O O2 0.430446 0.273974 0.976617
O O3 0.422845 0.103851 0.784074
O O4 0.183153 0.197944 0.912755
O O5 0.091100 0.191155 0.164431
O O6 0.269393 0.369789 0.207144
O O7 0.320332 0.089763 0.175437
O O8 0.179634 0.195039 0.412641
O O9 0.430224 0.417033 0.522679
O O10 0.477266 0.130433 0.525602
O O11 0.523427 0.608240 0.663657
O O12 0.571483 0.887790 0.610424
#
# Coordination Sequence:
#
# PCOD9137082 Si02
#       6
#     4   4   4   4   4   4
#     4  11  21  42  67  90 130 164 206 261 311 367
#     4  11  21  42  67  90 130 164 206 261 311 367
#     4  11  21  42  67  90 130 164 206 261 311 367
#     4  10  22  38  68  96 116 176 206 246 328 360
#     4  10  22  38  68  96 116 176 206 246 328 360
#     4  11  21  42  67  90 130 164 206 261 311 367
#
# _framework density 26.784623
#
# number of rings (size 3 to 8) (size 9 to 14) (size 15 to 20)
#    0.000    1.333    6.667    2.000    0.000    0.000 
#    0.000   13.333    0.000    0.000    0.000    0.000 
#    0.000    0.000    0.000    0.000    0.000    0.000 
#
# Total GULP energy -66933.517703 kJ/mol
# GULP energy per Si atom -5577.793142 kJ/mol
# Density = 2.672366 g / cm^3
# Si number density = 26.784623 Si / 1000 Ang^3
#
#
#
# Elastic Constant Matrix: (Units=GPa)
#
#
# Indices 1 2 3 4 5 6 
#
# 1 70.7619 18.0497 29.1284 0.0000 -10.2965 0.0000
# 2 18.0497 179.3418 19.4598 0.0000 -5.4668 0.0000
# 3 29.1284 19.4598 68.1673 0.0000 -29.2027 0.0000
# 4 0.0000 0.0000 0.0000 47.2334 0.0000 -15.9661
# 5 -10.2965 -5.4668 -29.2027 0.0000 39.6715 0.0000
# 6 0.0000 0.0000 0.0000 -15.9661 0.0000 45.8260
#
#
#
# Elastic Compliance Matrix: (Units=1/GPa)
#
#
# Indices 1 2 3 4 5 6 
#
# 1 0.017355 -0.000951 -0.007699 0.000000 -0.001294 0.000000
# 2 -0.000951 0.005816 -0.001485 0.000000 -0.000538 0.000000
# 3 -0.007699 -0.001485 0.025473 0.000000 0.016548 0.000000
# 4 0.000000 0.000000 0.000000 0.023998 0.000000 0.008361
# 5 -0.001294 -0.000538 0.016548 0.000000 0.036978 0.000000
# 6 0.000000 0.000000 0.000000 0.008361 0.000000 0.024735
#
#
# Mechanical properties :
#
#
# Convention : Reuss Voigt Hill
#
# Bulk Modulus (GPa) = 35.24176 50.17186 42.70681
# Shear Modulus (GPa) = 30.47258 43.32170 36.89714
#
# Velocity S-wave (km/s) = 3.37662 4.02607 3.71556
# Velocity P-wave (km/s) = 5.32805 6.35488 5.86399
#
# Compressibility (1/GPa) = 0.02837543
#
# Stress axis : x y z
#
# Youngs Moduli (GPa) = 57.61913 171.92982 39.25800
#
# Poissons Ratio (x) = 0.16346 0.30225
# Poissons Ratio (y) = 0.05478 0.05828
# Poissons Ratio (z) = 0.44361 0.25526
#
# Static dielectric constant tensor:
#      x y z
#    x 2.179870 0.000000 0.011900 
#    y 0.000000 2.262180 0.000000 
#    z 0.011900 0.000000 2.268580 
# 
# From -- ./inp_files/15851.got.cif
#   From: 2010.05.17/outbox.cif.g08.bks.cpg/sg9_8_cif.got.tgz:15851.got - 2010.06.03 20:04:27.
