data_PCOD9137179
_publ_section_title
;
Structure prediction by ZEFSAII (Michael W. Deem and Ramdas Pophale) SiO2 
 PCOD9137179
Probable space group: C C
;
_chemical_formula_sum "Si O2"
_cell_formula_units_Z 28
_cell_length_a 17.923496
_cell_length_b 5.061758
_cell_length_c 21.170431
_cell_angle_alpha 90.000000
_cell_angle_beta 39.502066
_cell_angle_gamma 90.000000
_cell_volume 1221.752743
_symmetry_space_group_name_H-M "C C"
_symmetry_group_IT_number 9
_symmetry_cell_setting 'monoclinic'
loop_
_space_group_symop_operation_xyz
x,y,z
x,-y,1/2+z
1/2+x,1/2+y,z
1/2+x,1/2-y,1/2+z
loop_
_atom_site_type_symbol
_atom_site_label
_atom_site_fract_x
_atom_site_fract_y
_atom_site_fract_z
Si Si1 0.433630 0.935533 0.263450
Si Si2 0.320029 0.497316 0.994968
Si Si3 0.689644 0.724611 0.969144
Si Si4 0.959830 0.066232 0.665354
Si Si5 0.886618 0.950266 0.083028
Si Si6 0.978699 0.499800 0.867265
Si Si7 0.551100 0.050837 0.450023
O O1 0.300517 0.948200 0.375400
O O2 0.444047 0.635298 0.233529
O O3 0.456620 0.136324 0.191917
O O4 0.511729 0.015778 0.272532
O O5 0.223210 0.403934 0.007912
O O6 0.373451 0.787951 0.948702
O O7 0.425980 0.292216 0.911309
O O8 0.293264 0.450504 0.086858
O O9 0.583261 0.531106 0.056162
O O10 0.653625 0.906024 0.933090
O O11 0.863284 0.032737 0.672951
O O12 0.970498 0.696929 0.020462
O O13 0.966906 0.199600 0.014491
O O14 0.073998 0.459289 0.859958
#
# Coordination Sequence:
#
# PCOD9137179 Si02
#       7
#     4   4   4   4   4   4   4
#     4  11  23  38  59  87 119 154 193 239 290 345
#     4   9  18  33  59  83 111 153 193 234 290 341
#     4  10  22  40  62  88 116 154 198 242 288 346
#     4  11  23  38  59  87 119 154 193 239 290 345
#     4   9  18  35  55  83 116 151 190 237 289 341
#     4   9  18  35  55  83 116 151 190 237 289 341
#     4   9  18  33  59  83 111 153 193 234 290 341
#
# _framework density 22.917894
#
# number of rings (size 3 to 8) (size 9 to 14) (size 15 to 20)
#    0.000    2.286    0.000    3.429    0.000   10.286 
#    0.000    2.857    0.000    0.000    0.000    0.000 
#    0.000    0.000    0.000    0.000    0.000    0.000 
#
# Total GULP energy -78137.101326 kJ/mol
# GULP energy per Si atom -5581.221523 kJ/mol
# Density = 2.286573 g / cm^3
# Si number density = 22.917894 Si / 1000 Ang^3
#
#
#
# Elastic Constant Matrix: (Units=GPa)
#
#
# Indices 1 2 3 4 5 6 
#
# 1 210.4481 9.0242 32.9248 -0.0540 37.8137 0.0602
# 2 9.0242 98.4463 -3.1976 -0.0741 -5.8162 -0.0128
# 3 32.9248 -3.1976 51.5428 -0.0050 -1.6640 0.0129
# 4 -0.0540 -0.0741 -0.0050 25.4776 -0.0070 11.4101
# 5 37.8137 -5.8162 -1.6640 -0.0070 42.4794 -0.0182
# 6 0.0602 -0.0128 0.0129 11.4101 -0.0182 34.1374
#
#
#
# Elastic Compliance Matrix: (Units=1/GPa)
#
#
# Indices 1 2 3 4 5 6 
#
# 1 0.006623 -0.001121 -0.004501 0.000017 -0.006225 -0.000019
# 2 -0.001121 0.010454 0.001445 0.000031 0.002486 -0.000004
# 3 -0.004501 0.001445 0.022530 -0.000001 0.005087 0.000003
# 4 0.000017 0.000031 -0.000001 0.046160 -0.000010 -0.015428
# 5 -0.006225 0.002486 0.005087 -0.000010 0.029622 0.000029
# 6 -0.000019 -0.000004 0.000003 -0.015428 0.000029 0.034450
#
#
# Mechanical properties :
#
#
# Convention : Reuss Voigt Hill
#
# Bulk Modulus (GPa) = 31.99662 48.65999 40.32830
# Shear Modulus (GPa) = 29.65412 41.86462 35.75937
#
# Velocity S-wave (km/s) = 3.60102 4.27865 3.95438
# Velocity P-wave (km/s) = 5.59299 6.75926 6.20359
#
# Compressibility (1/GPa) = 0.03125330
#
# Stress axis : x y z
#
# Youngs Moduli (GPa) = 150.99996 95.65349 44.38466
#
# Poissons Ratio (x) = 0.10723 0.19977
# Poissons Ratio (y) = 0.16927 -0.06413
# Poissons Ratio (z) = 0.67963 -0.13821
#
# Static dielectric constant tensor:
#      x y z
#    x 1.968160 -0.000030 0.056890 
#    y -0.000030 1.778830 0.000040 
#    z 0.056890 0.000040 1.879960 
# 
# From -- ./inp_files/26263.got.cif
#   From: 2010.05.17/outbox.cif.g08.bks.cpg/sg9_14_cif.got.tgz:26263.got - 2010.06.03 20:04:27.
