data_PCOD9137501
_publ_section_title
;
Structure prediction by ZEFSAII (Michael W. Deem and Ramdas Pophale) SiO2 
 PCOD9137501
Probable space group: C C
;
_chemical_formula_sum "Si O2"
_cell_formula_units_Z 28
_cell_length_a 16.018171
_cell_length_b 10.543836
_cell_length_c 9.040481
_cell_angle_alpha 90.000000
_cell_angle_beta 47.094281
_cell_angle_gamma 90.000000
_cell_volume 1118.396712
_symmetry_space_group_name_H-M "C C"
_symmetry_group_IT_number 9
_symmetry_cell_setting 'monoclinic'
loop_
_space_group_symop_operation_xyz
x,y,z
x,-y,1/2+z
1/2+x,1/2+y,z
1/2+x,1/2-y,1/2+z
loop_
_atom_site_type_symbol
_atom_site_label
_atom_site_fract_x
_atom_site_fract_y
_atom_site_fract_z
Si Si1 0.566420 0.899178 0.912290
Si Si2 0.906923 0.022425 0.703721
Si Si3 0.258726 0.411966 0.131716
Si Si4 0.532854 0.351187 0.307899
Si Si5 0.582933 0.260706 0.693946
Si Si6 0.232623 0.990785 0.988644
Si Si7 0.385871 0.892606 0.548871
O O1 0.686528 0.957470 0.719216
O O2 0.517058 0.794619 0.861530
O O3 0.579593 0.828763 0.053022
O O4 0.481362 0.016378 0.004970
O O5 0.988108 0.113601 0.699461
O O6 0.808901 0.096191 0.734617
O O7 0.849229 0.929593 0.891862
O O8 0.967974 0.937903 0.505748
O O9 0.177374 0.296666 0.189654
O O10 0.665421 0.385570 0.163356
O O11 0.634088 0.398788 0.588736
O O12 0.460190 0.233658 0.919493
O O13 0.334674 0.054811 0.956580
O O14 0.281441 0.917040 0.787915
#
# Coordination Sequence:
#
# PCOD9137501 Si02
#       7
#     4   4   4   4   4   4   4
#     4  11  23  46  76 101 147 194 253 308 372 470
#     4  10  22  42  68 102 147 186 247 310 366 459
#     4  10  22  43  72 105 138 193 254 310 377 450
#     4  11  25  45  70 108 150 196 252 308 388 463
#     4  11  24  46  76 107 146 203 251 306 384 469
#     4  12  26  49  72 107 155 198 247 322 383 452
#     4  11  26  49  76 108 147 198 256 308 388 453
#
# _framework density 25.035837999999998
#
# number of rings (size 3 to 8) (size 9 to 14) (size 15 to 20)
#    0.000    1.143    2.857    2.571    2.000    4.571 
#   15.429    0.000    0.000    0.000    0.000    0.000 
#    0.000    0.000    0.000    0.000    0.000    0.000 
#
# Total GULP energy -78349.047935 kJ/mol
# GULP energy per Si atom -5596.360567 kJ/mol
# Density = 2.497886 g / cm^3
# Si number density = 25.035838 Si / 1000 Ang^3
#
#
#
# Elastic Constant Matrix: (Units=GPa)
#
#
# Indices 1 2 3 4 5 6 
#
# 1 112.1111 22.8674 23.9980 0.0000 17.7422 0.0000
# 2 22.8674 85.5284 49.9685 0.0000 8.2363 0.0000
# 3 23.9980 49.9685 149.0732 0.0000 -6.1447 0.0000
# 4 0.0000 0.0000 0.0000 14.8507 0.0000 28.4987
# 5 17.7422 8.2363 -6.1447 0.0000 32.8994 0.0000
# 6 0.0000 0.0000 0.0000 28.4987 0.0000 -10.8393
#
#
#
# Elastic Compliance Matrix: (Units=1/GPa)
#
#
# Indices 1 2 3 4 5 6 
#
# 1 0.010386 -0.001413 -0.001426 0.000000 -0.005513 0.000000
# 2 -0.001413 0.015452 -0.005119 0.000000 -0.004063 0.000000
# 3 -0.001426 -0.005119 0.008806 0.000000 0.003695 0.000000
# 4 0.000000 0.000000 0.000000 0.011138 0.000000 0.029285
# 5 -0.005513 -0.004063 0.003695 0.000000 0.035076 0.000000
# 6 0.000000 0.000000 0.000000 0.029285 0.000000 -0.015261
#
#
# Mechanical properties :
#
#
# Convention : Reuss Voigt Hill
#
# Bulk Modulus (GPa) = 53.39705 60.04228 56.71966
# Shear Modulus (GPa) = 56.97625 24.04074 40.50850
#
# Velocity S-wave (km/s) = 4.77570 3.10216 4.02683
# Velocity P-wave (km/s) = 7.19613 6.07172 6.65770
#
# Compressibility (1/GPa) = 0.01872763
#
# Stress axis : x y z
#
# Youngs Moduli (GPa) = 96.28729 64.71681 113.56034
#
# Poissons Ratio (x) = 0.09144 0.16188
# Poissons Ratio (y) = 0.13605 0.58136
# Poissons Ratio (z) = 0.13726 0.33131
#
# Static dielectric constant tensor:
#      x y z
#    x 1.968510 0.000000 -0.034650 
#    y 0.000000 1.990910 0.000000 
#    z -0.034650 0.000000 1.959670 
# 
# From -- ./inp_files/9211.got.cif
#   From: 2010.05.17/outbox.cif.g08.bks.cpg/sg9_5_cif.got.tgz:9211.got - 2010.06.03 20:04:27.
