data_PCOD9137384
_publ_section_title
;
Structure prediction by ZEFSAII (Michael W. Deem and Ramdas Pophale) SiO2 
 PCOD9137384
Probable space group: C C
;
_chemical_formula_sum "Si O2"
_cell_formula_units_Z 32
_cell_length_a 19.148694
_cell_length_b 5.287515
_cell_length_c 13.227920
_cell_angle_alpha 90.000000
_cell_angle_beta 67.919201
_cell_angle_gamma 90.000000
_cell_volume 1241.081337
_symmetry_space_group_name_H-M "C C"
_symmetry_group_IT_number 9
_symmetry_cell_setting 'monoclinic'
loop_
_space_group_symop_operation_xyz
x,y,z
x,-y,1/2+z
1/2+x,1/2+y,z
1/2+x,1/2-y,1/2+z
loop_
_atom_site_type_symbol
_atom_site_label
_atom_site_fract_x
_atom_site_fract_y
_atom_site_fract_z
Si Si1 0.099780 0.303782 0.768410
Si Si2 0.349839 0.224083 0.622222
Si Si3 0.800627 0.447989 0.940202
Si Si4 0.546787 0.443170 0.628631
Si Si5 0.196844 0.317172 0.101683
Si Si6 0.461525 0.139705 0.823274
Si Si7 0.215713 0.987735 0.801388
Si Si8 0.439777 0.706126 0.544493
O O1 0.054814 0.108482 0.724912
O O2 0.162249 0.417679 0.657560
O O3 0.142617 0.166361 0.835779
O O4 0.036393 0.507239 0.829052
O O5 0.288738 0.159757 0.739612
O O6 0.381921 0.501730 0.620002
O O7 0.307990 0.218996 0.536363
O O8 0.408787 0.989545 0.578255
O O9 0.886174 0.473852 0.854051
O O10 0.740263 0.351587 0.890863
O O11 0.768195 0.719622 0.998559
O O12 0.626770 0.306868 0.578563
O O13 0.485894 0.239281 0.700918
O O14 0.517141 0.621897 0.556105
O O15 0.207131 0.187065 0.207212
O O16 0.442742 0.336043 0.922560
#
# Coordination Sequence:
#
# PCOD9137384 Si02
#       8
#     4   4   4   4   4   4   4   4
#     4  10  23  42  64  96 140 182 228 291 342 422
#     4  10  25  43  67 106 140 175 233 288 337 415
#     4  10  22  44  68  98 131 180 230 290 347 415
#     4  10  23  41  68  95 141 184 223 284 354 416
#     4   9  22  43  61  99 135 173 236 286 345 416
#     4  10  24  42  65 102 136 174 237 290 343 415
#     4  10  22  41  69  94 137 183 227 282 354 410
#     4  11  25  42  72 102 140 183 226 285 348 413
#
# _framework density 25.783968999999999
#
# number of rings (size 3 to 8) (size 9 to 14) (size 15 to 20)
#    0.000    2.000    0.000    0.750   14.000    4.000 
#    4.500    0.000    0.000    0.000    0.000    0.000 
#    0.000    0.000    0.000    0.000    0.000    0.000 
#
# Total GULP energy -89410.427354 kJ/mol
# GULP energy per Si atom -5588.151710 kJ/mol
# Density = 2.572528 g / cm^3
# Si number density = 25.783969 Si / 1000 Ang^3
#
#
#
# Elastic Constant Matrix: (Units=GPa)
#
#
# Indices 1 2 3 4 5 6 
#
# 1 142.3303 19.0700 42.3309 0.0000 19.1944 0.0000
# 2 19.0700 44.7345 2.3327 0.0000 -2.2113 0.0001
# 3 42.3309 2.3327 57.5064 0.0000 3.8112 0.0000
# 4 0.0000 0.0000 0.0000 21.2600 0.0000 -5.2598
# 5 19.1944 -2.2113 3.8112 0.0000 64.2826 0.0000
# 6 0.0000 0.0001 0.0000 -5.2598 0.0000 40.5968
#
#
#
# Elastic Compliance Matrix: (Units=1/GPa)
#
#
# Indices 1 2 3 4 5 6 
#
# 1 0.010026 -0.004042 -0.007037 0.000000 -0.002716 0.000000
# 2 -0.004042 0.024075 0.001871 0.000000 0.001924 0.000000
# 3 -0.007037 0.001871 0.022438 0.000000 0.000835 0.000000
# 4 0.000000 0.000000 0.000000 0.048594 0.000000 0.006296
# 5 -0.002716 0.001924 0.000835 0.000000 0.016384 0.000000
# 6 0.000000 0.000000 0.000000 0.006296 0.000000 0.025448
#
#
# Mechanical properties :
#
#
# Convention : Reuss Voigt Hill
#
# Bulk Modulus (GPa) = 26.22992 41.33759 33.78375
# Shear Modulus (GPa) = 28.07605 37.28372 32.67989
#
# Velocity S-wave (km/s) = 3.30342 3.80676 3.56399
# Velocity P-wave (km/s) = 4.97445 5.94887 5.48335
#
# Compressibility (1/GPa) = 0.03812440
#
# Stress axis : x y z
#
# Youngs Moduli (GPa) = 99.73650 41.53763 44.56766
#
# Poissons Ratio (x) = 0.16788 0.31360
# Poissons Ratio (y) = 0.40309 -0.08338
# Poissons Ratio (z) = 0.70181 -0.07771
#
# Static dielectric constant tensor:
#      x y z
#    x 2.094280 0.000000 0.007750 
#    y 0.000000 2.077800 0.000000 
#    z 0.007750 0.000000 1.991410 
# 
# From -- ./inp_files/26387.got.cif
#   From: 2010.05.17/outbox.cif.g08.bks.cpg/sg9_14_cif.got.tgz:26387.got - 2010.06.03 20:04:27.
