data_PCOD9137110
_publ_section_title
;
Structure prediction by ZEFSAII (Michael W. Deem and Ramdas Pophale) SiO2 
 PCOD9137110
Probable space group: C C
;
_chemical_formula_sum "Si O2"
_cell_formula_units_Z 28
_cell_length_a 6.977603
_cell_length_b 10.097263
_cell_length_c 22.328657
_cell_angle_alpha 90.000000
_cell_angle_beta 46.678293
_cell_angle_gamma 90.000000
_cell_volume 1144.493187
_symmetry_space_group_name_H-M "C C"
_symmetry_group_IT_number 9
_symmetry_cell_setting 'monoclinic'
loop_
_space_group_symop_operation_xyz
x,y,z
x,-y,1/2+z
1/2+x,1/2+y,z
1/2+x,1/2-y,1/2+z
loop_
_atom_site_type_symbol
_atom_site_label
_atom_site_fract_x
_atom_site_fract_y
_atom_site_fract_z
Si Si1 0.488360 0.265160 0.451730
Si Si2 0.264911 0.484891 0.571951
Si Si3 0.325336 0.985591 0.519194
Si Si4 0.570588 0.139881 0.856917
Si Si5 0.652303 0.743817 0.133828
Si Si6 0.285209 0.170650 0.225959
Si Si7 0.223163 0.633243 0.293558
O O1 0.313594 0.392546 0.503994
O O2 0.784671 0.301161 0.405157
O O3 0.514294 0.212987 0.378384
O O4 0.395030 0.139164 0.510391
O O5 0.545342 0.479070 0.544950
O O6 0.203955 0.639583 0.576559
O O7 0.029132 0.425394 0.662736
O O8 0.545146 0.918011 0.429074
O O9 0.272071 0.895276 0.587563
O O10 0.769447 0.252603 0.791876
O O11 0.610541 0.011143 0.806315
O O12 0.784780 0.774515 0.169889
O O13 0.346705 0.717750 0.213522
O O14 0.995838 0.106657 0.274238
#
# Coordination Sequence:
#
# PCOD9137110 Si02
#       7
#     4   4   4   4   4   4   4
#     4   9  19  38  65  88 121 165 206 250 308 366
#     4  11  22  37  62  94 123 164 209 249 317 366
#     4  10  22  39  63  92 123 163 211 259 305 366
#     4   9  18  39  65  88 118 171 205 250 315 366
#     4  10  23  37  61  93 124 156 208 258 309 359
#     4   9  21  37  61  85 127 164 204 255 312 367
#     4   8  19  37  63  84 124 165 203 253 310 358
#
# _framework density 24.464977000000001
#
# number of rings (size 3 to 8) (size 9 to 14) (size 15 to 20)
#    0.857    1.714    0.000    0.857    4.000    3.429 
#    2.571    0.000   28.286    0.000    0.000    0.000 
#    0.000    0.000    0.000    0.000    0.000    0.000 
#
# Total GULP energy -78119.771758 kJ/mol
# GULP energy per Si atom -5579.983697 kJ/mol
# Density = 2.440929 g / cm^3
# Si number density = 24.464977 Si / 1000 Ang^3
#
#
#
# Elastic Constant Matrix: (Units=GPa)
#
#
# Indices 1 2 3 4 5 6 
#
# 1 65.1305 17.6494 21.6831 0.0000 -14.7806 -0.0001
# 2 17.6494 123.3264 65.1443 0.0000 -11.8418 -0.0001
# 3 21.6831 65.1443 118.1604 -0.0001 -14.5570 0.0001
# 4 0.0000 0.0000 -0.0001 62.9807 0.0001 -10.0557
# 5 -14.7806 -11.8418 -14.5570 0.0001 36.6698 0.0000
# 6 -0.0001 -0.0001 0.0001 -10.0557 0.0000 17.1149
#
#
#
# Elastic Compliance Matrix: (Units=1/GPa)
#
#
# Indices 1 2 3 4 5 6 
#
# 1 0.017628 -0.000886 -0.002005 0.000000 0.006024 0.000000
# 2 -0.000886 0.011540 -0.006082 0.000000 0.000955 0.000000
# 3 -0.002005 -0.006082 0.012451 0.000000 0.002171 0.000000
# 4 0.000000 0.000000 0.000000 0.017522 0.000000 0.010295
# 5 0.006024 0.000955 0.002171 0.000000 0.030869 0.000000
# 6 0.000000 0.000000 0.000000 0.010295 0.000000 0.064477
#
#
# Mechanical properties :
#
#
# Convention : Reuss Voigt Hill
#
# Bulk Modulus (GPa) = 42.23814 57.28567 49.76191
# Shear Modulus (GPa) = 27.72818 36.82912 32.27865
#
# Velocity S-wave (km/s) = 3.37023 3.88413 3.63627
# Velocity P-wave (km/s) = 5.69621 6.60163 6.16556
#
# Compressibility (1/GPa) = 0.02367529
#
# Stress axis : x y z
#
# Youngs Moduli (GPa) = 56.72760 86.65799 80.31210
#
# Poissons Ratio (x) = 0.07674 0.16099
# Poissons Ratio (y) = 0.05023 0.48845
# Poissons Ratio (z) = 0.11371 0.52704
#
# Static dielectric constant tensor:
#      x y z
#    x 2.020670 0.000000 0.051850 
#    y 0.000000 1.943800 0.000000 
#    z 0.051850 0.000000 1.974220 
# 
# From -- ./inp_files/34887.got.cif
#   From: 2010.05.17/outbox.cif.g08.bks.cpg/sg9_18_cif.got.tgz:34887.got - 2010.06.03 20:04:27.
