data_PCOD9137128
_publ_section_title
;
Structure prediction by ZEFSAII (Michael W. Deem and Ramdas Pophale) SiO2 
 PCOD9137128
Probable space group: C C
;
_chemical_formula_sum "Si O2"
_cell_formula_units_Z 28
_cell_length_a 13.969210
_cell_length_b 13.119799
_cell_length_c 7.694946
_cell_angle_alpha 90.000000
_cell_angle_beta 68.180764
_cell_angle_gamma 90.000000
_cell_volume 1309.246845
_symmetry_space_group_name_H-M "C C"
_symmetry_group_IT_number 9
_symmetry_cell_setting 'monoclinic'
loop_
_space_group_symop_operation_xyz
x,y,z
x,-y,1/2+z
1/2+x,1/2+y,z
1/2+x,1/2-y,1/2+z
loop_
_atom_site_type_symbol
_atom_site_label
_atom_site_fract_x
_atom_site_fract_y
_atom_site_fract_z
Si Si1 0.024350 0.257730 0.451150
Si Si2 0.267597 0.090086 0.595428
Si Si3 0.848061 0.807141 0.546668
Si Si4 0.535707 0.397346 0.256520
Si Si5 0.744367 0.172261 0.732616
Si Si6 0.391574 0.402659 0.852891
Si Si7 0.829444 0.622380 0.167000
O O1 0.049444 0.166875 0.570036
O O2 0.121779 0.325036 0.330440
O O3 0.965321 0.195347 0.340303
O O4 0.943270 0.331646 0.601280
O O5 0.318124 0.194094 0.628426
O O6 0.150745 0.077785 0.740540
O O7 0.272953 0.105897 0.386402
O O8 0.328604 0.986300 0.580911
O O9 0.790878 0.828833 0.399373
O O10 0.828393 0.882497 0.719692
O O11 0.968669 0.824006 0.424251
O O12 0.465521 0.498805 0.287733
O O13 0.810597 0.096331 0.568125
O O14 0.767520 0.282967 0.628617
#
# Coordination Sequence:
#
# PCOD9137128 Si02
#       7
#     4   4   4   4   4   4   4
#     4  11  21  46  67  95 145 181 216 290 355 391
#     4  11  24  39  68  97 128 176 226 279 338 404
#     4  11  24  41  66  97 140 169 224 286 339 399
#     4  12  22  44  70 100 131 181 225 279 344 405
#     4  10  22  46  64  95 141 181 213 288 348 394
#     4  11  25  39  70 104 133 174 238 277 327 425
#     4  10  22  39  65  94 130 172 226 277 333 404
#
# _framework density 21.386341999999999
#
# number of rings (size 3 to 8) (size 9 to 14) (size 15 to 20)
#    0.000    1.143    7.143    1.714    6.000    1.143 
#    0.000    2.857    0.000    0.000    0.000    0.000 
#    0.000    0.000    0.000    0.000    0.000    0.000 
#
# Total GULP energy -78058.153799 kJ/mol
# GULP energy per Si atom -5575.582414 kJ/mol
# Density = 2.133767 g / cm^3
# Si number density = 21.386342 Si / 1000 Ang^3
#
#
#
# Elastic Constant Matrix: (Units=GPa)
#
#
# Indices 1 2 3 4 5 6 
#
# 1 70.7901 44.1724 43.4685 0.0000 -25.0072 0.0000
# 2 44.1724 132.6504 34.5744 0.0000 -4.9417 0.0000
# 3 43.4685 34.5744 88.8150 0.0000 -13.7394 0.0000
# 4 0.0000 0.0000 0.0000 24.1285 0.0000 -4.2197
# 5 -25.0072 -4.9417 -13.7394 0.0000 42.4906 0.0000
# 6 0.0000 0.0000 0.0000 -4.2197 0.0000 27.1272
#
#
#
# Elastic Compliance Matrix: (Units=1/GPa)
#
#
# Indices 1 2 3 4 5 6 
#
# 1 0.028637 -0.006592 -0.009433 0.000000 0.013037 0.000000
# 2 -0.006592 0.009908 -0.001108 0.000000 -0.003086 0.000000
# 3 -0.009433 -0.001108 0.016241 0.000000 -0.000429 0.000000
# 4 0.000000 0.000000 0.000000 0.042604 0.000000 0.006627
# 5 0.013037 -0.003086 -0.000429 0.000000 0.030710 0.000000
# 6 0.000000 0.000000 0.000000 0.006627 0.000000 0.037894
#
#
# Mechanical properties :
#
#
# Convention : Reuss Voigt Hill
#
# Bulk Modulus (GPa) = 48.73199 59.63180 54.18189
# Shear Modulus (GPa) = 24.14298 30.08527 27.11413
#
# Velocity S-wave (km/s) = 3.36355 3.75474 3.56452
# Velocity P-wave (km/s) = 6.15797 6.83674 6.50622
#
# Compressibility (1/GPa) = 0.02052040
#
# Stress axis : x y z
#
# Youngs Moduli (GPa) = 34.91937 100.93335 61.57226
#
# Poissons Ratio (x) = 0.66534 0.58081
# Poissons Ratio (y) = 0.23018 0.06822
# Poissons Ratio (z) = 0.32939 0.11183
#
# Static dielectric constant tensor:
#      x y z
#    x 1.827400 0.000000 0.045970 
#    y 0.000000 1.885970 0.000000 
#    z 0.045970 0.000000 1.823500 
# 
# From -- ./inp_files/9205.got.cif
#   From: 2010.05.17/outbox.cif.g08.bks.cpg/sg9_5_cif.got.tgz:9205.got - 2010.06.03 20:04:27.
