data_PCOD9137455
_publ_section_title
;
Structure prediction by ZEFSAII (Michael W. Deem and Ramdas Pophale) SiO2 
 PCOD9137455
Probable space group: C C
;
_chemical_formula_sum "Si O2"
_cell_formula_units_Z 32
_cell_length_a 10.850649
_cell_length_b 14.114881
_cell_length_c 9.585911
_cell_angle_alpha 90.000000
_cell_angle_beta 74.652149
_cell_angle_gamma 90.000000
_cell_volume 1415.777567
_symmetry_space_group_name_H-M "C C"
_symmetry_group_IT_number 9
_symmetry_cell_setting 'monoclinic'
loop_
_space_group_symop_operation_xyz
x,y,z
x,-y,1/2+z
1/2+x,1/2+y,z
1/2+x,1/2-y,1/2+z
loop_
_atom_site_type_symbol
_atom_site_label
_atom_site_fract_x
_atom_site_fract_y
_atom_site_fract_z
Si Si1 0.750000 0.907793 0.106580
Si Si2 0.097115 0.312652 0.387163
Si Si3 0.977891 0.883435 0.881847
Si Si4 0.046439 0.621749 0.445896
Si Si5 0.773316 0.897013 0.703778
Si Si6 0.226565 0.034971 0.413866
Si Si7 0.384286 0.060671 0.081478
Si Si8 0.798801 0.277285 0.025506
O O1 0.662365 0.888219 0.265661
O O2 0.781909 0.019863 0.086599
O O3 0.889362 0.863272 0.044201
O O4 0.663029 0.860556 0.014247
O O5 0.217139 0.282796 0.443145
O O6 0.047343 0.216419 0.327391
O O7 0.982349 0.356593 0.511761
O O8 0.881306 0.917273 0.789187
O O9 0.086174 0.959563 0.890177
O O10 0.123763 0.594916 0.286562
O O11 0.967917 0.534876 0.535457
O O12 0.947077 0.704795 0.450864
O O13 0.792829 0.786661 0.663492
O O14 0.321153 0.059096 0.254432
O O15 0.234483 0.119871 0.526309
O O16 0.277404 0.946673 0.489161
#
# Coordination Sequence:
#
# PCOD9137455 Si02
#       8
#     4   4   4   4   4   4   4   4
#     4  11  23  42  70  98 133 186 235 294 354 431
#     4  11  23  41  70  98 138 183 231 295 357 430
#     4  10  26  43  64 102 142 179 238 300 369 421
#     4  10  22  42  66 101 128 180 239 285 354 419
#     4  11  23  43  68  97 140 183 240 297 355 432
#     4  10  25  44  68 105 143 188 235 297 361 428
#     4  11  22  42  74  99 138 188 244 290 350 440
#     4  10  24  39  66 100 140 177 226 294 350 421
#
# _framework density 22.602419999999999
#
# number of rings (size 3 to 8) (size 9 to 14) (size 15 to 20)
#    0.000    1.500    1.250    2.250   12.250    2.000 
#    0.000    2.500    0.000    0.000    0.000    0.000 
#    0.000    0.000    0.000    0.000    0.000    0.000 
#
# Total GULP energy -89128.515396 kJ/mol
# GULP energy per Si atom -5570.532212 kJ/mol
# Density = 2.255098 g / cm^3
# Si number density = 22.602420 Si / 1000 Ang^3
#
#
#
# Elastic Constant Matrix: (Units=GPa)
#
#
# Indices 1 2 3 4 5 6 
#
# 1 145.7880 31.9749 27.6147 0.0000 -6.0355 0.0000
# 2 31.9749 65.0364 20.3184 0.0000 -6.1096 0.0000
# 3 27.6147 20.3184 42.1699 0.0000 -6.1656 0.0000
# 4 0.0000 0.0000 0.0000 31.2021 0.0000 -0.6948
# 5 -6.0355 -6.1096 -6.1656 0.0000 28.7131 0.0000
# 6 0.0000 0.0000 0.0000 -0.6948 0.0000 35.2002
#
#
#
# Elastic Compliance Matrix: (Units=1/GPa)
#
#
# Indices 1 2 3 4 5 6 
#
# 1 0.008240 -0.002769 -0.004021 0.000000 0.000279 0.000000
# 2 -0.002769 0.019148 -0.007126 0.000000 0.001962 0.000000
# 3 -0.004021 -0.007126 0.030389 0.000000 0.004164 0.000000
# 4 0.000000 0.000000 0.000000 0.032063 0.000000 0.000633
# 5 0.000279 0.001962 0.004164 0.000000 0.036198 0.000000
# 6 0.000000 0.000000 0.000000 0.000633 0.000000 0.028421
#
#
# Mechanical properties :
#
#
# Convention : Reuss Voigt Hill
#
# Bulk Modulus (GPa) = 33.39397 45.86781 39.63089
# Shear Modulus (GPa) = 26.00490 30.56215 28.28353
#
# Velocity S-wave (km/s) = 3.39564 3.68117 3.54128
# Velocity P-wave (km/s) = 5.49367 6.19720 5.85601
#
# Compressibility (1/GPa) = 0.02994553
#
# Stress axis : x y z
#
# Youngs Moduli (GPa) = 121.36395 52.22549 32.90672
#
# Poissons Ratio (x) = 0.14459 0.13231
# Poissons Ratio (y) = 0.33600 0.23449
# Poissons Ratio (z) = 0.48799 0.37216
#
# Static dielectric constant tensor:
#      x y z
#    x 1.846290 0.000000 0.026690 
#    y 0.000000 1.884940 0.000000 
#    z 0.026690 0.000000 1.984180 
# 
# From -- ./inp_files/7402.got.cif
#   From: 2010.05.17/outbox.cif.g08.bks.cpg/sg9_4_cif.got.tgz:7402.got - 2010.06.03 20:04:27.
