data_PCOD9137426
_publ_section_title
;
Structure prediction by ZEFSAII (Michael W. Deem and Ramdas Pophale) SiO2 
 PCOD9137426
Probable space group: C C
;
_chemical_formula_sum "Si O2"
_cell_formula_units_Z 16
_cell_length_a 6.973252
_cell_length_b 12.525758
_cell_length_c 9.929386
_cell_angle_alpha 90.000000
_cell_angle_beta 65.721588
_cell_angle_gamma 90.000000
_cell_volume 790.580691
_symmetry_space_group_name_H-M "C C"
_symmetry_group_IT_number 9
_symmetry_cell_setting 'monoclinic'
loop_
_space_group_symop_operation_xyz
x,y,z
x,-y,1/2+z
1/2+x,1/2+y,z
1/2+x,1/2-y,1/2+z
loop_
_atom_site_type_symbol
_atom_site_label
_atom_site_fract_x
_atom_site_fract_y
_atom_site_fract_z
Si Si1 0.388360 0.119414 0.450040
Si Si2 0.155946 0.298461 0.635865
Si Si3 0.974196 0.623401 0.937270
Si Si4 0.579698 0.764865 0.129675
O O1 0.179516 0.178831 0.566116
O O2 0.468708 0.178008 0.292528
O O3 0.556225 0.146874 0.519015
O O4 0.386322 0.993791 0.430584
O O5 0.372594 0.307247 0.657645
O O6 0.139582 0.375685 0.512351
O O7 0.061148 0.678841 0.778325
O O8 0.784983 0.695685 0.048437
#
# Coordination Sequence:
#
# PCOD9137426 Si02
#       4
#     4   4   4   4
#     4  10  22  44  61  91 128 155 205 256 298 365
#     4  10  22  44  60  94 124 154 213 252 289 381
#     4  12  22  42  66  87 127 168 191 257 315 342
#     4  10  22  42  61  94 125 153 213 251 288 382
#
# _framework density 20.238291
#
# number of rings (size 3 to 8) (size 9 to 14) (size 15 to 20)
#    1.500    0.000    2.500    3.000    0.000    0.000 
#   13.500    0.000    0.000    0.000    0.000    0.000 
#    0.000    0.000    0.000    0.000    0.000    0.000 
#
# Total GULP energy -44557.980307 kJ/mol
# GULP energy per Si atom -5569.747538 kJ/mol
# Density = 2.019223 g / cm^3
# Si number density = 20.238291 Si / 1000 Ang^3
#
#
#
# Elastic Constant Matrix: (Units=GPa)
#
#
# Indices 1 2 3 4 5 6 
#
# 1 27.0728 24.0949 26.2381 0.0000 9.7381 0.0000
# 2 24.0949 137.1209 78.0037 0.0000 -20.6066 0.0000
# 3 26.2381 78.0037 186.5688 0.0000 9.9981 0.0000
# 4 0.0000 0.0000 0.0000 13.1368 0.0000 -0.5213
# 5 9.7381 -20.6066 9.9981 0.0000 27.2548 0.0000
# 6 0.0000 0.0000 0.0000 -0.5213 0.0000 24.8864
#
#
#
# Elastic Compliance Matrix: (Units=1/GPa)
#
#
# Indices 1 2 3 4 5 6 
#
# 1 0.064728 -0.016560 -0.000274 0.000000 -0.035547 0.000000
# 2 -0.016560 0.016505 -0.005669 0.000000 0.020475 0.000000
# 3 -0.000274 -0.005669 0.008153 0.000000 -0.007179 0.000000
# 4 0.000000 0.000000 0.000000 0.076185 0.000000 0.001596
# 5 -0.035547 0.020475 -0.007179 0.000000 0.067506 0.000000
# 6 0.000000 0.000000 0.000000 0.001596 0.000000 0.040216
#
#
# Mechanical properties :
#
#
# Convention : Reuss Voigt Hill
#
# Bulk Modulus (GPa) = 22.53288 67.49287 45.01288
# Shear Modulus (GPa) = 15.01084 27.88399 21.44741
#
# Velocity S-wave (km/s) = 2.72638 3.71588 3.25890
# Velocity P-wave (km/s) = 4.59008 7.19943 6.03741
#
# Compressibility (1/GPa) = 0.04437959
#
# Stress axis : x y z
#
# Youngs Moduli (GPa) = 15.44925 60.58931 122.64845
#
# Poissons Ratio (x) = 1.00335 0.03366
# Poissons Ratio (y) = 0.25584 0.69527
# Poissons Ratio (z) = 0.00424 0.34347
#
# Static dielectric constant tensor:
#      x y z
#    x 1.776930 0.000000 0.020220 
#    y 0.000000 1.691130 0.000000 
#    z 0.020220 0.000000 1.707010 
# 
# From -- ./inp_files/3566.got.cif
#   From: 2010.05.17/outbox.cif.g08.bks.cpg/sg9_2_cif.got.tgz:3566.got - 2010.06.03 20:04:27.
