data_PCOD9137481
_publ_section_title
;
Structure prediction by ZEFSAII (Michael W. Deem and Ramdas Pophale) SiO2 
 PCOD9137481
Probable space group: C C
;
_chemical_formula_sum "Si O2"
_cell_formula_units_Z 24
_cell_length_a 10.547832
_cell_length_b 8.853104
_cell_length_c 9.736262
_cell_angle_alpha 90.000000
_cell_angle_beta 95.781446
_cell_angle_gamma 90.000000
_cell_volume 904.557740
_symmetry_space_group_name_H-M "C C"
_symmetry_group_IT_number 9
_symmetry_cell_setting 'monoclinic'
loop_
_space_group_symop_operation_xyz
x,y,z
x,-y,1/2+z
1/2+x,1/2+y,z
1/2+x,1/2-y,1/2+z
loop_
_atom_site_type_symbol
_atom_site_label
_atom_site_fract_x
_atom_site_fract_y
_atom_site_fract_z
Si Si1 0.843180 0.437086 0.875000
Si Si2 0.602538 0.973325 0.975518
Si Si3 0.928244 0.230539 0.297543
Si Si4 0.578824 0.536982 0.905714
Si Si5 0.679698 0.269018 0.658824
Si Si6 0.152681 0.306590 0.704692
O O1 0.880843 0.612503 0.859514
O O2 0.706052 0.434296 0.926024
O O3 0.808255 0.343929 0.733386
O O4 0.964987 0.387745 0.973118
O O5 0.706662 0.877266 0.071328
O O6 0.593162 0.130287 0.057519
O O7 0.633849 0.934908 0.820992
O O8 0.803236 0.203993 0.192180
O O9 0.067444 0.266759 0.253300
O O10 0.958004 0.071274 0.377090
O O11 0.599383 0.654618 0.777922
O O12 0.601692 0.620414 0.049991
#
# Coordination Sequence:
#
# PCOD9137481 Si02
#       6
#     4   4   4   4   4   4
#     4  10  23  42  66  98 141 183 242 301 357 430
#     4  11  24  44  70 102 141 195 235 297 373 431
#     4  10  22  42  67 102 137 191 237 306 363 426
#     4   9  22  43  67 101 141 185 239 307 356 425
#     4  10  23  42  67 100 140 190 241 298 365 428
#     4  10  24  43  65 107 142 186 246 297 360 438
#
# _framework density 26.532301
#
# number of rings (size 3 to 8) (size 9 to 14) (size 15 to 20)
#    0.000    2.000    0.000    1.000    7.000    6.667 
#    6.000    0.000    0.000    0.000    0.000    0.000 
#    0.000    0.000    0.000    0.000    0.000    0.000 
#
# Total GULP energy -66851.081207 kJ/mol
# GULP energy per Si atom -5570.923434 kJ/mol
# Density = 2.647191 g / cm^3
# Si number density = 26.532301 Si / 1000 Ang^3
#
#
#
# Elastic Constant Matrix: (Units=GPa)
#
#
# Indices 1 2 3 4 5 6 
#
# 1 106.4845 34.4104 28.2951 0.0000 27.9475 0.0000
# 2 34.4104 120.1325 61.8348 0.0000 21.8439 0.0000
# 3 28.2951 61.8348 98.9029 0.0000 27.0023 0.0000
# 4 0.0000 0.0000 0.0000 52.6453 0.0000 16.3039
# 5 27.9475 21.8439 27.0023 0.0000 50.8017 0.0000
# 6 0.0000 0.0000 0.0000 16.3039 0.0000 39.6115
#
#
#
# Elastic Compliance Matrix: (Units=1/GPa)
#
#
# Indices 1 2 3 4 5 6 
#
# 1 0.011573 -0.002061 -0.000615 0.000000 -0.005153 0.000000
# 2 -0.002061 0.012727 -0.007232 0.000000 -0.000494 0.000000
# 3 -0.000615 -0.007232 0.016221 0.000000 -0.005174 0.000000
# 4 0.000000 0.000000 0.000000 0.021770 0.000000 -0.008960
# 5 -0.005153 -0.000494 -0.005174 0.000000 0.025482 0.000000
# 6 0.000000 0.000000 0.000000 -0.008960 0.000000 0.028933
#
#
# Mechanical properties :
#
#
# Convention : Reuss Voigt Hill
#
# Bulk Modulus (GPa) = 48.30080 63.84449 56.07265
# Shear Modulus (GPa) = 34.86123 42.01035 38.43579
#
# Velocity S-wave (km/s) = 3.62873 3.98347 3.81023
# Velocity P-wave (km/s) = 5.98339 6.72849 6.36685
#
# Compressibility (1/GPa) = 0.02070359
#
# Stress axis : x y z
#
# Youngs Moduli (GPa) = 86.40683 78.57228 61.64757
#
# Poissons Ratio (x) = 0.16196 0.03793
# Poissons Ratio (y) = 0.17810 0.44586
# Poissons Ratio (z) = 0.05317 0.56827
#
# Static dielectric constant tensor:
#      x y z
#    x 2.122000 0.000000 -0.051660 
#    y 0.000000 2.283910 0.000000 
#    z -0.051660 0.000000 2.323740 
# 
# From -- ./inp_files/15852.got.cif
#   From: 2010.05.17/outbox.cif.g08.bks.cpg/sg9_8_cif.got.tgz:15852.got - 2010.06.03 20:04:27.
