data_PCOD9137517
_publ_section_title
;
Structure prediction by ZEFSAII (Michael W. Deem and Ramdas Pophale) SiO2 
 PCOD9137517
Probable space group: C C
;
_chemical_formula_sum "Si O2"
_cell_formula_units_Z 32
_cell_length_a 5.460594
_cell_length_b 23.498092
_cell_length_c 12.818142
_cell_angle_alpha 90.000000
_cell_angle_beta 129.938413
_cell_angle_gamma 90.000000
_cell_volume 1261.080513
_symmetry_space_group_name_H-M "C C"
_symmetry_group_IT_number 9
_symmetry_cell_setting 'monoclinic'
loop_
_space_group_symop_operation_xyz
x,y,z
x,-y,1/2+z
1/2+x,1/2+y,z
1/2+x,1/2-y,1/2+z
loop_
_atom_site_type_symbol
_atom_site_label
_atom_site_fract_x
_atom_site_fract_y
_atom_site_fract_z
Si Si1 0.928140 0.336844 0.464320
Si Si2 0.758613 0.731342 0.452509
Si Si3 0.144233 0.863394 0.070504
Si Si4 0.843283 0.450026 0.819125
Si Si5 0.234473 0.285281 0.241513
Si Si6 0.145125 0.407828 0.701413
Si Si7 0.627380 0.428866 0.255487
Si Si8 0.488875 0.972052 0.090109
O O1 0.578724 0.310057 0.356680
O O2 0.896019 0.395969 0.392869
O O3 0.156774 0.291265 0.473955
O O4 0.023257 0.352469 0.607737
O O5 0.556901 0.681743 0.456306
O O6 0.125312 0.725659 0.592670
O O7 0.708132 0.733194 0.315674
O O8 0.465941 0.831462 0.198825
O O9 0.984639 0.882860 0.134225
O O10 0.235289 0.923825 0.046674
O O11 0.508007 0.420643 0.761795
O O12 0.765158 0.512122 0.748142
O O13 0.053291 0.411634 0.798746
O O14 0.021970 0.467015 0.974130
O O15 0.943686 0.462433 0.603782
O O16 0.320287 0.451378 0.234277
#
# Coordination Sequence:
#
# PCOD9137517 Si02
#       8
#     4   4   4   4   4   4   4   4
#     4  12  23  45  72 100 143 193 239 309 375 448
#     4  10  24  44  68 105 136 188 252 312 361 448
#     4  10  22  42  68  98 137 187 243 300 369 441
#     4  11  26  44  68 112 150 185 246 304 366 443
#     4  10  24  44  71  95 139 186 247 306 374 441
#     4  11  27  43  71 111 144 196 236 306 373 444
#     4  11  21  42  72  98 137 196 231 295 382 445
#     4  11  23  44  70 105 142 185 248 294 370 450
#
# _framework density 25.375066
#
# number of rings (size 3 to 8) (size 9 to 14) (size 15 to 20)
#    0.750    0.500    5.000    0.000    3.500    4.000 
#    0.000    0.000    0.000    0.000    0.000    0.000 
#    0.000    0.000    0.000    0.000    0.000    0.000 
#
# Total GULP energy -89288.512660 kJ/mol
# GULP energy per Si atom -5580.532041 kJ/mol
# Density = 2.531731 g / cm^3
# Si number density = 25.375066 Si / 1000 Ang^3
#
#
#
# Elastic Constant Matrix: (Units=GPa)
#
#
# Indices 1 2 3 4 5 6 
#
# 1 59.6384 16.5743 2.2941 0.0000 4.9445 0.0000
# 2 16.5743 74.9268 4.7791 0.0000 9.6678 0.0000
# 3 2.2941 4.7791 61.5438 0.0000 1.8643 0.0000
# 4 0.0000 0.0000 0.0000 46.5174 0.0000 -3.9615
# 5 4.9445 9.6678 1.8643 0.0000 40.3514 0.0000
# 6 0.0000 0.0000 0.0000 -3.9615 0.0000 43.9800
#
#
#
# Elastic Compliance Matrix: (Units=1/GPa)
#
#
# Indices 1 2 3 4 5 6 
#
# 1 0.017937 -0.003782 -0.000336 0.000000 -0.001276 0.000000
# 2 -0.003782 0.014628 -0.000904 0.000000 -0.002999 0.000000
# 3 -0.000336 -0.000904 0.016346 0.000000 -0.000497 0.000000
# 4 0.000000 0.000000 0.000000 0.021663 0.000000 0.001951
# 5 -0.001276 -0.002999 -0.000497 0.000000 0.025680 0.000000
# 6 0.000000 0.000000 0.000000 0.001951 0.000000 0.022913
#
#
# Mechanical properties :
#
#
# Convention : Reuss Voigt Hill
#
# Bulk Modulus (GPa) = 25.72862 27.04489 26.38675
# Shear Modulus (GPa) = 35.16950 37.66719 36.41834
#
# Velocity S-wave (km/s) = 3.72692 3.85699 3.79252
# Velocity P-wave (km/s) = 5.35549 5.52416 5.44048
#
# Compressibility (1/GPa) = 0.03886723
#
# Stress axis : x y z
#
# Youngs Moduli (GPa) = 55.74921 68.36393 61.17560
#
# Poissons Ratio (x) = 0.25854 0.02057
# Poissons Ratio (y) = 0.21083 0.05531
# Poissons Ratio (z) = 0.01875 0.06180
#
# Static dielectric constant tensor:
#      x y z
#    x 2.034540 0.000000 -0.062690 
#    y 0.000000 2.011560 0.000000 
#    z -0.062690 0.000000 2.099430 
# 
# From -- ./inp_files/22300.got.cif
#   From: 2010.05.17/outbox.cif.g08.bks.cpg/sg9_12_cif.got.tgz:22300.got - 2010.06.03 20:04:27.
