data_PCOD9137504
_publ_section_title
;
Structure prediction by ZEFSAII (Michael W. Deem and Ramdas Pophale) SiO2 
 PCOD9137504
Probable space group: C C
;
_chemical_formula_sum "Si O2"
_cell_formula_units_Z 24
_cell_length_a 10.952010
_cell_length_b 10.715505
_cell_length_c 8.816130
_cell_angle_alpha 90.000000
_cell_angle_beta 71.185002
_cell_angle_gamma 90.000000
_cell_volume 979.343044
_symmetry_space_group_name_H-M "C C"
_symmetry_group_IT_number 9
_symmetry_cell_setting 'monoclinic'
loop_
_space_group_symop_operation_xyz
x,y,z
x,-y,1/2+z
1/2+x,1/2+y,z
1/2+x,1/2-y,1/2+z
loop_
_atom_site_type_symbol
_atom_site_label
_atom_site_fract_x
_atom_site_fract_y
_atom_site_fract_z
Si Si1 0.625000 0.952200 0.005670
Si Si2 0.386338 0.367229 0.752099
Si Si3 0.998067 0.618885 0.847516
Si Si4 0.794850 0.592453 0.330017
Si Si5 0.123293 0.043025 0.673817
Si Si6 0.961026 0.767835 0.417323
O O1 0.613545 0.919139 0.186133
O O2 0.532978 0.849694 0.962859
O O3 0.765456 0.929015 0.882366
O O4 0.556608 0.082279 0.986871
O O5 0.445542 0.255968 0.832046
O O6 0.496962 0.467626 0.682570
O O7 0.366522 0.315915 0.588966
O O8 0.883824 0.525034 0.842409
O O9 0.686577 0.604622 0.502861
O O10 0.726081 0.553754 0.203548
O O11 0.879043 0.717101 0.308719
O O12 0.073220 0.139008 0.820609
#
# Coordination Sequence:
#
# PCOD9137504 Si02
#       6
#     4   4   4   4   4   4
#     4  10  22  42  68  90 130 171 221 274 325 397
#     4  11  24  41  67  96 139 172 220 281 327 399
#     4  10  23  43  66  96 123 179 221 269 335 383
#     4  11  23  45  72  93 137 173 226 280 328 406
#     4  12  24  43  67 103 133 178 224 272 342 399
#     4  10  22  44  66  96 128 179 222 276 335 388
#
# _framework density 24.506222999999999
#
# number of rings (size 3 to 8) (size 9 to 14) (size 15 to 20)
#    0.000    1.333    1.667    5.000    4.667    1.333 
#    9.000    0.000    0.000    0.000    0.000    0.000 
#    0.000    0.000    0.000    0.000    0.000    0.000 
#
# Total GULP energy -67177.975255 kJ/mol
# GULP energy per Si atom -5598.164605 kJ/mol
# Density = 2.445045 g / cm^3
# Si number density = 24.506223 Si / 1000 Ang^3
#
#
#
# Elastic Constant Matrix: (Units=GPa)
#
#
# Indices 1 2 3 4 5 6 
#
# 1 73.3133 2.7973 19.7059 0.0000 -22.4261 0.0000
# 2 2.7973 47.5656 9.4645 0.0000 -4.8191 0.0000
# 3 19.7059 9.4645 74.7654 0.0000 -14.8777 0.0000
# 4 0.0000 0.0000 0.0000 2.5850 0.0000 2.7466
# 5 -22.4261 -4.8191 -14.8777 0.0000 39.8862 0.0000
# 6 0.0000 0.0000 0.0000 2.7466 0.0000 26.6658
#
#
#
# Elastic Compliance Matrix: (Units=1/GPa)
#
#
# Indices 1 2 3 4 5 6 
#
# 1 0.017002 0.000431 -0.002833 0.000000 0.008555 0.000000
# 2 0.000431 0.021687 -0.002473 0.000000 0.001940 0.000000
# 3 -0.002833 -0.002473 0.015186 0.000000 0.003772 0.000000
# 4 0.000000 0.000000 0.000000 0.434394 0.000000 -0.044742
# 5 0.008555 0.001940 0.003772 0.000000 0.031523 0.000000
# 6 0.000000 0.000000 0.000000 -0.044742 0.000000 0.042110
#
#
# Mechanical properties :
#
#
# Convention : Reuss Voigt Hill
#
# Bulk Modulus (GPa) = 22.66375 28.84220 25.75297
# Shear Modulus (GPa) = 8.52719 24.73916 16.63318
#
# Velocity S-wave (km/s) = 1.86739 3.18072 2.60808
# Velocity P-wave (km/s) = 3.73065 5.02834 4.42730
#
# Compressibility (1/GPa) = 0.04412333
#
# Stress axis : x y z
#
# Youngs Moduli (GPa) = 58.81642 46.11094 65.85145
#
# Poissons Ratio (x) = -0.01986 0.18659
# Poissons Ratio (y) = -0.02533 0.16284
# Poissons Ratio (z) = 0.16665 0.11402
#
# Static dielectric constant tensor:
#      x y z
#    x 1.909210 0.000000 0.011120 
#    y 0.000000 1.982260 0.000000 
#    z 0.011120 0.000000 2.011590 
# 
# From -- ./inp_files/4778.got.cif
#   From: 2010.05.17/outbox.cif.g08.bks.cpg/sg9_3_cif.got.tgz:4778.got - 2010.06.03 20:04:27.
