data_PCOD9137674
_publ_section_title
;
Structure prediction by ZEFSAII (Michael W. Deem and Ramdas Pophale) SiO2 
 PCOD9137674
Probable space group: C C
;
_chemical_formula_sum "Si O2"
_cell_formula_units_Z 32
_cell_length_a 12.053320
_cell_length_b 15.495559
_cell_length_c 9.579859
_cell_angle_alpha 90.000000
_cell_angle_beta 129.786063
_cell_angle_gamma 90.000000
_cell_volume 1374.936262
_symmetry_space_group_name_H-M "C C"
_symmetry_group_IT_number 9
_symmetry_cell_setting 'monoclinic'
loop_
_space_group_symop_operation_xyz
x,y,z
x,-y,1/2+z
1/2+x,1/2+y,z
1/2+x,1/2-y,1/2+z
loop_
_atom_site_type_symbol
_atom_site_label
_atom_site_fract_x
_atom_site_fract_y
_atom_site_fract_z
Si Si1 0.568450 0.508617 0.556310
Si Si2 0.374888 0.331065 0.839255
Si Si3 0.538592 0.324420 0.420611
Si Si4 0.079966 0.765055 0.763961
Si Si5 0.086938 0.429300 0.633355
Si Si6 0.864221 0.299573 0.574784
Si Si7 0.060620 0.432583 0.296161
Si Si8 0.247494 0.074065 0.450865
O O1 0.462562 0.590143 0.482544
O O2 0.500818 0.424194 0.425529
O O3 0.693445 0.544393 0.557322
O O4 0.646814 0.474868 0.758392
O O5 0.456748 0.307002 0.763029
O O6 0.212257 0.362061 0.695485
O O7 0.368788 0.247145 0.929628
O O8 0.544004 0.276528 0.573376
O O9 0.701727 0.323493 0.488624
O O10 0.432728 0.269841 0.236956
O O11 0.218174 0.824862 0.905421
O O12 0.104243 0.666401 0.820438
O O13 0.968515 0.380989 0.634154
O O14 0.036555 0.457565 0.438002
O O15 0.159773 0.501779 0.790682
O O16 0.916174 0.441029 0.085926
#
# Coordination Sequence:
#
# PCOD9137674 Si02
#       8
#     4   4   4   4   4   4   4   4
#     4  10  22  43  70 105 135 190 238 306 355 445
#     4  11  25  49  77 107 151 196 256 300 386 448
#     4  11  26  42  75 108 153 191 252 307 374 441
#     4  10  26  44  73 104 146 203 242 306 370 450
#     4  12  29  46  74 113 147 197 248 317 383 435
#     4  12  25  49  74 109 149 201 250 312 372 455
#     4  12  27  44  71 104 151 189 244 312 367 450
#     4  10  22  43  70 100 138 189 246 290 371 436
#
# _framework density 23.273807000000001
#
# number of rings (size 3 to 8) (size 9 to 14) (size 15 to 20)
#    0.000    1.000    2.500    2.250    7.000    7.000 
#    0.000    0.000    0.000    0.000    0.000    0.000 
#    0.000    0.000    0.000    0.000    0.000    0.000 
#
# Total GULP energy -89522.750324 kJ/mol
# GULP energy per Si atom -5595.171895 kJ/mol
# Density = 2.322083 g / cm^3
# Si number density = 23.273807 Si / 1000 Ang^3
#
#
#
# Elastic Constant Matrix: (Units=GPa)
#
#
# Indices 1 2 3 4 5 6 
#
# 1 60.2553 4.6813 1.9368 0.0000 -10.5319 0.0000
# 2 4.6813 96.5728 -0.9741 0.0000 -2.0540 0.0000
# 3 1.9368 -0.9741 39.6731 0.0000 -6.6719 0.0000
# 4 0.0000 0.0000 0.0000 23.7185 0.0000 -8.2220
# 5 -10.5319 -2.0540 -6.6719 0.0000 29.3838 0.0000
# 6 0.0000 0.0000 0.0000 -8.2220 0.0000 34.6115
#
#
#
# Elastic Compliance Matrix: (Units=1/GPa)
#
#
# Indices 1 2 3 4 5 6 
#
# 1 0.017757 -0.000724 0.000184 0.000000 0.006356 0.000000
# 2 -0.000724 0.010406 0.000384 0.000000 0.000555 0.000000
# 3 0.000184 0.000384 0.026223 0.000000 0.006047 0.000000
# 4 0.000000 0.000000 0.000000 0.045945 0.000000 0.010914
# 5 0.006356 0.000555 0.006047 0.000000 0.037722 0.000000
# 6 0.000000 0.000000 0.000000 0.010914 0.000000 0.031485
#
#
# Mechanical properties :
#
#
# Convention : Reuss Voigt Hill
#
# Bulk Modulus (GPa) = 18.49257 23.08769 20.79013
# Shear Modulus (GPa) = 26.61359 30.26659 28.44009
#
# Velocity S-wave (km/s) = 3.38524 3.61010 3.49947
# Velocity P-wave (km/s) = 4.82107 5.22672 5.02799
#
# Compressibility (1/GPa) = 0.05407577
#
# Stress axis : x y z
#
# Youngs Moduli (GPa) = 56.31493 96.10163 38.13382
#
# Poissons Ratio (x) = 0.06955 -0.00703
# Poissons Ratio (y) = 0.04076 -0.01465
# Poissons Ratio (z) = -0.01038 -0.03692
#
# Static dielectric constant tensor:
#      x y z
#    x 1.834630 0.000000 0.028860 
#    y 0.000000 1.964470 0.000000 
#    z 0.028860 0.000000 1.911900 
# 
# From -- ./inp_files/7656.got.cif
#   From: 2010.05.17/outbox.cif.g08.bks.cpg/sg9_4_cif.got.tgz:7656.got - 2010.06.03 20:04:27.
