data_PCOD9137805
_publ_section_title
;
Structure prediction by ZEFSAII (Michael W. Deem and Ramdas Pophale) SiO2 
 PCOD9137805
Probable space group: C C
;
_chemical_formula_sum "Si O2"
_cell_formula_units_Z 32
_cell_length_a 8.814819
_cell_length_b 29.969684
_cell_length_c 4.961130
_cell_angle_alpha 90.000000
_cell_angle_beta 78.289076
_cell_angle_gamma 90.000000
_cell_volume 1283.336469
_symmetry_space_group_name_H-M "C C"
_symmetry_group_IT_number 9
_symmetry_cell_setting 'monoclinic'
loop_
_space_group_symop_operation_xyz
x,y,z
x,-y,1/2+z
1/2+x,1/2+y,z
1/2+x,1/2-y,1/2+z
loop_
_atom_site_type_symbol
_atom_site_label
_atom_site_fract_x
_atom_site_fract_y
_atom_site_fract_z
Si Si1 0.217010 0.198340 0.264200
Si Si2 0.444411 0.332849 0.478876
Si Si3 0.616822 0.838851 0.873189
Si Si4 0.071177 0.970334 0.956703
Si Si5 0.701433 0.385627 0.161430
Si Si6 0.207057 0.528639 0.626992
Si Si7 0.505617 0.110678 0.902215
Si Si8 0.498404 0.754412 0.653831
O O1 0.239044 0.158067 0.467405
O O2 0.367730 0.216019 0.055220
O O3 0.152288 0.240766 0.446694
O O4 0.081355 0.184652 0.118565
O O5 0.291672 0.340233 0.703759
O O6 0.526057 0.376434 0.328576
O O7 0.429501 0.293083 0.269067
O O8 0.530315 0.873934 0.700959
O O9 0.549207 0.789199 0.864735
O O10 0.597379 0.853698 0.184694
O O11 0.185318 0.930459 0.994866
O O12 0.889466 0.958167 0.069153
O O13 0.096493 0.012440 0.145853
O O14 0.829711 0.389250 0.350972
O O15 0.182423 0.514384 0.327480
O O16 0.091896 0.565352 0.786700
#
# Coordination Sequence:
#
# PCOD9137805 Si02
#       8
#     4   4   4   4   4   4   4   4
#     4  11  25  43  67  98 143 184 239 293 348 420
#     4  11  27  42  70  98 139 188 238 294 342 428
#     4  12  27  45  70 101 138 188 232 287 350 412
#     4  10  24  43  72 102 140 183 230 284 348 426
#     4  11  26  45  68 106 142 185 234 294 352 416
#     4  10  22  44  70 101 136 179 229 284 349 424
#     4  12  27  45  72 103 143 181 230 292 349 422
#     4  11  24  43  63 101 135 188 234 286 354 404
#
# _framework density 24.935002999999998
#
# number of rings (size 3 to 8) (size 9 to 14) (size 15 to 20)
#    0.000    1.000    2.500    2.250   10.500    2.000 
#    0.000    0.000    0.000    0.000    0.000    0.000 
#    0.000    0.000    0.000    0.000    0.000    0.000 
#
# Total GULP energy -89584.082902 kJ/mol
# GULP energy per Si atom -5599.005181 kJ/mol
# Density = 2.487825 g / cm^3
# Si number density = 24.935003 Si / 1000 Ang^3
#
#
#
# Elastic Constant Matrix: (Units=GPa)
#
#
# Indices 1 2 3 4 5 6 
#
# 1 98.7647 34.1667 2.5176 0.0000 -13.8449 0.0000
# 2 34.1667 80.7466 -3.3769 0.0000 -3.9281 0.0000
# 3 2.5176 -3.3769 56.6418 0.0000 -7.4445 0.0000
# 4 0.0000 0.0000 0.0000 25.3527 0.0000 1.2622
# 5 -13.8449 -3.9281 -7.4445 0.0000 42.2752 0.0000
# 6 0.0000 0.0000 0.0000 1.2622 0.0000 46.9148
#
#
#
# Elastic Compliance Matrix: (Units=1/GPa)
#
#
# Indices 1 2 3 4 5 6 
#
# 1 0.012388 -0.005087 -0.000392 0.000000 0.003515 0.000000
# 2 -0.005087 0.014576 0.001079 0.000000 -0.000122 0.000000
# 3 -0.000392 0.001079 0.018153 0.000000 0.003169 0.000000
# 4 0.000000 0.000000 0.000000 0.039496 0.000000 -0.001063
# 5 0.003515 -0.000122 0.003169 0.000000 0.025352 0.000000
# 6 0.000000 0.000000 0.000000 -0.001063 0.000000 0.021344
#
#
# Mechanical properties :
#
#
# Convention : Reuss Voigt Hill
#
# Bulk Modulus (GPa) = 27.53512 33.64088 30.58800
# Shear Modulus (GPa) = 32.84833 36.43159 34.63996
#
# Velocity S-wave (km/s) = 3.63348 3.82653 3.73125
# Velocity P-wave (km/s) = 5.35440 5.74838 5.55488
#
# Compressibility (1/GPa) = 0.03631725
#
# Stress axis : x y z
#
# Youngs Moduli (GPa) = 80.72572 68.60536 55.08726
#
# Poissons Ratio (x) = 0.34900 0.02159
# Poissons Ratio (y) = 0.41065 -0.05945
# Poissons Ratio (z) = 0.03163 -0.07403
#
# Static dielectric constant tensor:
#      x y z
#    x 1.990750 0.000000 -0.001440 
#    y 0.000000 2.032610 0.000000 
#    z -0.001440 0.000000 1.971270 
# 
# From -- ./inp_files/1044.got.cif
#   From: 2010.05.17/outbox.cif.g08.bks.cpg/sg9_1_cif.got.tgz:1044.got - 2010.06.03 20:04:27.
