data_PCOD9137742
_publ_section_title
;
Structure prediction by ZEFSAII (Michael W. Deem and Ramdas Pophale) SiO2 
 PCOD9137742
Probable space group: C C
;
_chemical_formula_sum "Si O2"
_cell_formula_units_Z 32
_cell_length_a 10.202513
_cell_length_b 11.465835
_cell_length_c 11.176169
_cell_angle_alpha 90.000000
_cell_angle_beta 84.570835
_cell_angle_gamma 90.000000
_cell_volume 1301.526896
_symmetry_space_group_name_H-M "C C"
_symmetry_group_IT_number 9
_symmetry_cell_setting 'monoclinic'
loop_
_space_group_symop_operation_xyz
x,y,z
x,-y,1/2+z
1/2+x,1/2+y,z
1/2+x,1/2-y,1/2+z
loop_
_atom_site_type_symbol
_atom_site_label
_atom_site_fract_x
_atom_site_fract_y
_atom_site_fract_z
Si Si1 0.215150 0.799250 0.182500
Si Si2 0.057450 0.769289 0.965763
Si Si3 0.826024 0.041545 0.157304
Si Si4 0.006375 0.618181 0.603642
Si Si5 0.002870 0.750386 0.367691
Si Si6 0.595870 0.353349 0.705822
Si Si7 0.894998 0.628052 0.140561
Si Si8 0.274405 0.574974 0.914795
O O1 0.243903 0.661091 0.175409
O O2 0.357977 0.852159 0.160127
O O3 0.131784 0.817312 0.309751
O O4 0.128764 0.828538 0.073230
O O5 0.058520 0.849388 0.849529
O O6 0.147605 0.657307 0.926522
O O7 0.922611 0.714089 0.026476
O O8 0.980269 0.074163 0.152896
O O9 0.792127 0.973266 0.280729
O O10 0.784485 0.990943 0.030711
O O11 0.996620 0.480169 0.623416
O O12 0.025435 0.650174 0.462775
O O13 0.090822 0.717584 0.663328
O O14 0.935643 0.696212 0.256461
O O15 0.897187 0.839024 0.428903
O O16 0.741083 0.401000 0.666520
#
# Coordination Sequence:
#
# PCOD9137742 Si02
#       8
#     4   4   4   4   4   4   4   4
#     4   9  21  43  67  94 131 179 220 290 353 416
#     4  10  22  44  66  96 137 172 231 288 356 423
#     4  10  24  43  67 102 134 183 234 286 358 438
#     4  11  24  44  68  98 139 174 235 291 350 433
#     4  11  22  46  66  91 137 179 221 295 359 422
#     4  11  23  46  64 104 140 175 236 292 349 439
#     4  11  26  42  71 101 132 190 232 289 370 429
#     4  11  22  46  69  96 140 182 235 291 357 428
#
# _framework density 24.586504999999999
#
# number of rings (size 3 to 8) (size 9 to 14) (size 15 to 20)
#    0.000    1.500    5.000    0.000    5.250    6.000 
#    2.250    0.000    0.000    0.000    0.000    0.000 
#    0.000    0.000    0.000    0.000    0.000    0.000 
#
# Total GULP energy -89495.655789 kJ/mol
# GULP energy per Si atom -5593.478487 kJ/mol
# Density = 2.453055 g / cm^3
# Si number density = 24.586505 Si / 1000 Ang^3
#
#
#
# Elastic Constant Matrix: (Units=GPa)
#
#
# Indices 1 2 3 4 5 6 
#
# 1 79.8165 7.1249 44.2226 0.0000 -10.2003 0.0000
# 2 7.1249 62.2906 22.6177 0.0000 2.6662 0.0000
# 3 44.2226 22.6177 130.6961 0.0000 -10.2454 0.0000
# 4 0.0000 0.0000 0.0000 33.2069 0.0000 -9.5097
# 5 -10.2003 2.6662 -10.2454 0.0000 32.9875 0.0000
# 6 0.0000 0.0000 0.0000 -9.5097 0.0000 29.0453
#
#
#
# Elastic Compliance Matrix: (Units=1/GPa)
#
#
# Indices 1 2 3 4 5 6 
#
# 1 0.015763 -0.000109 -0.005055 0.000000 0.003313 0.000000
# 2 -0.000109 0.017313 -0.003148 0.000000 -0.002411 0.000000
# 3 -0.005055 -0.003148 0.010049 0.000000 0.001812 0.000000
# 4 0.000000 0.000000 0.000000 0.033230 0.000000 0.010880
# 5 0.003313 -0.002411 0.001812 0.000000 0.032097 0.000000
# 6 0.000000 0.000000 0.000000 0.010880 0.000000 0.037991
#
#
# Mechanical properties :
#
#
# Convention : Reuss Voigt Hill
#
# Bulk Modulus (GPa) = 37.73692 46.74818 42.24255
# Shear Modulus (GPa) = 29.08692 32.30383 30.69538
#
# Velocity S-wave (km/s) = 3.44327 3.62869 3.53719
# Velocity P-wave (km/s) = 5.58481 6.05075 5.82244
#
# Compressibility (1/GPa) = 0.02649925
#
# Stress axis : x y z
#
# Youngs Moduli (GPa) = 63.44165 57.76167 99.51690
#
# Poissons Ratio (x) = 0.00632 0.50304
# Poissons Ratio (y) = 0.00694 0.31328
# Poissons Ratio (z) = 0.32069 0.18183
#
# Static dielectric constant tensor:
#      x y z
#    x 1.959240 0.000000 -0.011350 
#    y 0.000000 1.994760 0.000000 
#    z -0.011350 0.000000 1.975010 
# 
# From -- ./inp_files/16447.got.cif
#   From: 2010.05.17/outbox.cif.g08.bks.cpg/sg9_9_cif.got.tgz:16447.got - 2010.06.03 20:04:27.
