data_PCOD9137633
_publ_section_title
;
Structure prediction by ZEFSAII (Michael W. Deem and Ramdas Pophale) SiO2 
 PCOD9137633
Probable space group: C C
;
_chemical_formula_sum "Si O2"
_cell_formula_units_Z 32
_cell_length_a 12.014515
_cell_length_b 8.694301
_cell_length_c 13.585457
_cell_angle_alpha 90.000000
_cell_angle_beta 73.715501
_cell_angle_gamma 90.000000
_cell_volume 1362.174195
_symmetry_space_group_name_H-M "C C"
_symmetry_group_IT_number 9
_symmetry_cell_setting 'monoclinic'
loop_
_space_group_symop_operation_xyz
x,y,z
x,-y,1/2+z
1/2+x,1/2+y,z
1/2+x,1/2-y,1/2+z
loop_
_atom_site_type_symbol
_atom_site_label
_atom_site_fract_x
_atom_site_fract_y
_atom_site_fract_z
Si Si1 0.495360 0.266307 0.108030
Si Si2 0.702072 0.581901 0.324749
Si Si3 0.131554 0.595150 0.383911
Si Si4 0.719344 0.696088 0.678732
Si Si5 0.906726 0.465636 0.049875
Si Si6 0.458347 0.643005 0.391759
Si Si7 0.339404 0.634481 0.822366
Si Si8 0.748327 0.337155 0.457819
O O1 0.624679 0.293473 0.115997
O O2 0.471432 0.081793 0.109498
O O3 0.409271 0.355697 0.202853
O O4 0.469921 0.326651 0.004967
O O5 0.731203 0.468087 0.229818
O O6 0.586714 0.668801 0.320023
O O7 0.801936 0.689042 0.343432
O O8 0.675194 0.462383 0.417769
O O9 0.167380 0.693462 0.277776
O O10 0.215767 0.450400 0.354622
O O11 0.168549 0.687224 0.475015
O O12 0.998182 0.559608 0.437858
O O13 0.849213 0.695013 0.600349
O O14 0.802977 0.574037 0.034369
O O15 0.417170 0.470543 0.374730
O O16 0.362570 0.763002 0.375725
#
# Coordination Sequence:
#
# PCOD9137633 Si02
#       8
#     4   4   4   4   4   4   4   4
#     4  11  23  44  69 108 141 187 247 289 365 435
#     4  11  21  41  71  97 137 182 228 291 354 416
#     4  10  25  46  68 102 139 189 237 297 369 413
#     4  11  24  45  70 107 136 190 246 291 363 437
#     4  11  23  46  69  98 147 185 235 305 352 431
#     4  10  22  43  67  97 142 182 229 295 351 418
#     4  11  22  44  71 100 143 184 239 297 354 431
#     4   9  22  41  67  97 131 181 233 275 360 421
#
# _framework density 23.491857
#
# number of rings (size 3 to 8) (size 9 to 14) (size 15 to 20)
#    0.000    1.500    2.500    2.250    1.750    0.000 
#   18.000    0.000    0.000    0.000    0.000    0.000 
#    0.000    0.000    0.000    0.000    0.000    0.000 
#
# Total GULP energy -89108.988816 kJ/mol
# GULP energy per Si atom -5569.311801 kJ/mol
# Density = 2.343839 g / cm^3
# Si number density = 23.491857 Si / 1000 Ang^3
#
#
#
# Elastic Constant Matrix: (Units=GPa)
#
#
# Indices 1 2 3 4 5 6 
#
# 1 107.4980 34.8916 28.4915 0.0000 4.7447 0.0000
# 2 34.8916 79.0475 22.0748 0.0000 4.9163 0.0000
# 3 28.4915 22.0748 62.6642 0.0000 -11.5972 0.0000
# 4 0.0000 0.0000 0.0000 28.0130 0.0000 4.8682
# 5 4.7447 4.9163 -11.5972 0.0000 23.1672 0.0000
# 6 0.0000 0.0000 0.0000 4.8682 0.0000 40.0664
#
#
#
# Elastic Compliance Matrix: (Units=1/GPa)
#
#
# Indices 1 2 3 4 5 6 
#
# 1 0.011977 -0.003653 -0.004925 0.000000 -0.004143 0.000000
# 2 -0.003653 0.015948 -0.004898 0.000000 -0.005088 0.000000
# 3 -0.004925 -0.004898 0.022375 0.000000 0.013249 0.000000
# 4 0.000000 0.000000 0.000000 0.036468 0.000000 -0.004431
# 5 -0.004143 -0.005088 0.013249 0.000000 0.051725 0.000000
# 6 0.000000 0.000000 0.000000 -0.004431 0.000000 0.025497
#
#
# Mechanical properties :
#
#
# Convention : Reuss Voigt Hill
#
# Bulk Modulus (GPa) = 42.83552 46.68062 44.75807
# Shear Modulus (GPa) = 25.16049 29.16611 27.16330
#
# Velocity S-wave (km/s) = 3.27621 3.52737 3.40411
# Velocity P-wave (km/s) = 5.70834 6.04185 5.87746
#
# Compressibility (1/GPa) = 0.02334511
#
# Stress axis : x y z
#
# Youngs Moduli (GPa) = 83.49655 62.70524 44.69295
#
# Poissons Ratio (x) = 0.22909 0.22012
# Poissons Ratio (y) = 0.30505 0.21893
# Poissons Ratio (z) = 0.41123 0.30716
#
# Static dielectric constant tensor:
#      x y z
#    x 1.913240 0.000000 -0.035160 
#    y 0.000000 1.933060 0.000000 
#    z -0.035160 0.000000 1.973700 
# 
# From -- ./inp_files/24295.got.cif
#   From: 2010.05.17/outbox.cif.g08.bks.cpg/sg9_13_cif.got.tgz:24295.got - 2010.06.03 20:04:27.
