data_PCOD9137482
_publ_section_title
;
Structure prediction by ZEFSAII (Michael W. Deem and Ramdas Pophale) SiO2 
 PCOD9137482
Probable space group: C C
;
_chemical_formula_sum "Si O2"
_cell_formula_units_Z 28
_cell_length_a 10.496737
_cell_length_b 10.532716
_cell_length_c 16.852373
_cell_angle_alpha 90.000000
_cell_angle_beta 136.426776
_cell_angle_gamma 90.000000
_cell_volume 1284.257429
_symmetry_space_group_name_H-M "C C"
_symmetry_group_IT_number 9
_symmetry_cell_setting 'monoclinic'
loop_
_space_group_symop_operation_xyz
x,y,z
x,-y,1/2+z
1/2+x,1/2+y,z
1/2+x,1/2-y,1/2+z
loop_
_atom_site_type_symbol
_atom_site_label
_atom_site_fract_x
_atom_site_fract_y
_atom_site_fract_z
Si Si1 0.122860 0.426003 0.426230
Si Si2 0.765787 0.822483 0.276484
Si Si3 0.776326 0.548793 0.216746
Si Si4 0.947842 0.497253 0.627645
Si Si5 0.272359 0.537537 0.168078
Si Si6 0.428157 0.484653 0.967825
Si Si7 0.613197 0.639344 0.408366
O O1 0.194413 0.447516 0.546431
O O2 0.227857 0.526374 0.416773
O O3 0.177478 0.282987 0.427918
O O4 0.905588 0.445827 0.317253
O O5 0.781148 0.674543 0.271760
O O6 0.560009 0.874557 0.204284
O O7 0.905972 0.892230 0.399888
O O8 0.798894 0.891151 0.206475
O O9 0.860066 0.565359 0.165407
O O10 0.569610 0.506781 0.103048
O O11 0.786071 0.544382 0.495910
O O12 0.108900 0.420164 0.655674
O O13 0.464357 0.604854 0.274475
O O14 0.504113 0.377058 0.943420
#
# Coordination Sequence:
#
# PCOD9137482 Si02
#       7
#     4   4   4   4   4   4   4
#     4  12  24  39  67  96 129 169 223 259 317 399
#     4   9  20  42  63  90 132 163 210 267 314 381
#     4  11  22  38  71  96 117 174 218 258 327 380
#     4   9  20  44  64  89 131 169 207 269 320 375
#     4   9  23  42  59  99 127 167 219 260 326 384
#     4  10  23  43  61  95 128 170 212 263 329 373
#     4  10  22  42  67  87 132 174 205 274 325 366
#
# _framework density 21.802481
#
# number of rings (size 3 to 8) (size 9 to 14) (size 15 to 20)
#    0.857    1.143    1.429    0.857    6.000    2.286 
#    2.571    5.714    0.000    0.000    0.000    0.000 
#    0.000    0.000    0.000    0.000    0.000    0.000 
#
# Total GULP energy -78066.091978 kJ/mol
# GULP energy per Si atom -5576.149427 kJ/mol
# Density = 2.175286 g / cm^3
# Si number density = 21.802481 Si / 1000 Ang^3
#
#
#
# Elastic Constant Matrix: (Units=GPa)
#
#
# Indices 1 2 3 4 5 6 
#
# 1 50.3896 7.6444 4.4047 0.0000 8.7505 0.0000
# 2 7.6444 17.7262 1.1829 0.0000 0.3837 0.0000
# 3 4.4047 1.1829 159.4877 0.0000 13.1357 0.0000
# 4 0.0000 0.0000 0.0000 17.5511 0.0000 -4.4966
# 5 8.7505 0.3837 13.1357 0.0000 32.5181 0.0000
# 6 0.0000 0.0000 0.0000 -4.4966 0.0000 23.4669
#
#
#
# Elastic Compliance Matrix: (Units=1/GPa)
#
#
# Indices 1 2 3 4 5 6 
#
# 1 0.022309 -0.009490 -0.000063 0.000000 -0.005866 0.000000
# 2 -0.009490 0.060487 -0.000350 0.000000 0.001981 0.000000
# 3 -0.000063 -0.000350 0.006489 0.000000 -0.002600 0.000000
# 4 0.000000 0.000000 0.000000 0.059918 0.000000 0.011481
# 5 -0.005866 0.001981 -0.002600 0.000000 0.033358 0.000000
# 6 0.000000 0.000000 0.000000 0.011481 0.000000 0.044813
#
#
# Mechanical properties :
#
#
# Convention : Reuss Voigt Hill
#
# Bulk Modulus (GPa) = 14.39255 28.22972 21.31114
# Shear Modulus (GPa) = 18.49546 28.99866 23.74706
#
# Velocity S-wave (km/s) = 2.91575 3.65096 3.30387
# Velocity P-wave (km/s) = 4.23688 5.54515 4.93456
#
# Compressibility (1/GPa) = 0.06948039
#
# Stress axis : x y z
#
# Youngs Moduli (GPa) = 44.82470 16.53261 154.11779
#
# Poissons Ratio (x) = 0.15689 0.00965
# Poissons Ratio (y) = 0.42537 0.05390
# Poissons Ratio (z) = 0.00281 0.00578
#
# Static dielectric constant tensor:
#      x y z
#    x 1.834350 0.000000 -0.012800 
#    y 0.000000 1.760250 0.000000 
#    z -0.012800 0.000000 1.799850 
# 
# From -- ./inp_files/16046.got.cif
#   From: 2010.05.17/outbox.cif.g08.bks.cpg/sg9_9_cif.got.tgz:16046.got - 2010.06.03 20:04:27.
