data_PCOD9137172
_publ_section_title
;
Structure prediction by ZEFSAII (Michael W. Deem and Ramdas Pophale) SiO2 
 PCOD9137172
Probable space group: C C
;
_chemical_formula_sum "Si O2"
_cell_formula_units_Z 32
_cell_length_a 12.641425
_cell_length_b 5.006647
_cell_length_c 23.016843
_cell_angle_alpha 90.000000
_cell_angle_beta 109.771156
_cell_angle_gamma 90.000000
_cell_volume 1370.888087
_symmetry_space_group_name_H-M "C C"
_symmetry_group_IT_number 9
_symmetry_cell_setting 'monoclinic'
loop_
_space_group_symop_operation_xyz
x,y,z
x,-y,1/2+z
1/2+x,1/2+y,z
1/2+x,1/2-y,1/2+z
loop_
_atom_site_type_symbol
_atom_site_label
_atom_site_fract_x
_atom_site_fract_y
_atom_site_fract_z
Si Si1 0.414020 0.227256 0.462030
Si Si2 0.761412 0.186698 0.599869
Si Si3 0.095209 0.811299 0.418984
Si Si4 0.886517 0.062728 0.797767
Si Si5 0.654828 0.151647 0.702504
Si Si6 0.242901 0.180236 0.521684
Si Si7 0.310402 0.264740 0.890163
Si Si8 0.003585 0.853950 0.198269
O O1 0.539880 0.172117 0.465207
O O2 0.388767 0.537463 0.443319
O O3 0.367030 0.148501 0.515847
O O4 0.338055 0.041723 0.406565
O O5 0.695280 0.090192 0.644584
O O6 0.743377 0.978212 0.544834
O O7 0.893293 0.200637 0.639759
O O8 0.727334 0.479412 0.572131
O O9 0.153915 0.078436 0.456514
O O10 0.188721 0.679429 0.395329
O O11 0.986646 0.838857 0.357942
O O12 0.952599 0.034528 0.749509
O O13 0.770565 0.210734 0.759128
O O14 0.835408 0.824632 0.827807
O O15 0.581126 0.910722 0.715905
O O16 0.579476 0.413180 0.686828
#
# Coordination Sequence:
#
# PCOD9137172 Si02
#       8
#     4   4   4   4   4   4   4   4
#     4  10  23  40  61  92 130 173 215 254 310 382
#     4  11  25  45  67  96 129 168 223 271 317 383
#     4  10  23  42  66  97 136 174 206 262 327 382
#     4  10  24  42  68 100 132 169 216 264 322 393
#     4  11  25  45  70  97 126 169 221 271 325 382
#     4  11  23  42  67  97 133 171 216 264 318 390
#     4  10  22  40  61  93 132 169 213 256 309 386
#     4  11  25  46  70  94 128 171 216 276 328 368
#
# _framework density 23.342531000000001
#
# number of rings (size 3 to 8) (size 9 to 14) (size 15 to 20)
#    0.000    1.500    0.000    3.750    0.000   21.000 
#    0.000    3.750    0.000    0.000    0.000    0.000 
#    0.000    0.000    0.000    0.000    0.000    0.000 
#
# Total GULP energy -89257.695735 kJ/mol
# GULP energy per Si atom -5578.605983 kJ/mol
# Density = 2.328940 g / cm^3
# Si number density = 23.342531 Si / 1000 Ang^3
#
#
#
# Elastic Constant Matrix: (Units=GPa)
#
#
# Indices 1 2 3 4 5 6 
#
# 1 167.2595 21.9996 44.5588 0.0000 -2.1846 0.0000
# 2 21.9996 44.6919 0.4505 0.0000 -5.6554 0.0000
# 3 44.5588 0.4505 79.5684 0.0000 3.2704 0.0000
# 4 0.0000 0.0000 0.0000 14.3720 0.0000 0.4607
# 5 -2.1846 -5.6554 3.2704 0.0000 25.7924 0.0000
# 6 0.0000 0.0000 0.0000 0.4607 0.0000 31.4092
#
#
#
# Elastic Compliance Matrix: (Units=1/GPa)
#
#
# Indices 1 2 3 4 5 6 
#
# 1 0.007595 -0.003648 -0.004248 0.000000 0.000382 0.000000
# 2 -0.003648 0.024775 0.001701 0.000000 0.004908 0.000000
# 3 -0.004248 0.001701 0.015015 0.000000 -0.001891 0.000000
# 4 0.000000 0.000000 0.000000 0.069613 0.000000 -0.001021
# 5 0.000382 0.004908 -0.001891 0.000000 0.040119 0.000000
# 6 0.000000 0.000000 0.000000 -0.001021 0.000000 0.031853
#
#
# Mechanical properties :
#
#
# Convention : Reuss Voigt Hill
#
# Bulk Modulus (GPa) = 28.57593 47.28195 37.92894
# Shear Modulus (GPa) = 23.47136 29.28211 26.37674
#
# Velocity S-wave (km/s) = 3.17443 3.54567 3.36517
# Velocity P-wave (km/s) = 5.06997 6.08786 5.60208
#
# Compressibility (1/GPa) = 0.03499449
#
# Stress axis : x y z
#
# Youngs Moduli (GPa) = 131.66008 40.36349 66.59975
#
# Poissons Ratio (x) = 0.14723 0.28295
# Poissons Ratio (y) = 0.48025 -0.11327
# Poissons Ratio (z) = 0.55936 -0.06865
#
# Static dielectric constant tensor:
#      x y z
#    x 1.894420 0.000000 -0.017300 
#    y 0.000000 1.862980 0.000000 
#    z -0.017300 0.000000 1.918240 
# 
# From -- ./inp_files/35179.got.cif
#   From: 2010.05.17/outbox.cif.g08.bks.cpg/sg9_18_cif.got.tgz:35179.got - 2010.06.03 20:04:27.
