data_PCOD9137247
_publ_section_title
;
Structure prediction by ZEFSAII (Michael W. Deem and Ramdas Pophale) SiO2 
 PCOD9137247
Probable space group: C C
;
_chemical_formula_sum "Si O2"
_cell_formula_units_Z 32
_cell_length_a 14.692588
_cell_length_b 7.927591
_cell_length_c 24.500930
_cell_angle_alpha 90.000000
_cell_angle_beta 28.106940
_cell_angle_gamma 90.000000
_cell_volume 1344.474201
_symmetry_space_group_name_H-M "C C"
_symmetry_group_IT_number 9
_symmetry_cell_setting 'monoclinic'
loop_
_space_group_symop_operation_xyz
x,y,z
x,-y,1/2+z
1/2+x,1/2+y,z
1/2+x,1/2-y,1/2+z
loop_
_atom_site_type_symbol
_atom_site_label
_atom_site_fract_x
_atom_site_fract_y
_atom_site_fract_z
Si Si1 0.213870 0.636371 0.420910
Si Si2 0.016770 0.063545 0.589899
Si Si3 0.438395 0.069802 0.752111
Si Si4 0.163126 0.611372 0.229946
Si Si5 0.135669 0.560037 0.853392
Si Si6 0.637569 0.499760 0.716804
Si Si7 0.457226 0.080437 0.126389
Si Si8 0.241846 0.847572 0.551529
O O1 0.261412 0.818537 0.369118
O O2 0.141129 0.522246 0.409238
O O3 0.421216 0.569582 0.331777
O O4 0.064186 0.587712 0.547376
O O5 0.855933 0.100828 0.722225
O O6 0.088978 0.254309 0.543154
O O7 0.877511 0.975743 0.618566
O O8 0.169365 0.934296 0.534342
O O9 0.400833 0.956284 0.718794
O O10 0.600127 0.200657 0.645113
O O11 0.532410 0.970454 0.752489
O O12 0.085964 0.572987 0.331601
O O13 0.161196 0.808879 0.222125
O O14 0.967806 0.697111 0.934519
O O15 0.770291 0.391985 0.687346
O O16 0.713696 0.483178 0.614859
#
# Coordination Sequence:
#
# PCOD9137247 Si02
#       8
#     4   4   4   4   4   4   4   4
#     4  11  24  44  68  96 134 177 218 274 336 382
#     4  10  22  42  63  96 129 168 222 273 321 394
#     4  11  24  43  62  99 133 170 225 273 322 403
#     4  10  23  42  66  91 134 170 213 275 323 381
#     4  10  22  40  67  90 130 172 216 261 339 379
#     4  11  21  42  64  94 133 168 217 273 318 392
#     4  12  25  41  72  96 133 177 222 269 335 391
#     4  11  21  40  68  90 134 170 213 274 330 382
#
# _framework density 23.801126
#
# number of rings (size 3 to 8) (size 9 to 14) (size 15 to 20)
#    0.750    0.500    3.750    3.750    3.500    0.000 
#    0.000    1.250    0.000    0.000    0.000    0.000 
#    0.000    0.000    0.000    0.000    0.000    0.000 
#
# Total GULP energy -89362.767127 kJ/mol
# GULP energy per Si atom -5585.172945 kJ/mol
# Density = 2.374695 g / cm^3
# Si number density = 23.801126 Si / 1000 Ang^3
#
#
#
# Elastic Constant Matrix: (Units=GPa)
#
#
# Indices 1 2 3 4 5 6 
#
# 1 144.9387 11.9579 20.3543 0.0001 4.5176 0.0000
# 2 11.9579 57.1117 -21.7087 0.0001 4.1992 0.0000
# 3 20.3543 -21.7087 72.6370 -0.0014 -10.6853 -0.0001
# 4 0.0001 0.0001 -0.0014 15.0248 -0.0002 4.6066
# 5 4.5176 4.1992 -10.6853 -0.0002 43.7346 0.0001
# 6 0.0000 0.0000 -0.0001 4.6066 0.0001 35.3930
#
#
#
# Elastic Compliance Matrix: (Units=1/GPa)
#
#
# Indices 1 2 3 4 5 6 
#
# 1 0.007599 -0.002683 -0.003121 0.000000 -0.001290 0.000000
# 2 -0.002683 0.020710 0.006939 0.000001 -0.000016 0.000000
# 3 -0.003121 0.006939 0.017286 0.000002 0.003879 0.000000
# 4 0.000000 0.000001 0.000002 0.069323 0.000001 -0.009023
# 5 -0.001290 -0.000016 0.003879 0.000001 0.023948 0.000000
# 6 0.000000 0.000000 0.000000 -0.009023 0.000000 0.029428
#
#
# Mechanical properties :
#
#
# Convention : Reuss Voigt Hill
#
# Bulk Modulus (GPa) = 20.89170 32.87716 26.88443
# Shear Modulus (GPa) = 27.47567 36.43608 31.95587
#
# Velocity S-wave (km/s) = 3.40131 3.91686 3.66815
# Velocity P-wave (km/s) = 4.92157 5.85653 5.40929
#
# Compressibility (1/GPa) = 0.04786589
#
# Stress axis : x y z
#
# Youngs Moduli (GPa) = 131.59137 48.28607 57.84989
#
# Poissons Ratio (x) = 0.12953 0.18055
# Poissons Ratio (y) = 0.35300 -0.40141
# Poissons Ratio (z) = 0.41069 -0.33505
#
# Static dielectric constant tensor:
#      x y z
#    x 1.877550 0.000000 -0.004460 
#    y 0.000000 1.955100 0.000000 
#    z -0.004460 0.000000 1.983250 
# 
# From -- ./inp_files/36710.got.cif
#   From: 2010.05.17/outbox.cif.g08.bks.cpg/sg9_19_cif.got.tgz:36710.got - 2010.06.03 20:04:27.
