data_PCOD9137153
_publ_section_title
;
Structure prediction by ZEFSAII (Michael W. Deem and Ramdas Pophale) SiO2 
 PCOD9137153
Probable space group: C C
;
_chemical_formula_sum "Si O2"
_cell_formula_units_Z 32
_cell_length_a 9.629186
_cell_length_b 10.463465
_cell_length_c 13.689604
_cell_angle_alpha 90.000000
_cell_angle_beta 100.850023
_cell_angle_gamma 90.000000
_cell_volume 1354.634065
_symmetry_space_group_name_H-M "C C"
_symmetry_group_IT_number 9
_symmetry_cell_setting 'monoclinic'
loop_
_space_group_symop_operation_xyz
x,y,z
x,-y,1/2+z
1/2+x,1/2+y,z
1/2+x,1/2-y,1/2+z
loop_
_atom_site_type_symbol
_atom_site_label
_atom_site_fract_x
_atom_site_fract_y
_atom_site_fract_z
Si Si1 0.977790 0.358698 0.929010
Si Si2 0.433934 0.431472 0.430539
Si Si3 0.962471 0.479226 0.610878
Si Si4 0.225450 0.338272 0.546123
Si Si5 0.247041 0.074829 0.236150
Si Si6 0.564123 0.682656 0.365377
Si Si7 0.659696 0.977028 0.808319
Si Si8 0.279720 0.217827 0.752977
O O1 0.006585 0.207353 0.937112
O O2 0.864699 0.380177 0.828970
O O3 0.101537 0.453323 0.908741
O O4 0.929057 0.416601 0.024900
O O5 0.348766 0.432443 0.522303
O O6 0.532522 0.551816 0.420476
O O7 0.308502 0.450701 0.332791
O O8 0.079429 0.388865 0.575221
O O9 0.048925 0.534044 0.716602
O O10 0.822315 0.415136 0.640089
O O11 0.177260 0.259839 0.443976
O O12 0.294156 0.255633 0.641824
O O13 0.113286 0.149201 0.261523
O O14 0.221510 0.924395 0.249859
O O15 0.421658 0.764343 0.334852
O O16 0.680858 0.829955 0.780053
#
# Coordination Sequence:
#
# PCOD9137153 Si02
#       8
#     4   4   4   4   4   4   4   4
#     4  11  20  39  68  92 132 176 217 273 331 387
#     4  11  22  41  67  94 128 176 216 271 335 386
#     4  10  22  39  69  97 130 182 220 274 336 394
#     4  11  22  46  68  94 139 173 227 278 329 401
#     4  11  23  39  66 100 133 173 222 274 334 393
#     4  11  25  44  69  97 136 177 217 284 330 394
#     4   9  21  40  65  92 131 173 220 274 327 391
#     4  10  23  42  66  98 133 174 223 276 330 396
#
# _framework density 23.622615
#
# number of rings (size 3 to 8) (size 9 to 14) (size 15 to 20)
#    0.000    1.500    2.500    2.250    1.750    1.000 
#    0.000    8.750    5.500    0.000    0.000    0.000 
#    0.000    0.000    0.000    0.000    0.000    0.000 
#
# Total GULP energy -89275.154320 kJ/mol
# GULP energy per Si atom -5579.697145 kJ/mol
# Density = 2.356885 g / cm^3
# Si number density = 23.622615 Si / 1000 Ang^3
#
#
#
# Elastic Constant Matrix: (Units=GPa)
#
#
# Indices 1 2 3 4 5 6 
#
# 1 43.8634 20.1923 17.5603 0.0000 -17.6421 0.0000
# 2 20.1923 95.0212 26.2179 0.0000 -22.1254 0.0000
# 3 17.5603 26.2179 89.3091 0.0000 -39.4183 0.0000
# 4 0.0000 0.0000 0.0000 31.7667 0.0000 -15.4529
# 5 -17.6421 -22.1254 -39.4183 0.0000 41.4893 0.0000
# 6 0.0000 0.0000 0.0000 -15.4529 0.0000 40.7134
#
#
#
# Elastic Compliance Matrix: (Units=1/GPa)
#
#
# Indices 1 2 3 4 5 6 
#
# 1 0.028601 -0.003702 -0.000070 0.000000 0.010122 0.000000
# 2 -0.003702 0.012571 -0.001203 0.000000 0.003987 0.000000
# 3 -0.000070 -0.001203 0.019405 0.000000 0.017765 0.000000
# 4 0.000000 0.000000 0.000000 0.038608 0.000000 0.014654
# 5 0.010122 0.003987 0.017765 0.000000 0.047411 0.000000
# 6 0.000000 0.000000 0.000000 0.014654 0.000000 0.030124
#
#
# Mechanical properties :
#
#
# Convention : Reuss Voigt Hill
#
# Bulk Modulus (GPa) = 19.75177 39.57052 29.66115
# Shear Modulus (GPa) = 24.56473 33.74209 29.15341
#
# Velocity S-wave (km/s) = 3.22822 3.78349 3.51683
# Velocity P-wave (km/s) = 4.71961 5.98948 5.39206
#
# Compressibility (1/GPa) = 0.05062836
#
# Stress axis : x y z
#
# Youngs Moduli (GPa) = 34.96388 79.54929 51.53346
#
# Poissons Ratio (x) = 0.29448 0.00359
# Poissons Ratio (y) = 0.12943 0.06198
# Poissons Ratio (z) = 0.00243 0.09568
#
# Static dielectric constant tensor:
#      x y z
#    x 1.984240 0.000000 -0.065270 
#    y 0.000000 1.917940 0.000000 
#    z -0.065270 0.000000 1.920620 
# 
# From -- ./inp_files/16203.got.cif
#   From: 2010.05.17/outbox.cif.g08.bks.cpg/sg9_9_cif.got.tgz:16203.got - 2010.06.03 20:04:27.
