data_PCOD9137771
_publ_section_title
;
Structure prediction by ZEFSAII (Michael W. Deem and Ramdas Pophale) SiO2 
 PCOD9137771
Probable space group: C C
;
_chemical_formula_sum "Si O2"
_cell_formula_units_Z 24
_cell_length_a 5.722555
_cell_length_b 12.352260
_cell_length_c 13.868651
_cell_angle_alpha 90.000000
_cell_angle_beta 103.522336
_cell_angle_gamma 90.000000
_cell_volume 953.150443
_symmetry_space_group_name_H-M "C C"
_symmetry_group_IT_number 9
_symmetry_cell_setting 'monoclinic'
loop_
_space_group_symop_operation_xyz
x,y,z
x,-y,1/2+z
1/2+x,1/2+y,z
1/2+x,1/2-y,1/2+z
loop_
_atom_site_type_symbol
_atom_site_label
_atom_site_fract_x
_atom_site_fract_y
_atom_site_fract_z
Si Si1 0.270830 0.227161 0.567170
Si Si2 0.904645 0.460116 0.939866
Si Si3 0.622452 0.138180 0.745828
Si Si4 0.745948 0.949003 0.627300
Si Si5 0.861803 0.685159 0.912874
Si Si6 0.477663 0.168495 0.266746
O O1 0.334804 0.153152 0.481795
O O2 0.366979 0.151875 0.664027
O O3 0.389026 0.346343 0.596299
O O4 0.994909 0.253790 0.512486
O O5 0.748844 0.570421 0.935483
O O6 0.913643 0.431196 0.828986
O O7 0.140837 0.491705 0.023722
O O8 0.561056 0.144568 0.853272
O O9 0.767980 0.246524 0.739106
O O10 0.784285 0.043841 0.710913
O O11 0.561159 0.879301 0.674484
O O12 0.691791 0.767168 0.840922
#
# Coordination Sequence:
#
# PCOD9137771 Si02
#       6
#     4   4   4   4   4   4
#     4  10  22  44  68  92 138 172 212 286 330 382
#     4  10  23  43  67  99 134 175 224 272 331 400
#     4  11  23  43  67  99 133 173 223 276 327 398
#     4  10  23  43  67  99 134 175 224 272 331 400
#     4  11  23  43  67  99 133 173 223 276 327 398
#     4  12  24  42  74  98 132 184 220 268 340 390
#
# _framework density 25.179656000000001
#
# number of rings (size 3 to 8) (size 9 to 14) (size 15 to 20)
#    0.000    1.333    5.000    0.000    0.000    8.000 
#    0.000    5.000    0.000    0.000    0.000    0.000 
#    0.000    0.000    0.000    0.000    0.000    0.000 
#
# Total GULP energy -66817.583558 kJ/mol
# GULP energy per Si atom -5568.131963 kJ/mol
# Density = 2.512235 g / cm^3
# Si number density = 25.179656 Si / 1000 Ang^3
#
#
#
# Elastic Constant Matrix: (Units=GPa)
#
#
# Indices 1 2 3 4 5 6 
#
# 1 31.3629 25.9933 19.6132 0.0000 7.7653 0.0000
# 2 25.9933 133.9444 -12.2207 0.0000 -9.0101 0.0000
# 3 19.6132 -12.2207 96.1729 0.0000 -5.3037 0.0000
# 4 0.0000 0.0000 0.0000 23.7655 0.0000 -17.9333
# 5 7.7653 -9.0101 -5.3037 0.0000 13.7768 0.0000
# 6 0.0000 0.0000 0.0000 -17.9333 0.0000 21.9354
#
#
#
# Elastic Compliance Matrix: (Units=1/GPa)
#
#
# Indices 1 2 3 4 5 6 
#
# 1 0.084158 -0.023374 -0.024104 0.000000 -0.072001 0.000000
# 2 -0.023374 0.014464 0.008023 0.000000 0.025723 0.000000
# 3 -0.024104 0.008023 0.017749 0.000000 0.025666 0.000000
# 4 0.000000 0.000000 0.000000 0.109841 0.000000 0.089801
# 5 -0.072001 0.025723 0.025666 0.000000 0.139872 0.000000
# 6 0.000000 0.000000 0.000000 0.089801 0.000000 0.119005
#
#
# Mechanical properties :
#
#
# Convention : Reuss Voigt Hill
#
# Bulk Modulus (GPa) = 26.69411 36.47242 31.58327
# Shear Modulus (GPa) = 8.67325 27.10184 17.88755
#
# Velocity S-wave (km/s) = 1.85796 3.28432 2.66822
# Velocity P-wave (km/s) = 3.90220 5.37575 4.69712
#
# Compressibility (1/GPa) = 0.03746144
#
# Stress axis : x y z
#
# Youngs Moduli (GPa) = 11.88244 69.13654 56.34277
#
# Poissons Ratio (x) = 1.61601 1.35807
# Poissons Ratio (y) = 0.27774 -0.45206
# Poissons Ratio (z) = 0.28641 -0.55471
#
# Static dielectric constant tensor:
#      x y z
#    x 2.076210 0.000000 -0.015200 
#    y 0.000000 2.188360 0.000000 
#    z -0.015200 0.000000 1.979020 
# 
# From -- ./inp_files/21562.got.cif
#   From: 2010.05.17/outbox.cif.g08.bks.cpg/sg9_11_cif.got.tgz:21562.got - 2010.06.03 20:04:27.
