data_PCOD9137275
_publ_section_title
;
Structure prediction by ZEFSAII (Michael W. Deem and Ramdas Pophale) SiO2 
 PCOD9137275
Probable space group: C C
;
_chemical_formula_sum "Si O2"
_cell_formula_units_Z 28
_cell_length_a 18.256268
_cell_length_b 5.549760
_cell_length_c 19.211708
_cell_angle_alpha 90.000000
_cell_angle_beta 33.797515
_cell_angle_gamma 90.000000
_cell_volume 1082.753711
_symmetry_space_group_name_H-M "C C"
_symmetry_group_IT_number 9
_symmetry_cell_setting 'monoclinic'
loop_
_space_group_symop_operation_xyz
x,y,z
x,-y,1/2+z
1/2+x,1/2+y,z
1/2+x,1/2-y,1/2+z
loop_
_atom_site_type_symbol
_atom_site_label
_atom_site_fract_x
_atom_site_fract_y
_atom_site_fract_z
Si Si1 0.585450 0.225485 0.109330
Si Si2 0.543679 0.876020 0.460586
Si Si3 0.675046 0.721218 0.051020
Si Si4 0.854991 0.236377 0.118009
Si Si5 0.346776 0.364469 0.230511
Si Si6 0.900431 0.098841 0.462145
Si Si7 0.124773 0.084812 0.716591
O O1 0.655451 0.469866 0.025501
O O2 0.431596 0.300533 0.231370
O O3 0.642404 0.216936 0.142764
O O4 0.615769 0.955693 0.060252
O O5 0.446357 0.765006 0.596530
O O6 0.693893 0.803095 0.354117
O O7 0.502215 0.782064 0.417494
O O8 0.500343 0.154576 0.495697
O O9 0.612297 0.649355 0.176162
O O10 0.819958 0.782630 0.963608
O O11 0.745380 0.420216 0.175088
O O12 0.841677 0.139608 0.206671
O O13 0.830541 0.012519 0.085281
O O14 0.987776 0.883699 0.362628
#
# Coordination Sequence:
#
# PCOD9137275 Si02
#       7
#     4   4   4   4   4   4   4
#     4  10  24  47  67 101 143 194 242 295 373 448
#     4  11  24  43  72 102 147 187 244 306 373 445
#     4  10  22  45  66 101 141 177 243 297 359 437
#     4  11  22  43  68 103 144 184 250 304 369 441
#     4  11  27  45  69 106 147 199 244 304 378 456
#     4  11  21  39  67 106 130 187 234 310 366 430
#     4  10  22  40  69  99 140 180 243 302 366 431
#
# _framework density 25.859988999999999
#
# number of rings (size 3 to 8) (size 9 to 14) (size 15 to 20)
#    0.857    0.571    2.857    1.714    4.000    3.429 
#    2.571    0.000    0.000    0.000    0.000    0.000 
#    0.000    0.000    0.000    0.000    0.000    0.000 
#
# Total GULP energy -77998.467517 kJ/mol
# GULP energy per Si atom -5571.319108 kJ/mol
# Density = 2.580113 g / cm^3
# Si number density = 25.859989 Si / 1000 Ang^3
#
#
#
# Elastic Constant Matrix: (Units=GPa)
#
#
# Indices 1 2 3 4 5 6 
#
# 1 121.0558 49.9725 39.0155 -0.0006 -47.2977 -0.0006
# 2 49.9725 125.9750 21.3783 -0.0058 -13.7425 0.0021
# 3 39.0155 21.3783 93.2135 -0.0040 -31.0580 0.0011
# 4 -0.0006 -0.0058 -0.0040 23.8683 0.0011 3.3480
# 5 -47.2977 -13.7425 -31.0580 0.0011 47.9157 0.0003
# 6 -0.0006 0.0021 0.0011 3.3480 0.0003 41.8748
#
#
#
# Elastic Compliance Matrix: (Units=1/GPa)
#
#
# Indices 1 2 3 4 5 6 
#
# 1 0.015821 -0.004616 -0.001022 -0.000002 0.013631 0.000000
# 2 -0.004616 0.009686 -0.001125 0.000002 -0.002507 -0.000001
# 3 -0.001022 -0.001125 0.013992 0.000002 0.007738 -0.000001
# 4 -0.000002 0.000002 0.000002 0.042372 -0.000001 -0.003388
# 5 0.013631 -0.002507 0.007738 -0.000001 0.038622 0.000000
# 6 0.000000 -0.000001 -0.000001 -0.003388 0.000000 0.024152
#
#
# Mechanical properties :
#
#
# Convention : Reuss Voigt Hill
#
# Bulk Modulus (GPa) = 38.49895 62.33075 50.41485
# Shear Modulus (GPa) = 29.97104 38.05696 34.01400
#
# Velocity S-wave (km/s) = 3.40806 3.84038 3.63066
# Velocity P-wave (km/s) = 5.51419 6.61968 6.09206
#
# Compressibility (1/GPa) = 0.02597474
#
# Stress axis : x y z
#
# Youngs Moduli (GPa) = 63.20694 103.23704 71.46931
#
# Poissons Ratio (x) = 0.47650 0.07302
# Poissons Ratio (y) = 0.29174 0.08040
# Poissons Ratio (z) = 0.06458 0.11614
#
# Static dielectric constant tensor:
#      x y z
#    x 2.043740 0.000000 0.016370 
#    y 0.000000 2.114220 0.000000 
#    z 0.016370 0.000000 2.087720 
# 
# From -- ./inp_files/19587.got.cif
#   From: 2010.05.17/outbox.cif.g08.bks.cpg/sg9_10_cif.got.tgz:19587.got - 2010.06.03 20:04:27.
