data_PCOD9137103
_publ_section_title
;
Structure prediction by ZEFSAII (Michael W. Deem and Ramdas Pophale) SiO2 
 PCOD9137103
Probable space group: C C
;
_chemical_formula_sum "Si O2"
_cell_formula_units_Z 32
_cell_length_a 29.620750
_cell_length_b 7.742104
_cell_length_c 9.393860
_cell_angle_alpha 90.000000
_cell_angle_beta 36.689024
_cell_angle_gamma 90.000000
_cell_volume 1287.112059
_symmetry_space_group_name_H-M "C C"
_symmetry_group_IT_number 9
_symmetry_cell_setting 'monoclinic'
loop_
_space_group_symop_operation_xyz
x,y,z
x,-y,1/2+z
1/2+x,1/2+y,z
1/2+x,1/2-y,1/2+z
loop_
_atom_site_type_symbol
_atom_site_label
_atom_site_fract_x
_atom_site_fract_y
_atom_site_fract_z
Si Si1 0.707960 0.881870 0.284700
Si Si2 0.305889 0.155903 0.645969
Si Si3 0.302619 0.531445 0.785829
Si Si4 0.970374 0.984727 0.925997
Si Si5 0.975235 0.347657 0.746128
Si Si6 0.056168 0.149407 0.961790
Si Si7 0.058985 0.490493 0.288820
Si Si8 0.710007 0.480277 0.646841
O O1 0.642683 0.005017 0.511672
O O2 0.679949 0.697363 0.296466
O O3 0.764763 0.838192 0.270868
O O4 0.749252 0.977786 0.050792
O O5 0.308812 0.359377 0.672703
O O6 0.392211 0.100125 0.402254
O O7 0.250591 0.101160 0.659591
O O8 0.272418 0.074289 0.874435
O O9 0.384576 0.581388 0.637124
O O10 0.971634 0.164586 0.834513
O O11 0.025791 0.860540 0.699143
O O12 0.000079 0.037752 0.004696
O O13 0.032235 0.348334 0.468625
O O14 0.003143 0.476052 0.799098
O O15 0.057090 0.337270 0.891496
O O16 0.139597 0.071996 0.751733
#
# Coordination Sequence:
#
# PCOD9137103 Si02
#       8
#     4   4   4   4   4   4   4   4
#     4  11  23  41  64  92 126 161 207 257 310 373
#     4  10  22  39  62  91 126 164 207 256 311 368
#     4  10  23  41  64  92 123 163 207 259 314 368
#     4  10  22  42  65  91 124 162 210 259 309 369
#     4  10  22  40  61  92 127 163 206 257 310 368
#     4  11  23  41  63  90 124 165 210 254 308 372
#     4  11  23  40  63  91 126 165 207 252 309 372
#     4  11  22  40  64  91 126 165 208 258 309 370
#
# _framework density 24.861858000000002
#
# number of rings (size 3 to 8) (size 9 to 14) (size 15 to 20)
#    0.000    1.500    0.000    5.250    0.000    8.000 
#    0.000    0.000    0.000    0.000    0.000    0.000 
#    0.000    0.000    0.000    0.000    0.000    0.000 
#
# Total GULP energy -89725.173105 kJ/mol
# GULP energy per Si atom -5607.823319 kJ/mol
# Density = 2.480527 g / cm^3
# Si number density = 24.861858 Si / 1000 Ang^3
#
#
#
# Elastic Constant Matrix: (Units=GPa)
#
#
# Indices 1 2 3 4 5 6 
#
# 1 128.5307 8.2101 21.1692 0.0000 0.4242 0.0000
# 2 8.2101 53.5121 14.8018 0.0000 3.8320 0.0000
# 3 21.1692 14.8018 52.9028 0.0000 -10.8893 0.0000
# 4 0.0000 0.0000 0.0000 24.2633 0.0000 9.2084
# 5 0.4242 3.8320 -10.8893 0.0000 41.1174 0.0000
# 6 0.0000 0.0000 0.0000 9.2084 0.0000 30.4706
#
#
#
# Elastic Compliance Matrix: (Units=1/GPa)
#
#
# Indices 1 2 3 4 5 6 
#
# 1 0.008373 -0.000251 -0.003483 0.000000 -0.000986 0.000000
# 2 -0.000251 0.020774 -0.006463 0.000000 -0.003645 0.000000
# 3 -0.003483 -0.006463 0.023518 0.000000 0.006867 0.000000
# 4 0.000000 0.000000 0.000000 0.046554 0.000000 -0.014069
# 5 -0.000986 -0.003645 0.006867 0.000000 0.026489 0.000000
# 6 0.000000 0.000000 0.000000 -0.014069 0.000000 0.037070
#
#
# Mechanical properties :
#
#
# Convention : Reuss Voigt Hill
#
# Bulk Modulus (GPa) = 30.98585 35.92309 33.45447
# Shear Modulus (GPa) = 25.78262 31.88791 28.83527
#
# Velocity S-wave (km/s) = 3.22380 3.58523 3.40931
# Velocity P-wave (km/s) = 5.13297 5.62307 5.38360
#
# Compressibility (1/GPa) = 0.03227279
#
# Stress axis : x y z
#
# Youngs Moduli (GPa) = 119.42859 48.13614 42.52066
#
# Poissons Ratio (x) = 0.01206 0.14811
# Poissons Ratio (y) = 0.02993 0.27479
# Poissons Ratio (z) = 0.41601 0.31108
#
# Static dielectric constant tensor:
#      x y z
#    x 1.943780 0.000000 -0.009570 
#    y 0.000000 1.997120 0.000000 
#    z -0.009570 0.000000 1.932890 
# 
# From -- ./inp_files/12403.got.cif
#   From: 2010.05.17/outbox.cif.g08.bks.cpg/sg9_7_cif.got.tgz:12403.got - 2010.06.03 20:04:27.
