data_PCOD9137222
_publ_section_title
;
Structure prediction by ZEFSAII (Michael W. Deem and Ramdas Pophale) SiO2 
 PCOD9137222
Probable space group: C C
;
_chemical_formula_sum "Si O2"
_cell_formula_units_Z 28
_cell_length_a 13.889468
_cell_length_b 7.317076
_cell_length_c 13.932290
_cell_angle_alpha 90.000000
_cell_angle_beta 74.466526
_cell_angle_gamma 90.000000
_cell_volume 1364.224217
_symmetry_space_group_name_H-M "C C"
_symmetry_group_IT_number 9
_symmetry_cell_setting 'monoclinic'
loop_
_space_group_symop_operation_xyz
x,y,z
x,-y,1/2+z
1/2+x,1/2+y,z
1/2+x,1/2-y,1/2+z
loop_
_atom_site_type_symbol
_atom_site_label
_atom_site_fract_x
_atom_site_fract_y
_atom_site_fract_z
Si Si1 0.937610 0.251926 0.195840
Si Si2 0.667705 0.313478 0.914455
Si Si3 0.159584 0.310061 0.203545
Si Si4 0.834716 0.557020 0.099895
Si Si5 0.263494 0.514647 0.018859
Si Si6 0.956086 0.094378 0.564108
Si Si7 0.790045 0.664933 0.904552
O O1 0.877112 0.374280 0.134516
O O2 0.869081 0.260403 0.307945
O O3 0.047677 0.321385 0.193810
O O4 0.957191 0.053445 0.147257
O O5 0.659530 0.199324 0.818377
O O6 0.721896 0.505961 0.879389
O O7 0.729018 0.195632 0.975951
O O8 0.561233 0.359033 0.989216
O O9 0.222506 0.127408 0.154721
O O10 0.217634 0.477130 0.136592
O O11 0.905478 0.721428 0.117106
O O12 0.842091 0.570555 0.982996
O O13 0.230944 0.338828 0.963538
O O14 0.381449 0.487587 0.003014
#
# Coordination Sequence:
#
# PCOD9137222 Si02
#       7
#     4   4   4   4   4   4   4
#     4  12  22  40  67  94 132 174 221 277 336 398
#     4  12  22  45  66  96 138 177 223 281 337 399
#     4  10  22  40  65  97 130 174 224 272 336 400
#     4  10  22  44  60  95 135 168 222 279 328 401
#     4  10  24  43  65  94 137 174 223 282 330 404
#     4  10  23  39  66  94 128 173 223 273 330 400
#     4  10  23  39  67  94 132 178 218 280 339 394
#
# _framework density 20.524484999999999
#
# number of rings (size 3 to 8) (size 9 to 14) (size 15 to 20)
#    0.000    1.714    1.429    5.143    4.000    0.000 
#    0.000    2.857    0.000    0.000    0.000    0.000 
#    0.000    0.000    0.000    0.000    0.000    0.000 
#
# Total GULP energy -78145.023613 kJ/mol
# GULP energy per Si atom -5581.787401 kJ/mol
# Density = 2.047777 g / cm^3
# Si number density = 20.524485 Si / 1000 Ang^3
#
#
#
# Elastic Constant Matrix: (Units=GPa)
#
#
# Indices 1 2 3 4 5 6 
#
# 1 67.1815 15.2117 11.5339 0.0000 -14.5370 0.0000
# 2 15.2117 68.6599 25.9741 0.0000 -8.8966 0.0000
# 3 11.5339 25.9741 112.3349 0.0000 -11.2874 0.0000
# 4 0.0000 0.0000 0.0000 24.2728 0.0000 4.9458
# 5 -14.5370 -8.8966 -11.2874 0.0000 29.2702 0.0000
# 6 0.0000 0.0000 0.0000 4.9458 0.0000 23.0138
#
#
#
# Elastic Compliance Matrix: (Units=1/GPa)
#
#
# Indices 1 2 3 4 5 6 
#
# 1 0.017198 -0.002683 -0.000384 0.000000 0.007578 0.000000
# 2 -0.002683 0.016745 -0.003349 0.000000 0.002466 0.000000
# 3 -0.000384 -0.003349 0.009981 0.000000 0.002640 0.000000
# 4 0.000000 0.000000 0.000000 0.043085 0.000000 -0.009259
# 5 0.007578 0.002466 0.002640 0.000000 0.039696 0.000000
# 6 0.000000 0.000000 0.000000 -0.009259 0.000000 0.045442
#
#
# Mechanical properties :
#
#
# Convention : Reuss Voigt Hill
#
# Bulk Modulus (GPa) = 32.16155 39.29064 35.72609
# Shear Modulus (GPa) = 25.59599 28.34180 26.96890
#
# Velocity S-wave (km/s) = 3.53526 3.72005 3.62883
# Velocity P-wave (km/s) = 5.68928 6.13486 5.91627
#
# Compressibility (1/GPa) = 0.03109303
#
# Stress axis : x y z
#
# Youngs Moduli (GPa) = 58.14547 59.71835 100.19087
#
# Poissons Ratio (x) = 0.16023 0.03847
# Poissons Ratio (y) = 0.15601 0.33550
# Poissons Ratio (z) = 0.02233 0.19997
#
# Static dielectric constant tensor:
#      x y z
#    x 1.739800 0.000000 0.015110 
#    y 0.000000 1.758830 0.000000 
#    z 0.015110 0.000000 1.744470 
# 
# From -- ./inp_files/25371.got.cif
#   From: 2010.05.17/outbox.cif.g08.bks.cpg/sg9_13_cif.got.tgz:25371.got - 2010.06.03 20:04:27.
