data_PCOD9137855
_publ_section_title
;
Structure prediction by ZEFSAII (Michael W. Deem and Ramdas Pophale) SiO2 
 PCOD9137855
Probable space group: C C
;
_chemical_formula_sum "Si O2"
_cell_formula_units_Z 28
_cell_length_a 12.976966
_cell_length_b 7.360160
_cell_length_c 13.881131
_cell_angle_alpha 90.000000
_cell_angle_beta 63.363425
_cell_angle_gamma 90.000000
_cell_volume 1185.110306
_symmetry_space_group_name_H-M "C C"
_symmetry_group_IT_number 9
_symmetry_cell_setting 'monoclinic'
loop_
_space_group_symop_operation_xyz
x,y,z
x,-y,1/2+z
1/2+x,1/2+y,z
1/2+x,1/2-y,1/2+z
loop_
_atom_site_type_symbol
_atom_site_label
_atom_site_fract_x
_atom_site_fract_y
_atom_site_fract_z
Si Si1 0.103460 0.228780 0.786690
Si Si2 0.574507 0.938055 0.173880
Si Si3 0.292721 0.750173 0.811530
Si Si4 0.348296 0.888202 0.176910
Si Si5 0.538722 0.686852 0.365933
Si Si6 0.392139 0.205092 0.478830
Si Si7 0.341204 0.417644 0.090983
O O1 0.239058 0.237671 0.750306
O O2 0.078184 0.346627 0.700810
O O3 0.064621 0.016689 0.810811
O O4 0.837494 0.234451 0.900899
O O5 0.487341 0.877150 0.127492
O O6 0.522104 0.823913 0.285186
O O7 0.524355 0.826909 0.898681
O O8 0.709623 0.887406 0.110403
O O9 0.154968 0.746371 0.868765
O O10 0.341752 0.625781 0.704591
O O11 0.326950 0.947697 0.759198
O O12 0.328234 0.941519 0.072204
O O13 0.434422 0.681174 0.484548
O O14 0.376907 0.373920 0.557676
#
# Coordination Sequence:
#
# PCOD9137855 Si02
#       7
#     4   4   4   4   4   4   4
#     4  10  22  45  64 100 144 178 239 304 354 437
#     4  11  22  45  69 103 141 190 244 304 357 450
#     4  10  23  43  67 100 139 185 237 303 358 443
#     4  11  24  42  69 101 138 189 240 294 371 436
#     4   9  23  43  70 103 140 186 244 295 374 436
#     4  11  23  43  69 103 139 189 239 303 374 430
#     4  10  23  43  66 100 137 189 239 299 372 432
#
# _framework density 23.626493
#
# number of rings (size 3 to 8) (size 9 to 14) (size 15 to 20)
#    0.000    1.714    2.857    0.000    2.000    5.714 
#    2.571   10.000    0.000    0.000    0.000    0.000 
#    0.000    0.000    0.000    0.000    0.000    0.000 
#
# Total GULP energy -78015.695197 kJ/mol
# GULP energy per Si atom -5572.549657 kJ/mol
# Density = 2.357272 g / cm^3
# Si number density = 23.626493 Si / 1000 Ang^3
#
#
#
# Elastic Constant Matrix: (Units=GPa)
#
#
# Indices 1 2 3 4 5 6 
#
# 1 133.7087 27.5576 75.7216 0.0000 2.6046 0.0000
# 2 27.5576 48.2335 20.9586 0.0000 -6.3867 0.0000
# 3 75.7216 20.9586 150.0665 0.0000 -20.1761 0.0000
# 4 0.0000 0.0000 0.0000 43.9655 0.0000 -6.0401
# 5 2.6046 -6.3867 -20.1761 0.0000 28.8877 0.0000
# 6 0.0000 0.0000 0.0000 -6.0401 0.0000 26.8175
#
#
#
# Elastic Compliance Matrix: (Units=1/GPa)
#
#
# Indices 1 2 3 4 5 6 
#
# 1 0.012280 -0.005131 -0.006380 0.000000 -0.006698 0.000000
# 2 -0.005131 0.024455 -0.000041 0.000000 0.005840 0.000000
# 3 -0.006380 -0.000041 0.010998 0.000000 0.008247 0.000000
# 4 0.000000 0.000000 0.000000 0.023471 0.000000 0.005286
# 5 -0.006698 0.005840 0.008247 0.000000 0.042272 0.000000
# 6 0.000000 0.000000 0.000000 0.005286 0.000000 0.038480
#
#
# Mechanical properties :
#
#
# Convention : Reuss Voigt Hill
#
# Bulk Modulus (GPa) = 40.60364 64.49828 52.55096
# Shear Modulus (GPa) = 27.28211 33.78554 30.53383
#
# Velocity S-wave (km/s) = 3.40181 3.78562 3.59883
# Velocity P-wave (km/s) = 5.71425 6.81662 6.28963
#
# Compressibility (1/GPa) = 0.02462833
#
# Stress axis : x y z
#
# Youngs Moduli (GPa) = 81.43226 40.89134 90.92743
#
# Poissons Ratio (x) = 0.20979 0.58015
# Poissons Ratio (y) = 0.41779 0.00377
# Poissons Ratio (z) = 0.51957 0.00169
#
# Static dielectric constant tensor:
#      x y z
#    x 1.985920 0.000000 0.007570 
#    y 0.000000 2.404350 0.000000 
#    z 0.007570 0.000000 1.910220 
# 
# From -- ./inp_files/24033.got.cif
#   From: 2010.05.17/outbox.cif.g08.bks.cpg/sg9_13_cif.got.tgz:24033.got - 2010.06.03 20:04:27.
