data_PCOD9137528
_publ_section_title
;
Structure prediction by ZEFSAII (Michael W. Deem and Ramdas Pophale) SiO2 
 PCOD9137528
Probable space group: C C
;
_chemical_formula_sum "Si O2"
_cell_formula_units_Z 24
_cell_length_a 7.102972
_cell_length_b 23.416676
_cell_length_c 8.749489
_cell_angle_alpha 90.000000
_cell_angle_beta 39.019315
_cell_angle_gamma 90.000000
_cell_volume 916.221705
_symmetry_space_group_name_H-M "C C"
_symmetry_group_IT_number 9
_symmetry_cell_setting 'monoclinic'
loop_
_space_group_symop_operation_xyz
x,y,z
x,-y,1/2+z
1/2+x,1/2+y,z
1/2+x,1/2-y,1/2+z
loop_
_atom_site_type_symbol
_atom_site_label
_atom_site_fract_x
_atom_site_fract_y
_atom_site_fract_z
Si Si1 0.674590 0.983646 0.154230
Si Si2 0.170104 0.616163 0.451655
Si Si3 0.737940 0.567348 0.165408
Si Si4 0.606561 0.118277 0.161356
Si Si5 0.438810 0.277634 0.945874
Si Si6 0.371858 0.266697 0.445335
O O1 0.498986 0.967459 0.418537
O O2 0.663022 0.050368 0.127608
O O3 0.532443 0.938211 0.124088
O O4 0.024020 0.966236 0.920229
O O5 0.497077 0.590720 0.195720
O O6 0.013413 0.632555 0.393585
O O7 0.258986 0.664272 0.517736
O O8 0.862185 0.620572 0.182082
O O9 0.844810 0.164768 0.958039
O O10 0.661632 0.263477 0.665994
O O11 0.663329 0.266591 0.950748
O O12 0.709223 0.249948 0.203977
#
# Coordination Sequence:
#
# PCOD9137528 Si02
#       6
#     4   4   4   4   4   4
#     4  10  26  46  71 106 149 195 234 301 372 426
#     4  10  26  46  72 108 144 190 246 300 359 439
#     4  10  25  45  69 102 150 193 232 300 363 430
#     4  12  25  48  75 111 146 196 248 301 362 444
#     4  10  22  42  69  96 136 188 235 291 360 418
#     4  10  24  43  68 103 137 190 241 293 358 423
#
# _framework density 26.194534000000001
#
# number of rings (size 3 to 8) (size 9 to 14) (size 15 to 20)
#    1.000    0.667    0.000    3.000    9.333    2.667 
#    6.000    0.000    0.000    0.000    0.000    0.000 
#    0.000    0.000    0.000    0.000    0.000    0.000 
#
# Total GULP energy -66921.459824 kJ/mol
# GULP energy per Si atom -5576.788319 kJ/mol
# Density = 2.613491 g / cm^3
# Si number density = 26.194534 Si / 1000 Ang^3
#
#
#
# Elastic Constant Matrix: (Units=GPa)
#
#
# Indices 1 2 3 4 5 6 
#
# 1 95.2674 22.2906 32.6843 0.0000 17.6805 0.0000
# 2 22.2906 156.5141 47.2642 0.0000 9.4425 0.0000
# 3 32.6843 47.2642 166.1128 0.0000 -23.8769 0.0000
# 4 0.0000 0.0000 0.0000 42.3979 0.0000 10.7685
# 5 17.6805 9.4425 -23.8769 0.0000 23.5664 0.0000
# 6 0.0000 0.0000 0.0000 10.7685 0.0000 40.3210
#
#
#
# Elastic Compliance Matrix: (Units=1/GPa)
#
#
# Indices 1 2 3 4 5 6 
#
# 1 0.015682 0.000610 -0.005835 0.000000 -0.017922 0.000000
# 2 0.000610 0.007718 -0.003308 0.000000 -0.006901 0.000000
# 3 -0.005835 -0.003308 0.010451 0.000000 0.016292 0.000000
# 4 0.000000 0.000000 0.000000 0.025302 0.000000 -0.006757
# 5 -0.017922 -0.006901 0.016292 0.000000 0.075151 0.000000
# 6 0.000000 0.000000 0.000000 -0.006757 0.000000 0.026606
#
#
# Mechanical properties :
#
#
# Convention : Reuss Voigt Hill
#
# Bulk Modulus (GPa) = 59.57891 69.15250 64.36570
# Shear Modulus (GPa) = 27.23741 42.30073 34.76907
#
# Velocity S-wave (km/s) = 3.22811 4.02290 3.64722
# Velocity P-wave (km/s) = 6.05710 6.93074 6.50860
#
# Compressibility (1/GPa) = 0.01678446
#
# Stress axis : x y z
#
# Youngs Moduli (GPa) = 63.76705 129.57367 95.68337
#
# Poissons Ratio (x) = -0.07903 0.55833
# Poissons Ratio (y) = -0.03889 0.31651
# Poissons Ratio (z) = 0.37209 0.42862
#
# Static dielectric constant tensor:
#      x y z
#    x 2.126580 0.000000 0.005560 
#    y 0.000000 2.045870 0.000000 
#    z 0.005560 0.000000 2.030610 
# 
# From -- ./inp_files/5978.got.cif
#   From: 2010.05.17/outbox.cif.g08.bks.cpg/sg9_3_cif.got.tgz:5978.got - 2010.06.03 20:04:27.
