data_PCOD9137714
_publ_section_title
;
Structure prediction by ZEFSAII (Michael W. Deem and Ramdas Pophale) SiO2 
 PCOD9137714
Probable space group: C C
;
_chemical_formula_sum "Si O2"
_cell_formula_units_Z 32
_cell_length_a 5.766161
_cell_length_b 15.465075
_cell_length_c 17.038677
_cell_angle_alpha 90.000000
_cell_angle_beta 58.180153
_cell_angle_gamma 90.000000
_cell_volume 1291.057096
_symmetry_space_group_name_H-M "C C"
_symmetry_group_IT_number 9
_symmetry_cell_setting 'monoclinic'
loop_
_space_group_symop_operation_xyz
x,y,z
x,-y,1/2+z
1/2+x,1/2+y,z
1/2+x,1/2-y,1/2+z
loop_
_atom_site_type_symbol
_atom_site_label
_atom_site_fract_x
_atom_site_fract_y
_atom_site_fract_z
Si Si1 0.282430 0.791058 0.171640
Si Si2 0.674930 0.218261 0.917276
Si Si3 0.472488 0.554991 0.929425
Si Si4 0.401638 0.032019 0.577905
Si Si5 0.494772 0.132440 0.418085
Si Si6 0.144465 0.799538 0.500634
Si Si7 0.069211 0.064199 0.268232
Si Si8 0.157638 0.261524 0.252576
O O1 0.429990 0.879260 0.120667
O O2 0.377745 0.710246 0.102830
O O3 0.415644 0.776849 0.233483
O O4 0.962846 0.801906 0.205923
O O5 0.869913 0.140537 0.901159
O O6 0.805078 0.311846 0.895748
O O7 0.542366 0.204672 0.856240
O O8 0.398110 0.214771 0.015787
O O9 0.615572 0.493746 0.839087
O O10 0.636008 0.603296 0.968559
O O11 0.198375 0.511011 0.012417
O O12 0.330159 0.067049 0.503183
O O13 0.185100 0.979207 0.668484
O O14 0.600403 0.212282 0.454564
O O15 0.743002 0.083602 0.332086
O O16 0.198414 0.158868 0.248188
#
# Coordination Sequence:
#
# PCOD9137714 Si02
#       8
#     4   4   4   4   4   4   4   4
#     4  11  27  47  75 106 146 198 254 300 368 461
#     4  11  23  44  76  98 143 197 250 304 372 460
#     4  10  24  47  68 112 144 187 252 311 391 438
#     4  10  23  45  71 107 152 191 244 321 380 443
#     4   9  21  44  69 101 144 198 252 300 372 458
#     4  10  22  43  73  99 138 198 242 305 366 454
#     4  11  22  43  71 104 152 189 248 321 383 438
#     4  12  26  47  75 107 143 200 254 298 366 460
#
# _framework density 24.785892
#
# number of rings (size 3 to 8) (size 9 to 14) (size 15 to 20)
#    0.000    1.500    1.250    2.250   10.500    0.000 
#    9.000    3.750    0.000    0.000    0.000    0.000 
#    0.000    0.000    0.000    0.000    0.000    0.000 
#
# Total GULP energy -89187.455043 kJ/mol
# GULP energy per Si atom -5574.215940 kJ/mol
# Density = 2.472948 g / cm^3
# Si number density = 24.785892 Si / 1000 Ang^3
#
#
#
# Elastic Constant Matrix: (Units=GPa)
#
#
# Indices 1 2 3 4 5 6 
#
# 1 83.1156 31.4094 30.0541 0.0000 -3.6290 0.0000
# 2 31.4094 139.7723 63.6636 0.0000 4.8460 0.0000
# 3 30.0541 63.6636 105.1906 0.0000 -13.1182 0.0000
# 4 0.0000 0.0000 0.0000 48.4829 0.0000 -10.4430
# 5 -3.6290 4.8460 -13.1182 0.0000 17.7144 0.0000
# 6 0.0000 0.0000 0.0000 -10.4430 0.0000 45.0823
#
#
#
# Elastic Compliance Matrix: (Units=1/GPa)
#
#
# Indices 1 2 3 4 5 6 
#
# 1 0.013767 -0.001984 -0.002549 0.000000 0.001476 0.000000
# 2 -0.001984 0.011266 -0.007367 0.000000 -0.008944 0.000000
# 3 -0.002549 -0.007367 0.016393 0.000000 0.013633 0.000000
# 4 0.000000 0.000000 0.000000 0.021709 0.000000 0.005029
# 5 0.001476 -0.008944 0.013633 0.000000 0.069296 0.000000
# 6 0.000000 0.000000 0.000000 0.005029 0.000000 0.023347
#
#
# Mechanical properties :
#
#
# Convention : Reuss Voigt Hill
#
# Bulk Modulus (GPa) = 56.72947 64.25919 60.49433
# Shear Modulus (GPa) = 26.96100 35.78602 31.37351
#
# Velocity S-wave (km/s) = 3.30169 3.80387 3.56164
# Velocity P-wave (km/s) = 6.12147 6.72864 6.43222
#
# Compressibility (1/GPa) = 0.01762752
#
# Stress axis : x y z
#
# Youngs Moduli (GPa) = 72.63636 88.76354 61.00003
#
# Poissons Ratio (x) = 0.17611 0.15546
# Poissons Ratio (y) = 0.14412 0.44938
# Poissons Ratio (z) = 0.18512 0.65391
#
# Static dielectric constant tensor:
#      x y z
#    x 2.185310 0.000000 -0.092810 
#    y 0.000000 1.908470 0.000000 
#    z -0.092810 0.000000 2.266940 
# 
# From -- ./inp_files/28685.got.cif
#   From: 2010.05.17/outbox.cif.g08.bks.cpg/sg9_15_cif.got.tgz:28685.got - 2010.06.03 20:04:27.
