data_PCOD9137000
_publ_section_title
;
Structure prediction by ZEFSAII (Michael W. Deem and Ramdas Pophale) SiO2 
 PCOD9137000
Probable space group: C C
;
_chemical_formula_sum "Si O2"
_cell_formula_units_Z 32
_cell_length_a 14.677846
_cell_length_b 19.518237
_cell_length_c 5.365590
_cell_angle_alpha 90.000000
_cell_angle_beta 117.229578
_cell_angle_gamma 90.000000
_cell_volume 1366.816532
_symmetry_space_group_name_H-M "C C"
_symmetry_group_IT_number 9
_symmetry_cell_setting 'monoclinic'
loop_
_space_group_symop_operation_xyz
x,y,z
x,-y,1/2+z
1/2+x,1/2+y,z
1/2+x,1/2-y,1/2+z
loop_
_atom_site_type_symbol
_atom_site_label
_atom_site_fract_x
_atom_site_fract_y
_atom_site_fract_z
Si Si1 0.475230 0.627779 0.808680
Si Si2 0.916926 0.459165 0.525082
Si Si3 0.130673 0.666573 0.879692
Si Si4 0.157305 0.959037 0.496536
Si Si5 0.261447 0.314725 0.044017
Si Si6 0.060187 0.194154 0.415126
Si Si7 0.772557 0.662185 0.922474
Si Si8 0.638548 0.013375 0.820098
O O1 0.536284 0.557968 0.838216
O O2 0.354260 0.632610 0.678022
O O3 0.507008 0.674798 0.609658
O O4 0.517722 0.653489 0.127415
O O5 0.887029 0.503343 0.245711
O O6 0.866512 0.384450 0.448647
O O7 0.040870 0.462546 0.689991
O O8 0.194576 0.685327 0.711482
O O9 0.049759 0.726062 0.832354
O O10 0.094280 0.589912 0.780802
O O11 0.198198 0.666912 0.216233
O O12 0.216215 0.886478 0.555164
O O13 0.181380 0.001331 0.772108
O O14 0.301826 0.236746 0.059223
O O15 0.180815 0.176429 0.609438
O O16 0.698894 0.003164 0.643566
#
# Coordination Sequence:
#
# PCOD9137000 Si02
#       8
#     4   4   4   4   4   4   4   4
#     4  11  23  42  61  93 125 163 220 265 318 370
#     4  10  22  36  57  92 131 163 198 249 310 386
#     4  11  22  42  64  92 127 171 216 253 321 384
#     4  11  22  38  62  86 122 165 204 253 312 381
#     4  11  25  41  67  94 126 165 214 276 311 371
#     4  10  22  39  65  89 127 171 208 264 319 383
#     4  10  22  40  63  95 126 160 207 258 328 381
#     4  10  22  40  61  89 126 166 207 250 305 380
#
# _framework density 23.412064999999998
#
# number of rings (size 3 to 8) (size 9 to 14) (size 15 to 20)
#    0.000    1.500    0.000    6.000    0.000    9.000 
#    0.000    3.750    0.000    0.000    0.000    0.000 
#    0.000    0.000    0.000    0.000    0.000    0.000 
#
# Total GULP energy -89445.792549 kJ/mol
# GULP energy per Si atom -5590.362034 kJ/mol
# Density = 2.335878 g / cm^3
# Si number density = 23.412065 Si / 1000 Ang^3
#
#
#
# Elastic Constant Matrix: (Units=GPa)
#
#
# Indices 1 2 3 4 5 6 
#
# 1 36.3461 14.5962 36.4180 0.0000 -15.0011 0.0000
# 2 14.5962 83.3291 20.1061 0.0000 -9.8498 0.0000
# 3 36.4180 20.1061 136.3523 0.0000 -43.0404 0.0000
# 4 0.0000 0.0000 0.0000 22.6557 0.0000 2.5027
# 5 -15.0011 -9.8498 -43.0404 0.0000 34.1554 0.0000
# 6 0.0000 0.0000 0.0000 2.5027 0.0000 34.7087
#
#
#
# Elastic Compliance Matrix: (Units=1/GPa)
#
#
# Indices 1 2 3 4 5 6 
#
# 1 0.039859 -0.004312 -0.008098 0.000000 0.006058 0.000000
# 2 -0.004312 0.013003 -0.000299 0.000000 0.001480 0.000000
# 3 -0.008098 -0.000299 0.013933 0.000000 0.013915 0.000000
# 4 0.000000 0.000000 0.000000 0.044493 0.000000 -0.003208
# 5 0.006058 0.001480 0.013915 0.000000 0.049900 0.000000
# 6 0.000000 0.000000 0.000000 -0.003208 0.000000 0.029043
#
#
# Mechanical properties :
#
#
# Convention : Reuss Voigt Hill
#
# Bulk Modulus (GPa) = 24.16698 44.25200 34.20949
# Shear Modulus (GPa) = 21.79213 30.63110 26.21162
#
# Velocity S-wave (km/s) = 3.05422 3.62103 3.34964
# Velocity P-wave (km/s) = 4.77311 6.03530 5.44093
#
# Compressibility (1/GPa) = 0.04137877
#
# Stress axis : x y z
#
# Youngs Moduli (GPa) = 25.08837 76.90617 71.77146
#
# Poissons Ratio (x) = 0.33161 0.58118
# Poissons Ratio (y) = 0.10818 0.02143
# Poissons Ratio (z) = 0.20316 0.02297
#
# Static dielectric constant tensor:
#      x y z
#    x 1.930630 0.000000 0.001240 
#    y 0.000000 1.907820 0.000000 
#    z 0.001240 0.000000 1.909250 
# 
# From -- ./inp_files/2557.got.cif
#   From: 2010.05.17/outbox.cif.g08.bks.cpg/sg9_2_cif.got.tgz:2557.got - 2010.06.03 20:04:27.
