data_PCOD9137988
_publ_section_title
;
Structure prediction by ZEFSAII (Michael W. Deem and Ramdas Pophale) SiO2 
 PCOD9137988
Probable space group: C C
;
_chemical_formula_sum "Si O2"
_cell_formula_units_Z 32
_cell_length_a 15.098567
_cell_length_b 7.767476
_cell_length_c 23.376132
_cell_angle_alpha 90.000000
_cell_angle_beta 152.136269
_cell_angle_gamma 90.000000
_cell_volume 1281.295788
_symmetry_space_group_name_H-M "C C"
_symmetry_group_IT_number 9
_symmetry_cell_setting 'monoclinic'
loop_
_space_group_symop_operation_xyz
x,y,z
x,-y,1/2+z
1/2+x,1/2+y,z
1/2+x,1/2-y,1/2+z
loop_
_atom_site_type_symbol
_atom_site_label
_atom_site_fract_x
_atom_site_fract_y
_atom_site_fract_z
Si Si1 0.897910 0.987547 0.904680
Si Si2 0.027312 0.476961 0.256249
Si Si3 0.713685 0.664265 0.518875
Si Si4 0.500115 0.004908 0.371688
Si Si5 0.654275 0.681217 0.720924
Si Si6 0.576661 0.184016 0.528205
Si Si7 0.870902 0.541334 0.004495
Si Si8 0.980337 0.857502 0.227539
O O1 0.704678 0.076341 0.818412
O O2 0.801816 0.793805 0.845862
O O3 0.042945 0.114012 0.022152
O O4 0.031117 0.957749 0.925297
O O5 0.063415 0.523641 0.342555
O O6 0.947989 0.659159 0.188939
O O7 0.858230 0.343329 0.154450
O O8 0.636632 0.853568 0.470325
O O9 0.831203 0.594243 0.532514
O O10 0.287975 0.931507 0.257132
O O11 0.518742 0.156895 0.428371
O O12 0.520689 0.811210 0.608824
O O13 0.530482 0.564973 0.693849
O O14 0.790146 0.113020 0.653742
O O15 0.452079 0.064668 0.497523
O O16 0.665366 0.614440 0.870921
#
# Coordination Sequence:
#
# PCOD9137988 Si02
#       8
#     4   4   4   4   4   4   4   4
#     4  10  22  46  70  96 138 178 231 274 349 413
#     4  11  24  45  71 101 139 184 229 286 353 411
#     4  11  24  47  68 100 139 184 225 285 355 413
#     4  11  27  42  70 105 140 178 233 294 345 412
#     4  10  23  48  69  99 141 187 224 291 353 411
#     4  12  26  44  70 111 137 182 238 287 341 419
#     4  12  25  44  73 100 143 185 236 284 349 416
#     4  11  25  46  69 102 141 186 228 287 351 413
#
# _framework density 24.974717999999999
#
# number of rings (size 3 to 8) (size 9 to 14) (size 15 to 20)
#    0.000    1.000    5.000    0.750    8.750    1.000 
#    0.000    0.000    0.000    0.000    0.000    0.000 
#    0.000    0.000    0.000    0.000    0.000    0.000 
#
# Total GULP energy -89089.422347 kJ/mol
# GULP energy per Si atom -5568.088897 kJ/mol
# Density = 2.491787 g / cm^3
# Si number density = 24.974718 Si / 1000 Ang^3
#
#
#
# Elastic Constant Matrix: (Units=GPa)
#
#
# Indices 1 2 3 4 5 6 
#
# 1 90.9582 13.3353 53.9293 0.0000 28.1323 0.0000
# 2 13.3353 53.8009 28.8406 0.0001 7.6152 0.0000
# 3 53.9293 28.8406 89.9956 0.0012 21.0465 0.0003
# 4 0.0000 0.0001 0.0012 31.2538 0.0001 2.2521
# 5 28.1323 7.6152 21.0465 0.0001 45.8060 0.0000
# 6 0.0000 0.0000 0.0003 2.2521 0.0000 18.2513
#
#
#
# Elastic Compliance Matrix: (Units=1/GPa)
#
#
# Indices 1 2 3 4 5 6 
#
# 1 0.019106 0.001835 -0.010332 0.000000 -0.007292 0.000000
# 2 0.001835 0.022628 -0.008076 0.000000 -0.001178 0.000000
# 3 -0.010332 -0.008076 0.020271 -0.000001 -0.001626 0.000000
# 4 0.000000 0.000000 -0.000001 0.032283 0.000000 -0.003984
# 5 -0.007292 -0.001178 -0.001626 0.000000 0.027253 0.000000
# 6 0.000000 0.000000 0.000000 -0.003984 0.000000 0.055282
#
#
# Mechanical properties :
#
#
# Convention : Reuss Voigt Hill
#
# Bulk Modulus (GPa) = 34.64953 47.44054 41.04503
# Shear Modulus (GPa) = 22.76982 28.30552 25.53767
#
# Velocity S-wave (km/s) = 3.02274 3.37020 3.20119
# Velocity P-wave (km/s) = 5.10750 5.84645 5.48943
#
# Compressibility (1/GPa) = 0.02886042
#
# Stress axis : x y z
#
# Youngs Moduli (GPa) = 52.33876 44.19297 49.33094
#
# Poissons Ratio (x) = -0.08109 0.50969
# Poissons Ratio (y) = -0.09604 0.39838
# Poissons Ratio (z) = 0.54077 0.35688
#
# Static dielectric constant tensor:
#      x y z
#    x 2.047690 0.000000 -0.012660 
#    y 0.000000 1.984630 0.000000 
#    z -0.012660 0.000000 2.045700 
# 
# From -- ./inp_files/17735.got.cif
#   From: 2010.05.17/outbox.cif.g08.bks.cpg/sg9_9_cif.got.tgz:17735.got - 2010.06.03 20:04:27.
