data_PCOD9137176
_publ_section_title
;
Structure prediction by ZEFSAII (Michael W. Deem and Ramdas Pophale) SiO2 
 PCOD9137176
Probable space group: C C
;
_chemical_formula_sum "Si O2"
_cell_formula_units_Z 32
_cell_length_a 11.158253
_cell_length_b 20.229739
_cell_length_c 16.460603
_cell_angle_alpha 90.000000
_cell_angle_beta 159.013025
_cell_angle_gamma 90.000000
_cell_volume 1330.773378
_symmetry_space_group_name_H-M "C C"
_symmetry_group_IT_number 9
_symmetry_cell_setting 'monoclinic'
loop_
_space_group_symop_operation_xyz
x,y,z
x,-y,1/2+z
1/2+x,1/2+y,z
1/2+x,1/2-y,1/2+z
loop_
_atom_site_type_symbol
_atom_site_label
_atom_site_fract_x
_atom_site_fract_y
_atom_site_fract_z
Si Si1 0.333830 0.538834 0.739570
Si Si2 0.661206 0.353994 0.340383
Si Si3 0.137887 0.930193 0.720887
Si Si4 0.943040 0.866554 0.039406
Si Si5 0.352208 0.222427 0.116799
Si Si6 0.674239 0.414869 0.009344
Si Si7 0.833102 0.137955 0.881426
Si Si8 0.044647 0.491645 0.847564
O O1 0.564237 0.575729 0.818064
O O2 0.417236 0.574906 0.877246
O O3 0.963511 0.566702 0.482884
O O4 0.390457 0.459993 0.786874
O O5 0.741384 0.358939 0.294945
O O6 0.357640 0.300871 0.137635
O O7 0.873775 0.316613 0.543741
O O8 0.247693 0.983634 0.722330
O O9 0.004571 0.870733 0.579164
O O10 0.817197 0.960667 0.560344
O O11 0.057969 0.887128 0.022546
O O12 0.698405 0.804041 0.874973
O O13 0.702889 0.921711 0.927076
O O14 0.023037 0.195448 0.953633
O O15 0.926852 0.361265 0.129863
O O16 0.938602 0.472834 0.198477
#
# Coordination Sequence:
#
# PCOD9137176 Si02
#       8
#     4   4   4   4   4   4   4   4
#     4  11  22  38  62 100 130 172 217 271 336 412
#     4  11  23  39  70  95 127 172 232 280 324 385
#     4  11  21  34  59  88 134 167 209 253 332 400
#     4  12  22  41  64  96 130 175 217 278 336 392
#     4  11  22  42  68  94 124 170 237 282 318 385
#     4  11  23  41  64  94 146 171 207 278 350 411
#     4  10  22  40  61  95 131 176 219 276 332 394
#     4  11  19  37  56  92 126 169 202 262 330 401
#
# _framework density 24.046168999999999
#
# number of rings (size 3 to 8) (size 9 to 14) (size 15 to 20)
#    0.000    1.000    6.250    1.500    1.750    1.000 
#    0.000    0.000    5.500    0.000    0.000    0.000 
#    0.000    0.000    0.000    0.000    0.000    0.000 
#
# Total GULP energy -89098.024275 kJ/mol
# GULP energy per Si atom -5568.626517 kJ/mol
# Density = 2.399144 g / cm^3
# Si number density = 24.046169 Si / 1000 Ang^3
#
#
#
# Elastic Constant Matrix: (Units=GPa)
#
#
# Indices 1 2 3 4 5 6 
#
# 1 107.0817 18.2108 22.7954 0.0124 -11.7485 -0.0079
# 2 18.2108 52.2225 -4.2850 0.0355 6.6794 -0.0090
# 3 22.7954 -4.2850 78.9193 0.0436 -20.6860 0.0197
# 4 0.0124 0.0355 0.0436 29.0529 0.0043 -3.1114
# 5 -11.7485 6.6794 -20.6860 0.0043 42.6380 -0.0042
# 6 -0.0079 -0.0090 0.0197 -3.1114 -0.0042 10.0815
#
#
#
# Elastic Compliance Matrix: (Units=1/GPa)
#
#
# Indices 1 2 3 4 5 6 
#
# 1 0.010924 -0.004337 -0.002777 0.000006 0.002342 0.000013
# 2 -0.004337 0.021268 0.001399 -0.000025 -0.003848 0.000003
# 3 -0.002777 0.001399 0.015228 -0.000028 0.006403 -0.000037
# 4 0.000006 -0.000025 -0.000028 0.035597 -0.000011 0.010986
# 5 0.002342 -0.003848 0.006403 -0.000011 0.027808 -0.000006
# 6 0.000013 0.000003 -0.000037 0.010986 -0.000006 0.102583
#
#
# Mechanical properties :
#
#
# Convention : Reuss Voigt Hill
#
# Bulk Modulus (GPa) = 27.78541 34.62953 31.20747
# Shear Modulus (GPa) = 21.11179 29.78795 25.44987
#
# Velocity S-wave (km/s) = 2.96627 3.52345 3.25680
# Velocity P-wave (km/s) = 4.82823 5.56646 5.21043
#
# Compressibility (1/GPa) = 0.03599011
#
# Stress axis : x y z
#
# Youngs Moduli (GPa) = 91.53843 47.01856 65.66976
#
# Poissons Ratio (x) = 0.20392 0.18236
# Poissons Ratio (y) = 0.39700 -0.09186
# Poissons Ratio (z) = 0.25420 -0.06577
#
# Static dielectric constant tensor:
#      x y z
#    x 1.976560 -0.000040 -0.058990 
#    y -0.000040 1.962340 -0.000090 
#    z -0.058990 -0.000090 2.037670 
# 
# From -- ./inp_files/30232.got.cif
#   From: 2010.05.17/outbox.cif.g08.bks.cpg/sg9_16_cif.got.tgz:30232.got - 2010.06.03 20:04:27.
