data_PCOD9137615
_publ_section_title
;
Structure prediction by ZEFSAII (Michael W. Deem and Ramdas Pophale) SiO2 
 PCOD9137615
Probable space group: C C
;
_chemical_formula_sum "Si O2"
_cell_formula_units_Z 32
_cell_length_a 8.473567
_cell_length_b 8.883043
_cell_length_c 25.306358
_cell_angle_alpha 90.000000
_cell_angle_beta 48.794436
_cell_angle_gamma 90.000000
_cell_volume 1433.105450
_symmetry_space_group_name_H-M "C C"
_symmetry_group_IT_number 9
_symmetry_cell_setting 'monoclinic'
loop_
_space_group_symop_operation_xyz
x,y,z
x,-y,1/2+z
1/2+x,1/2+y,z
1/2+x,1/2-y,1/2+z
loop_
_atom_site_type_symbol
_atom_site_label
_atom_site_fract_x
_atom_site_fract_y
_atom_site_fract_z
Si Si1 0.297160 0.620686 0.784460
Si Si2 0.619833 0.884611 0.531924
Si Si3 0.818846 0.380070 0.361195
Si Si4 0.730324 0.457905 0.158818
Si Si5 0.704926 0.543645 0.488926
Si Si6 0.805329 0.885409 0.609477
Si Si7 0.879728 0.529278 0.243347
Si Si8 0.192765 0.461504 0.911893
O O1 0.478935 0.535876 0.711701
O O2 0.335725 0.798266 0.769258
O O3 0.299936 0.569164 0.844924
O O4 0.065070 0.588180 0.815446
O O5 0.639961 0.716417 0.506360
O O6 0.727223 0.893088 0.565671
O O7 0.377528 0.931879 0.593130
O O8 0.726409 0.990869 0.464795
O O9 0.701353 0.481231 0.430133
O O10 0.780636 0.423409 0.309398
O O11 0.767092 0.207536 0.384609
O O12 0.795820 0.288026 0.129235
O O13 0.784401 0.491983 0.207678
O O14 0.537717 0.450539 0.559885
O O15 0.942381 0.528730 0.457067
O O16 0.631989 0.978767 0.680486
#
# Coordination Sequence:
#
# PCOD9137615 Si02
#       8
#     4   4   4   4   4   4   4   4
#     4  10  23  42  64  95 128 165 211 261 316 378
#     4  11  23  42  65  91 126 167 210 263 316 374
#     4  11  24  42  64  95 129 167 212 261 317 376
#     4  10  22  43  66  92 128 167 210 262 317 374
#     4  11  24  41  64  93 127 166 212 261 314 378
#     4  10  24  43  63  92 127 165 212 260 314 377
#     4  10  23  42  65  91 127 166 207 262 318 375
#     4  11  25  41  65  95 128 167 212 262 314 376
#
# _framework density 22.329132000000001
#
# number of rings (size 3 to 8) (size 9 to 14) (size 15 to 20)
#    0.000    1.500    0.000    3.750    0.000   17.000 
#    0.000    2.500    0.000    0.000    0.000    0.000 
#    0.000    0.000    0.000    0.000    0.000    0.000 
#
# Total GULP energy -89557.865023 kJ/mol
# GULP energy per Si atom -5597.366564 kJ/mol
# Density = 2.227831 g / cm^3
# Si number density = 22.329132 Si / 1000 Ang^3
#
#
#
# Elastic Constant Matrix: (Units=GPa)
#
#
# Indices 1 2 3 4 5 6 
#
# 1 61.2185 25.0817 39.5005 0.0000 -2.4134 0.0000
# 2 25.0817 79.2266 48.7238 0.0000 16.1976 0.0000
# 3 39.5005 48.7238 123.4944 0.0000 5.2353 0.0000
# 4 0.0000 0.0000 0.0000 53.4227 0.0000 0.1438
# 5 -2.4134 16.1976 5.2353 0.0000 63.2865 0.0000
# 6 0.0000 0.0000 0.0000 0.1438 0.0000 24.9262
#
#
#
# Elastic Compliance Matrix: (Units=1/GPa)
#
#
# Indices 1 2 3 4 5 6 
#
# 1 0.021547 -0.003948 -0.005431 0.000000 0.002281 0.000000
# 2 -0.003948 0.018318 -0.005780 0.000000 -0.004361 0.000000
# 3 -0.005431 -0.005780 0.012103 0.000000 0.000271 0.000000
# 4 0.000000 0.000000 0.000000 0.018719 0.000000 -0.000108
# 5 0.002281 -0.004361 0.000271 0.000000 0.016982 0.000000
# 6 0.000000 0.000000 0.000000 -0.000108 0.000000 0.040119
#
#
# Mechanical properties :
#
#
# Convention : Reuss Voigt Hill
#
# Bulk Modulus (GPa) = 46.18658 54.50573 50.34616
# Shear Modulus (GPa) = 30.24418 38.36931 34.30675
#
# Velocity S-wave (km/s) = 3.68431 4.14980 3.92396
# Velocity P-wave (km/s) = 6.23123 6.88653 6.56706
#
# Compressibility (1/GPa) = 0.02165131
#
# Stress axis : x y z
#
# Youngs Moduli (GPa) = 46.41120 54.59197 82.62080
#
# Poissons Ratio (x) = 0.21551 0.44871
# Poissons Ratio (y) = 0.18321 0.47751
# Poissons Ratio (z) = 0.25206 0.31552
#
# Static dielectric constant tensor:
#      x y z
#    x 1.849870 0.000000 -0.012270 
#    y 0.000000 1.761430 0.000000 
#    z -0.012270 0.000000 1.827050 
# 
# From -- ./inp_files/36314.got.cif
#   From: 2010.05.17/outbox.cif.g08.bks.cpg/sg9_19_cif.got.tgz:36314.got - 2010.06.03 20:04:27.
