data_PCOD9137952
_publ_section_title
;
Structure prediction by ZEFSAII (Michael W. Deem and Ramdas Pophale) SiO2 
 PCOD9137952
Probable space group: C C
;
_chemical_formula_sum "Si O2"
_cell_formula_units_Z 24
_cell_length_a 5.530496
_cell_length_b 16.194122
_cell_length_c 10.308012
_cell_angle_alpha 90.000000
_cell_angle_beta 75.903563
_cell_angle_gamma 90.000000
_cell_volume 895.401084
_symmetry_space_group_name_H-M "C C"
_symmetry_group_IT_number 9
_symmetry_cell_setting 'monoclinic'
loop_
_space_group_symop_operation_xyz
x,y,z
x,-y,1/2+z
1/2+x,1/2+y,z
1/2+x,1/2-y,1/2+z
loop_
_atom_site_type_symbol
_atom_site_label
_atom_site_fract_x
_atom_site_fract_y
_atom_site_fract_z
Si Si1 0.992380 0.575439 0.080560
Si Si2 0.165931 0.723405 0.789105
Si Si3 0.844274 0.578035 0.755755
Si Si4 0.110806 0.835701 0.046508
Si Si5 0.451966 0.638301 0.155352
Si Si6 0.393273 0.518318 0.395985
O O1 0.926629 0.514836 0.209709
O O2 0.737764 0.621003 0.077920
O O3 0.219793 0.635174 0.090027
O O4 0.119479 0.510184 0.968697
O O5 0.403504 0.708311 0.665064
O O6 0.032845 0.634561 0.812805
O O7 0.967733 0.779533 0.737102
O O8 0.207913 0.776152 0.916351
O O9 0.804258 0.626581 0.624599
O O10 0.576633 0.560189 0.856681
O O11 0.990463 0.916194 0.990535
O O12 0.398196 0.563864 0.259898
#
# Coordination Sequence:
#
# PCOD9137952 Si02
#       6
#     4   4   4   4   4   4
#     4  11  23  46  74 109 150 205 269 333 391 474
#     4  11  27  49  76 116 168 214 269 339 419 501
#     4  11  26  47  79 115 159 219 275 337 412 489
#     4  11  26  52  74 120 164 217 269 342 413 497
#     4  10  26  43  70 108 152 203 260 330 404 473
#     4  10  22  45  75 108 153 206 276 331 389 480
#
# _framework density 26.803632
#
# number of rings (size 3 to 8) (size 9 to 14) (size 15 to 20)
#    0.000    1.333    1.667    2.000    4.667    9.333 
#    0.000    0.000    0.000    0.000    0.000    0.000 
#    0.000    0.000    0.000    0.000    0.000    0.000 
#
# Total GULP energy -67180.433508 kJ/mol
# GULP energy per Si atom -5598.369459 kJ/mol
# Density = 2.674263 g / cm^3
# Si number density = 26.803632 Si / 1000 Ang^3
#
#
#
# Elastic Constant Matrix: (Units=GPa)
#
#
# Indices 1 2 3 4 5 6 
#
# 1 129.6352 46.9855 50.4237 0.0000 3.5768 0.0000
# 2 46.9855 92.6807 28.5015 0.0000 19.6434 0.0000
# 3 50.4237 28.5015 123.9360 0.0000 -5.5801 0.0000
# 4 0.0000 0.0000 0.0000 64.3071 0.0000 6.9452
# 5 3.5768 19.6434 -5.5801 0.0000 53.9533 0.0000
# 6 0.0000 0.0000 0.0000 6.9452 0.0000 55.2434
#
#
#
# Elastic Compliance Matrix: (Units=1/GPa)
#
#
# Indices 1 2 3 4 5 6 
#
# 1 0.010591 -0.004497 -0.003248 0.000000 0.000599 0.000000
# 2 -0.004497 0.014735 -0.001795 0.000000 -0.005252 0.000000
# 3 -0.003248 -0.001795 0.009888 0.000000 0.001892 0.000000
# 4 0.000000 0.000000 0.000000 0.015764 0.000000 -0.001982
# 5 0.000599 -0.005252 0.001892 0.000000 0.020603 0.000000
# 6 0.000000 0.000000 0.000000 -0.001982 0.000000 0.018351
#
#
# Mechanical properties :
#
#
# Convention : Reuss Voigt Hill
#
# Bulk Modulus (GPa) = 61.98426 66.45258 64.21842
# Shear Modulus (GPa) = 43.71011 49.39019 46.55015
#
# Velocity S-wave (km/s) = 4.04264 4.29729 4.17191
# Velocity P-wave (km/s) = 6.70568 7.03338 6.87148
#
# Compressibility (1/GPa) = 0.01613313
#
# Stress axis : x y z
#
# Youngs Moduli (GPa) = 94.42273 67.86537 101.13264
#
# Poissons Ratio (x) = 0.30522 0.32844
# Poissons Ratio (y) = 0.42466 0.18157
# Poissons Ratio (z) = 0.30665 0.12184
#
# Static dielectric constant tensor:
#      x y z
#    x 2.079700 0.000000 0.021270 
#    y 0.000000 2.116130 0.000000 
#    z 0.021270 0.000000 2.167470 
# 
# From -- ./inp_files/13029.got.cif
#   From: 2010.05.17/outbox.cif.g08.bks.cpg/sg9_7_cif.got.tgz:13029.got - 2010.06.03 20:04:27.
