data_PCOD9137280
_publ_section_title
;
Structure prediction by ZEFSAII (Michael W. Deem and Ramdas Pophale) SiO2 
 PCOD9137280
Probable space group: C C
;
_chemical_formula_sum "Si O2"
_cell_formula_units_Z 32
_cell_length_a 6.775510
_cell_length_b 19.358240
_cell_length_c 9.663940
_cell_angle_alpha 90.000000
_cell_angle_beta 80.318492
_cell_angle_gamma 90.000000
_cell_volume 1249.488624
_symmetry_space_group_name_H-M "C C"
_symmetry_group_IT_number 9
_symmetry_cell_setting 'monoclinic'
loop_
_space_group_symop_operation_xyz
x,y,z
x,-y,1/2+z
1/2+x,1/2+y,z
1/2+x,1/2-y,1/2+z
loop_
_atom_site_type_symbol
_atom_site_label
_atom_site_fract_x
_atom_site_fract_y
_atom_site_fract_z
Si Si1 0.598640 0.191913 0.982060
Si Si2 0.013837 0.648332 0.622475
Si Si3 0.127216 0.496141 0.238532
Si Si4 0.799288 0.406178 0.885113
Si Si5 0.336770 0.284954 0.705225
Si Si6 0.853369 0.064776 0.954319
Si Si7 0.190852 0.125820 0.076437
Si Si8 0.931790 0.162043 0.468945
O O1 0.776393 0.141265 0.916347
O O2 0.570061 0.269776 0.933827
O O3 0.397661 0.149320 0.988364
O O4 0.640342 0.204710 0.139152
O O5 0.030072 0.572674 0.685190
O O6 0.879086 0.704186 0.717865
O O7 0.247157 0.671439 0.592288
O O8 0.918104 0.642597 0.480345
O O9 0.307366 0.480931 0.325426
O O10 0.952212 0.531379 0.348221
O O11 0.211576 0.540428 0.099210
O O12 0.742638 0.390697 0.730672
O O13 0.575001 0.402721 0.978282
O O14 0.533184 0.311026 0.599921
O O15 0.326994 0.337542 0.832549
O O16 0.072640 0.070588 0.996225
#
# Coordination Sequence:
#
# PCOD9137280 Si02
#       8
#     4   4   4   4   4   4   4   4
#     4  11  20  44  68 103 139 181 238 306 373 439
#     4  12  24  47  73 112 150 195 254 312 370 458
#     4  12  26  51  72 100 161 197 260 310 365 456
#     4  11  24  46  73 105 143 202 242 310 372 448
#     4  10  22  40  71 107 144 182 237 309 379 441
#     4  11  26  47  71 108 144 203 248 314 374 447
#     4  10  22  43  71 100 141 186 239 306 381 435
#     4  11  24  42  73 109 148 188 248 309 390 438
#
# _framework density 25.610476999999999
#
# number of rings (size 3 to 8) (size 9 to 14) (size 15 to 20)
#    0.000    1.000    5.000    1.500    3.500    0.000 
#   11.250    0.000    0.000    0.000    0.000    0.000 
#    0.000    0.000    0.000    0.000    0.000    0.000 
#
# Total GULP energy -89344.026060 kJ/mol
# GULP energy per Si atom -5584.001629 kJ/mol
# Density = 2.555219 g / cm^3
# Si number density = 25.610477 Si / 1000 Ang^3
#
#
#
# Elastic Constant Matrix: (Units=GPa)
#
#
# Indices 1 2 3 4 5 6 
#
# 1 132.6649 33.9546 39.2666 0.0000 30.4925 0.0000
# 2 33.9546 83.6284 15.3350 0.0000 13.2263 0.0000
# 3 39.2666 15.3350 91.6735 0.0000 37.7263 0.0000
# 4 0.0000 0.0000 0.0000 32.5966 0.0000 11.3078
# 5 30.4925 13.2263 37.7263 0.0000 34.5344 0.0000
# 6 0.0000 0.0000 0.0000 11.3078 0.0000 42.1510
#
#
#
# Elastic Compliance Matrix: (Units=1/GPa)
#
#
# Indices 1 2 3 4 5 6 
#
# 1 0.010124 -0.002858 -0.001145 0.000000 -0.006594 0.000000
# 2 -0.002858 0.013538 0.000100 0.000000 -0.002770 0.000000
# 3 -0.001145 0.000100 0.019951 0.000000 -0.020822 0.000000
# 4 0.000000 0.000000 0.000000 0.033826 0.000000 -0.009074
# 5 -0.006594 -0.002770 -0.020822 0.000000 0.058587 0.000000
# 6 0.000000 0.000000 0.000000 -0.009074 0.000000 0.026159
#
#
# Mechanical properties :
#
#
# Convention : Reuss Voigt Hill
#
# Bulk Modulus (GPa) = 27.92767 53.89767 40.91267
# Shear Modulus (GPa) = 27.48392 36.48378 31.98385
#
# Velocity S-wave (km/s) = 3.27945 3.77844 3.53775
# Velocity P-wave (km/s) = 5.02675 6.33453 5.71815
#
# Compressibility (1/GPa) = 0.03580679
#
# Stress axis : x y z
#
# Youngs Moduli (GPa) = 98.77989 73.86723 50.12294
#
# Poissons Ratio (x) = 0.21108 0.05738
# Poissons Ratio (y) = 0.28227 -0.00499
# Poissons Ratio (z) = 0.11307 -0.00735
#
# Static dielectric constant tensor:
#      x y z
#    x 2.005460 0.000000 0.024560 
#    y 0.000000 2.092430 0.000000 
#    z 0.024560 0.000000 2.046750 
# 
# From -- ./inp_files/13505.got.cif
#   From: 2010.05.17/outbox.cif.g08.bks.cpg/sg9_7_cif.got.tgz:13505.got - 2010.06.03 20:04:27.
