data_PCOD9137710
_publ_section_title
;
Structure prediction by ZEFSAII (Michael W. Deem and Ramdas Pophale) SiO2 
 PCOD9137710
Probable space group: C C
;
_chemical_formula_sum "Si O2"
_cell_formula_units_Z 28
_cell_length_a 11.628363
_cell_length_b 7.624871
_cell_length_c 14.807391
_cell_angle_alpha 90.000000
_cell_angle_beta 52.473154
_cell_angle_gamma 90.000000
_cell_volume 1041.214150
_symmetry_space_group_name_H-M "C C"
_symmetry_group_IT_number 9
_symmetry_cell_setting 'monoclinic'
loop_
_space_group_symop_operation_xyz
x,y,z
x,-y,1/2+z
1/2+x,1/2+y,z
1/2+x,1/2-y,1/2+z
loop_
_atom_site_type_symbol
_atom_site_label
_atom_site_fract_x
_atom_site_fract_y
_atom_site_fract_z
Si Si1 0.560320 0.052137 0.554890
Si Si2 0.160690 0.985177 0.859776
Si Si3 0.945488 0.509713 0.788752
Si Si4 0.346917 0.508634 0.983941
Si Si5 0.250737 0.653793 0.705000
Si Si6 0.532523 0.464597 0.612784
Si Si7 0.319937 0.889365 0.031065
O O1 0.516538 0.937940 0.663180
O O2 0.729199 0.012077 0.461478
O O3 0.542694 0.255491 0.593574
O O4 0.447175 0.026146 0.529635
O O5 0.233224 0.827419 0.772105
O O6 0.013756 0.031059 0.876625
O O7 0.299205 0.107426 0.819457
O O8 0.088123 0.950291 0.991607
O O9 0.875602 0.394865 0.900963
O O10 0.082255 0.598943 0.771748
O O11 0.312631 0.684546 0.057027
O O12 0.310911 0.351845 0.072130
O O13 0.369230 0.533180 0.700238
O O14 0.662995 0.522907 0.616193
#
# Coordination Sequence:
#
# PCOD9137710 Si02
#       7
#     4   4   4   4   4   4   4
#     4  11  24  49  75 103 151 198 244 313 368 446
#     4  10  22  43  73 107 151 185 248 310 364 443
#     4  10  26  44  72 114 140 192 258 296 366 450
#     4  10  24  46  72 108 151 197 247 306 378 434
#     4  10  22  43  73 107 151 185 248 310 364 443
#     4  10  24  46  72 108 151 197 247 306 378 434
#     4  11  24  49  75 103 151 198 244 313 368 446
#
# _framework density 26.891681999999999
#
# number of rings (size 3 to 8) (size 9 to 14) (size 15 to 20)
#    0.000    1.714    2.857    0.000    8.000    5.714 
#    0.000    7.143    0.000    0.000    0.000    0.000 
#    0.000    0.000    0.000    0.000    0.000    0.000 
#
# Total GULP energy -78095.321833 kJ/mol
# GULP energy per Si atom -5578.237274 kJ/mol
# Density = 2.683048 g / cm^3
# Si number density = 26.891682 Si / 1000 Ang^3
#
#
#
# Elastic Constant Matrix: (Units=GPa)
#
#
# Indices 1 2 3 4 5 6 
#
# 1 259.6311 58.2448 72.9049 0.0000 -79.2245 0.0000
# 2 58.2448 64.0908 21.1356 0.0000 -14.2011 0.0000
# 3 72.9049 21.1356 115.6999 0.0000 -1.6153 0.0000
# 4 0.0000 0.0000 0.0000 35.5897 0.0000 -6.3521
# 5 -79.2245 -14.2011 -1.6153 0.0000 73.2147 0.0000
# 6 0.0000 0.0000 0.0000 -6.3521 0.0000 37.1223
#
#
#
# Elastic Compliance Matrix: (Units=1/GPa)
#
#
# Indices 1 2 3 4 5 6 
#
# 1 0.008739 -0.004563 -0.004555 0.000000 0.008471 0.000000
# 2 -0.004563 0.019747 -0.000748 0.000000 -0.001124 0.000000
# 3 -0.004555 -0.000748 0.011583 0.000000 -0.004818 0.000000
# 4 0.000000 0.000000 0.000000 0.028983 0.000000 0.004959
# 5 0.008471 -0.001124 -0.004818 0.000000 0.022500 0.000000
# 6 0.000000 0.000000 0.000000 0.004959 0.000000 0.027787
#
#
# Mechanical properties :
#
#
# Convention : Reuss Voigt Hill
#
# Bulk Modulus (GPa) = 49.17018 82.66584 65.91801
# Shear Modulus (GPa) = 34.28191 48.32778 41.30485
#
# Velocity S-wave (km/s) = 3.57433 4.24385 3.92340
# Velocity P-wave (km/s) = 5.94631 7.40410 6.71489
#
# Compressibility (1/GPa) = 0.02033753
#
# Stress axis : x y z
#
# Youngs Moduli (GPa) = 114.42829 50.64013 86.33698
#
# Poissons Ratio (x) = 0.23107 0.39326
# Poissons Ratio (y) = 0.52212 0.06457
# Poissons Ratio (z) = 0.52121 0.03787
#
# Static dielectric constant tensor:
#      x y z
#    x 2.245160 0.000000 -0.018440 
#    y 0.000000 2.114510 0.000000 
#    z -0.018440 0.000000 2.080000 
# 
# From -- ./inp_files/29775.got.cif
#   From: 2010.05.17/outbox.cif.g08.bks.cpg/sg9_15_cif.got.tgz:29775.got - 2010.06.03 20:04:27.
