data_PCOD9137453
_publ_section_title
;
Structure prediction by ZEFSAII (Michael W. Deem and Ramdas Pophale) SiO2 
 PCOD9137453
Probable space group: C C
;
_chemical_formula_sum "Si O2"
_cell_formula_units_Z 32
_cell_length_a 22.901305
_cell_length_b 7.000528
_cell_length_c 19.442254
_cell_angle_alpha 90.000000
_cell_angle_beta 151.817566
_cell_angle_gamma 90.000000
_cell_volume 1472.101311
_symmetry_space_group_name_H-M "C C"
_symmetry_group_IT_number 9
_symmetry_cell_setting 'monoclinic'
loop_
_space_group_symop_operation_xyz
x,y,z
x,-y,1/2+z
1/2+x,1/2+y,z
1/2+x,1/2-y,1/2+z
loop_
_atom_site_type_symbol
_atom_site_label
_atom_site_fract_x
_atom_site_fract_y
_atom_site_fract_z
Si Si1 0.942380 0.461062 0.026080
Si Si2 0.846274 0.895984 0.235033
Si Si3 0.579484 0.800734 0.564528
Si Si4 0.616628 0.088227 0.330872
Si Si5 0.176921 0.302559 0.514953
Si Si6 0.947372 0.956398 0.481193
Si Si7 0.285176 0.725837 0.392402
Si Si8 0.111840 0.139434 0.942827
O O1 0.972182 0.567104 0.984733
O O2 0.026224 0.528801 0.176327
O O3 0.970770 0.241514 0.042702
O O4 0.810183 0.547673 0.911632
O O5 0.848287 0.904150 0.319439
O O6 0.983748 0.839888 0.352589
O O7 0.812791 0.107579 0.170818
O O8 0.731484 0.762157 0.092661
O O9 0.607459 0.847275 0.515024
O O10 0.546707 0.577184 0.540629
O O11 0.689940 0.829518 0.733210
O O12 0.739826 0.153305 0.418571
O O13 0.576573 0.271953 0.332547
O O14 0.630304 0.917936 0.400066
O O15 0.158755 0.077797 0.486980
O O16 0.905218 0.107151 0.494801
#
# Coordination Sequence:
#
# PCOD9137453 Si02
#       8
#     4   4   4   4   4   4   4   4
#     4  10  25  41  70  98 139 187 238 300 357 438
#     4  11  26  44  73 114 144 189 247 309 379 438
#     4  10  22  42  66 100 142 178 242 308 354 424
#     4  10  26  46  66 102 143 193 239 295 374 450
#     4  11  24  44  72 103 145 193 238 305 370 442
#     4  11  23  41  74 102 136 192 249 301 372 436
#     4  10  23  45  64 100 143 182 238 302 360 439
#     4  11  27  47  73 105 156 190 245 310 370 449
#
# _framework density 21.737632999999999
#
# number of rings (size 3 to 8) (size 9 to 14) (size 15 to 20)
#    0.000    1.500    2.500    0.000    8.750    8.000 
#    0.000    0.000    0.000    0.000    0.000    0.000 
#    0.000    0.000    0.000    0.000    0.000    0.000 
#
# Total GULP energy -89196.855231 kJ/mol
# GULP energy per Si atom -5574.803452 kJ/mol
# Density = 2.168816 g / cm^3
# Si number density = 21.737633 Si / 1000 Ang^3
#
#
#
# Elastic Constant Matrix: (Units=GPa)
#
#
# Indices 1 2 3 4 5 6 
#
# 1 138.2597 50.9331 32.1476 0.0000 -9.5434 0.0000
# 2 50.9331 124.6283 22.8300 0.0000 0.1866 0.0000
# 3 32.1476 22.8300 62.3256 0.0000 -5.5667 0.0000
# 4 0.0000 0.0000 0.0000 26.4482 0.0000 -8.1597
# 5 -9.5434 0.1866 -5.5667 0.0000 36.2618 0.0000
# 6 0.0000 0.0000 0.0000 -8.1597 0.0000 40.0411
#
#
#
# Elastic Compliance Matrix: (Units=1/GPa)
#
#
# Indices 1 2 3 4 5 6 
#
# 1 0.009350 -0.003186 -0.003482 0.000000 0.001943 0.000000
# 2 -0.003186 0.009697 -0.002016 0.000000 -0.001198 0.000000
# 3 -0.003482 -0.002016 0.018755 0.000000 0.001973 0.000000
# 4 0.000000 0.000000 0.000000 0.040346 0.000000 0.008222
# 5 0.001943 -0.001198 0.001973 0.000000 0.028398 0.000000
# 6 0.000000 0.000000 0.000000 0.008222 0.000000 0.026650
#
#
# Mechanical properties :
#
#
# Convention : Reuss Voigt Hill
#
# Bulk Modulus (GPa) = 48.93653 59.67056 54.30354
# Shear Modulus (GPa) = 31.77099 35.17042 33.47070
#
# Velocity S-wave (km/s) = 3.82719 4.02674 3.92823
# Velocity P-wave (km/s) = 6.48776 7.00924 6.75354
#
# Compressibility (1/GPa) = 0.02043463
#
# Stress axis : x y z
#
# Youngs Moduli (GPa) = 106.94815 103.12408 53.31784
#
# Poissons Ratio (x) = 0.32858 0.18567
# Poissons Ratio (y) = 0.34077 0.10746
# Poissons Ratio (z) = 0.37242 0.20785
#
# Static dielectric constant tensor:
#      x y z
#    x 1.824270 0.000000 0.066140 
#    y 0.000000 1.831970 0.000000 
#    z 0.066140 0.000000 1.850910 
# 
# From -- ./inp_files/34460.got.cif
#   From: 2010.05.17/outbox.cif.g08.bks.cpg/sg9_18_cif.got.tgz:34460.got - 2010.06.03 20:04:27.
