data_PCOD9137437
_publ_section_title
;
Structure prediction by ZEFSAII (Michael W. Deem and Ramdas Pophale) SiO2 
 PCOD9137437
Probable space group: C C
;
_chemical_formula_sum "Si O2"
_cell_formula_units_Z 32
_cell_length_a 5.772601
_cell_length_b 15.623870
_cell_length_c 15.617936
_cell_angle_alpha 90.000000
_cell_angle_beta 110.734124
_cell_angle_gamma 90.000000
_cell_volume 1317.357894
_symmetry_space_group_name_H-M "C C"
_symmetry_group_IT_number 9
_symmetry_cell_setting 'monoclinic'
loop_
_space_group_symop_operation_xyz
x,y,z
x,-y,1/2+z
1/2+x,1/2+y,z
1/2+x,1/2-y,1/2+z
loop_
_atom_site_type_symbol
_atom_site_label
_atom_site_fract_x
_atom_site_fract_y
_atom_site_fract_z
Si Si1 0.584270 0.731075 0.814990
Si Si2 0.368376 0.782887 0.107611
Si Si3 0.267128 0.029627 0.361482
Si Si4 0.048109 0.173186 0.413980
Si Si5 0.549294 0.385864 0.457301
Si Si6 0.290134 0.532545 0.504017
Si Si7 0.394719 0.193273 0.140699
Si Si8 0.667519 0.579884 0.696153
O O1 0.479304 0.696611 0.890790
O O2 0.496316 0.815543 0.751772
O O3 0.565679 0.654205 0.744940
O O4 0.870707 0.748721 0.871265
O O5 0.643050 0.746464 0.132911
O O6 0.357656 0.872440 0.157609
O O7 0.142140 0.729164 0.123489
O O8 0.274706 0.796765 0.000014
O O9 0.115348 0.117535 0.340480
O O10 0.503841 0.047881 0.451233
O O11 0.130063 0.956012 0.397760
O O12 0.298933 0.990713 0.271814
O O13 0.911987 0.104969 0.459000
O O14 0.335514 0.434882 0.480065
O O15 0.770164 0.370223 0.554897
O O16 0.435605 0.544310 0.611801
#
# Coordination Sequence:
#
# PCOD9137437 Si02
#       8
#     4   4   4   4   4   4   4   4
#     4  10  22  43  70 101 146 186 253 307 378 438
#     4  10  23  43  69  97 143 182 240 300 369 436
#     4  10  23  41  70  95 145 194 243 306 371 452
#     4  10  22  42  64 102 134 189 237 306 366 438
#     4  10  23  43  64 102 140 193 242 303 370 449
#     4  10  23  42  67  95 144 193 245 300 376 444
#     4  11  24  42  69 105 138 188 238 307 364 435
#     4   9  22  44  63 103 136 193 248 301 378 444
#
# _framework density 24.291045
#
# number of rings (size 3 to 8) (size 9 to 14) (size 15 to 20)
#    0.000    2.000    1.250    0.000    8.750    2.000 
#    9.000    0.000    0.000    0.000    0.000    0.000 
#    0.000    0.000    0.000    0.000    0.000    0.000 
#
# Total GULP energy -89205.291841 kJ/mol
# GULP energy per Si atom -5575.330740 kJ/mol
# Density = 2.423576 g / cm^3
# Si number density = 24.291045 Si / 1000 Ang^3
#
#
#
# Elastic Constant Matrix: (Units=GPa)
#
#
# Indices 1 2 3 4 5 6 
#
# 1 80.0445 41.1141 23.5950 0.0000 -5.7769 0.0000
# 2 41.1141 42.0626 27.6546 0.0000 -10.5889 0.0000
# 3 23.5950 27.6546 106.2379 0.0000 -4.3595 0.0000
# 4 0.0000 0.0000 0.0000 39.2962 0.0000 0.4025
# 5 -5.7769 -10.5889 -4.3595 0.0000 29.0093 0.0000
# 6 0.0000 0.0000 0.0000 0.4025 0.0000 28.3633
#
#
#
# Elastic Compliance Matrix: (Units=1/GPa)
#
#
# Indices 1 2 3 4 5 6 
#
# 1 0.025713 -0.027033 0.001139 0.000000 -0.004576 0.000000
# 2 -0.027033 0.059904 -0.008969 0.000000 0.015135 0.000000
# 3 0.001139 -0.008969 0.011440 0.000000 -0.001328 0.000000
# 4 0.000000 0.000000 0.000000 0.025451 0.000000 -0.000361
# 5 -0.004576 0.015135 -0.001328 0.000000 0.038885 0.000000
# 6 0.000000 0.000000 0.000000 -0.000361 0.000000 0.035262
#
#
# Mechanical properties :
#
#
# Convention : Reuss Voigt Hill
#
# Bulk Modulus (GPa) = 36.58926 45.89692 41.24309
# Shear Modulus (GPa) = 18.14931 28.39919 23.27425
#
# Velocity S-wave (km/s) = 2.73639 3.42295 3.09874
# Velocity P-wave (km/s) = 5.00793 5.87858 5.46063
#
# Compressibility (1/GPa) = 0.02733042
#
# Stress axis : x y z
#
# Youngs Moduli (GPa) = 38.89147 16.69327 87.41211
#
# Poissons Ratio (x) = 0.45127 -0.09952
# Poissons Ratio (y) = 1.05137 0.78396
# Poissons Ratio (z) = -0.04428 0.14971
#
# Static dielectric constant tensor:
#      x y z
#    x 1.924020 0.000000 -0.032760 
#    y 0.000000 2.026270 0.000000 
#    z -0.032760 0.000000 1.946270 
# 
# From -- ./inp_files/28731.got.cif
#   From: 2010.05.17/outbox.cif.g08.bks.cpg/sg9_15_cif.got.tgz:28731.got - 2010.06.03 20:04:27.
