data_PCOD9137788
_publ_section_title
;
Structure prediction by ZEFSAII (Michael W. Deem and Ramdas Pophale) SiO2 
 PCOD9137788
Probable space group: C C
;
_chemical_formula_sum "Si O2"
_cell_formula_units_Z 32
_cell_length_a 7.842281
_cell_length_b 19.606679
_cell_length_c 9.791179
_cell_angle_alpha 90.000000
_cell_angle_beta 101.717727
_cell_angle_gamma 90.000000
_cell_volume 1474.127684
_symmetry_space_group_name_H-M "C C"
_symmetry_group_IT_number 9
_symmetry_cell_setting 'monoclinic'
loop_
_space_group_symop_operation_xyz
x,y,z
x,-y,1/2+z
1/2+x,1/2+y,z
1/2+x,1/2-y,1/2+z
loop_
_atom_site_type_symbol
_atom_site_label
_atom_site_fract_x
_atom_site_fract_y
_atom_site_fract_z
Si Si1 0.825090 0.345978 0.816250
Si Si2 0.241055 0.488565 0.752355
Si Si3 0.014309 0.902730 0.244405
Si Si4 0.762412 0.808026 0.284671
Si Si5 0.025326 0.100713 0.452508
Si Si6 0.696262 0.194303 0.475587
Si Si7 0.260490 0.856460 0.489834
Si Si8 0.613748 0.917844 0.454818
O O1 0.759748 0.268640 0.832165
O O2 0.695257 0.388494 0.888949
O O3 0.785962 0.365775 0.654418
O O4 0.033216 0.341519 0.873248
O O5 0.338459 0.553899 0.704534
O O6 0.398353 0.452895 0.859168
O O7 0.170962 0.444817 0.613618
O O8 0.111209 0.519288 0.845996
O O9 0.122951 0.908539 0.399528
O O10 0.949669 0.824730 0.248060
O O11 0.101491 0.915969 0.114827
O O12 0.737028 0.860988 0.403512
O O13 0.647700 0.815775 0.129306
O O14 0.879756 0.160893 0.455841
O O15 0.717319 0.276082 0.463556
O O16 0.435793 0.877341 0.441981
#
# Coordination Sequence:
#
# PCOD9137788 Si02
#       8
#     4   4   4   4   4   4   4   4
#     4  11  23  41  70 108 137 177 232 288 355 438
#     4  11  24  47  69  97 139 191 243 294 351 416
#     4  10  22  45  64  94 144 178 231 293 343 414
#     4   9  21  40  67  98 137 181 222 287 361 413
#     4  11  24  42  70 100 137 188 224 283 365 416
#     4  10  22  44  69 104 145 173 228 296 356 433
#     4  11  24  44  69 104 138 181 235 297 354 425
#     4  11  24  45  72  97 137 193 241 294 355 415
#
# _framework density 21.707753
#
# number of rings (size 3 to 8) (size 9 to 14) (size 15 to 20)
#    0.000    1.500    2.500    1.500    5.250    0.000 
#    9.000    0.000    0.000    0.000    0.000    0.000 
#    0.000    0.000    0.000    0.000    0.000    0.000 
#
# Total GULP energy -89067.582934 kJ/mol
# GULP energy per Si atom -5566.723933 kJ/mol
# Density = 2.165834 g / cm^3
# Si number density = 21.707753 Si / 1000 Ang^3
#
#
#
# Elastic Constant Matrix: (Units=GPa)
#
#
# Indices 1 2 3 4 5 6 
#
# 1 81.1689 4.8722 32.4525 0.0000 -8.4840 0.0000
# 2 4.8722 56.7712 26.5647 0.0000 -4.5294 0.0000
# 3 32.4525 26.5647 117.7480 0.0000 3.4382 0.0000
# 4 0.0000 0.0000 0.0000 30.1502 0.0000 -5.2036
# 5 -8.4840 -4.5294 3.4382 0.0000 35.9449 0.0000
# 6 0.0000 0.0000 0.0000 -5.2036 0.0000 16.0200
#
#
#
# Elastic Compliance Matrix: (Units=1/GPa)
#
#
# Indices 1 2 3 4 5 6 
#
# 1 0.014399 0.001108 -0.004334 0.000000 0.003953 0.000000
# 2 0.001108 0.020088 -0.004933 0.000000 0.003265 0.000000
# 3 -0.004334 -0.004933 0.010878 0.000000 -0.002685 0.000000
# 4 0.000000 0.000000 0.000000 0.035137 0.000000 0.011413
# 5 0.003953 0.003265 -0.002685 0.000000 0.029421 0.000000
# 6 0.000000 0.000000 0.000000 0.011413 0.000000 0.066129
#
#
# Mechanical properties :
#
#
# Convention : Reuss Voigt Hill
#
# Bulk Modulus (GPa) = 34.42577 42.60742 38.51660
# Shear Modulus (GPa) = 24.74582 29.20961 26.97772
#
# Velocity S-wave (km/s) = 3.37998 3.67220 3.52912
# Velocity P-wave (km/s) = 5.57903 6.13599 5.86413
#
# Compressibility (1/GPa) = 0.02904800
#
# Stress axis : x y z
#
# Youngs Moduli (GPa) = 69.44724 49.78084 91.92531
#
# Poissons Ratio (x) = -0.05513 0.39840
# Poissons Ratio (y) = -0.07692 0.45343
# Poissons Ratio (z) = 0.30098 0.24555
#
# Static dielectric constant tensor:
#      x y z
#    x 1.922090 0.000000 0.033480 
#    y 0.000000 1.868920 0.000000 
#    z 0.033480 0.000000 1.845810 
# 
# From -- ./inp_files/5824.got.cif
#   From: 2010.05.17/outbox.cif.g08.bks.cpg/sg9_3_cif.got.tgz:5824.got - 2010.06.03 20:04:27.
