data_PCOD9137193
_publ_section_title
;
Structure prediction by ZEFSAII (Michael W. Deem and Ramdas Pophale) SiO2 
 PCOD9137193
Probable space group: C C
;
_chemical_formula_sum "Si O2"
_cell_formula_units_Z 28
_cell_length_a 12.592916
_cell_length_b 6.452658
_cell_length_c 18.933231
_cell_angle_alpha 90.000000
_cell_angle_beta 49.583831
_cell_angle_gamma 90.000000
_cell_volume 1171.324174
_symmetry_space_group_name_H-M "C C"
_symmetry_group_IT_number 9
_symmetry_cell_setting 'monoclinic'
loop_
_space_group_symop_operation_xyz
x,y,z
x,-y,1/2+z
1/2+x,1/2+y,z
1/2+x,1/2-y,1/2+z
loop_
_atom_site_type_symbol
_atom_site_label
_atom_site_fract_x
_atom_site_fract_y
_atom_site_fract_z
Si Si1 0.660330 0.553136 0.947480
Si Si2 0.097609 0.660406 0.056486
Si Si3 0.721216 0.643967 0.165403
Si Si4 0.857455 0.901857 0.219860
Si Si5 0.309177 0.665850 0.495039
Si Si6 0.404178 0.777766 0.091138
Si Si7 0.409536 0.698925 0.307771
O O1 0.705455 0.664565 0.002357
O O2 0.798135 0.615665 0.843548
O O3 0.636763 0.316126 0.976349
O O4 0.513185 0.661904 0.990598
O O5 0.999207 0.470282 0.076208
O O6 0.235168 0.555123 0.027414
O O7 0.005916 0.789004 0.150971
O O8 0.760966 0.403525 0.139196
O O9 0.564951 0.710144 0.211480
O O10 0.751496 0.742275 0.229163
O O11 0.826755 0.758567 0.066086
O O12 0.868936 0.104316 0.164395
O O13 0.835449 0.997776 0.306129
O O14 0.426738 0.667892 0.384703
#
# Coordination Sequence:
#
# PCOD9137193 Si02
#       7
#     4   4   4   4   4   4   4
#     4   8  18  37  61  88 123 169 218 271 333 397
#     4   9  16  38  65  85 117 176 211 265 338 389
#     4  11  22  40  65  97 136 179 221 278 347 410
#     4  10  22  40  63  94 127 177 225 277 337 403
#     4   9  21  39  60  93 129 169 223 273 332 407
#     4   9  19  38  61  88 127 166 220 273 327 402
#     4  10  22  42  63  97 139 168 228 285 332 410
#
# _framework density 23.904568000000001
#
# number of rings (size 3 to 8) (size 9 to 14) (size 15 to 20)
#    0.857    1.714    0.000    2.571    0.000    3.429 
#   10.286    1.429    0.000    0.000    0.000    0.000 
#    0.000    0.000    0.000    0.000    0.000    0.000 
#
# Total GULP energy -77980.699082 kJ/mol
# GULP energy per Si atom -5570.049934 kJ/mol
# Density = 2.385016 g / cm^3
# Si number density = 23.904568 Si / 1000 Ang^3
#
#
#
# Elastic Constant Matrix: (Units=GPa)
#
#
# Indices 1 2 3 4 5 6 
#
# 1 74.0699 19.2815 19.1397 0.0000 -18.9070 0.0000
# 2 19.2815 114.1428 20.8913 0.0000 -13.6314 0.0001
# 3 19.1397 20.8913 68.7295 0.0000 -9.3619 0.0000
# 4 0.0000 0.0000 0.0000 36.8125 0.0000 -3.8176
# 5 -18.9070 -13.6314 -9.3619 0.0000 34.1836 0.0000
# 6 0.0000 0.0001 0.0000 -3.8176 0.0000 32.8854
#
#
#
# Elastic Compliance Matrix: (Units=1/GPa)
#
#
# Indices 1 2 3 4 5 6 
#
# 1 0.016657 -0.001298 -0.003178 0.000000 0.007825 0.000000
# 2 -0.001298 0.009693 -0.002240 0.000000 0.002534 0.000000
# 3 -0.003178 -0.002240 0.016365 0.000000 0.001831 0.000000
# 4 0.000000 0.000000 0.000000 0.027496 0.000000 0.003192
# 5 0.007825 0.002534 0.001831 0.000000 0.035094 0.000000
# 6 0.000000 0.000000 0.000000 0.003192 0.000000 0.030779
#
#
# Mechanical properties :
#
#
# Convention : Reuss Voigt Hill
#
# Bulk Modulus (GPa) = 34.14860 41.72969 37.93914
# Shear Modulus (GPa) = 31.39197 33.95162 32.67180
#
# Velocity S-wave (km/s) = 3.62777 3.77277 3.70098
# Velocity P-wave (km/s) = 5.64482 6.03930 5.84539
#
# Compressibility (1/GPa) = 0.02928378
#
# Stress axis : x y z
#
# Youngs Moduli (GPa) = 60.03371 103.17039 61.10577
#
# Poissons Ratio (x) = 0.13387 0.19422
# Poissons Ratio (y) = 0.07790 0.13686
# Poissons Ratio (z) = 0.19081 0.23107
#
# Static dielectric constant tensor:
#      x y z
#    x 1.956110 0.000000 -0.002570 
#    y 0.000000 1.908150 0.000000 
#    z -0.002570 0.000000 1.926830 
# 
# From -- ./inp_files/35467.got.cif
#   From: 2010.05.17/outbox.cif.g08.bks.cpg/sg9_18_cif.got.tgz:35467.got - 2010.06.03 20:04:27.
