data_PCOD9137524
_publ_section_title
;
Structure prediction by ZEFSAII (Michael W. Deem and Ramdas Pophale) SiO2 
 PCOD9137524
Probable space group: C C
;
_chemical_formula_sum "Si O2"
_cell_formula_units_Z 28
_cell_length_a 11.336959
_cell_length_b 19.056861
_cell_length_c 13.590893
_cell_angle_alpha 90.000000
_cell_angle_beta 156.809950
_cell_angle_gamma 90.000000
_cell_volume 1156.250975
_symmetry_space_group_name_H-M "C C"
_symmetry_group_IT_number 9
_symmetry_cell_setting 'monoclinic'
loop_
_space_group_symop_operation_xyz
x,y,z
x,-y,1/2+z
1/2+x,1/2+y,z
1/2+x,1/2-y,1/2+z
loop_
_atom_site_type_symbol
_atom_site_label
_atom_site_fract_x
_atom_site_fract_y
_atom_site_fract_z
Si Si1 0.288180 0.984821 0.898020
Si Si2 0.939972 0.792123 0.943770
Si Si3 0.698426 0.618551 0.147232
Si Si4 0.858003 0.208979 0.020868
Si Si5 0.794934 0.087204 0.489422
Si Si6 0.886746 0.997525 0.873971
Si Si7 0.845354 0.395672 0.139378
O O1 0.201979 0.935288 0.741332
O O2 0.320031 0.928082 0.010872
O O3 0.064393 0.048447 0.753688
O O4 0.590173 0.022511 0.087253
O O5 0.149354 0.736705 0.163176
O O6 0.129599 0.831902 0.005682
O O7 0.874624 0.848499 0.979183
O O8 0.013554 0.612731 0.335740
O O9 0.568221 0.690073 0.088389
O O10 0.441660 0.578498 0.889385
O O11 0.593322 0.260302 0.779491
O O12 0.672474 0.138353 0.908632
O O13 0.746060 0.025073 0.371989
O O14 0.192891 0.957136 0.087425
#
# Coordination Sequence:
#
# PCOD9137524 Si02
#       7
#     4   4   4   4   4   4   4
#     4  11  22  43  71 116 153 194 252 330 406 465
#     4  11  27  50  75 108 150 208 265 315 375 460
#     4  11  24  43  67 106 148 198 251 312 394 466
#     4  12  27  48  69 103 147 200 251 303 370 456
#     4  10  25  43  72 107 154 201 256 320 397 465
#     4  10  22  42  69 107 145 190 252 324 398 454
#     4  11  23  45  77 107 147 195 257 324 382 454
#
# _framework density 24.216197000000001
#
# number of rings (size 3 to 8) (size 9 to 14) (size 15 to 20)
#    0.000    1.143    1.429    3.429    6.000    2.286 
#    5.143    0.000    0.000    0.000    0.000    0.000 
#    0.000    0.000    0.000    0.000    0.000    0.000 
#
# Total GULP energy -77969.433167 kJ/mol
# GULP energy per Si atom -5569.245226 kJ/mol
# Density = 2.416108 g / cm^3
# Si number density = 24.216197 Si / 1000 Ang^3
#
#
#
# Elastic Constant Matrix: (Units=GPa)
#
#
# Indices 1 2 3 4 5 6 
#
# 1 112.1693 41.7500 45.3270 -0.0020 32.3535 -0.0015
# 2 41.7500 81.6228 35.1681 -0.0050 7.2347 -0.0019
# 3 45.3270 35.1681 104.2302 -0.0252 20.3258 -0.0101
# 4 -0.0020 -0.0050 -0.0252 35.4388 -0.0071 -5.4606
# 5 32.3535 7.2347 20.3258 -0.0071 42.7329 -0.0030
# 6 -0.0015 -0.0019 -0.0101 -5.4606 -0.0030 39.4479
#
#
#
# Elastic Compliance Matrix: (Units=1/GPa)
#
#
# Indices 1 2 3 4 5 6 
#
# 1 0.014634 -0.005503 -0.002787 -0.000004 -0.008822 -0.000002
# 2 -0.005503 0.016405 -0.003762 0.000000 0.003178 0.000000
# 3 -0.002787 -0.003762 0.012720 0.000008 -0.003303 0.000004
# 4 -0.000004 0.000000 0.000008 0.028833 0.000004 0.003991
# 5 -0.008822 0.003178 -0.003303 0.000004 0.031114 0.000002
# 6 -0.000002 0.000000 0.000004 0.003991 0.000002 0.025902
#
#
# Mechanical properties :
#
#
# Convention : Reuss Voigt Hill
#
# Bulk Modulus (GPa) = 50.87561 60.27915 55.57738
# Shear Modulus (GPa) = 31.19879 35.24243 33.22061
#
# Velocity S-wave (km/s) = 3.59325 3.81901 3.70785
# Velocity P-wave (km/s) = 6.18625 6.66278 6.42893
#
# Compressibility (1/GPa) = 0.01965578
#
# Stress axis : x y z
#
# Youngs Moduli (GPa) = 68.33391 60.95603 78.61885
#
# Poissons Ratio (x) = 0.33541 0.21910
# Poissons Ratio (y) = 0.37601 0.29577
# Poissons Ratio (z) = 0.19044 0.22932
#
# Static dielectric constant tensor:
#      x y z
#    x 2.105680 0.000000 -0.180390 
#    y 0.000000 2.071330 0.000000 
#    z -0.180390 0.000000 2.221950 
# 
# From -- ./inp_files/25095.got.cif
#   From: 2010.05.17/outbox.cif.g08.bks.cpg/sg9_13_cif.got.tgz:25095.got - 2010.06.03 20:04:27.
