data_PCOD9137711
_publ_section_title
;
Structure prediction by ZEFSAII (Michael W. Deem and Ramdas Pophale) SiO2 
 PCOD9137711
Probable space group: C C
;
_chemical_formula_sum "Si O2"
_cell_formula_units_Z 32
_cell_length_a 8.031293
_cell_length_b 22.353254
_cell_length_c 14.112509
_cell_angle_alpha 90.000000
_cell_angle_beta 147.898512
_cell_angle_gamma 90.000000
_cell_volume 1346.383634
_symmetry_space_group_name_H-M "C C"
_symmetry_group_IT_number 9
_symmetry_cell_setting 'monoclinic'
loop_
_space_group_symop_operation_xyz
x,y,z
x,-y,1/2+z
1/2+x,1/2+y,z
1/2+x,1/2-y,1/2+z
loop_
_atom_site_type_symbol
_atom_site_label
_atom_site_fract_x
_atom_site_fract_y
_atom_site_fract_z
Si Si1 0.190690 0.263727 0.954710
Si Si2 0.811617 0.312513 0.344440
Si Si3 0.851851 0.362127 0.722386
Si Si4 0.595431 0.940993 0.514574
Si Si5 0.182283 0.536461 0.281507
Si Si6 0.865008 0.415906 0.116073
Si Si7 0.711290 0.197830 0.860897
Si Si8 0.809483 0.567025 0.365423
O O1 0.339198 0.208677 0.966885
O O2 0.078483 0.306570 0.814005
O O3 0.884546 0.242564 0.869149
O O4 0.461981 0.296947 0.142899
O O5 0.898183 0.383213 0.388433
O O6 0.039250 0.281411 0.375156
O O7 0.508017 0.339726 0.538878
O O8 0.944785 0.377759 0.874309
O O9 0.921447 0.422258 0.701934
O O10 0.631210 0.950390 0.645281
O O11 0.953467 0.934211 0.658657
O O12 0.454773 0.003123 0.411531
O O13 0.518821 0.561004 0.478467
O O14 0.116008 0.466681 0.267247
O O15 0.970329 0.349890 0.197872
O O16 0.847680 0.420214 0.994046
#
# Coordination Sequence:
#
# PCOD9137711 Si02
#       8
#     4   4   4   4   4   4   4   4
#     4  12  30  50  73 108 145 196 251 310 364 434
#     4  12  28  50  76 106 147 196 251 304 369 436
#     4  12  25  46  71 107 143 190 242 302 364 443
#     4  10  23  44  70 108 144 188 234 300 363 436
#     4  10  22  43  73 108 150 187 239 296 377 438
#     4  10  23  45  72 108 149 193 232 305 367 443
#     4  12  27  50  75 106 147 197 249 307 367 434
#     4  10  24  42  72 107 147 183 234 296 369 432
#
# _framework density 23.767371000000001
#
# number of rings (size 3 to 8) (size 9 to 14) (size 15 to 20)
#    0.000    1.000    2.500    2.250    7.000    4.000 
#    2.250    0.000    0.000    0.000    0.000    0.000 
#    0.000    0.000    0.000    0.000    0.000    0.000 
#
# Total GULP energy -89381.707172 kJ/mol
# GULP energy per Si atom -5586.356698 kJ/mol
# Density = 2.371328 g / cm^3
# Si number density = 23.767371 Si / 1000 Ang^3
#
#
#
# Elastic Constant Matrix: (Units=GPa)
#
#
# Indices 1 2 3 4 5 6 
#
# 1 63.7390 7.3118 9.6034 0.0000 5.8516 0.0001
# 2 7.3118 79.9785 47.2339 0.0000 5.7039 0.0000
# 3 9.6034 47.2339 115.9806 0.0002 14.7643 -0.0002
# 4 0.0000 0.0000 0.0002 43.4330 0.0000 8.6130
# 5 5.8516 5.7039 14.7643 0.0000 25.9428 0.0000
# 6 0.0001 0.0000 -0.0002 8.6130 0.0000 28.5981
#
#
#
# Elastic Compliance Matrix: (Units=1/GPa)
#
#
# Indices 1 2 3 4 5 6 
#
# 1 0.016167 -0.000921 -0.000566 0.000000 -0.003122 0.000000
# 2 -0.000921 0.016517 -0.006700 0.000000 0.000389 0.000000
# 3 -0.000566 -0.006700 0.012068 0.000000 -0.005267 0.000000
# 4 0.000000 0.000000 0.000000 0.024486 0.000000 -0.007375
# 5 -0.003122 0.000389 -0.005267 0.000000 0.042163 0.000000
# 6 0.000000 0.000000 0.000000 -0.007375 0.000000 0.037188
#
#
# Mechanical properties :
#
#
# Convention : Reuss Voigt Hill
#
# Bulk Modulus (GPa) = 35.23935 43.11069 39.17502
# Shear Modulus (GPa) = 28.66618 32.63137 30.64877
#
# Velocity S-wave (km/s) = 3.47668 3.70935 3.59490
# Velocity P-wave (km/s) = 5.56556 6.04348 5.80944
#
# Compressibility (1/GPa) = 0.02837737
#
# Stress axis : x y z
#
# Youngs Moduli (GPa) = 61.85617 60.54520 82.86331
#
# Poissons Ratio (x) = 0.05576 0.04691
# Poissons Ratio (y) = 0.05697 0.55517
# Poissons Ratio (z) = 0.03502 0.40564
#
# Static dielectric constant tensor:
#      x y z
#    x 2.004020 0.000000 -0.025010 
#    y 0.000000 1.983160 0.000000 
#    z -0.025010 0.000000 1.876550 
# 
# From -- ./inp_files/23809.got.cif
#   From: 2010.05.17/outbox.cif.g08.bks.cpg/sg9_12_cif.got.tgz:23809.got - 2010.06.03 20:04:27.
