data_PCOD9137308
_publ_section_title
;
Structure prediction by ZEFSAII (Michael W. Deem and Ramdas Pophale) SiO2 
 PCOD9137308
Probable space group: C C
;
_chemical_formula_sum "Si O2"
_cell_formula_units_Z 32
_cell_length_a 21.168773
_cell_length_b 14.688280
_cell_length_c 8.114528
_cell_angle_alpha 90.000000
_cell_angle_beta 34.166706
_cell_angle_gamma 90.000000
_cell_volume 1416.964793
_symmetry_space_group_name_H-M "C C"
_symmetry_group_IT_number 9
_symmetry_cell_setting 'monoclinic'
loop_
_space_group_symop_operation_xyz
x,y,z
x,-y,1/2+z
1/2+x,1/2+y,z
1/2+x,1/2-y,1/2+z
loop_
_atom_site_type_symbol
_atom_site_label
_atom_site_fract_x
_atom_site_fract_y
_atom_site_fract_z
Si Si1 0.986390 0.699095 0.326400
Si Si2 0.043037 0.060751 0.332203
Si Si3 0.389688 0.151879 0.872989
Si Si4 0.707280 0.495964 0.219485
Si Si5 0.348920 0.156072 0.311812
Si Si6 0.827174 0.858410 0.335378
Si Si7 0.739211 0.835738 0.188871
Si Si8 0.873438 0.898926 0.594677
O O1 0.974275 0.657664 0.536497
O O2 0.908823 0.647232 0.359067
O O3 0.941536 0.802876 0.436267
O O4 0.110670 0.692661 0.985467
O O5 0.960679 0.145642 0.502958
O O6 0.097600 0.047804 0.391282
O O7 0.153842 0.061515 0.982857
O O8 0.958322 0.977460 0.473384
O O9 0.428755 0.148130 0.979127
O O10 0.314473 0.243721 0.027040
O O11 0.307392 0.066263 0.026381
O O12 0.753753 0.419788 0.996124
O O13 0.290552 0.254761 0.441804
O O14 0.768853 0.890476 0.293592
O O15 0.824083 0.910318 0.516029
O O16 0.777493 0.886517 0.940576
#
# Coordination Sequence:
#
# PCOD9137308 Si02
#       8
#     4   4   4   4   4   4   4   4
#     4  10  22  41  65  91 130 180 216 264 339 396
#     4  12  22  38  70  98 128 168 220 278 333 376
#     4  10  22  41  63  95 133 164 223 281 313 396
#     4  12  22  38  70  98 128 168 220 278 333 376
#     4  10  23  42  60  96 136 166 216 272 330 400
#     4  10  23  42  60  96 136 166 216 272 330 400
#     4  10  22  41  65  91 130 180 216 264 339 396
#     4  10  22  41  63  95 133 164 223 281 313 396
#
# _framework density 22.583483000000001
#
# number of rings (size 3 to 8) (size 9 to 14) (size 15 to 20)
#    0.000    1.500    2.500    2.250    3.500    1.000 
#    0.000    1.250    0.000    0.000    0.000    0.000 
#    0.000    0.000    0.000    0.000    0.000    0.000 
#
# Total GULP energy -89253.327268 kJ/mol
# GULP energy per Si atom -5578.332954 kJ/mol
# Density = 2.253208 g / cm^3
# Si number density = 22.583483 Si / 1000 Ang^3
#
#
#
# Elastic Constant Matrix: (Units=GPa)
#
#
# Indices 1 2 3 4 5 6 
#
# 1 60.5291 8.1966 30.2848 0.0000 23.9643 0.0000
# 2 8.1966 70.5538 15.8965 0.0000 3.8121 0.0000
# 3 30.2848 15.8965 139.3491 0.0000 29.8146 0.0000
# 4 0.0000 0.0000 0.0000 31.2305 0.0000 -0.1858
# 5 23.9643 3.8121 29.8146 0.0000 41.3655 0.0000
# 6 0.0000 0.0000 0.0000 -0.1858 0.0000 22.4282
#
#
#
# Elastic Compliance Matrix: (Units=1/GPa)
#
#
# Indices 1 2 3 4 5 6 
#
# 1 0.022267 -0.001470 -0.002294 0.000000 -0.011111 0.000000
# 2 -0.001470 0.014645 -0.001472 0.000000 0.000562 0.000000
# 3 -0.002294 -0.001472 0.008902 0.000000 -0.004951 0.000000
# 4 0.000000 0.000000 0.000000 0.032022 0.000000 0.000265
# 5 -0.011111 0.000562 -0.004951 0.000000 0.034128 0.000000
# 6 0.000000 0.000000 0.000000 0.000265 0.000000 0.044589
#
#
# Mechanical properties :
#
#
# Convention : Reuss Voigt Hill
#
# Bulk Modulus (GPa) = 28.29400 42.13197 35.21299
# Shear Modulus (GPa) = 27.96329 33.40846 30.68588
#
# Velocity S-wave (km/s) = 3.52265 3.85038 3.69016
# Velocity P-wave (km/s) = 5.39456 6.20192 5.81228
#
# Compressibility (1/GPa) = 0.03534318
#
# Stress axis : x y z
#
# Youngs Moduli (GPa) = 44.90982 68.28040 112.33256
#
# Poissons Ratio (x) = 0.10034 0.25774
# Poissons Ratio (y) = 0.06600 0.16531
# Poissons Ratio (z) = 0.10304 0.10049
#
# Static dielectric constant tensor:
#      x y z
#    x 1.910680 0.000000 0.104320 
#    y 0.000000 1.858740 0.000000 
#    z 0.104320 0.000000 1.847150 
# 
# From -- ./inp_files/7444.got.cif
#   From: 2010.05.17/outbox.cif.g08.bks.cpg/sg9_4_cif.got.tgz:7444.got - 2010.06.03 20:04:27.
