data_PCOD9137095
_publ_section_title
;
Structure prediction by ZEFSAII (Michael W. Deem and Ramdas Pophale) SiO2 
 PCOD9137095
Probable space group: C C
;
_chemical_formula_sum "Si O2"
_cell_formula_units_Z 32
_cell_length_a 5.074658
_cell_length_b 16.742201
_cell_length_c 15.098724
_cell_angle_alpha 90.000000
_cell_angle_beta 75.984908
_cell_angle_gamma 90.000000
_cell_volume 1244.615363
_symmetry_space_group_name_H-M "C C"
_symmetry_group_IT_number 9
_symmetry_cell_setting 'monoclinic'
loop_
_space_group_symop_operation_xyz
x,y,z
x,-y,1/2+z
1/2+x,1/2+y,z
1/2+x,1/2-y,1/2+z
loop_
_atom_site_type_symbol
_atom_site_label
_atom_site_fract_x
_atom_site_fract_y
_atom_site_fract_z
Si Si1 0.555430 0.431694 0.886990
Si Si2 0.387087 0.037684 0.122592
Si Si3 0.408853 0.171764 0.249166
Si Si4 0.823706 0.981906 0.231612
Si Si5 0.868594 0.777039 0.608209
Si Si6 0.409960 0.721068 0.508396
Si Si7 0.158375 0.326945 0.346190
Si Si8 0.880446 0.082757 0.980541
O O1 0.833821 0.391623 0.830915
O O2 0.397464 0.463695 0.812083
O O3 0.576394 0.509766 0.945390
O O4 0.419599 0.361545 0.954363
O O5 0.327055 0.127160 0.165047
O O6 0.120153 0.982646 0.157041
O O7 0.611816 0.011626 0.176604
O O8 0.574348 0.046954 0.019980
O O9 0.712404 0.203499 0.211101
O O10 0.240232 0.249553 0.285337
O O11 0.671983 0.902624 0.280540
O O12 0.656543 0.734946 0.556910
O O13 0.934112 0.863227 0.560349
O O14 0.134253 0.724865 0.585282
O O15 0.431784 0.792149 0.432685
O O16 0.384229 0.357187 0.397989
#
# Coordination Sequence:
#
# PCOD9137095 Si02
#       8
#     4   4   4   4   4   4   4   4
#     4   9  20  40  62  89 120 157 200 245 294 352
#     4  10  22  40  61  88 121 157 197 245 297 349
#     4   9  20  38  62  88 121 158 198 244 296 352
#     4  10  22  39  61  88 120 158 199 244 295 350
#     4  10  22  40  61  88 121 157 197 245 297 349
#     4  10  22  39  61  88 120 158 199 244 295 350
#     4   9  20  40  62  89 120 157 200 245 294 352
#     4   9  20  38  62  88 121 158 198 244 296 352
#
# _framework density 25.710754000000001
#
# number of rings (size 3 to 8) (size 9 to 14) (size 15 to 20)
#    0.000    2.500    0.000    0.000    0.000   18.000 
#    0.000   12.500    0.000    0.000    0.000    0.000 
#    0.000    0.000    0.000    0.000    0.000    0.000 
#
# Total GULP energy -89388.415587 kJ/mol
# GULP energy per Si atom -5586.775974 kJ/mol
# Density = 2.565223 g / cm^3
# Si number density = 25.710754 Si / 1000 Ang^3
#
#
#
# Elastic Constant Matrix: (Units=GPa)
#
#
# Indices 1 2 3 4 5 6 
#
# 1 124.9623 25.6436 38.8464 0.0000 -5.7307 0.0000
# 2 25.6436 63.9879 13.8219 0.0000 4.6986 0.0000
# 3 38.8464 13.8219 89.1515 0.0000 -16.0317 0.0000
# 4 0.0000 0.0000 0.0000 78.2834 0.0000 -7.3177
# 5 -5.7307 4.6986 -16.0317 0.0000 33.8423 0.0000
# 6 0.0000 0.0000 0.0000 -7.3177 0.0000 8.7095
#
#
#
# Elastic Compliance Matrix: (Units=1/GPa)
#
#
# Indices 1 2 3 4 5 6 
#
# 1 0.009826 -0.003156 -0.003732 0.000000 0.000334 0.000000
# 2 -0.003156 0.017631 -0.002071 0.000000 -0.003963 0.000000
# 3 -0.003732 -0.002071 0.014322 0.000000 0.006440 0.000000
# 4 0.000000 0.000000 0.000000 0.013863 0.000000 0.011648
# 5 0.000334 -0.003963 0.006440 0.000000 0.033207 0.000000
# 6 0.000000 0.000000 0.000000 0.011648 0.000000 0.124604
#
#
# Mechanical properties :
#
#
# Convention : Reuss Voigt Hill
#
# Bulk Modulus (GPa) = 41.90963 48.30283 45.10623
# Shear Modulus (GPa) = 20.89221 37.48636 29.18929
#
# Velocity S-wave (km/s) = 2.85368 3.82252 3.37307
# Velocity P-wave (km/s) = 5.21477 6.18951 5.72293
#
# Compressibility (1/GPa) = 0.02386086
#
# Stress axis : x y z
#
# Youngs Moduli (GPa) = 101.77588 56.71782 69.82165
#
# Poissons Ratio (x) = 0.17900 0.26057
# Poissons Ratio (y) = 0.32121 0.14460
# Poissons Ratio (z) = 0.37982 0.11746
#
# Static dielectric constant tensor:
#      x y z
#    x 2.041860 0.000000 -0.034650 
#    y 0.000000 2.002670 0.000000 
#    z -0.034650 0.000000 2.065580 
# 
# From -- ./inp_files/28816.got.cif
#   From: 2010.05.17/outbox.cif.g08.bks.cpg/sg9_15_cif.got.tgz:28816.got - 2010.06.03 20:04:27.
