data_PCOD9137014
_publ_section_title
;
Structure prediction by ZEFSAII (Michael W. Deem and Ramdas Pophale) SiO2 
 PCOD9137014
Probable space group: C C
;
_chemical_formula_sum "Si O2"
_cell_formula_units_Z 20
_cell_length_a 9.638076
_cell_length_b 11.735777
_cell_length_c 8.178791
_cell_angle_alpha 90.000000
_cell_angle_beta 50.423027
_cell_angle_gamma 90.000000
_cell_volume 713.043043
_symmetry_space_group_name_H-M "C C"
_symmetry_group_IT_number 9
_symmetry_cell_setting 'monoclinic'
loop_
_space_group_symop_operation_xyz
x,y,z
x,-y,1/2+z
1/2+x,1/2+y,z
1/2+x,1/2-y,1/2+z
loop_
_atom_site_type_symbol
_atom_site_label
_atom_site_fract_x
_atom_site_fract_y
_atom_site_fract_z
Si Si1 0.022500 0.734843 0.650990
Si Si2 0.854682 0.893871 0.980073
Si Si3 0.333062 0.977892 0.299291
Si Si4 0.731536 0.675296 0.617223
Si Si5 0.183325 0.394073 0.458331
O O1 0.220600 0.684994 0.470151
O O2 0.033566 0.842710 0.764192
O O3 0.933863 0.626682 0.813112
O O4 0.915180 0.729393 0.559545
O O5 0.808519 0.022444 0.972153
O O6 0.797894 0.871145 0.208346
O O7 0.259579 0.079880 0.458973
O O8 0.500105 0.033366 0.073568
O O9 0.184598 0.909366 0.305241
O O10 0.641254 0.780459 0.592194
#
# Coordination Sequence:
#
# PCOD9137014 Si02
#       5
#     4   4   4   4   4
#     4   9  23  39  69  97 138 180 233 284 345 416
#     4  11  23  42  68 102 136 183 236 282 355 415
#     4   9  21  40  63 100 132 183 225 286 340 418
#     4  10  22  36  72  94 137 177 235 276 353 404
#     4  11  23  39  72  97 137 185 233 280 351 419
#
# _framework density 28.048798000000001
#
# number of rings (size 3 to 8) (size 9 to 14) (size 15 to 20)
#    1.200    0.800    0.000    3.600    8.400    0.000 
#    0.000    2.000    8.800    0.000    0.000    0.000 
#    0.000    0.000    0.000    0.000    0.000    0.000 
#
# Total GULP energy -55812.205473 kJ/mol
# GULP energy per Si atom -5581.220547 kJ/mol
# Density = 2.798496 g / cm^3
# Si number density = 28.048798 Si / 1000 Ang^3
#
#
#
# Elastic Constant Matrix: (Units=GPa)
#
#
# Indices 1 2 3 4 5 6 
#
# 1 70.8856 25.6078 4.7888 0.0000 7.2681 0.0000
# 2 25.6078 207.8356 45.6430 0.0000 16.5300 0.0000
# 3 4.7888 45.6430 124.6853 0.0000 30.3211 0.0000
# 4 0.0000 0.0000 0.0000 48.4319 0.0000 5.7556
# 5 7.2681 16.5300 30.3211 0.0000 30.0842 0.0000
# 6 0.0000 0.0000 0.0000 5.7556 0.0000 51.2442
#
#
#
# Elastic Compliance Matrix: (Units=1/GPa)
#
#
# Indices 1 2 3 4 5 6 
#
# 1 0.015056 -0.001776 0.000953 0.000000 -0.003622 0.000000
# 2 -0.001776 0.005477 -0.001734 0.000000 -0.000832 0.000000
# 3 0.000953 -0.001734 0.011184 0.000000 -0.010549 0.000000
# 4 0.000000 0.000000 0.000000 0.020927 0.000000 -0.002350
# 5 -0.003622 -0.000832 -0.010549 0.000000 0.045204 0.000000
# 6 0.000000 0.000000 0.000000 -0.002350 0.000000 0.019778
#
#
# Mechanical properties :
#
#
# Convention : Reuss Voigt Hill
#
# Bulk Modulus (GPa) = 37.59239 61.72063 49.65651
# Shear Modulus (GPa) = 37.99103 47.77654 42.88378
#
# Velocity S-wave (km/s) = 3.68429 4.13163 3.91436
# Velocity P-wave (km/s) = 5.61518 6.69425 6.17832
#
# Compressibility (1/GPa) = 0.02660113
#
# Stress axis : x y z
#
# Youngs Moduli (GPa) = 66.41917 182.56645 89.41458
#
# Poissons Ratio (x) = 0.32428 -0.08518
# Poissons Ratio (y) = 0.11798 0.15509
# Poissons Ratio (z) = -0.06328 0.31666
#
# Static dielectric constant tensor:
#      x y z
#    x 2.334280 0.000000 -0.111650 
#    y 0.000000 2.158310 0.000000 
#    z -0.111650 0.000000 2.306480 
# 
# From -- ./inp_files/6823.got.cif
#   From: 2010.05.17/outbox.cif.g08.bks.cpg/sg9_4_cif.got.tgz:6823.got - 2010.06.03 20:04:27.
