data_PCOD9137810
_publ_section_title
;
Structure prediction by ZEFSAII (Michael W. Deem and Ramdas Pophale) SiO2 
 PCOD9137810
Probable space group: C C
;
_chemical_formula_sum "Si O2"
_cell_formula_units_Z 32
_cell_length_a 6.815610
_cell_length_b 12.152875
_cell_length_c 17.101558
_cell_angle_alpha 90.000000
_cell_angle_beta 91.987169
_cell_angle_gamma 90.000000
_cell_volume 1415.657468
_symmetry_space_group_name_H-M "C C"
_symmetry_group_IT_number 9
_symmetry_cell_setting 'monoclinic'
loop_
_space_group_symop_operation_xyz
x,y,z
x,-y,1/2+z
1/2+x,1/2+y,z
1/2+x,1/2-y,1/2+z
loop_
_atom_site_type_symbol
_atom_site_label
_atom_site_fract_x
_atom_site_fract_y
_atom_site_fract_z
Si Si1 0.996040 0.000683 0.619760
Si Si2 0.936054 0.912850 0.875323
Si Si3 0.591703 0.973643 0.555974
Si Si4 0.714202 0.555387 0.980024
Si Si5 0.380636 0.938467 0.708107
Si Si6 0.301021 0.778428 0.845517
Si Si7 0.239743 0.561663 0.754646
Si Si8 0.112191 0.691924 0.483962
O O1 0.865068 0.075116 0.676409
O O2 0.819033 0.941259 0.568871
O O3 0.142823 0.025990 0.549758
O O4 0.152958 0.949784 0.682138
O O5 0.079410 0.814512 0.856605
O O6 0.785760 0.871105 0.939136
O O7 0.087444 0.009053 0.906481
O O8 0.814741 0.951798 0.798702
O O9 0.451852 0.947533 0.479895
O O10 0.489870 0.914074 0.627994
O O11 0.578248 0.107555 0.554545
O O12 0.667520 0.681825 0.001043
O O13 0.390621 0.850977 0.776821
O O14 0.507405 0.045100 0.736809
O O15 0.293781 0.655718 0.815168
O O16 0.425493 0.799543 0.924696
#
# Coordination Sequence:
#
# PCOD9137810 Si02
#       8
#     4   4   4   4   4   4   4   4
#     4  10  22  44  70  92 136 182 212 280 326 388
#     4  12  24  42  66 100 136 174 220 282 334 398
#     4  10  23  44  67  98 135 174 223 277 325 398
#     4  11  24  44  69  99 135 173 224 277 331 401
#     4  10  23  44  67  98 135 174 223 277 325 398
#     4  12  25  42  72 100 132 181 224 271 348 398
#     4  11  24  44  69  99 135 173 224 277 331 401
#     4  12  25  42  72 100 132 181 224 271 348 398
#
# _framework density 22.604337000000001
#
# number of rings (size 3 to 8) (size 9 to 14) (size 15 to 20)
#    0.000    1.000    6.250    0.000    0.000    8.000 
#    0.000    3.750    0.000    0.000    0.000    0.000 
#    0.000    0.000    0.000    0.000    0.000    0.000 
#
# Total GULP energy -89094.772766 kJ/mol
# GULP energy per Si atom -5568.423298 kJ/mol
# Density = 2.255289 g / cm^3
# Si number density = 22.604337 Si / 1000 Ang^3
#
#
#
# Elastic Constant Matrix: (Units=GPa)
#
#
# Indices 1 2 3 4 5 6 
#
# 1 148.4863 21.3615 27.8869 0.0000 21.2566 0.0000
# 2 21.3615 36.9839 3.0577 0.0000 7.8350 0.0000
# 3 27.8869 3.0577 59.5440 0.0000 19.8608 0.0000
# 4 0.0000 0.0000 0.0000 11.8215 0.0000 -1.9498
# 5 21.2566 7.8350 19.8608 0.0000 46.1796 0.0000
# 6 0.0000 0.0000 0.0000 -1.9498 0.0000 21.0760
#
#
#
# Elastic Compliance Matrix: (Units=1/GPa)
#
#
# Indices 1 2 3 4 5 6 
#
# 1 0.008140 -0.004080 -0.003017 0.000000 -0.001757 0.000000
# 2 -0.004080 0.030093 0.001683 0.000000 -0.003952 0.000000
# 3 -0.003017 0.001683 0.020726 0.000000 -0.007811 0.000000
# 4 0.000000 0.000000 0.000000 0.085903 0.000000 0.007947
# 5 -0.001757 -0.003952 -0.007811 0.000000 0.026493 0.000000
# 6 0.000000 0.000000 0.000000 0.007947 0.000000 0.048182
#
#
# Mechanical properties :
#
#
# Convention : Reuss Voigt Hill
#
# Bulk Modulus (GPa) = 20.77565 38.84737 29.81151
# Shear Modulus (GPa) = 20.29164 28.66264 24.47714
#
# Velocity S-wave (km/s) = 2.99939 3.56478 3.29424
# Velocity P-wave (km/s) = 4.60501 5.84523 5.26179
#
# Compressibility (1/GPa) = 0.04813326
#
# Stress axis : x y z
#
# Youngs Moduli (GPa) = 122.85597 33.23014 48.24876
#
# Poissons Ratio (x) = 0.13557 0.14554
# Poissons Ratio (y) = 0.50121 -0.08123
# Poissons Ratio (z) = 0.37060 -0.05594
#
# Static dielectric constant tensor:
#      x y z
#    x 1.879860 0.000000 0.008770 
#    y 0.000000 1.829840 0.000000 
#    z 0.008770 0.000000 1.875360 
# 
# From -- ./inp_files/32098.got.cif
#   From: 2010.05.17/outbox.cif.g08.bks.cpg/sg9_17_cif.got.tgz:32098.got - 2010.06.03 20:04:27.
