data_PCOD9137567
_publ_section_title
;
Structure prediction by ZEFSAII (Michael W. Deem and Ramdas Pophale) SiO2 
 PCOD9137567
Probable space group: C C
;
_chemical_formula_sum "Si O2"
_cell_formula_units_Z 32
_cell_length_a 7.471714
_cell_length_b 11.882145
_cell_length_c 15.902756
_cell_angle_alpha 90.000000
_cell_angle_beta 75.450443
_cell_angle_gamma 90.000000
_cell_volume 1366.569599
_symmetry_space_group_name_H-M "C C"
_symmetry_group_IT_number 9
_symmetry_cell_setting 'monoclinic'
loop_
_space_group_symop_operation_xyz
x,y,z
x,-y,1/2+z
1/2+x,1/2+y,z
1/2+x,1/2-y,1/2+z
loop_
_atom_site_type_symbol
_atom_site_label
_atom_site_fract_x
_atom_site_fract_y
_atom_site_fract_z
Si Si1 0.646240 0.747390 0.369710
Si Si2 0.333183 0.414000 0.213857
Si Si3 0.759485 0.526235 0.653524
Si Si4 0.958611 0.701559 0.135632
Si Si5 0.225327 0.213796 0.923847
Si Si6 0.339323 0.228956 0.522120
Si Si7 0.777408 0.491787 0.832825
Si Si8 0.117032 0.624614 0.287842
O O1 0.719299 0.842975 0.297583
O O2 0.438719 0.774714 0.425971
O O3 0.787846 0.738565 0.430274
O O4 0.651220 0.618719 0.333246
O O5 0.546505 0.449828 0.200786
O O6 0.357113 0.321813 0.136255
O O7 0.239620 0.535809 0.222378
O O8 0.812919 0.611130 0.573654
O O9 0.845353 0.545089 0.736194
O O10 0.828832 0.401008 0.623812
O O11 0.000668 0.692092 0.231406
O O12 0.167661 0.697909 0.077588
O O13 0.185742 0.087298 0.897920
O O14 0.213758 0.294771 0.842722
O O15 0.054909 0.241584 0.004813
O O16 0.965798 0.450763 0.854055
#
# Coordination Sequence:
#
# PCOD9137567 Si02
#       8
#     4   4   4   4   4   4   4   4
#     4  12  24  44  72 103 135 185 239 285 351 413
#     4  11  21  42  69 103 127 175 237 294 331 415
#     4  10  22  42  72  94 139 185 223 290 349 402
#     4  10  23  46  65  98 141 183 225 292 350 409
#     4  12  25  43  70 100 137 190 223 289 357 406
#     4  11  25  46  64 101 150 179 229 292 349 419
#     4  11  22  44  70  99 134 180 245 283 334 421
#     4  11  22  41  72 102 131 175 241 285 339 413
#
# _framework density 23.416298000000001
#
# number of rings (size 3 to 8) (size 9 to 14) (size 15 to 20)
#    0.000    1.000    5.000    3.000    0.000    3.000 
#   15.750    0.000    0.000    0.000    0.000    0.000 
#    0.000    0.000    0.000    0.000    0.000    0.000 
#
# Total GULP energy -89183.370364 kJ/mol
# GULP energy per Si atom -5573.960648 kJ/mol
# Density = 2.336300 g / cm^3
# Si number density = 23.416298 Si / 1000 Ang^3
#
#
#
# Elastic Constant Matrix: (Units=GPa)
#
#
# Indices 1 2 3 4 5 6 
#
# 1 97.7179 33.0866 15.5001 0.0000 -33.7126 0.0000
# 2 33.0866 121.7158 14.1725 0.0000 -19.8186 0.0000
# 3 15.5001 14.1725 54.3241 0.0000 -28.1013 0.0000
# 4 0.0000 0.0000 0.0000 28.0558 0.0000 -13.9471
# 5 -33.7126 -19.8186 -28.1013 0.0000 44.2052 0.0000
# 6 0.0000 0.0000 0.0000 -13.9471 0.0000 42.9113
#
#
#
# Elastic Compliance Matrix: (Units=1/GPa)
#
#
# Indices 1 2 3 4 5 6 
#
# 1 0.014685 -0.002374 0.002491 0.000000 0.011719 0.000000
# 2 -0.002374 0.009252 -0.000786 0.000000 0.001838 0.000000
# 3 0.002491 -0.000786 0.027866 0.000000 0.019262 0.000000
# 4 0.000000 0.000000 0.000000 0.042512 0.000000 0.013817
# 5 0.011719 0.001838 0.019262 0.000000 0.044628 0.000000
# 6 0.000000 0.000000 0.000000 0.013817 0.000000 0.027795
#
#
# Mechanical properties :
#
#
# Convention : Reuss Voigt Hill
#
# Bulk Modulus (GPa) = 19.81481 44.36404 32.08943
# Shear Modulus (GPa) = 27.04206 37.10105 32.07155
#
# Velocity S-wave (km/s) = 3.40198 3.98478 3.70486
# Velocity P-wave (km/s) = 4.88995 6.33706 5.65994
#
# Compressibility (1/GPa) = 0.05046731
#
# Stress axis : x y z
#
# Youngs Moduli (GPa) = 68.09608 108.08552 35.88552
#
# Poissons Ratio (x) = 0.25658 -0.08940
# Poissons Ratio (y) = 0.16165 0.02819
# Poissons Ratio (z) = -0.16965 0.08490
#
# Static dielectric constant tensor:
#      x y z
#    x 1.911280 0.000000 -0.019830 
#    y 0.000000 1.928160 0.000000 
#    z -0.019830 0.000000 1.967480 
# 
# From -- ./inp_files/29256.got.cif
#   From: 2010.05.17/outbox.cif.g08.bks.cpg/sg9_15_cif.got.tgz:29256.got - 2010.06.03 20:04:27.
