data_PCOD9137759
_publ_section_title
;
Structure prediction by ZEFSAII (Michael W. Deem and Ramdas Pophale) SiO2 
 PCOD9137759
Probable space group: C C
;
_chemical_formula_sum "Si O2"
_cell_formula_units_Z 32
_cell_length_a 8.871279
_cell_length_b 15.559441
_cell_length_c 12.082876
_cell_angle_alpha 90.000000
_cell_angle_beta 118.707161
_cell_angle_gamma 90.000000
_cell_volume 1462.826413
_symmetry_space_group_name_H-M "C C"
_symmetry_group_IT_number 9
_symmetry_cell_setting 'monoclinic'
loop_
_space_group_symop_operation_xyz
x,y,z
x,-y,1/2+z
1/2+x,1/2+y,z
1/2+x,1/2-y,1/2+z
loop_
_atom_site_type_symbol
_atom_site_label
_atom_site_fract_x
_atom_site_fract_y
_atom_site_fract_z
Si Si1 0.131020 0.192935 0.819500
Si Si2 0.204496 0.838927 0.964370
Si Si3 0.309334 0.641112 0.366187
Si Si4 0.098602 0.933140 0.712137
Si Si5 0.707262 0.954396 0.291417
Si Si6 0.324712 0.588004 0.618719
Si Si7 0.457423 0.684491 0.985124
Si Si8 0.838467 0.574934 0.735787
O O1 0.182762 0.283916 0.787910
O O2 0.268692 0.124107 0.820467
O O3 0.952099 0.160920 0.707923
O O4 0.100192 0.201930 0.940473
O O5 0.181142 0.910168 0.859550
O O6 0.320969 0.760980 0.958601
O O7 0.002256 0.822462 0.920133
O O8 0.284705 0.871666 0.107823
O O9 0.272953 0.550876 0.296268
O O10 0.274132 0.614101 0.479739
O O11 0.040236 0.846873 0.629332
O O12 0.241036 0.984316 0.693437
O O13 0.940997 0.001334 0.658510
O O14 0.675788 0.919673 0.156192
O O15 0.855093 0.897968 0.400354
O O16 0.539204 0.943079 0.304796
#
# Coordination Sequence:
#
# PCOD9137759 Si02
#       8
#     4   4   4   4   4   4   4   4
#     4  10  25  44  68 101 139 174 228 292 347 405
#     4  12  26  43  74 100 144 184 233 287 352 417
#     4  12  23  45  69 103 137 184 230 288 349 410
#     4  11  24  47  70  99 139 188 228 288 349 417
#     4  11  24  44  71 100 136 184 233 283 347 420
#     4  10  22  44  67  97 141 176 227 286 344 416
#     4  11  26  45  72 100 138 186 231 289 351 413
#     4  11  26  46  71 104 142 180 236 287 353 420
#
# _framework density 21.875458999999999
#
# number of rings (size 3 to 8) (size 9 to 14) (size 15 to 20)
#    0.000    1.000    5.000    0.750   10.500    1.000 
#    0.000    0.000    0.000    0.000    0.000    0.000 
#    0.000    0.000    0.000    0.000    0.000    0.000 
#
# Total GULP energy -89337.979585 kJ/mol
# GULP energy per Si atom -5583.623724 kJ/mol
# Density = 2.182567 g / cm^3
# Si number density = 21.875459 Si / 1000 Ang^3
#
#
#
# Elastic Constant Matrix: (Units=GPa)
#
#
# Indices 1 2 3 4 5 6 
#
# 1 101.6056 27.2482 10.2797 0.0000 -7.9898 0.0000
# 2 27.2482 101.5341 14.6661 0.0000 3.4950 0.0000
# 3 10.2797 14.6661 53.8150 0.0000 -18.2690 0.0000
# 4 0.0000 0.0000 0.0000 27.9273 0.0000 5.5622
# 5 -7.9898 3.4950 -18.2690 0.0000 18.0191 0.0000
# 6 0.0000 0.0000 0.0000 5.5622 0.0000 21.9704
#
#
#
# Elastic Compliance Matrix: (Units=1/GPa)
#
#
# Indices 1 2 3 4 5 6 
#
# 1 0.011166 -0.003379 0.001054 0.000000 0.006675 0.000000
# 2 -0.003379 0.011956 -0.005960 0.000000 -0.009860 0.000000
# 3 0.001054 -0.005960 0.031345 0.000000 0.033403 0.000000
# 4 0.000000 0.000000 0.000000 0.037709 0.000000 -0.009547
# 5 0.006675 -0.009860 0.033403 0.000000 0.094235 0.000000
# 6 0.000000 0.000000 0.000000 -0.009547 0.000000 0.047933
#
#
# Mechanical properties :
#
#
# Convention : Reuss Voigt Hill
#
# Bulk Modulus (GPa) = 26.38736 40.14918 33.26827
# Shear Modulus (GPa) = 18.97207 27.23407 23.10307
#
# Velocity S-wave (km/s) = 2.94815 3.53223 3.25332
# Velocity P-wave (km/s) = 4.86595 5.91852 5.41786
#
# Compressibility (1/GPa) = 0.03789694
#
# Stress axis : x y z
#
# Youngs Moduli (GPa) = 89.55509 83.64052 31.90329
#
# Poissons Ratio (x) = 0.28259 -0.03362
# Poissons Ratio (y) = 0.30257 0.19015
# Poissons Ratio (z) = -0.09437 0.49851
#
# Static dielectric constant tensor:
#      x y z
#    x 1.824290 0.000000 -0.064300 
#    y 0.000000 1.807280 0.000000 
#    z -0.064300 0.000000 1.789840 
# 
# From -- ./inp_files/14580.got.cif
#   From: 2010.05.17/outbox.cif.g08.bks.cpg/sg9_8_cif.got.tgz:14580.got - 2010.06.03 20:04:27.
