data_PCOD9137522
_publ_section_title
;
Structure prediction by ZEFSAII (Michael W. Deem and Ramdas Pophale) SiO2 
 PCOD9137522
Probable space group: C C
;
_chemical_formula_sum "Si O2"
_cell_formula_units_Z 32
_cell_length_a 13.494218
_cell_length_b 14.081732
_cell_length_c 8.014903
_cell_angle_alpha 90.000000
_cell_angle_beta 123.956005
_cell_angle_gamma 90.000000
_cell_volume 1263.284092
_symmetry_space_group_name_H-M "C C"
_symmetry_group_IT_number 9
_symmetry_cell_setting 'monoclinic'
loop_
_space_group_symop_operation_xyz
x,y,z
x,-y,1/2+z
1/2+x,1/2+y,z
1/2+x,1/2-y,1/2+z
loop_
_atom_site_type_symbol
_atom_site_label
_atom_site_fract_x
_atom_site_fract_y
_atom_site_fract_z
Si Si1 0.474570 0.078442 0.786250
Si Si2 0.818465 0.538619 0.346919
Si Si3 0.479597 0.128326 0.257901
Si Si4 0.185372 0.713570 0.658084
Si Si5 0.856401 0.799530 0.995442
Si Si6 0.410256 0.485526 0.218391
Si Si7 0.731160 0.142196 0.052300
Si Si8 0.070852 0.088987 0.154313
O O1 0.396746 0.054460 0.877271
O O2 0.375430 0.097398 0.552713
O O3 0.530460 0.977596 0.771563
O O4 0.587134 0.143181 0.927511
O O5 0.849380 0.598309 0.209883
O O6 0.681759 0.516225 0.247076
O O7 0.564760 0.159488 0.490933
O O8 0.457860 0.220607 0.124931
O O9 0.263148 0.711500 0.562317
O O10 0.137821 0.813747 0.681170
O O11 0.254063 0.669676 0.881252
O O12 0.902970 0.907363 0.064523
O O13 0.792022 0.795442 0.755133
O O14 0.284282 0.536186 0.128827
O O15 0.500796 0.571011 0.257751
O O16 0.471949 0.428042 0.422649
#
# Coordination Sequence:
#
# PCOD9137522 Si02
#       8
#     4   4   4   4   4   4   4   4
#     4  10  22  43  71 105 139 186 258 315 364 454
#     4  10  22  42  69 100 140 197 248 303 381 444
#     4  10  23  43  70 102 145 192 248 305 381 442
#     4  12  25  48  76 106 154 201 248 321 387 449
#     4  12  26  49  75 110 155 198 254 319 385 460
#     4  12  26  46  77 110 155 202 259 317 391 472
#     4  12  27  47  77 120 143 199 264 319 382 463
#     4  12  25  48  73 105 157 205 249 313 391 474
#
# _framework density 25.330803
#
# number of rings (size 3 to 8) (size 9 to 14) (size 15 to 20)
#    0.750    0.000    5.000    2.250    5.250    0.000 
#    9.000    0.000    0.000    0.000    0.000    0.000 
#    0.000    0.000    0.000    0.000    0.000    0.000 
#
# Total GULP energy -89308.248683 kJ/mol
# GULP energy per Si atom -5581.765543 kJ/mol
# Density = 2.527315 g / cm^3
# Si number density = 25.330803 Si / 1000 Ang^3
#
#
#
# Elastic Constant Matrix: (Units=GPa)
#
#
# Indices 1 2 3 4 5 6 
#
# 1 100.4379 -9.6679 25.8978 0.0000 9.4254 0.0000
# 2 -9.6679 69.7738 26.2584 0.0000 0.0932 0.0000
# 3 25.8978 26.2584 172.3912 0.0000 -9.1247 0.0000
# 4 0.0000 0.0000 0.0000 39.5367 0.0000 5.6500
# 5 9.4254 0.0932 -9.1247 0.0000 26.4555 0.0000
# 6 0.0000 0.0000 0.0000 5.6500 0.0000 31.6509
#
#
#
# Elastic Compliance Matrix: (Units=1/GPa)
#
#
# Indices 1 2 3 4 5 6 
#
# 1 0.011239 0.002434 -0.002314 0.000000 -0.004811 0.000000
# 2 0.002434 0.015750 -0.002866 0.000000 -0.001911 0.000000
# 3 -0.002314 -0.002866 0.006752 0.000000 0.003163 0.000000
# 4 0.000000 0.000000 0.000000 0.025955 0.000000 -0.004633
# 5 -0.004811 -0.001911 0.003163 0.000000 0.040611 0.000000
# 6 0.000000 0.000000 0.000000 -0.004633 0.000000 0.032422
#
#
# Mechanical properties :
#
#
# Convention : Reuss Voigt Hill
#
# Bulk Modulus (GPa) = 35.39707 47.50883 41.45295
# Shear Modulus (GPa) = 33.86681 39.53625 36.70153
#
# Velocity S-wave (km/s) = 3.66044 3.95498 3.81056
# Velocity P-wave (km/s) = 5.64530 6.29697 5.98002
#
# Compressibility (1/GPa) = 0.02825093
#
# Stress axis : x y z
#
# Youngs Moduli (GPa) = 88.97743 63.49017 148.09684
#
# Poissons Ratio (x) = -0.15456 0.34267
# Poissons Ratio (y) = -0.21661 0.42444
# Poissons Ratio (z) = 0.20588 0.18196
#
# Static dielectric constant tensor:
#      x y z
#    x 2.054550 0.000000 -0.077650 
#    y 0.000000 2.144300 0.000000 
#    z -0.077650 0.000000 2.070110 
# 
# From -- ./inp_files/9723.got.cif
#   From: 2010.05.17/outbox.cif.g08.bks.cpg/sg9_5_cif.got.tgz:9723.got - 2010.06.03 20:04:27.
