data_PCOD9137414
_publ_section_title
;
Structure prediction by ZEFSAII (Michael W. Deem and Ramdas Pophale) SiO2 
 PCOD9137414
Probable space group: C C
;
_chemical_formula_sum "Si O2"
_cell_formula_units_Z 28
_cell_length_a 7.362220
_cell_length_b 13.998726
_cell_length_c 13.120643
_cell_angle_alpha 90.000000
_cell_angle_beta 114.579669
_cell_angle_gamma 90.000000
_cell_volume 1229.701266
_symmetry_space_group_name_H-M "C C"
_symmetry_group_IT_number 9
_symmetry_cell_setting 'monoclinic'
loop_
_space_group_symop_operation_xyz
x,y,z
x,-y,1/2+z
1/2+x,1/2+y,z
1/2+x,1/2-y,1/2+z
loop_
_atom_site_type_symbol
_atom_site_label
_atom_site_fract_x
_atom_site_fract_y
_atom_site_fract_z
Si Si1 0.148270 0.718798 0.382520
Si Si2 0.252509 0.549108 0.062263
Si Si3 0.789033 0.851800 0.356336
Si Si4 0.443778 0.448705 0.805518
Si Si5 0.984073 0.130380 0.539936
Si Si6 0.859907 0.327285 0.244076
Si Si7 0.907072 0.470791 0.862240
O O1 0.035868 0.615926 0.344754
O O2 0.249653 0.770932 0.309395
O O3 0.314116 0.709935 0.510784
O O4 0.974658 0.785525 0.381155
O O5 0.307724 0.593496 0.183355
O O6 0.414528 0.463261 0.085327
O O7 0.034172 0.502270 0.992841
O O8 0.274681 0.619986 0.972188
O O9 0.586669 0.797234 0.275843
O O10 0.843177 0.948667 0.307446
O O11 0.452344 0.395010 0.914642
O O12 0.676032 0.451061 0.828804
O O13 0.202092 0.165552 0.616821
O O14 0.902340 0.436409 0.289779
#
# Coordination Sequence:
#
# PCOD9137414 Si02
#       7
#     4   4   4   4   4   4   4
#     4  11  24  46  68 105 142 186 240 297 361 439
#     4   9  20  41  67 102 133 182 235 285 356 433
#     4  10  23  42  72  99 140 191 235 300 368 424
#     4  11  21  43  71 101 140 189 238 293 367 434
#     4  10  23  42  68 102 140 182 238 292 361 431
#     4  11  23  49  68 104 146 179 242 309 348 442
#     4  10  22  41  72  97 139 185 230 290 365 421
#
# _framework density 22.769756999999998
#
# number of rings (size 3 to 8) (size 9 to 14) (size 15 to 20)
#    0.000    1.714    2.857    0.857    4.000    1.143 
#    5.143    0.000    0.000    0.000    0.000    0.000 
#    0.000    0.000    0.000    0.000    0.000    0.000 
#
# Total GULP energy -78188.122235 kJ/mol
# GULP energy per Si atom -5584.865874 kJ/mol
# Density = 2.271793 g / cm^3
# Si number density = 22.769757 Si / 1000 Ang^3
#
#
#
# Elastic Constant Matrix: (Units=GPa)
#
#
# Indices 1 2 3 4 5 6 
#
# 1 146.1870 37.9966 61.0532 0.0000 42.5687 0.0000
# 2 37.9966 77.9316 33.6888 0.0000 7.4634 0.0000
# 3 61.0532 33.6888 137.0691 0.0000 32.3225 0.0000
# 4 0.0000 0.0000 0.0000 15.1875 0.0000 7.7444
# 5 42.5687 7.4634 32.3225 0.0000 38.3829 0.0000
# 6 0.0000 0.0000 0.0000 7.7444 0.0000 33.1566
#
#
#
# Elastic Compliance Matrix: (Units=1/GPa)
#
#
# Indices 1 2 3 4 5 6 
#
# 1 0.011722 -0.003944 -0.001706 0.000000 -0.010797 0.000000
# 2 -0.003944 0.015686 -0.003008 0.000000 0.003857 0.000000
# 3 -0.001706 -0.003008 0.010245 0.000000 -0.006151 0.000000
# 4 0.000000 0.000000 0.000000 0.074746 0.000000 -0.017458
# 5 -0.010797 0.003857 -0.006151 0.000000 0.042457 0.000000
# 6 0.000000 0.000000 0.000000 -0.017458 0.000000 0.034238
#
#
# Mechanical properties :
#
#
# Convention : Reuss Voigt Hill
#
# Bulk Modulus (GPa) = 49.17076 69.62943 59.40009
# Shear Modulus (GPa) = 23.45342 32.57533 28.01438
#
# Velocity S-wave (km/s) = 3.21288 3.78648 3.51142
# Velocity P-wave (km/s) = 5.95022 7.05427 6.52564
#
# Compressibility (1/GPa) = 0.02033729
#
# Stress axis : x y z
#
# Youngs Moduli (GPa) = 85.30898 63.75268 97.60716
#
# Poissons Ratio (x) = 0.25143 0.16650
# Poissons Ratio (y) = 0.33644 0.29361
# Poissons Ratio (z) = 0.14553 0.19177
#
# Static dielectric constant tensor:
#      x y z
#    x 1.945620 0.000000 0.030820 
#    y 0.000000 1.947670 0.000000 
#    z 0.030820 0.000000 1.855750 
# 
# From -- ./inp_files/14685.got.cif
#   From: 2010.05.17/outbox.cif.g08.bks.cpg/sg9_8_cif.got.tgz:14685.got - 2010.06.03 20:04:27.
