data_PCOD9137454
_publ_section_title
;
Structure prediction by ZEFSAII (Michael W. Deem and Ramdas Pophale) SiO2 
 PCOD9137454
Probable space group: C C
;
_chemical_formula_sum "Si O2"
_cell_formula_units_Z 28
_cell_length_a 7.956759
_cell_length_b 23.362575
_cell_length_c 10.234474
_cell_angle_alpha 90.000000
_cell_angle_beta 44.411192
_cell_angle_gamma 90.000000
_cell_volume 1331.368175
_symmetry_space_group_name_H-M "C C"
_symmetry_group_IT_number 9
_symmetry_cell_setting 'monoclinic'
loop_
_space_group_symop_operation_xyz
x,y,z
x,-y,1/2+z
1/2+x,1/2+y,z
1/2+x,1/2-y,1/2+z
loop_
_atom_site_type_symbol
_atom_site_label
_atom_site_fract_x
_atom_site_fract_y
_atom_site_fract_z
Si Si1 0.901020 0.152575 0.880210
Si Si2 0.716647 0.524104 0.981267
Si Si3 0.446608 0.520515 0.864273
Si Si4 0.514909 0.667605 0.535884
Si Si5 0.648760 0.925839 0.138238
Si Si6 0.716357 0.646720 0.937764
Si Si7 0.883613 0.704515 0.109053
O O1 0.655178 0.185259 0.987932
O O2 0.070271 0.159719 0.658720
O O3 0.848233 0.084844 0.928052
O O4 0.030170 0.173259 0.940473
O O5 0.617493 0.508394 0.894084
O O6 0.612243 0.483268 0.146242
O O7 0.615542 0.588478 0.059882
O O8 0.003878 0.533116 0.820526
O O9 0.250340 0.470060 0.976867
O O10 0.355731 0.613256 0.582928
O O11 0.366999 0.727046 0.615349
O O12 0.722391 0.677484 0.314142
O O13 0.434147 0.880557 0.229452
O O14 0.807431 0.683297 0.007750
#
# Coordination Sequence:
#
# PCOD9137454 Si02
#       7
#     4   4   4   4   4   4   4
#     4  11  24  47  66 108 140 176 242 292 340 435
#     4   9  22  38  60  98 134 183 229 279 346 416
#     4  11  22  40  68  98 143 184 228 285 353 414
#     4  12  24  46  75 100 137 188 238 293 363 406
#     4  10  22  42  66 100 142 183 230 285 345 428
#     4   9  22  46  65  98 144 174 237 281 350 419
#     4  12  24  49  72 100 140 186 234 303 353 420
#
# _framework density 21.030995999999998
#
# number of rings (size 3 to 8) (size 9 to 14) (size 15 to 20)
#    0.857    0.571    2.857    1.714    0.000    5.714 
#   12.857    0.000    0.000    0.000    0.000    0.000 
#    0.000    0.000    0.000    0.000    0.000    0.000 
#
# Total GULP energy -78023.853965 kJ/mol
# GULP energy per Si atom -5573.132426 kJ/mol
# Density = 2.098313 g / cm^3
# Si number density = 21.030996 Si / 1000 Ang^3
#
#
#
# Elastic Constant Matrix: (Units=GPa)
#
#
# Indices 1 2 3 4 5 6 
#
# 1 101.1126 25.1853 33.8180 0.0000 12.6347 0.0000
# 2 25.1853 64.3263 17.5011 0.0000 -1.6221 0.0000
# 3 33.8180 17.5011 105.4712 0.0000 -3.6318 0.0000
# 4 0.0000 0.0000 0.0000 35.7851 0.0000 3.5373
# 5 12.6347 -1.6221 -3.6318 0.0000 21.9337 0.0000
# 6 0.0000 0.0000 0.0000 3.5373 0.0000 21.0052
#
#
#
# Elastic Compliance Matrix: (Units=1/GPa)
#
#
# Indices 1 2 3 4 5 6 
#
# 1 0.013355 -0.004400 -0.003850 0.000000 -0.008656 0.000000
# 2 -0.004400 0.017743 -0.001409 0.000000 0.003613 0.000000
# 3 -0.003850 -0.001409 0.011086 0.000000 0.003949 0.000000
# 4 0.000000 0.000000 0.000000 0.028418 0.000000 -0.004786
# 5 -0.008656 0.003613 0.003949 0.000000 0.051499 0.000000
# 6 0.000000 0.000000 0.000000 -0.004786 0.000000 0.048413
#
#
# Mechanical properties :
#
#
# Convention : Reuss Voigt Hill
#
# Bulk Modulus (GPa) = 43.73332 47.10210 45.41771
# Shear Modulus (GPa) = 25.32246 28.70518 27.01382
#
# Velocity S-wave (km/s) = 3.47371 3.69846 3.58785
# Velocity P-wave (km/s) = 6.07690 6.37835 6.22945
#
# Compressibility (1/GPa) = 0.02286586
#
# Stress axis : x y z
#
# Youngs Moduli (GPa) = 74.87732 56.36103 90.20746
#
# Poissons Ratio (x) = 0.24797 0.34732
# Poissons Ratio (y) = 0.32943 0.12710
# Poissons Ratio (z) = 0.28829 0.07941
#
# Static dielectric constant tensor:
#      x y z
#    x 1.782670 0.000000 -0.019620 
#    y 0.000000 1.747920 0.000000 
#    z -0.019620 0.000000 1.780930 
# 
# From -- ./inp_files/15392.got.cif
#   From: 2010.05.17/outbox.cif.g08.bks.cpg/sg9_8_cif.got.tgz:15392.got - 2010.06.03 20:04:27.
