data_PCOD9137030
_publ_section_title
;
Structure prediction by ZEFSAII (Michael W. Deem and Ramdas Pophale) SiO2 
 PCOD9137030
Probable space group: C C
;
_chemical_formula_sum "Si O2"
_cell_formula_units_Z 32
_cell_length_a 15.602123
_cell_length_b 11.770396
_cell_length_c 7.835760
_cell_angle_alpha 90.000000
_cell_angle_beta 65.609368
_cell_angle_gamma 90.000000
_cell_volume 1310.556189
_symmetry_space_group_name_H-M "C C"
_symmetry_group_IT_number 9
_symmetry_cell_setting 'monoclinic'
loop_
_space_group_symop_operation_xyz
x,y,z
x,-y,1/2+z
1/2+x,1/2+y,z
1/2+x,1/2-y,1/2+z
loop_
_atom_site_type_symbol
_atom_site_label
_atom_site_fract_x
_atom_site_fract_y
_atom_site_fract_z
Si Si1 0.788260 0.821812 0.620270
Si Si2 0.169643 0.597900 0.951377
Si Si3 0.118209 0.794875 0.465982
Si Si4 0.487717 0.337649 0.041431
Si Si5 0.378964 0.860957 0.798006
Si Si6 0.450144 0.430601 0.696294
Si Si7 0.543655 0.086382 0.366679
Si Si8 0.696736 0.328097 0.773049
O O1 0.752186 0.921541 0.521266
O O2 0.704279 0.748862 0.778177
O O3 0.843050 0.729211 0.466244
O O4 0.855123 0.880188 0.699576
O O5 0.093058 0.635163 0.156279
O O6 0.110910 0.510856 0.885939
O O7 0.213048 0.694376 0.796415
O O8 0.049412 0.682898 0.508518
O O9 0.168743 0.832769 0.599282
O O10 0.040390 0.893047 0.503874
O O11 0.464826 0.376012 0.868418
O O12 0.600989 0.345956 0.957912
O O13 0.440649 0.216176 0.117469
O O14 0.448641 0.434020 0.197904
O O15 0.442924 0.944152 0.864171
O O16 0.285366 0.898220 0.771770
#
# Coordination Sequence:
#
# PCOD9137030 Si02
#       8
#     4   4   4   4   4   4   4   4
#     4  10  22  39  65  97 132 174 223 275 333 403
#     4  10  22  37  63  91 125 170 212 266 329 397
#     4  10  22  40  64  95 135 171 217 278 342 395
#     4  11  24  41  68  96 135 177 230 285 343 403
#     4  11  22  40  66  93 131 177 220 278 339 400
#     4  11  23  40  68 101 133 177 230 284 336 412
#     4  11  21  40  63  94 134 170 215 271 340 398
#     4  10  22  43  65  93 133 174 223 277 338 406
#
# _framework density 24.417114999999999
#
# number of rings (size 3 to 8) (size 9 to 14) (size 15 to 20)
#    0.000    1.500    2.500    2.250    0.000    7.000 
#    0.000    3.750    0.000    0.000    0.000    0.000 
#    0.000    0.000    0.000    0.000    0.000    0.000 
#
# Total GULP energy -89126.604419 kJ/mol
# GULP energy per Si atom -5570.412776 kJ/mol
# Density = 2.436154 g / cm^3
# Si number density = 24.417115 Si / 1000 Ang^3
#
#
#
# Elastic Constant Matrix: (Units=GPa)
#
#
# Indices 1 2 3 4 5 6 
#
# 1 188.0815 19.4802 36.2237 0.0000 21.1292 0.0000
# 2 19.4802 32.9144 6.6391 0.0000 7.5282 0.0000
# 3 36.2237 6.6391 69.9737 0.0000 -3.5801 0.0000
# 4 0.0000 0.0000 0.0000 30.5747 0.0000 0.4276
# 5 21.1292 7.5282 -3.5801 0.0000 35.1026 0.0000
# 6 0.0000 0.0000 0.0000 0.4276 0.0000 34.8026
#
#
#
# Elastic Compliance Matrix: (Units=1/GPa)
#
#
# Indices 1 2 3 4 5 6 
#
# 1 0.006652 -0.002369 -0.003415 0.000000 -0.003844 0.000000
# 2 -0.002369 0.033618 -0.002271 0.000000 -0.006016 0.000000
# 3 -0.003415 -0.002271 0.016491 0.000000 0.004225 0.000000
# 4 0.000000 0.000000 0.000000 0.032712 0.000000 -0.000402
# 5 -0.003844 -0.006016 0.004225 0.000000 0.032523 0.000000
# 6 0.000000 0.000000 0.000000 -0.000402 0.000000 0.028738
#
#
# Mechanical properties :
#
#
# Convention : Reuss Voigt Hill
#
# Bulk Modulus (GPa) = 24.60039 46.18395 35.39217
# Shear Modulus (GPa) = 27.71698 35.33775 31.52737
#
# Velocity S-wave (km/s) = 3.37285 3.80841 3.59722
# Velocity P-wave (km/s) = 5.02644 6.18823 5.63734
#
# Compressibility (1/GPa) = 0.04064976
#
# Stress axis : x y z
#
# Youngs Moduli (GPa) = 150.33435 29.74614 60.63979
#
# Poissons Ratio (x) = 0.07046 0.20711
# Poissons Ratio (y) = 0.35609 0.13773
# Poissons Ratio (z) = 0.51346 0.06756
#
# Static dielectric constant tensor:
#      x y z
#    x 2.072480 0.000000 -0.060110 
#    y 0.000000 1.965630 0.000000 
#    z -0.060110 0.000000 1.973140 
# 
# From -- ./inp_files/9260.got.cif
#   From: 2010.05.17/outbox.cif.g08.bks.cpg/sg9_5_cif.got.tgz:9260.got - 2010.06.03 20:04:27.
