data_PCOD9137282
_publ_section_title
;
Structure prediction by ZEFSAII (Michael W. Deem and Ramdas Pophale) SiO2 
 PCOD9137282
Probable space group: C C
;
_chemical_formula_sum "Si O2"
_cell_formula_units_Z 28
_cell_length_a 23.772897
_cell_length_b 5.029319
_cell_length_c 8.832314
_cell_angle_alpha 90.000000
_cell_angle_beta 109.212321
_cell_angle_gamma 90.000000
_cell_volume 997.191046
_symmetry_space_group_name_H-M "C C"
_symmetry_group_IT_number 9
_symmetry_cell_setting 'monoclinic'
loop_
_space_group_symop_operation_xyz
x,y,z
x,-y,1/2+z
1/2+x,1/2+y,z
1/2+x,1/2-y,1/2+z
loop_
_atom_site_type_symbol
_atom_site_label
_atom_site_fract_x
_atom_site_fract_y
_atom_site_fract_z
Si Si1 0.712760 0.325225 0.201560
Si Si2 0.982207 0.837880 0.005724
Si Si3 0.650799 0.061556 0.403909
Si Si4 0.942096 0.358245 0.796275
Si Si5 0.787055 0.064548 0.441102
Si Si6 0.602366 0.654693 0.141361
Si Si7 0.311375 0.107481 0.243290
O O1 0.681528 0.130679 0.054797
O O2 0.712982 0.092707 0.356363
O O3 0.741772 0.555531 0.118213
O O4 0.805502 0.786294 0.392806
O O5 0.045429 0.971170 0.100887
O O6 0.953339 0.723621 0.133278
O O7 0.105488 0.407847 0.253701
O O8 0.948050 0.088109 0.900195
O O9 0.660151 0.484449 0.239961
O O10 0.614737 0.262258 0.478682
O O11 0.987218 0.587129 0.896413
O O12 0.878445 0.492846 0.769269
O O13 0.788171 0.301225 0.316550
O O14 0.816752 0.138124 0.620337
#
# Coordination Sequence:
#
# PCOD9137282 Si02
#       7
#     4   4   4   4   4   4   4
#     4  10  22  40  71 119 158 217 259 343 422 507
#     4  12  32  61  85 122 164 231 292 357 410 499
#     4  10  24  44  74 120 166 212 268 334 429 507
#     4  12  31  57  87 123 166 228 297 344 422 489
#     4  10  23  40  70 118 158 205 259 327 421 499
#     4  12  26  50  80 118 172 218 279 348 419 504
#     4  12  24  46  77 112 166 211 270 345 411 505
#
# _framework density 28.078876000000001
#
# number of rings (size 3 to 8) (size 9 to 14) (size 15 to 20)
#    0.857    0.000    2.857    1.714    8.000    5.714 
#    0.000    0.000    0.000    0.000    0.000    0.000 
#    0.000    0.000    0.000    0.000    0.000    0.000 
#
# Total GULP energy -78352.680411 kJ/mol
# GULP energy per Si atom -5596.620029 kJ/mol
# Density = 2.801497 g / cm^3
# Si number density = 28.078876 Si / 1000 Ang^3
#
#
#
# Elastic Constant Matrix: (Units=GPa)
#
#
# Indices 1 2 3 4 5 6 
#
# 1 136.6673 44.3460 38.9274 0.0000 -21.2198 0.0000
# 2 44.3460 97.1345 18.8782 0.0000 -9.4168 0.0000
# 3 38.9274 18.8782 132.7225 0.0000 -20.3274 0.0000
# 4 0.0000 0.0000 0.0000 43.7427 0.0000 13.5985
# 5 -21.2198 -9.4168 -20.3274 0.0000 34.8223 0.0000
# 6 0.0000 0.0000 0.0000 13.5985 0.0000 49.1336
#
#
#
# Elastic Compliance Matrix: (Units=1/GPa)
#
#
# Indices 1 2 3 4 5 6 
#
# 1 0.009593 -0.003675 -0.001700 0.000000 0.003860 0.000000
# 2 -0.003675 0.012148 -0.000538 0.000000 0.000732 0.000000
# 3 -0.001700 -0.000538 0.008707 0.000000 0.003901 0.000000
# 4 0.000000 0.000000 0.000000 0.025013 0.000000 -0.006923
# 5 0.003860 0.000732 0.003901 0.000000 0.033545 0.000000
# 6 0.000000 0.000000 0.000000 -0.006923 0.000000 0.022269
#
#
# Mechanical properties :
#
#
# Convention : Reuss Voigt Hill
#
# Bulk Modulus (GPa) = 53.69768 63.42528 58.56148
# Shear Modulus (GPa) = 38.66739 43.16455 40.91597
#
# Velocity S-wave (km/s) = 3.71495 3.92505 3.82144
# Velocity P-wave (km/s) = 6.12916 6.57104 6.35394
#
# Compressibility (1/GPa) = 0.01862278
#
# Stress axis : x y z
#
# Youngs Moduli (GPa) = 104.24318 82.31586 114.84859
#
# Poissons Ratio (x) = 0.30252 0.19521
# Poissons Ratio (y) = 0.38310 0.06179
# Poissons Ratio (z) = 0.17719 0.04429
#
# Static dielectric constant tensor:
#      x y z
#    x 2.428350 0.000000 -0.094050 
#    y 0.000000 2.307350 0.000000 
#    z -0.094050 0.000000 2.129430 
# 
# From -- ./inp_files/11979.got.cif
#   From: 2010.05.17/outbox.cif.g08.bks.cpg/sg9_6_cif.got.tgz:11979.got - 2010.06.03 20:04:27.
