data_PCOD9137336
_publ_section_title
;
Structure prediction by ZEFSAII (Michael W. Deem and Ramdas Pophale) SiO2 
 PCOD9137336
Probable space group: C C
;
_chemical_formula_sum "Si O2"
_cell_formula_units_Z 32
_cell_length_a 9.769050
_cell_length_b 11.757227
_cell_length_c 22.148548
_cell_angle_alpha 90.000000
_cell_angle_beta 27.445001
_cell_angle_gamma 90.000000
_cell_volume 1172.482386
_symmetry_space_group_name_H-M "C C"
_symmetry_group_IT_number 9
_symmetry_cell_setting 'monoclinic'
loop_
_space_group_symop_operation_xyz
x,y,z
x,-y,1/2+z
1/2+x,1/2+y,z
1/2+x,1/2-y,1/2+z
loop_
_atom_site_type_symbol
_atom_site_label
_atom_site_fract_x
_atom_site_fract_y
_atom_site_fract_z
Si Si1 0.725230 0.897714 0.142410
Si Si2 0.349728 0.976010 0.653060
Si Si3 0.534937 0.126421 0.839201
Si Si4 0.657725 0.124445 0.311921
Si Si5 0.171977 0.366471 0.614991
Si Si6 0.340874 0.823151 0.538749
Si Si7 0.057637 0.871915 0.347353
Si Si8 0.570547 0.824333 0.987122
O O1 0.772113 0.859392 0.192794
O O2 0.880171 0.809500 0.037872
O O3 0.380915 0.880668 0.254397
O O4 0.775194 0.031498 0.117239
O O5 0.353309 0.896702 0.713180
O O6 0.360059 0.892349 0.593026
O O7 0.065597 0.050110 0.785893
O O8 0.543394 0.083789 0.550671
O O9 0.285190 0.218327 0.918378
O O10 0.494749 0.988697 0.852956
O O11 0.563451 0.146084 0.898660
O O12 0.505894 0.241114 0.350995
O O13 0.649143 0.129544 0.389176
O O14 0.998926 0.140670 0.155743
O O15 0.332177 0.399234 0.488721
O O16 0.257015 0.242542 0.601837
#
# Coordination Sequence:
#
# PCOD9137336 Si02
#       8
#     4   4   4   4   4   4   4   4
#     4  10  22  41  65  99 128 175 228 269 338 396
#     4  11  24  41  69  94 140 178 218 279 338 397
#     4  12  22  39  72  97 131 183 216 281 341 396
#     4  10  22  42  64  99 131 174 228 266 340 397
#     4  10  22  42  67  93 131 178 223 267 340 393
#     4  11  24  43  64 102 137 175 227 278 338 402
#     4   9  20  42  65  91 131 181 215 276 333 389
#     4  11  22  46  68  95 137 176 215 288 328 398
#
# _framework density 27.292518999999999
#
# number of rings (size 3 to 8) (size 9 to 14) (size 15 to 20)
#    0.000    1.500    5.000    2.250    5.250    1.000 
#    6.750    0.000    2.750    0.000    0.000    0.000 
#    0.000    0.000    0.000    0.000    0.000    0.000 
#
# Total GULP energy -89306.187992 kJ/mol
# GULP energy per Si atom -5581.636749 kJ/mol
# Density = 2.723040 g / cm^3
# Si number density = 27.292519 Si / 1000 Ang^3
#
#
#
# Elastic Constant Matrix: (Units=GPa)
#
#
# Indices 1 2 3 4 5 6 
#
# 1 92.3749 35.7841 20.0076 0.0945 11.3342 -0.0144
# 2 35.7841 123.8025 -5.9009 0.0545 11.8285 -0.0089
# 3 20.0076 -5.9009 58.5664 0.3606 30.6438 -0.0803
# 4 0.0945 0.0545 0.3606 -4.7334 -0.0954 12.0566
# 5 11.3342 11.8285 30.6438 -0.0954 37.3541 0.0027
# 6 -0.0144 -0.0089 -0.0803 12.0566 0.0027 56.8671
#
#
#
# Elastic Compliance Matrix: (Units=1/GPa)
#
#
# Indices 1 2 3 4 5 6 
#
# 1 0.013654 -0.004503 -0.006473 -0.000221 0.002593 0.000040
# 2 -0.004503 0.010351 0.006269 0.000437 -0.007053 -0.000083
# 3 -0.006473 0.006269 0.034887 0.002146 -0.028635 -0.000405
# 4 -0.000221 0.000437 0.002146 -0.137041 -0.002184 0.029058
# 5 0.002593 -0.007053 -0.028635 -0.002184 0.051703 0.000420
# 6 0.000040 -0.000083 -0.000405 0.029058 0.000420 0.011424
#
#
# Mechanical properties :
#
#
# Convention : Reuss Voigt Hill
#
# Bulk Modulus (GPa) = 20.21127 41.61394 30.91260
# Shear Modulus (GPa) = 459.38061 32.88775 246.13418
#
# Velocity S-wave (km/s) = 12.98779 3.47509 9.50682
# Velocity P-wave (km/s) = 15.24244 5.60198 11.48290
#
# Compressibility (1/GPa) = 0.04947734
#
# Stress axis : x y z
#
# Youngs Moduli (GPa) = 73.23926 96.60596 28.66430
#
# Poissons Ratio (x) = 0.43499 0.18555
# Poissons Ratio (y) = 0.32977 -0.17969
# Poissons Ratio (z) = 0.47410 -0.60560
#
# Static dielectric constant tensor:
#      x y z
#    x 2.502700 0.000000 -0.253670 
#    y 0.000000 2.272080 -0.000090 
#    z -0.253670 -0.000090 2.248300 
# 
# From -- ./inp_files/16259.got.cif
#   From: 2010.05.17/outbox.cif.g08.bks.cpg/sg9_9_cif.got.tgz:16259.got - 2010.06.03 20:04:27.
