data_PCOD9137479
_publ_section_title
;
Structure prediction by ZEFSAII (Michael W. Deem and Ramdas Pophale) SiO2 
 PCOD9137479
Probable space group: C C
;
_chemical_formula_sum "Si O2"
_cell_formula_units_Z 24
_cell_length_a 12.079089
_cell_length_b 7.315851
_cell_length_c 20.320858
_cell_angle_alpha 90.000000
_cell_angle_beta 33.688903
_cell_angle_gamma 90.000000
_cell_volume 996.061497
_symmetry_space_group_name_H-M "C C"
_symmetry_group_IT_number 9
_symmetry_cell_setting 'monoclinic'
loop_
_space_group_symop_operation_xyz
x,y,z
x,-y,1/2+z
1/2+x,1/2+y,z
1/2+x,1/2-y,1/2+z
loop_
_atom_site_type_symbol
_atom_site_label
_atom_site_fract_x
_atom_site_fract_y
_atom_site_fract_z
Si Si1 0.444520 0.094422 0.285470
Si Si2 0.323529 0.423805 0.743579
Si Si3 0.131191 0.610409 0.584556
Si Si4 0.101536 0.019996 0.712975
Si Si5 0.880059 0.311423 0.674225
Si Si6 0.871306 0.452775 0.455242
O O1 0.552745 0.275399 0.258559
O O2 0.324709 0.150157 0.278720
O O3 0.604745 0.956630 0.173137
O O4 0.324836 0.005648 0.403249
O O5 0.439439 0.241458 0.663821
O O6 0.399433 0.439228 0.781708
O O7 0.400566 0.595301 0.661926
O O8 0.089841 0.463920 0.858086
O O9 0.086959 0.426409 0.565218
O O10 0.325022 0.734918 0.481612
O O11 0.216529 0.896043 0.707588
O O12 0.238636 0.031483 0.579725
#
# Coordination Sequence:
#
# PCOD9137479 Si02
#       6
#     4   4   4   4   4   4
#     4   9  22  46  67 101 141 182 241 298 352 433
#     4  10  22  42  67 101 141 177 240 291 351 435
#     4   9  22  45  65 101 141 178 238 298 346 432
#     4  10  22  47  67 103 147 183 242 304 353 439
#     4   9  21  44  65  96 140 182 223 313 346 415
#     4  11  23  42  73  98 136 198 230 294 382 426
#
# _framework density 24.094895999999999
#
# number of rings (size 3 to 8) (size 9 to 14) (size 15 to 20)
#    1.000    1.333    0.000    1.000    4.667    1.333 
#   24.000    0.000    0.000    0.000    0.000    0.000 
#    0.000    0.000    0.000    0.000    0.000    0.000 
#
# Total GULP energy -66890.949076 kJ/mol
# GULP energy per Si atom -5574.245756 kJ/mol
# Density = 2.404006 g / cm^3
# Si number density = 24.094896 Si / 1000 Ang^3
#
#
#
# Elastic Constant Matrix: (Units=GPa)
#
#
# Indices 1 2 3 4 5 6 
#
# 1 108.4964 -8.8326 8.4249 0.0000 -6.7160 0.0000
# 2 -8.8326 80.6625 -18.1441 0.0001 3.2980 0.0000
# 3 8.4249 -18.1441 66.8675 0.0002 -1.9367 0.0000
# 4 0.0000 0.0001 0.0002 33.1637 0.0000 -8.6182
# 5 -6.7160 3.2980 -1.9367 0.0000 32.4496 0.0000
# 6 0.0000 0.0000 0.0000 -8.6182 0.0000 33.8173
#
#
#
# Elastic Compliance Matrix: (Units=1/GPa)
#
#
# Indices 1 2 3 4 5 6 
#
# 1 0.009464 0.000751 -0.000936 0.000000 0.001826 0.000000
# 2 0.000751 0.013304 0.003487 0.000000 -0.000989 0.000000
# 3 -0.000936 0.003487 0.016031 0.000000 0.000409 0.000000
# 4 0.000000 0.000000 0.000000 0.032292 0.000000 0.008230
# 5 0.001826 -0.000989 0.000409 0.000000 0.031320 0.000000
# 6 0.000000 0.000000 0.000000 0.008230 0.000000 0.031668
#
#
# Mechanical properties :
#
#
# Convention : Reuss Voigt Hill
#
# Bulk Modulus (GPa) = 22.02482 24.32478 23.17480
# Shear Modulus (GPa) = 35.06098 38.19133 36.62615
#
# Velocity S-wave (km/s) = 3.81874 3.98557 3.90305
# Velocity P-wave (km/s) = 5.34831 5.59438 5.47273
#
# Compressibility (1/GPa) = 0.04540333
#
# Stress axis : x y z
#
# Youngs Moduli (GPa) = 105.66620 75.16365 62.38000
#
# Poissons Ratio (x) = -0.05646 0.05837
# Poissons Ratio (y) = -0.07937 -0.21750
# Poissons Ratio (z) = 0.09887 -0.26208
#
# Static dielectric constant tensor:
#      x y z
#    x 1.958110 0.000000 -0.041310 
#    y 0.000000 1.997150 0.000000 
#    z -0.041310 0.000000 1.966760 
# 
# From -- ./inp_files/33057.got.cif
#   From: 2010.05.17/outbox.cif.g08.bks.cpg/sg9_17_cif.got.tgz:33057.got - 2010.06.03 20:04:27.
