data_PCOD9137846
_publ_section_title
;
Structure prediction by ZEFSAII (Michael W. Deem and Ramdas Pophale) SiO2 
 PCOD9137846
Probable space group: C C
;
_chemical_formula_sum "Si O2"
_cell_formula_units_Z 28
_cell_length_a 28.333162
_cell_length_b 6.003515
_cell_length_c 17.721761
_cell_angle_alpha 90.000000
_cell_angle_beta 159.021076
_cell_angle_gamma 90.000000
_cell_volume 1079.245587
_symmetry_space_group_name_H-M "C C"
_symmetry_group_IT_number 9
_symmetry_cell_setting 'monoclinic'
loop_
_space_group_symop_operation_xyz
x,y,z
x,-y,1/2+z
1/2+x,1/2+y,z
1/2+x,1/2-y,1/2+z
loop_
_atom_site_type_symbol
_atom_site_label
_atom_site_fract_x
_atom_site_fract_y
_atom_site_fract_z
Si Si1 0.364810 0.711931 0.711740
Si Si2 0.294975 0.500237 0.746243
Si Si3 0.228680 0.115080 0.534509
Si Si4 0.815427 0.019190 0.448658
Si Si5 0.619036 0.623349 0.010626
Si Si6 0.356348 0.012998 0.479253
Si Si7 0.614908 0.964337 0.267284
O O1 0.380637 0.671739 0.825081
O O2 0.225106 0.612206 0.476302
O O3 0.348479 0.973105 0.681368
O O4 0.477481 0.590909 0.834609
O O5 0.285503 0.294316 0.677368
O O6 0.341810 0.461830 0.899212
O O7 0.153915 0.617894 0.548993
O O8 0.149945 0.217073 0.348005
O O9 0.135048 0.979673 0.451830
O O10 0.866046 0.757559 0.536036
O O11 0.664794 0.998641 0.256249
O O12 0.851320 0.283385 0.520894
O O13 0.725484 0.535459 0.230709
O O14 0.475614 0.988842 0.597041
#
# Coordination Sequence:
#
# PCOD9137846 Si02
#       7
#     4   4   4   4   4   4   4
#     4  10  24  43  72 107 147 198 253 312 382 457
#     4   9  21  43  68 104 139 193 250 315 363 454
#     4  10  22  46  69 104 145 196 252 316 370 462
#     4  11  26  47  75 110 150 201 250 315 387 447
#     4  10  22  44  76 105 145 195 258 308 378 450
#     4  11  27  48  75 109 154 195 255 315 373 457
#     4  11  28  45  73 109 156 200 250 319 389 447
#
# _framework density 25.944047999999999
#
# number of rings (size 3 to 8) (size 9 to 14) (size 15 to 20)
#    0.000    1.714    1.429    0.000    6.000   12.571 
#    0.000    0.000    0.000    0.000    0.000    0.000 
#    0.000    0.000    0.000    0.000    0.000    0.000 
#
# Total GULP energy -78091.886237 kJ/mol
# GULP energy per Si atom -5577.991874 kJ/mol
# Density = 2.588500 g / cm^3
# Si number density = 25.944048 Si / 1000 Ang^3
#
#
#
# Elastic Constant Matrix: (Units=GPa)
#
#
# Indices 1 2 3 4 5 6 
#
# 1 121.8802 38.8535 34.8977 0.0000 17.8214 0.0000
# 2 38.8535 150.4054 41.3967 0.0000 12.9110 0.0000
# 3 34.8977 41.3967 103.0388 0.0000 24.7802 0.0000
# 4 0.0000 0.0000 0.0000 24.3863 0.0000 -0.7717
# 5 17.8214 12.9110 24.7802 0.0000 43.2802 0.0000
# 6 0.0000 0.0000 0.0000 -0.7717 0.0000 45.2115
#
#
#
# Elastic Compliance Matrix: (Units=1/GPa)
#
#
# Indices 1 2 3 4 5 6 
#
# 1 0.009677 -0.001745 -0.002022 0.000000 -0.002307 0.000000
# 2 -0.001745 0.007803 -0.002501 0.000000 -0.000177 0.000000
# 3 -0.002022 -0.002501 0.012774 0.000000 -0.005735 0.000000
# 4 0.000000 0.000000 0.000000 0.041029 0.000000 0.000700
# 5 -0.002307 -0.000177 -0.005735 0.000000 0.027392 0.000000
# 6 0.000000 0.000000 0.000000 0.000700 0.000000 0.022130
#
#
# Mechanical properties :
#
#
# Convention : Reuss Voigt Hill
#
# Bulk Modulus (GPa) = 56.44029 67.29111 61.86570
# Shear Modulus (GPa) = 35.90724 39.92071 37.91398
#
# Velocity S-wave (km/s) = 3.72429 3.92691 3.82694
# Velocity P-wave (km/s) = 6.34788 6.82306 6.58976
#
# Compressibility (1/GPa) = 0.01771784
#
# Stress axis : x y z
#
# Youngs Moduli (GPa) = 103.33432 128.15211 78.28431
#
# Poissons Ratio (x) = 0.22369 0.15826
# Poissons Ratio (y) = 0.18037 0.19581
# Poissons Ratio (z) = 0.20890 0.32055
#
# Static dielectric constant tensor:
#      x y z
#    x 2.050240 0.000000 -0.034770 
#    y 0.000000 2.254040 0.000000 
#    z -0.034770 0.000000 2.083130 
# 
# From -- ./inp_files/34664.got.cif
#   From: 2010.05.17/outbox.cif.g08.bks.cpg/sg9_18_cif.got.tgz:34664.got - 2010.06.03 20:04:27.
