data_PCOD9137689
_publ_section_title
;
Structure prediction by ZEFSAII (Michael W. Deem and Ramdas Pophale) SiO2 
 PCOD9137689
Probable space group: C C
;
_chemical_formula_sum "Si O2"
_cell_formula_units_Z 28
_cell_length_a 7.858387
_cell_length_b 7.605481
_cell_length_c 17.334139
_cell_angle_alpha 90.000000
_cell_angle_beta 96.464577
_cell_angle_gamma 90.000000
_cell_volume 1029.418958
_symmetry_space_group_name_H-M "C C"
_symmetry_group_IT_number 9
_symmetry_cell_setting 'monoclinic'
loop_
_space_group_symop_operation_xyz
x,y,z
x,-y,1/2+z
1/2+x,1/2+y,z
1/2+x,1/2-y,1/2+z
loop_
_atom_site_type_symbol
_atom_site_label
_atom_site_fract_x
_atom_site_fract_y
_atom_site_fract_z
Si Si1 0.709550 0.405361 0.826010
Si Si2 0.856119 0.547643 0.132668
Si Si3 0.687669 0.236326 0.986156
Si Si4 0.083243 0.428523 0.882256
Si Si5 0.667433 0.235408 0.159834
Si Si6 0.332408 0.467985 0.271631
Si Si7 0.548097 0.749895 0.035507
O O1 0.537105 0.512805 0.795918
O O2 0.908408 0.452409 0.828001
O O3 0.723689 0.211729 0.783859
O O4 0.706203 0.380295 0.920461
O O5 0.768118 0.410123 0.185881
O O6 0.704913 0.656579 0.084711
O O7 0.981286 0.685626 0.179606
O O8 0.972984 0.420297 0.081452
O O9 0.625156 0.277996 0.067743
O O10 0.870461 0.145107 0.015979
O O11 0.579312 0.096656 0.936764
O O12 0.243897 0.413156 0.834221
O O13 0.093591 0.282779 0.948905
O O14 0.783039 0.068672 0.190052
#
# Coordination Sequence:
#
# PCOD9137689 Si02
#       7
#     4   4   4   4   4   4   4
#     4  10  24  44  70 101 139 194 240 302 357 452
#     4  11  25  43  71 103 147 185 245 300 370 425
#     4   9  21  41  70  97 142 180 250 296 362 425
#     4  10  22  43  71 101 138 194 247 301 371 437
#     4  11  24  46  69 108 144 191 238 311 368 437
#     4  11  25  46  70 100 152 186 242 297 380 436
#     4  10  23  41  69 106 134 188 238 311 352 434
#
# _framework density 27.199808000000001
#
# number of rings (size 3 to 8) (size 9 to 14) (size 15 to 20)
#    0.000    1.714    1.429    0.857    4.000   11.429 
#   12.857    0.000    0.000    0.000    0.000    0.000 
#    0.000    0.000    0.000    0.000    0.000    0.000 
#
# Total GULP energy -78111.425255 kJ/mol
# GULP energy per Si atom -5579.387518 kJ/mol
# Density = 2.713790 g / cm^3
# Si number density = 27.199808 Si / 1000 Ang^3
#
#
#
# Elastic Constant Matrix: (Units=GPa)
#
#
# Indices 1 2 3 4 5 6 
#
# 1 119.7722 60.5119 28.7367 0.0000 7.4362 0.0000
# 2 60.5119 98.8310 25.9315 0.0000 21.3927 0.0000
# 3 28.7367 25.9315 130.0447 0.0000 -11.1631 0.0000
# 4 0.0000 0.0000 0.0000 39.7099 0.0000 14.1300
# 5 7.4362 21.3927 -11.1631 0.0000 66.5481 0.0000
# 6 0.0000 0.0000 0.0000 14.1300 0.0000 57.6334
#
#
#
# Elastic Compliance Matrix: (Units=1/GPa)
#
#
# Indices 1 2 3 4 5 6 
#
# 1 0.012327 -0.007414 -0.001176 0.000000 0.000809 0.000000
# 2 -0.007414 0.016202 -0.001997 0.000000 -0.004715 0.000000
# 3 -0.001176 -0.001997 0.008537 0.000000 0.002206 0.000000
# 4 0.000000 0.000000 0.000000 0.027590 0.000000 -0.006764
# 5 0.000809 -0.004715 0.002206 0.000000 0.016822 0.000000
# 6 0.000000 0.000000 0.000000 -0.006764 0.000000 0.019009
#
#
# Mechanical properties :
#
#
# Convention : Reuss Voigt Hill
#
# Bulk Modulus (GPa) = 62.92594 64.33422 63.63008
# Shear Modulus (GPa) = 39.38281 48.34280 43.86281
#
# Velocity S-wave (km/s) = 3.80927 4.22040 4.02009
# Velocity P-wave (km/s) = 6.52168 6.88860 6.70765
#
# Compressibility (1/GPa) = 0.01589170
#
# Stress axis : x y z
#
# Youngs Moduli (GPa) = 81.12386 61.71985 117.13505
#
# Poissons Ratio (x) = 0.45758 0.13777
# Poissons Ratio (y) = 0.60144 0.23395
# Poissons Ratio (z) = 0.09542 0.12327
#
# Static dielectric constant tensor:
#      x y z
#    x 2.147800 0.000000 -0.086810 
#    y 0.000000 2.312890 0.000000 
#    z -0.086810 0.000000 2.280440 
# 
# From -- ./inp_files/29011.got.cif
#   From: 2010.05.17/outbox.cif.g08.bks.cpg/sg9_15_cif.got.tgz:29011.got - 2010.06.03 20:04:27.
