data_PCOD9137918
_publ_section_title
;
Structure prediction by ZEFSAII (Michael W. Deem and Ramdas Pophale) SiO2 
 PCOD9137918
Probable space group: C C
;
_chemical_formula_sum "Si O2"
_cell_formula_units_Z 28
_cell_length_a 7.534560
_cell_length_b 17.607209
_cell_length_c 12.494197
_cell_angle_alpha 90.000000
_cell_angle_beta 43.073285
_cell_angle_gamma 90.000000
_cell_volume 1131.970275
_symmetry_space_group_name_H-M "C C"
_symmetry_group_IT_number 9
_symmetry_cell_setting 'monoclinic'
loop_
_space_group_symop_operation_xyz
x,y,z
x,-y,1/2+z
1/2+x,1/2+y,z
1/2+x,1/2-y,1/2+z
loop_
_atom_site_type_symbol
_atom_site_label
_atom_site_fract_x
_atom_site_fract_y
_atom_site_fract_z
Si Si1 0.120500 0.275049 0.821680
Si Si2 0.599903 0.647555 0.990137
Si Si3 0.857230 0.343244 0.602075
Si Si4 0.034477 0.188802 0.538750
Si Si5 0.300912 0.631234 0.439320
Si Si6 0.591939 0.988713 0.475494
Si Si7 0.542142 0.513603 0.605634
O O1 0.343582 0.307945 0.646297
O O2 0.138042 0.328285 0.919271
O O3 0.835289 0.287275 0.900429
O O4 0.169828 0.190226 0.848321
O O5 0.555660 0.556042 0.013484
O O6 0.812644 0.660048 0.992353
O O7 0.908674 0.265205 0.641119
O O8 0.087066 0.403053 0.519199
O O9 0.591251 0.377436 0.764920
O O10 0.848706 0.183079 0.518198
O O11 0.030656 0.101964 0.578592
O O12 0.174124 0.551460 0.524555
O O13 0.792325 0.999384 0.290181
O O14 0.306806 0.005685 0.556579
#
# Coordination Sequence:
#
# PCOD9137918 Si02
#       7
#     4   4   4   4   4   4   4
#     4  11  23  44  70 100 146 182 237 296 356 426
#     4  10  22  45  71 100 143 185 229 300 361 415
#     4  10  24  41  72 102 136 184 237 290 354 424
#     4  12  26  41  70 105 134 188 242 285 354 436
#     4  11  23  47  65 100 145 177 234 300 349 419
#     4  11  21  47  70  97 144 184 229 298 352 411
#     4  11  23  43  72 104 140 188 234 295 352 427
#
# _framework density 24.735631000000001
#
# number of rings (size 3 to 8) (size 9 to 14) (size 15 to 20)
#    0.000    1.143    7.143    0.000    4.000    2.286 
#    2.571    0.000    0.000    0.000    0.000    0.000 
#    0.000    0.000    0.000    0.000    0.000    0.000 
#
# Total GULP energy -78190.359967 kJ/mol
# GULP energy per Si atom -5585.025712 kJ/mol
# Density = 2.467933 g / cm^3
# Si number density = 24.735631 Si / 1000 Ang^3
#
#
#
# Elastic Constant Matrix: (Units=GPa)
#
#
# Indices 1 2 3 4 5 6 
#
# 1 73.7088 38.2789 25.5950 0.0000 -13.0351 0.0000
# 2 38.2789 216.7290 39.3963 0.0000 -11.8939 0.0000
# 3 25.5950 39.3963 53.9511 -0.0001 -24.4292 0.0001
# 4 0.0000 0.0000 -0.0001 -0.8750 0.0000 -23.8197
# 5 -13.0351 -11.8939 -24.4292 0.0000 25.3866 0.0000
# 6 0.0000 0.0000 0.0001 -23.8197 0.0000 34.4571
#
#
#
# Elastic Compliance Matrix: (Units=1/GPa)
#
#
# Indices 1 2 3 4 5 6 
#
# 1 0.016885 -0.001838 -0.005552 0.000000 0.002467 0.000000
# 2 -0.001838 0.005591 -0.004345 0.000000 -0.002506 0.000000
# 3 -0.005552 -0.004345 0.039218 0.000000 0.032852 0.000000
# 4 0.000000 0.000000 0.000000 -0.057666 0.000000 -0.039864
# 5 0.002467 -0.002506 0.032852 0.000000 0.071097 0.000000
# 6 0.000000 0.000000 0.000000 -0.039864 0.000000 0.001464
#
#
# Mechanical properties :
#
#
# Convention : Reuss Voigt Hill
#
# Bulk Modulus (GPa) = 26.16136 61.21437 43.68786
# Shear Modulus (GPa) = 44.32620 27.86833 36.09726
#
# Velocity S-wave (km/s) = 4.23779 3.36020 3.82425
# Velocity P-wave (km/s) = 5.87746 6.31314 6.09919
#
# Compressibility (1/GPa) = 0.03822431
#
# Stress axis : x y z
#
# Youngs Moduli (GPa) = 59.22306 178.85786 25.49865
#
# Poissons Ratio (x) = 0.32870 0.14156
# Poissons Ratio (y) = 0.10884 0.11080
# Poissons Ratio (z) = 0.32879 0.77721
#
# Static dielectric constant tensor:
#      x y z
#    x 1.978410 0.000000 0.062950 
#    y 0.000000 2.122650 0.000000 
#    z 0.062950 0.000000 1.933170 
# 
# From -- ./inp_files/29496.got.cif
#   From: 2010.05.17/outbox.cif.g08.bks.cpg/sg9_15_cif.got.tgz:29496.got - 2010.06.03 20:04:27.
