data_PCOD9137161
_publ_section_title
;
Structure prediction by ZEFSAII (Michael W. Deem and Ramdas Pophale) SiO2 
 PCOD9137161
Probable space group: C C
;
_chemical_formula_sum "Si O2"
_cell_formula_units_Z 32
_cell_length_a 6.882463
_cell_length_b 26.079220
_cell_length_c 7.668263
_cell_angle_alpha 90.000000
_cell_angle_beta 71.462489
_cell_angle_gamma 90.000000
_cell_volume 1304.958884
_symmetry_space_group_name_H-M "C C"
_symmetry_group_IT_number 9
_symmetry_cell_setting 'monoclinic'
loop_
_space_group_symop_operation_xyz
x,y,z
x,-y,1/2+z
1/2+x,1/2+y,z
1/2+x,1/2-y,1/2+z
loop_
_atom_site_type_symbol
_atom_site_label
_atom_site_fract_x
_atom_site_fract_y
_atom_site_fract_z
Si Si1 0.703870 0.038223 0.649390
Si Si2 0.517032 0.933715 0.845897
Si Si3 0.542029 0.217357 0.221213
Si Si4 0.754332 0.351788 0.558576
Si Si5 0.659510 0.889114 0.459505
Si Si6 0.831223 0.186740 0.664747
Si Si7 0.993410 0.757101 0.587242
Si Si8 0.049832 0.908063 0.905137
O O1 0.579500 0.066767 0.529638
O O2 0.755055 0.065186 0.819782
O O3 0.923024 0.040547 0.485665
O O4 0.574707 0.988862 0.744848
O O5 0.642013 0.899157 0.669611
O O6 0.280359 0.917840 0.904672
O O7 0.402526 0.177023 0.157410
O O8 0.500229 0.269755 0.129060
O O9 0.436851 0.224163 0.436645
O O10 0.781528 0.217183 0.208442
O O11 0.642986 0.304904 0.498108
O O12 0.592182 0.389255 0.695904
O O13 0.934310 0.386095 0.428517
O O14 0.777739 0.838203 0.367234
O O15 0.922823 0.139801 0.525634
O O16 0.625178 0.217707 0.667716
#
# Coordination Sequence:
#
# PCOD9137161 Si02
#       8
#     4   4   4   4   4   4   4   4
#     4  11  24  46  70  96 128 168 217 276 340 403
#     4  11  24  46  70  96 128 168 217 276 340 403
#     4  11  22  36  62  89 131 178 217 260 315 384
#     4  10  22  40  58  95 133 169 219 268 319 377
#     4  10  22  43  66  94 132 166 214 273 322 394
#     4  10  22  40  58  95 133 169 219 268 319 377
#     4  11  22  36  62  89 131 178 217 260 315 384
#     4  10  24  41  66  96 134 174 218 283 328 394
#
# _framework density 24.521844999999999
#
# number of rings (size 3 to 8) (size 9 to 14) (size 15 to 20)
#    0.000    1.500    1.250    3.000    0.000   15.000 
#    0.000    0.000    0.000    0.000    0.000    0.000 
#    0.000    0.000    0.000    0.000    0.000    0.000 
#
# Total GULP energy -89112.727749 kJ/mol
# GULP energy per Si atom -5569.545484 kJ/mol
# Density = 2.446603 g / cm^3
# Si number density = 24.521845 Si / 1000 Ang^3
#
#
#
# Elastic Constant Matrix: (Units=GPa)
#
#
# Indices 1 2 3 4 5 6 
#
# 1 135.4595 28.9751 24.5904 0.0000 -13.7797 0.0000
# 2 28.9751 70.4208 13.8183 0.0000 -2.5076 0.0000
# 3 24.5904 13.8183 74.6987 0.0000 -2.0468 0.0000
# 4 0.0000 0.0000 0.0000 34.6827 0.0000 -2.5518
# 5 -13.7797 -2.5076 -2.0468 0.0000 40.5307 0.0000
# 6 0.0000 0.0000 0.0000 -2.5518 0.0000 27.2241
#
#
#
# Elastic Compliance Matrix: (Units=1/GPa)
#
#
# Indices 1 2 3 4 5 6 
#
# 1 0.008710 -0.003052 -0.002230 0.000000 0.002660 0.000000
# 2 -0.003052 0.015829 -0.001928 0.000000 -0.000156 0.000000
# 3 -0.002230 -0.001928 0.014474 0.000000 -0.000147 0.000000
# 4 0.000000 0.000000 0.000000 0.029033 0.000000 0.002721
# 5 0.002660 -0.000156 -0.000147 0.000000 0.025560 0.000000
# 6 0.000000 0.000000 0.000000 0.002721 0.000000 0.036987
#
#
# Mechanical properties :
#
#
# Convention : Reuss Voigt Hill
#
# Bulk Modulus (GPa) = 40.66023 46.14961 43.40492
# Shear Modulus (GPa) = 32.63491 34.70053 33.66772
#
# Velocity S-wave (km/s) = 3.65204 3.76584 3.70938
# Velocity P-wave (km/s) = 5.86519 6.14568 6.00707
#
# Compressibility (1/GPa) = 0.02459405
#
# Stress axis : x y z
#
# Youngs Moduli (GPa) = 114.80464 63.17637 69.09020
#
# Poissons Ratio (x) = 0.19279 0.15407
# Poissons Ratio (y) = 0.35034 0.13319
# Poissons Ratio (z) = 0.25602 0.12179
#
# Static dielectric constant tensor:
#      x y z
#    x 2.022260 0.000000 -0.035350 
#    y 0.000000 2.140310 0.000000 
#    z -0.035350 0.000000 1.991230 
# 
# From -- ./inp_files/4403.got.cif
#   From: 2010.05.17/outbox.cif.g08.bks.cpg/sg9_3_cif.got.tgz:4403.got - 2010.06.03 20:04:27.
