data_PCOD9137476
_publ_section_title
;
Structure prediction by ZEFSAII (Michael W. Deem and Ramdas Pophale) SiO2 
 PCOD9137476
Probable space group: C C
;
_chemical_formula_sum "Si O2"
_cell_formula_units_Z 28
_cell_length_a 11.847087
_cell_length_b 14.907495
_cell_length_c 10.575128
_cell_angle_alpha 90.000000
_cell_angle_beta 38.002791
_cell_angle_gamma 90.000000
_cell_volume 1149.928765
_symmetry_space_group_name_H-M "C C"
_symmetry_group_IT_number 9
_symmetry_cell_setting 'monoclinic'
loop_
_space_group_symop_operation_xyz
x,y,z
x,-y,1/2+z
1/2+x,1/2+y,z
1/2+x,1/2-y,1/2+z
loop_
_atom_site_type_symbol
_atom_site_label
_atom_site_fract_x
_atom_site_fract_y
_atom_site_fract_z
Si Si1 0.334830 0.556165 0.601570
Si Si2 0.452321 0.858477 0.431978
Si Si3 0.209958 0.667173 0.043397
Si Si4 0.749781 0.027839 0.407678
Si Si5 0.909640 0.339550 0.190530
Si Si6 0.137891 0.804868 0.881639
Si Si7 0.557139 0.295893 0.381275
O O1 0.374255 0.552630 0.418426
O O2 0.361227 0.477557 0.678941
O O3 0.458807 0.633950 0.553216
O O4 0.112213 0.567636 0.795437
O O5 0.351864 0.850159 0.387196
O O6 0.309350 0.858337 0.673103
O O7 0.575742 0.769207 0.335402
O O8 0.168944 0.571267 0.016903
O O9 0.190311 0.747464 0.958817
O O10 0.413776 0.656704 0.917473
O O11 0.101715 0.704812 0.260649
O O12 0.583827 0.095547 0.532065
O O13 0.737305 0.353346 0.250571
O O14 0.976922 0.241564 0.084012
#
# Coordination Sequence:
#
# PCOD9137476 Si02
#       7
#     4   4   4   4   4   4   4
#     4  11  25  44  70 100 144 188 232 295 364 418
#     4  11  21  39  68 102 131 176 237 288 336 421
#     4  11  22  41  70  98 137 181 239 285 355 418
#     4  11  23  45  66 101 144 184 223 303 363 411
#     4  10  23  41  68  98 142 181 232 288 361 416
#     4  12  22  42  73 103 131 187 241 285 339 431
#     4  10  22  42  67 100 131 189 234 286 340 443
#
# _framework density 24.349335
#
# number of rings (size 3 to 8) (size 9 to 14) (size 15 to 20)
#    0.000    1.143    2.857    3.429    2.000    0.000 
#    5.143    1.429    0.000    0.000    0.000    0.000 
#    0.000    0.000    0.000    0.000    0.000    0.000 
#
# Total GULP energy -78186.423417 kJ/mol
# GULP energy per Si atom -5584.744530 kJ/mol
# Density = 2.429391 g / cm^3
# Si number density = 24.349335 Si / 1000 Ang^3
#
#
#
# Elastic Constant Matrix: (Units=GPa)
#
#
# Indices 1 2 3 4 5 6 
#
# 1 183.5536 49.0446 32.4238 -0.0006 5.7477 0.0001
# 2 49.0446 56.5481 4.0700 -0.0002 4.1802 -0.0001
# 3 32.4238 4.0700 56.9059 -0.0016 4.2428 0.0007
# 4 -0.0006 -0.0002 -0.0016 17.9794 0.0007 6.8465
# 5 5.7477 4.1802 4.2428 0.0007 39.3909 -0.0002
# 6 0.0001 -0.0001 0.0007 6.8465 -0.0002 36.5426
#
#
#
# Elastic Compliance Matrix: (Units=1/GPa)
#
#
# Indices 1 2 3 4 5 6 
#
# 1 0.007920 -0.006576 -0.004040 0.000000 -0.000023 0.000000
# 2 -0.006576 0.023359 0.002207 0.000000 -0.001757 0.000000
# 3 -0.004040 0.002207 0.019850 0.000002 -0.001783 -0.000001
# 4 0.000000 0.000000 0.000002 0.059892 -0.000001 -0.011221
# 5 -0.000023 -0.001757 -0.001783 -0.000001 0.025768 0.000000
# 6 0.000000 0.000000 -0.000001 -0.011221 0.000000 0.029468
#
#
# Mechanical properties :
#
#
# Convention : Reuss Voigt Hill
#
# Bulk Modulus (GPa) = 29.14619 52.00935 40.57777
# Shear Modulus (GPa) = 25.70539 32.88052 29.29296
#
# Velocity S-wave (km/s) = 3.25267 3.67872 3.47223
# Velocity P-wave (km/s) = 5.10906 6.28092 5.72505
#
# Compressibility (1/GPa) = 0.03430980
#
# Stress axis : x y z
#
# Youngs Moduli (GPa) = 126.26976 42.81060 50.37776
#
# Poissons Ratio (x) = 0.28153 0.20354
# Poissons Ratio (y) = 0.83038 -0.11120
# Poissons Ratio (z) = 0.51018 -0.09450
#
# Static dielectric constant tensor:
#      x y z
#    x 1.916290 0.000000 0.029090 
#    y 0.000000 1.984070 0.000000 
#    z 0.029090 0.000000 1.986430 
# 
# From -- ./inp_files/16992.got.cif
#   From: 2010.05.17/outbox.cif.g08.bks.cpg/sg9_9_cif.got.tgz:16992.got - 2010.06.03 20:04:27.
