data_PCOD9137486
_publ_section_title
;
Structure prediction by ZEFSAII (Michael W. Deem and Ramdas Pophale) SiO2 
 PCOD9137486
Probable space group: C C
;
_chemical_formula_sum "Si O2"
_cell_formula_units_Z 32
_cell_length_a 10.575625
_cell_length_b 14.396185
_cell_length_c 9.167263
_cell_angle_alpha 90.000000
_cell_angle_beta 76.519830
_cell_angle_gamma 90.000000
_cell_volume 1357.252740
_symmetry_space_group_name_H-M "C C"
_symmetry_group_IT_number 9
_symmetry_cell_setting 'monoclinic'
loop_
_space_group_symop_operation_xyz
x,y,z
x,-y,1/2+z
1/2+x,1/2+y,z
1/2+x,1/2-y,1/2+z
loop_
_atom_site_type_symbol
_atom_site_label
_atom_site_fract_x
_atom_site_fract_y
_atom_site_fract_z
Si Si1 0.553950 0.020546 0.944310
Si Si2 0.254052 0.653849 0.055451
Si Si3 0.070634 0.372428 0.155336
Si Si4 0.830555 0.806633 0.218064
Si Si5 0.772308 0.318959 0.268092
Si Si6 0.447634 0.490757 0.043398
Si Si7 0.816048 0.364905 0.581620
Si Si8 0.123190 0.008951 0.239427
O O1 0.639067 0.096197 0.008842
O O2 0.571129 0.040807 0.769386
O O3 0.404882 0.046946 0.016776
O O4 0.593424 0.919851 0.992739
O O5 0.326591 0.696228 0.893156
O O6 0.349714 0.574947 0.091655
O O7 0.225660 0.731545 0.184378
O O8 0.183531 0.308588 0.190948
O O9 0.927680 0.328635 0.197147
O O10 0.893748 0.898757 0.133861
O O11 0.897935 0.716412 0.134662
O O12 0.762568 0.319677 0.446455
O O13 0.694116 0.411723 0.245879
O O14 0.489394 0.480214 0.864570
O O15 0.584645 0.512867 0.080798
O O16 0.716809 0.403272 0.729425
#
# Coordination Sequence:
#
# PCOD9137486 Si02
#       8
#     4   4   4   4   4   4   4   4
#     4  10  22  42  67  94 127 169 223 273 335 397
#     4  11  26  44  69 102 137 178 229 285 344 409
#     4  10  22  42  67  94 127 169 223 273 335 397
#     4  11  26  44  69 102 135 181 229 283 344 408
#     4  11  26  44  69 102 137 178 229 285 344 409
#     4  12  26  45  71 100 143 187 230 279 348 415
#     4  11  26  44  69 102 135 181 229 283 344 408
#     4  12  26  45  71 100 143 187 230 279 348 415
#
# _framework density 23.577037000000001
#
# number of rings (size 3 to 8) (size 9 to 14) (size 15 to 20)
#    0.000    1.000    5.000    0.000    7.000    3.000 
#    0.000    0.000    0.000    0.000    0.000    0.000 
#    0.000    0.000    0.000    0.000    0.000    0.000 
#
# Total GULP energy -89387.702228 kJ/mol
# GULP energy per Si atom -5586.731389 kJ/mol
# Density = 2.352337 g / cm^3
# Si number density = 23.577037 Si / 1000 Ang^3
#
#
#
# Elastic Constant Matrix: (Units=GPa)
#
#
# Indices 1 2 3 4 5 6 
#
# 1 45.8710 -5.5830 5.9918 0.0000 3.1014 0.0000
# 2 -5.5830 86.7004 44.1062 0.0000 -4.7575 0.0000
# 3 5.9918 44.1062 68.5511 0.0000 -2.2460 0.0000
# 4 0.0000 0.0000 0.0000 33.8232 0.0000 4.9519
# 5 3.1014 -4.7575 -2.2460 0.0000 29.6884 0.0000
# 6 0.0000 0.0000 0.0000 4.9519 0.0000 23.6420
#
#
#
# Elastic Compliance Matrix: (Units=1/GPa)
#
#
# Indices 1 2 3 4 5 6 
#
# 1 0.022956 0.003593 -0.004389 0.000000 -0.002154 0.000000
# 2 0.003593 0.017818 -0.011726 0.000000 0.001593 0.000000
# 3 -0.004389 -0.011726 0.022525 0.000000 0.000283 0.000000
# 4 0.000000 0.000000 0.000000 0.030501 0.000000 -0.006388
# 5 -0.002154 0.001593 0.000283 0.000000 0.034185 0.000000
# 6 0.000000 0.000000 0.000000 -0.006388 0.000000 0.043636
#
#
# Mechanical properties :
#
#
# Convention : Reuss Voigt Hill
#
# Bulk Modulus (GPa) = 26.14003 32.23916 29.18959
# Shear Modulus (GPa) = 23.87582 27.87123 25.87353
#
# Velocity S-wave (km/s) = 3.18570 3.44195 3.31630
# Velocity P-wave (km/s) = 4.96415 5.43136 5.20300
#
# Compressibility (1/GPa) = 0.03825551
#
# Stress axis : x y z
#
# Youngs Moduli (GPa) = 43.56074 56.12312 44.39488
#
# Poissons Ratio (x) = -0.20163 0.19483
# Poissons Ratio (y) = -0.15650 0.52058
# Poissons Ratio (z) = 0.19117 0.65810
#
# Static dielectric constant tensor:
#      x y z
#    x 1.906810 0.000000 -0.016400 
#    y 0.000000 1.852930 0.000000 
#    z -0.016400 0.000000 1.842520 
# 
# From -- ./inp_files/7381.got.cif
#   From: 2010.05.17/outbox.cif.g08.bks.cpg/sg9_4_cif.got.tgz:7381.got - 2010.06.03 20:04:27.
