data_PCOD9137350
_publ_section_title
;
Structure prediction by ZEFSAII (Michael W. Deem and Ramdas Pophale) SiO2 
 PCOD9137350
Probable space group: C C
;
_chemical_formula_sum "Si O2"
_cell_formula_units_Z 32
_cell_length_a 12.162181
_cell_length_b 7.591230
_cell_length_c 14.201832
_cell_angle_alpha 90.000000
_cell_angle_beta 75.038973
_cell_angle_gamma 90.000000
_cell_volume 1266.749695
_symmetry_space_group_name_H-M "C C"
_symmetry_group_IT_number 9
_symmetry_cell_setting 'monoclinic'
loop_
_space_group_symop_operation_xyz
x,y,z
x,-y,1/2+z
1/2+x,1/2+y,z
1/2+x,1/2-y,1/2+z
loop_
_atom_site_type_symbol
_atom_site_label
_atom_site_fract_x
_atom_site_fract_y
_atom_site_fract_z
Si Si1 0.959460 0.355937 0.189800
Si Si2 0.192738 0.749633 0.578723
Si Si3 0.145890 0.808118 0.963114
Si Si4 0.121718 0.406881 0.916329
Si Si5 0.772551 0.367413 0.756854
Si Si6 0.828233 0.967969 0.743958
Si Si7 0.402868 0.545430 0.524282
Si Si8 0.388190 0.170269 0.486137
O O1 0.872459 0.494663 0.252276
O O2 0.931158 0.165288 0.241771
O O3 0.917971 0.359575 0.089301
O O4 0.095841 0.372547 0.153648
O O5 0.130948 0.753818 0.489819
O O6 0.226586 0.871396 0.659846
O O7 0.316734 0.694111 0.511220
O O8 0.145975 0.594685 0.962227
O O9 0.168143 0.874948 0.852147
O O10 0.258198 0.873053 0.992637
O O11 0.024723 0.877866 0.024957
O O12 0.214488 0.389958 0.814688
O O13 0.992313 0.424163 0.910890
O O14 0.828043 0.175117 0.765327
O O15 0.832808 0.975392 0.630046
O O16 0.406220 0.377153 0.457789
#
# Coordination Sequence:
#
# PCOD9137350 Si02
#       8
#     4   4   4   4   4   4   4   4
#     4  10  23  44  68 102 137 181 234 287 356 419
#     4  10  22  41  68  99 141 173 231 289 336 422
#     4  11  24  44  67 104 136 182 238 279 355 427
#     4  10  22  43  69  98 141 178 228 298 349 406
#     4  10  24  43  68 100 139 186 229 287 360 408
#     4   9  22  42  65  99 137 176 234 284 341 420
#     4  10  22  41  66  94 136 181 227 284 346 416
#     4  10  23  42  67 100 131 183 233 282 355 412
#
# _framework density 25.261502
#
# number of rings (size 3 to 8) (size 9 to 14) (size 15 to 20)
#    0.000    2.000    1.250    0.000    8.750    7.000 
#    0.000    7.500    0.000    0.000    0.000    0.000 
#    0.000    0.000    0.000    0.000    0.000    0.000 
#
# Total GULP energy -89166.254552 kJ/mol
# GULP energy per Si atom -5572.890910 kJ/mol
# Density = 2.520401 g / cm^3
# Si number density = 25.261502 Si / 1000 Ang^3
#
#
#
# Elastic Constant Matrix: (Units=GPa)
#
#
# Indices 1 2 3 4 5 6 
#
# 1 181.6071 25.3097 45.3691 0.0000 -27.8335 0.0000
# 2 25.3097 51.1882 18.9043 0.0000 -12.9234 0.0000
# 3 45.3691 18.9043 101.8657 0.0000 -15.3467 0.0000
# 4 0.0000 0.0000 0.0000 12.1449 0.0000 -9.0669
# 5 -27.8335 -12.9234 -15.3467 0.0000 51.6052 0.0000
# 6 0.0000 0.0000 0.0000 -9.0669 0.0000 26.3795
#
#
#
# Elastic Compliance Matrix: (Units=1/GPa)
#
#
# Indices 1 2 3 4 5 6 
#
# 1 0.006712 -0.001854 -0.002272 0.000000 0.002481 0.000000
# 2 -0.001854 0.022432 -0.002766 0.000000 0.003795 0.000000
# 3 -0.002272 -0.002766 0.011571 0.000000 0.001523 0.000000
# 4 0.000000 0.000000 0.000000 0.110760 0.000000 0.038069
# 5 0.002481 0.003795 0.001523 0.000000 0.022119 0.000000
# 6 0.000000 0.000000 0.000000 0.038069 0.000000 0.050993
#
#
# Mechanical properties :
#
#
# Convention : Reuss Voigt Hill
#
# Bulk Modulus (GPa) = 37.12838 57.09188 47.11013
# Shear Modulus (GPa) = 20.21446 34.36445 27.28945
#
# Velocity S-wave (km/s) = 2.83186 3.69229 3.29032
# Velocity P-wave (km/s) = 5.04204 6.38958 5.75538
#
# Compressibility (1/GPa) = 0.02693358
#
# Stress axis : x y z
#
# Youngs Moduli (GPa) = 148.97657 44.57953 86.41975
#
# Poissons Ratio (x) = 0.08263 0.19634
# Poissons Ratio (y) = 0.27615 0.23900
# Poissons Ratio (z) = 0.33846 0.12329
#
# Static dielectric constant tensor:
#      x y z
#    x 2.009780 0.000000 0.009660 
#    y 0.000000 2.201280 0.000000 
#    z 0.009660 0.000000 2.063380 
# 
# From -- ./inp_files/29896.got.cif
#   From: 2010.05.17/outbox.cif.g08.bks.cpg/sg9_15_cif.got.tgz:29896.got - 2010.06.03 20:04:27.
