data_PCOD9137921
_publ_section_title
;
Structure prediction by ZEFSAII (Michael W. Deem and Ramdas Pophale) SiO2 
 PCOD9137921
Probable space group: C C
;
_chemical_formula_sum "Si O2"
_cell_formula_units_Z 28
_cell_length_a 16.225296
_cell_length_b 8.460759
_cell_length_c 20.878583
_cell_angle_alpha 90.000000
_cell_angle_beta 23.812508
_cell_angle_gamma 90.000000
_cell_volume 1157.204624
_symmetry_space_group_name_H-M "C C"
_symmetry_group_IT_number 9
_symmetry_cell_setting 'monoclinic'
loop_
_space_group_symop_operation_xyz
x,y,z
x,-y,1/2+z
1/2+x,1/2+y,z
1/2+x,1/2-y,1/2+z
loop_
_atom_site_type_symbol
_atom_site_label
_atom_site_fract_x
_atom_site_fract_y
_atom_site_fract_z
Si Si1 0.416620 0.635815 0.264340
Si Si2 0.094814 0.595598 0.944494
Si Si3 0.717938 0.976230 0.228520
Si Si4 0.659423 0.571488 0.972971
Si Si5 0.190988 0.865665 0.785831
Si Si6 0.427514 0.456431 0.377451
Si Si7 0.542478 0.140182 0.228334
O O1 0.297346 0.477129 0.329062
O O2 0.278451 0.789574 0.351668
O O3 0.446346 0.608758 0.318219
O O4 0.605782 0.637350 0.082127
O O5 0.066457 0.500978 0.897565
O O6 0.133837 0.773376 0.891083
O O7 0.918305 0.568073 0.120761
O O8 0.630812 0.050367 0.227368
O O9 0.714830 0.787001 0.222578
O O10 0.942009 0.034074 0.093166
O O11 0.820073 0.429521 0.868992
O O12 0.040215 0.992673 0.863122
O O13 0.531801 0.318129 0.262105
O O14 0.202796 0.396167 0.557496
#
# Coordination Sequence:
#
# PCOD9137921 Si02
#       7
#     4   4   4   4   4   4   4
#     4  11  25  46  72 106 144 200 245 310 378 452
#     4   9  23  42  70 104 136 190 244 301 365 450
#     4   9  24  44  74 101 147 192 246 308 377 450
#     4  11  25  48  74 107 151 191 256 312 378 449
#     4  10  22  45  71 102 140 194 244 301 374 446
#     4  12  28  44  76 106 149 201 250 314 385 440
#     4  12  27  47  69 110 151 192 253 322 371 453
#
# _framework density 24.196238000000001
#
# number of rings (size 3 to 8) (size 9 to 14) (size 15 to 20)
#    0.857    0.571    0.000    3.429    8.000    2.286 
#    5.143    0.000    0.000    0.000    0.000    0.000 
#    0.000    0.000    0.000    0.000    0.000    0.000 
#
# Total GULP energy -78147.550498 kJ/mol
# GULP energy per Si atom -5581.967893 kJ/mol
# Density = 2.414117 g / cm^3
# Si number density = 24.196238 Si / 1000 Ang^3
#
#
#
# Elastic Constant Matrix: (Units=GPa)
#
#
# Indices 1 2 3 4 5 6 
#
# 1 105.0039 21.1572 27.6061 -0.0015 -2.8603 0.0002
# 2 21.1572 83.4088 29.5547 -0.0057 -7.6811 0.0006
# 3 27.6061 29.5547 115.0495 -0.0116 0.3691 0.0013
# 4 -0.0015 -0.0057 -0.0116 38.7952 0.0000 2.0630
# 5 -2.8603 -7.6811 0.3691 0.0000 21.6565 0.0007
# 6 0.0002 0.0006 0.0013 2.0630 0.0007 40.3153
#
#
#
# Elastic Compliance Matrix: (Units=1/GPa)
#
#
# Indices 1 2 3 4 5 6 
#
# 1 0.010454 -0.001862 -0.002032 0.000000 0.000755 0.000000
# 2 -0.001862 0.014026 -0.003172 0.000001 0.004783 0.000000
# 3 -0.002032 -0.003172 0.009999 0.000002 -0.001564 0.000000
# 4 0.000000 0.000001 0.000002 0.025847 0.000000 -0.001323
# 5 0.000755 0.004783 -0.001564 0.000000 0.047998 -0.000001
# 6 0.000000 0.000000 0.000000 -0.001323 -0.000001 0.024872
#
#
# Mechanical properties :
#
#
# Convention : Reuss Voigt Hill
#
# Bulk Modulus (GPa) = 49.14812 51.12202 50.13507
# Shear Modulus (GPa) = 32.44444 35.16304 33.80374
#
# Velocity S-wave (km/s) = 3.66579 3.81628 3.74179
# Velocity P-wave (km/s) = 6.18658 6.37123 6.27958
#
# Compressibility (1/GPa) = 0.02034666
#
# Stress axis : x y z
#
# Youngs Moduli (GPa) = 95.66163 71.29780 100.00650
#
# Poissons Ratio (x) = 0.13275 0.20326
# Poissons Ratio (y) = 0.17811 0.31718
# Poissons Ratio (z) = 0.19443 0.22613
#
# Static dielectric constant tensor:
#      x y z
#    x 1.957490 0.000000 0.050890 
#    y 0.000000 1.974040 0.000000 
#    z 0.050890 0.000000 1.981970 
# 
# From -- ./inp_files/35800.got.cif
#   From: 2010.05.17/outbox.cif.g08.bks.cpg/sg9_18_cif.got.tgz:35800.got - 2010.06.03 20:04:27.
