data_PCOD9137778
_publ_section_title
;
Structure prediction by ZEFSAII (Michael W. Deem and Ramdas Pophale) SiO2 
 PCOD9137778
Probable space group: C C
;
_chemical_formula_sum "Si O2"
_cell_formula_units_Z 28
_cell_length_a 12.494970
_cell_length_b 15.982088
_cell_length_c 9.130985
_cell_angle_alpha 90.000000
_cell_angle_beta 36.850456
_cell_angle_gamma 90.000000
_cell_volume 1093.556078
_symmetry_space_group_name_H-M "C C"
_symmetry_group_IT_number 9
_symmetry_cell_setting 'monoclinic'
loop_
_space_group_symop_operation_xyz
x,y,z
x,-y,1/2+z
1/2+x,1/2+y,z
1/2+x,1/2-y,1/2+z
loop_
_atom_site_type_symbol
_atom_site_label
_atom_site_fract_x
_atom_site_fract_y
_atom_site_fract_z
Si Si1 0.661610 0.814918 0.769980
Si Si2 0.853966 0.669926 0.009261
Si Si3 0.021679 0.109107 0.762662
Si Si4 0.927954 0.352755 0.759631
Si Si5 0.964306 0.459825 0.165800
Si Si6 0.041585 0.816071 0.649097
Si Si7 0.056258 0.984420 0.497977
O O1 0.726095 0.640538 0.542591
O O2 0.550115 0.805938 0.741775
O O3 0.577364 0.898134 0.939207
O O4 0.640140 0.737942 0.909916
O O5 0.953479 0.589713 0.831688
O O6 0.902919 0.751656 0.864296
O O7 0.899634 0.682245 0.127500
O O8 0.655693 0.658121 0.166455
O O9 0.029308 0.026816 0.856890
O O10 0.860313 0.163948 0.998994
O O11 0.991756 0.070991 0.635022
O O12 0.014611 0.444895 0.642066
O O13 0.765615 0.470344 0.311515
O O14 0.966671 0.901135 0.663755
#
# Coordination Sequence:
#
# PCOD9137778 Si02
#       7
#     4   4   4   4   4   4   4
#     4  11  23  44  70 104 137 187 237 290 355 431
#     4  10  22  44  68  97 137 184 227 288 353 424
#     4  11  25  42  70 104 136 182 232 299 345 421
#     4  11  23  44  67 103 138 178 238 293 345 416
#     4   9  20  40  73  93 137 182 225 282 358 414
#     4  10  23  46  69  95 142 192 225 284 371 427
#     4  10  22  44  69 100 139 181 234 284 361 419
#
# _framework density 25.604538999999999
#
# number of rings (size 3 to 8) (size 9 to 14) (size 15 to 20)
#    0.000    1.714    1.429    1.714   12.000    0.000 
#    7.714    0.000    0.000    0.000    0.000    0.000 
#    0.000    0.000    0.000    0.000    0.000    0.000 
#
# Total GULP energy -78321.594116 kJ/mol
# GULP energy per Si atom -5594.399580 kJ/mol
# Density = 2.554626 g / cm^3
# Si number density = 25.604539 Si / 1000 Ang^3
#
#
#
# Elastic Constant Matrix: (Units=GPa)
#
#
# Indices 1 2 3 4 5 6 
#
# 1 136.8025 6.0690 42.4417 -0.0031 34.1128 0.0032
# 2 6.0690 76.1212 0.7133 -0.0002 3.7371 -0.0003
# 3 42.4417 0.7133 81.0656 -0.0005 22.4621 0.0006
# 4 -0.0031 -0.0002 -0.0005 26.1072 0.0019 3.7960
# 5 34.1128 3.7371 22.4621 0.0019 39.7596 -0.0025
# 6 0.0032 -0.0003 0.0006 3.7960 -0.0025 23.2803
#
#
#
# Elastic Compliance Matrix: (Units=1/GPa)
#
#
# Indices 1 2 3 4 5 6 
#
# 1 0.010047 -0.000443 -0.003413 0.000002 -0.006650 -0.000002
# 2 -0.000443 0.013222 0.000420 0.000000 -0.001101 0.000000
# 3 -0.003413 0.000420 0.015790 0.000000 -0.006032 -0.000001
# 4 0.000002 0.000000 0.000000 0.039234 -0.000004 -0.006397
# 5 -0.006650 -0.001101 -0.006032 -0.000004 0.034367 0.000005
# 6 -0.000002 0.000000 -0.000001 -0.006397 0.000005 0.043998
#
#
# Mechanical properties :
#
#
# Convention : Reuss Voigt Hill
#
# Bulk Modulus (GPa) = 31.06754 43.60412 37.33583
# Shear Modulus (GPa) = 28.69290 34.14710 31.42000
#
# Velocity S-wave (km/s) = 3.35119 3.65586 3.50684
# Velocity P-wave (km/s) = 5.20903 5.90654 5.56871
#
# Compressibility (1/GPa) = 0.03218794
#
# Stress axis : x y z
#
# Youngs Moduli (GPa) = 99.53635 75.62969 63.32981
#
# Poissons Ratio (x) = 0.03347 0.21617
# Poissons Ratio (y) = 0.04405 -0.02662
# Poissons Ratio (z) = 0.33976 -0.03179
#
# Static dielectric constant tensor:
#      x y z
#    x 2.013320 0.000000 -0.029820 
#    y 0.000000 2.070200 0.000000 
#    z -0.029820 0.000000 2.028360 
# 
# From -- ./inp_files/9645.got.cif
#   From: 2010.05.17/outbox.cif.g08.bks.cpg/sg9_5_cif.got.tgz:9645.got - 2010.06.03 20:04:27.
