data_PCOD9137946
_publ_section_title
;
Structure prediction by ZEFSAII (Michael W. Deem and Ramdas Pophale) SiO2 
 PCOD9137946
Probable space group: C C
;
_chemical_formula_sum "Si O2"
_cell_formula_units_Z 32
_cell_length_a 16.803259
_cell_length_b 10.001322
_cell_length_c 9.546117
_cell_angle_alpha 90.000000
_cell_angle_beta 51.598194
_cell_angle_gamma 90.000000
_cell_volume 1257.225135
_symmetry_space_group_name_H-M "C C"
_symmetry_group_IT_number 9
_symmetry_cell_setting 'monoclinic'
loop_
_space_group_symop_operation_xyz
x,y,z
x,-y,1/2+z
1/2+x,1/2+y,z
1/2+x,1/2-y,1/2+z
loop_
_atom_site_type_symbol
_atom_site_label
_atom_site_fract_x
_atom_site_fract_y
_atom_site_fract_z
Si Si1 0.734810 0.783117 0.596940
Si Si2 0.823156 0.556793 0.138366
Si Si3 0.791727 0.072805 0.477051
Si Si4 0.927193 0.726021 0.237647
Si Si5 0.953900 0.563842 0.718232
Si Si6 0.126248 0.027518 0.688245
Si Si7 0.434384 0.513736 0.579099
Si Si8 0.141461 0.239806 0.005815
O O1 0.855613 0.752218 0.449324
O O2 0.668848 0.669776 0.591436
O O3 0.695129 0.767159 0.798508
O O4 0.728662 0.933269 0.545326
O O5 0.840858 0.682184 0.219094
O O6 0.714033 0.523061 0.198864
O O7 0.870889 0.440403 0.184863
O O8 0.895266 0.578954 0.927082
O O9 0.039027 0.326391 0.111839
O O10 0.854029 0.065186 0.551857
O O11 0.872078 0.071174 0.260953
O O12 0.992720 0.591552 0.176727
O O13 0.974985 0.859060 0.123829
O O14 0.715547 0.805645 0.040435
O O15 0.118332 0.910868 0.581288
O O16 0.024426 0.047111 0.888909
#
# Coordination Sequence:
#
# PCOD9137946 Si02
#       8
#     4   4   4   4   4   4   4   4
#     4  11  26  49  73 118 149 209 256 328 387 474
#     4  10  22  45  74 110 154 201 261 322 384 468
#     4  11  26  54  75 110 160 208 261 327 396 475
#     4   9  22  46  74 106 159 196 259 323 392 461
#     4  10  24  45  76 116 148 203 266 322 389 471
#     4  12  27  48  76 115 155 206 265 322 395 467
#     4  11  25  48  75 113 154 209 258 328 399 464
#     4  12  28  49  83 114 159 208 268 326 398 478
#
# _framework density 25.45288
#
# number of rings (size 3 to 8) (size 9 to 14) (size 15 to 20)
#    0.750    0.500    2.500    1.500    7.000    0.000 
#   11.250    0.000    0.000    0.000    0.000    0.000 
#    0.000    0.000    0.000    0.000    0.000    0.000 
#
# Total GULP energy -89577.960359 kJ/mol
# GULP energy per Si atom -5598.622522 kJ/mol
# Density = 2.539495 g / cm^3
# Si number density = 25.452880 Si / 1000 Ang^3
#
#
#
# Elastic Constant Matrix: (Units=GPa)
#
#
# Indices 1 2 3 4 5 6 
#
# 1 90.7365 23.5821 35.7561 0.0000 -2.8086 0.0000
# 2 23.5821 152.3721 48.4052 0.0000 -24.4629 0.0000
# 3 35.7561 48.4052 153.3502 0.0000 6.8114 0.0000
# 4 0.0000 0.0000 0.0000 31.9426 0.0000 -3.1083
# 5 -2.8086 -24.4629 6.8114 0.0000 27.8629 0.0000
# 6 0.0000 0.0000 0.0000 -3.1083 0.0000 51.4849
#
#
#
# Elastic Compliance Matrix: (Units=1/GPa)
#
#
# Indices 1 2 3 4 5 6 
#
# 1 0.012328 -0.000891 -0.002642 0.000000 0.001106 0.000000
# 2 -0.000891 0.009041 -0.003028 0.000000 0.008588 0.000000
# 3 -0.002642 -0.003028 0.008313 0.000000 -0.004957 0.000000
# 4 0.000000 0.000000 0.000000 0.031491 0.000000 0.001901
# 5 0.001106 0.008588 -0.004957 0.000000 0.044754 0.000000
# 6 0.000000 0.000000 0.000000 0.001901 0.000000 0.019538
#
#
# Mechanical properties :
#
#
# Convention : Reuss Voigt Hill
#
# Bulk Modulus (GPa) = 60.38480 67.99396 64.18938
# Shear Modulus (GPa) = 34.69633 41.50578 38.10105
#
# Velocity S-wave (km/s) = 3.69610 4.04256 3.87321
# Velocity P-wave (km/s) = 6.48001 6.96860 6.72874
#
# Compressibility (1/GPa) = 0.01656046
#
# Stress axis : x y z
#
# Youngs Moduli (GPa) = 81.11626 110.60178 120.29338
#
# Poissons Ratio (x) = 0.09853 0.31786
# Poissons Ratio (y) = 0.07226 0.36421
# Poissons Ratio (z) = 0.21434 0.33487
#
# Static dielectric constant tensor:
#      x y z
#    x 2.029150 0.000000 0.034910 
#    y 0.000000 2.051550 0.000000 
#    z 0.034910 0.000000 1.950700 
# 
# From -- ./inp_files/21379.got.cif
#   From: 2010.05.17/outbox.cif.g08.bks.cpg/sg9_11_cif.got.tgz:21379.got - 2010.06.03 20:04:27.
