data_PCOD9137653
_publ_section_title
;
Structure prediction by ZEFSAII (Michael W. Deem and Ramdas Pophale) SiO2 
 PCOD9137653
Probable space group: C C
;
_chemical_formula_sum "Si O2"
_cell_formula_units_Z 24
_cell_length_a 11.728516
_cell_length_b 4.904679
_cell_length_c 16.156620
_cell_angle_alpha 90.000000
_cell_angle_beta 116.339901
_cell_angle_gamma 90.000000
_cell_volume 832.910383
_symmetry_space_group_name_H-M "C C"
_symmetry_group_IT_number 9
_symmetry_cell_setting 'monoclinic'
loop_
_space_group_symop_operation_xyz
x,y,z
x,-y,1/2+z
1/2+x,1/2+y,z
1/2+x,1/2-y,1/2+z
loop_
_atom_site_type_symbol
_atom_site_label
_atom_site_fract_x
_atom_site_fract_y
_atom_site_fract_z
Si Si1 0.090070 0.095068 0.427710
Si Si2 0.320324 0.140630 0.212799
Si Si3 0.106295 0.140629 0.768222
Si Si4 0.336549 0.904932 0.053311
Si Si5 0.808815 0.112409 0.875977
Si Si6 0.117804 0.387590 0.605044
O O1 0.213309 0.908381 0.490510
O O2 0.316854 0.318176 0.475451
O O3 0.105135 0.113535 0.333147
O O4 0.949152 0.999975 0.399916
O O5 0.463310 0.250001 0.240511
O O6 0.306466 0.132636 0.308480
O O7 0.221086 0.379520 0.156999
O O8 0.321485 0.886467 0.147874
O O9 0.205533 0.379520 0.824022
O O10 0.120153 0.132636 0.672541
O O11 0.109766 0.681825 0.005570
O O12 0.477467 0.000027 0.081105
#
# Coordination Sequence:
#
# PCOD9137653 Si02
#       6
#     4   4   4   4   4   4
#     4  11  23  39  68 101 134 175 225 280 337 399
#     4   9  21  44  69  96 133 180 227 275 337 403
#     4   9  21  44  69  96 133 180 227 275 337 403
#     4  11  23  39  68 101 134 175 225 280 337 399
#     4  10  22  43  68  98 136 177 227 279 333 404
#     4  10  22  43  68  98 136 177 227 279 333 404
#
# _framework density 28.814623000000001
#
# number of rings (size 3 to 8) (size 9 to 14) (size 15 to 20)
#    0.000    2.000    0.000    2.000    0.000    8.000 
#    0.000   16.667    0.000    2.000    0.000    0.000 
#    0.000    0.000    0.000    0.000    0.000    0.000 
#
# Total GULP energy -66974.437312 kJ/mol
# GULP energy per Si atom -5581.203109 kJ/mol
# Density = 2.874904 g / cm^3
# Si number density = 28.814623 Si / 1000 Ang^3
#
#
#
# Elastic Constant Matrix: (Units=GPa)
#
#
# Indices 1 2 3 4 5 6 
#
# 1 274.5595 47.9457 115.3321 0.0000 -65.6475 0.0000
# 2 47.9457 145.8906 72.3322 0.0000 -12.9560 0.0000
# 3 115.3321 72.3322 123.4582 0.0000 -12.1971 0.0000
# 4 0.0000 0.0000 0.0000 63.7548 0.0000 -20.0649
# 5 -65.6475 -12.9560 -12.1971 0.0000 98.2895 0.0000
# 6 0.0000 0.0000 0.0000 -20.0649 0.0000 5.3143
#
#
#
# Elastic Compliance Matrix: (Units=1/GPa)
#
#
# Indices 1 2 3 4 5 6 
#
# 1 0.007609 0.001687 -0.007666 0.000000 0.004353 0.000000
# 2 0.001687 0.010067 -0.007321 0.000000 0.001545 0.000000
# 3 -0.007666 -0.007321 0.019185 0.000000 -0.003705 0.000000
# 4 0.000000 0.000000 0.000000 -0.083309 0.000000 -0.314548
# 5 0.004353 0.001545 -0.003705 0.000000 0.012825 0.000000
# 6 0.000000 0.000000 0.000000 -0.314548 0.000000 -0.999456
#
#
# Mechanical properties :
#
#
# Convention : Reuss Voigt Hill
#
# Bulk Modulus (GPa) = 97.47060 112.79204 105.13132
# Shear Modulus (GPa) = -4.98476 54.02493 24.52009
#
# Velocity S-wave (km/s) = -1.31670 4.33472 2.92029
# Velocity P-wave (km/s) = 5.62038 8.01761 6.92354
#
# Compressibility (1/GPa) = 0.01025950
#
# Stress axis : x y z
#
# Youngs Moduli (GPa) = 131.42971 99.33208 52.12418
#
# Poissons Ratio (x) = -0.16756 0.39959
# Poissons Ratio (y) = -0.22171 0.38162
# Poissons Ratio (z) = 1.00755 0.72725
#
# Static dielectric constant tensor:
#      x y z
#    x 2.470300 0.000000 0.164720 
#    y 0.000000 2.367240 0.000000 
#    z 0.164720 0.000000 2.355510 
# 
# From -- ./inp_files/32998.got.cif
#   From: 2010.05.17/outbox.cif.g08.bks.cpg/sg9_17_cif.got.tgz:32998.got - 2010.06.03 20:04:27.
