data_PCOD9137869
_publ_section_title
;
Structure prediction by ZEFSAII (Michael W. Deem and Ramdas Pophale) SiO2 
 PCOD9137869
Probable space group: C C
;
_chemical_formula_sum "Si O2"
_cell_formula_units_Z 28
_cell_length_a 8.914587
_cell_length_b 11.682877
_cell_length_c 20.629944
_cell_angle_alpha 90.000000
_cell_angle_beta 149.910576
_cell_angle_gamma 90.000000
_cell_volume 1077.186733
_symmetry_space_group_name_H-M "C C"
_symmetry_group_IT_number 9
_symmetry_cell_setting 'monoclinic'
loop_
_space_group_symop_operation_xyz
x,y,z
x,-y,1/2+z
1/2+x,1/2+y,z
1/2+x,1/2-y,1/2+z
loop_
_atom_site_type_symbol
_atom_site_label
_atom_site_fract_x
_atom_site_fract_y
_atom_site_fract_z
Si Si1 0.092200 0.053544 0.894320
Si Si2 0.923103 0.884653 0.062971
Si Si3 0.692977 0.601803 0.156618
Si Si4 0.230695 0.733087 0.934163
Si Si5 0.865457 0.840373 0.895949
Si Si6 0.203057 0.567867 0.620972
Si Si7 0.297349 0.797025 0.820705
O O1 0.914886 0.037939 0.760391
O O2 0.982176 0.179237 0.876554
O O3 0.985974 0.956866 0.906424
O O4 0.448446 0.031699 0.018017
O O5 0.892253 0.886851 0.130295
O O6 0.965913 0.824822 0.007909
O O7 0.556905 0.893778 0.919516
O O8 0.210416 0.967107 0.167228
O O9 0.591836 0.657579 0.186716
O O10 0.008405 0.653880 0.258052
O O11 0.418768 0.617584 0.004642
O O12 0.138975 0.776578 0.829536
O O13 0.977060 0.739565 0.891735
O O14 0.488321 0.822727 0.053618
#
# Coordination Sequence:
#
# PCOD9137869 Si02
#       7
#     4   4   4   4   4   4   4
#     4  11  23  45  73 103 144 190 238 297 359 440
#     4  10  24  42  66  97 140 183 235 294 353 422
#     4  11  23  43  70  97 141 180 237 299 352 435
#     4  10  22  45  66  99 137 183 239 289 359 432
#     4  10  25  41  69 102 137 187 242 290 363 420
#     4  10  24  42  72 102 141 188 236 295 362 429
#     4  10  23  44  68  98 138 185 233 292 360 428
#
# _framework density 25.993635999999999
#
# number of rings (size 3 to 8) (size 9 to 14) (size 15 to 20)
#    0.000    1.714    1.429    0.857   14.000    2.286 
#    0.000    7.143    0.000    0.000    0.000    0.000 
#    0.000    0.000    0.000    0.000    0.000    0.000 
#
# Total GULP energy -77937.934816 kJ/mol
# GULP energy per Si atom -5566.995344 kJ/mol
# Density = 2.593447 g / cm^3
# Si number density = 25.993636 Si / 1000 Ang^3
#
#
#
# Elastic Constant Matrix: (Units=GPa)
#
#
# Indices 1 2 3 4 5 6 
#
# 1 166.6195 18.0679 68.6287 0.0007 -21.8614 0.0001
# 2 18.0679 39.6808 33.5256 -0.0001 -4.9329 -0.0001
# 3 68.6287 33.5256 106.7423 0.0014 -4.9388 0.0004
# 4 0.0007 -0.0001 0.0014 36.1151 0.0009 11.6254
# 5 -21.8614 -4.9329 -4.9388 0.0009 40.5767 0.0000
# 6 0.0001 -0.0001 0.0004 11.6254 0.0000 18.4407
#
#
#
# Elastic Compliance Matrix: (Units=1/GPa)
#
#
# Indices 1 2 3 4 5 6 
#
# 1 0.008853 0.001550 -0.005983 0.000000 0.004230 0.000000
# 2 0.001550 0.034912 -0.011793 0.000000 0.003644 0.000000
# 3 -0.005983 -0.011793 0.016798 -0.000001 -0.002612 0.000000
# 4 0.000000 0.000000 -0.000001 0.034739 -0.000001 -0.021900
# 5 0.004230 0.003644 -0.002612 -0.000001 0.027049 0.000001
# 6 0.000000 0.000000 0.000000 -0.021900 0.000001 0.068034
#
#
# Mechanical properties :
#
#
# Convention : Reuss Voigt Hill
#
# Bulk Modulus (GPa) = 35.57355 61.49853 48.53604
# Shear Modulus (GPa) = 21.53246 31.88118 26.70682
#
# Velocity S-wave (km/s) = 2.88127 3.50594 3.20884
# Velocity P-wave (km/s) = 4.97837 6.33240 5.69576
#
# Compressibility (1/GPa) = 0.02811077
#
# Stress axis : x y z
#
# Youngs Moduli (GPa) = 112.95705 28.64334 59.53078
#
# Poissons Ratio (x) = -0.04439 0.35617
# Poissons Ratio (y) = -0.17505 0.70204
# Poissons Ratio (z) = 0.67581 0.33779
#
# Static dielectric constant tensor:
#      x y z
#    x 2.089190 0.000000 -0.065370 
#    y 0.000000 2.256370 0.000000 
#    z -0.065370 0.000000 2.071090 
# 
# From -- ./inp_files/23422.got.cif
#   From: 2010.05.17/outbox.cif.g08.bks.cpg/sg9_12_cif.got.tgz:23422.got - 2010.06.03 20:04:27.
