data_PCOD9137345
_publ_section_title
;
Structure prediction by ZEFSAII (Michael W. Deem and Ramdas Pophale) SiO2 
 PCOD9137345
Probable space group: C C
;
_chemical_formula_sum "Si O2"
_cell_formula_units_Z 28
_cell_length_a 5.198653
_cell_length_b 19.999556
_cell_length_c 11.113170
_cell_angle_alpha 90.000000
_cell_angle_beta 81.499352
_cell_angle_gamma 90.000000
_cell_volume 1142.751146
_symmetry_space_group_name_H-M "C C"
_symmetry_group_IT_number 9
_symmetry_cell_setting 'monoclinic'
loop_
_space_group_symop_operation_xyz
x,y,z
x,-y,1/2+z
1/2+x,1/2+y,z
1/2+x,1/2-y,1/2+z
loop_
_atom_site_type_symbol
_atom_site_label
_atom_site_fract_x
_atom_site_fract_y
_atom_site_fract_z
Si Si1 0.219720 0.108487 0.897060
Si Si2 0.318096 0.527570 0.607909
Si Si3 0.883144 0.472179 0.957080
Si Si4 0.563719 0.166353 0.695754
Si Si5 0.453343 0.609542 0.174208
Si Si6 0.539832 0.291570 0.242331
Si Si7 0.933218 0.345731 0.798129
O O1 0.454600 0.157353 0.840606
O O2 0.016203 0.137475 0.814154
O O3 0.306201 0.032107 0.871780
O O4 0.106734 0.112440 0.037586
O O5 0.608349 0.543717 0.541370
O O6 0.158349 0.593985 0.649842
O O7 0.375725 0.468685 0.698809
O O8 0.117741 0.498108 0.521679
O O9 0.974780 0.403249 0.892923
O O10 0.311200 0.199636 0.656203
O O11 0.805252 0.214282 0.666944
O O12 0.651689 0.638687 0.259638
O O13 0.174882 0.645193 0.189287
O O14 0.489822 0.229909 0.334373
#
# Coordination Sequence:
#
# PCOD9137345 Si02
#       7
#     4   4   4   4   4   4   4
#     4   9  24  40  69  92 128 172 226 263 340 401
#     4  11  23  42  67 106 128 176 230 278 344 398
#     4  11  24  40  69  97 139 170 228 289 336 392
#     4  10  22  41  66  90 132 172 223 277 320 412
#     4  11  24  40  71  95 134 171 228 278 344 398
#     4  10  24  42  64  90 136 172 230 258 344 407
#     4  12  25  45  62 102 137 177 219 289 334 400
#
# _framework density 24.502269999999999
#
# number of rings (size 3 to 8) (size 9 to 14) (size 15 to 20)
#    0.857    0.571    0.000    5.143    8.000    0.000 
#    7.714    0.000    0.000    0.000    0.000    0.000 
#    0.000    0.000    0.000    0.000    0.000    0.000 
#
# Total GULP energy -78012.410225 kJ/mol
# GULP energy per Si atom -5572.315016 kJ/mol
# Density = 2.444650 g / cm^3
# Si number density = 24.502270 Si / 1000 Ang^3
#
#
#
# Elastic Constant Matrix: (Units=GPa)
#
#
# Indices 1 2 3 4 5 6 
#
# 1 167.6420 22.4536 15.3465 0.0000 -19.0610 0.0000
# 2 22.4536 117.8019 2.8967 0.0000 0.5731 0.0000
# 3 15.3465 2.8967 26.9325 0.0000 -8.4269 0.0000
# 4 0.0000 0.0000 0.0000 16.0287 0.0000 -7.9503
# 5 -19.0610 0.5731 -8.4269 0.0000 32.5505 0.0000
# 6 0.0000 0.0000 0.0000 -7.9503 0.0000 19.4031
#
#
#
# Elastic Compliance Matrix: (Units=1/GPa)
#
#
# Indices 1 2 3 4 5 6 
#
# 1 0.006749 -0.001236 -0.002687 0.000000 0.003278 0.000000
# 2 -0.001236 0.008743 -0.000556 0.000000 -0.001022 0.000000
# 3 -0.002687 -0.000556 0.041601 0.000000 0.009206 0.000000
# 4 0.000000 0.000000 0.000000 0.078302 0.000000 0.032084
# 5 0.003278 -0.001022 0.009206 0.000000 0.035043 0.000000
# 6 0.000000 0.000000 0.000000 0.032084 0.000000 0.064685
#
#
# Mechanical properties :
#
#
# Convention : Reuss Voigt Hill
#
# Bulk Modulus (GPa) = 20.77457 43.75222 32.26340
# Shear Modulus (GPa) = 19.22142 31.70844 25.46493
#
# Velocity S-wave (km/s) = 2.80389 3.60127 3.22730
# Velocity P-wave (km/s) = 4.35654 5.93189 5.20417
#
# Compressibility (1/GPa) = 0.04813577
#
# Stress axis : x y z
#
# Youngs Moduli (GPa) = 148.16051 114.37577 24.03766
#
# Poissons Ratio (x) = 0.14141 0.06459
# Poissons Ratio (y) = 0.18318 0.01335
# Poissons Ratio (z) = 0.39813 0.06354
#
# Static dielectric constant tensor:
#      x y z
#    x 2.077920 0.000000 0.043740 
#    y 0.000000 2.002440 0.000000 
#    z 0.043740 0.000000 1.985900 
# 
# From -- ./inp_files/13299.got.cif
#   From: 2010.05.17/outbox.cif.g08.bks.cpg/sg9_7_cif.got.tgz:13299.got - 2010.06.03 20:04:27.
