data_PCOD9137546
_publ_section_title
;
Structure prediction by ZEFSAII (Michael W. Deem and Ramdas Pophale) SiO2 
 PCOD9137546
Probable space group: C C
;
_chemical_formula_sum "Si O2"
_cell_formula_units_Z 32
_cell_length_a 8.505174
_cell_length_b 12.060946
_cell_length_c 12.538584
_cell_angle_alpha 90.000000
_cell_angle_beta 101.784708
_cell_angle_gamma 90.000000
_cell_volume 1259.102623
_symmetry_space_group_name_H-M "C C"
_symmetry_group_IT_number 9
_symmetry_cell_setting 'monoclinic'
loop_
_space_group_symop_operation_xyz
x,y,z
x,-y,1/2+z
1/2+x,1/2+y,z
1/2+x,1/2-y,1/2+z
loop_
_atom_site_type_symbol
_atom_site_label
_atom_site_fract_x
_atom_site_fract_y
_atom_site_fract_z
Si Si1 0.728140 0.042084 0.358090
Si Si2 0.507755 0.704692 0.326466
Si Si3 0.139182 0.715898 0.503326
Si Si4 0.993813 0.421677 0.644927
Si Si5 0.824553 0.806236 0.425315
Si Si6 0.666394 0.468512 0.722089
Si Si7 0.348012 0.100310 0.910391
Si Si8 0.432732 0.323648 0.193019
O O1 0.616298 0.121411 0.411852
O O2 0.631154 0.019661 0.234683
O O3 0.886817 0.114042 0.356864
O O4 0.779317 0.934262 0.429903
O O5 0.667208 0.732300 0.415139
O O6 0.573831 0.646497 0.229231
O O7 0.417730 0.823120 0.323677
O O8 0.227751 0.818409 0.456899
O O9 0.266404 0.671987 0.605707
O O10 0.966686 0.757747 0.514717
O O11 0.816379 0.453618 0.664338
O O12 0.977371 0.436112 0.516237
O O13 0.018692 0.289835 0.668051
O O14 0.889009 0.808137 0.311233
O O15 0.750160 0.501498 0.845478
O O16 0.542603 0.569221 0.685131
#
# Coordination Sequence:
#
# PCOD9137546 Si02
#       8
#     4   4   4   4   4   4   4   4
#     4  11  22  44  67  96 142 183 232 299 354 429
#     4  11  23  41  68  95 136 186 230 289 360 423
#     4  10  22  42  70  95 139 184 231 297 367 421
#     4  11  24  44  72 104 146 191 240 302 368 433
#     4  12  22  45  67  98 139 182 234 296 361 429
#     4  12  22  45  74  97 141 193 237 292 364 438
#     4  10  23  43  69 102 140 186 232 298 363 429
#     4  11  22  42  71 101 137 185 240 299 365 432
#
# _framework density 25.414925
#
# number of rings (size 3 to 8) (size 9 to 14) (size 15 to 20)
#    0.000    1.000    5.000    1.500    0.000    5.000 
#    9.000    0.000    0.000    0.000    0.000    0.000 
#    0.000    0.000    0.000    0.000    0.000    0.000 
#
# Total GULP energy -89569.345879 kJ/mol
# GULP energy per Si atom -5598.084117 kJ/mol
# Density = 2.535708 g / cm^3
# Si number density = 25.414925 Si / 1000 Ang^3
#
#
#
# Elastic Constant Matrix: (Units=GPa)
#
#
# Indices 1 2 3 4 5 6 
#
# 1 142.4036 60.0299 30.5891 0.0000 25.0113 0.0000
# 2 60.0299 100.0479 40.4575 0.0000 10.5685 0.0000
# 3 30.5891 40.4575 102.8563 0.0000 23.8407 0.0000
# 4 0.0000 0.0000 0.0000 30.1643 0.0000 -2.3717
# 5 25.0113 10.5685 23.8407 0.0000 36.9637 0.0000
# 6 0.0000 0.0000 0.0000 -2.3717 0.0000 45.9353
#
#
#
# Elastic Compliance Matrix: (Units=1/GPa)
#
#
# Indices 1 2 3 4 5 6 
#
# 1 0.010367 -0.005834 0.000530 0.000000 -0.005689 0.000000
# 2 -0.005834 0.015175 -0.004872 0.000000 0.002751 0.000000
# 3 0.000530 -0.004872 0.013217 0.000000 -0.007490 0.000000
# 4 0.000000 0.000000 0.000000 0.033287 0.000000 0.001719
# 5 -0.005689 0.002751 -0.007490 0.000000 0.034947 0.000000
# 6 0.000000 0.000000 0.000000 0.001719 0.000000 0.021859
#
#
# Mechanical properties :
#
#
# Convention : Reuss Voigt Hill
#
# Bulk Modulus (GPa) = 54.32274 67.49564 60.90919
# Shear Modulus (GPa) = 32.18797 36.89474 34.54136
#
# Velocity S-wave (km/s) = 3.56265 3.81425 3.69059
# Velocity P-wave (km/s) = 6.19226 6.78330 6.49450
#
# Compressibility (1/GPa) = 0.01840850
#
# Stress axis : x y z
#
# Youngs Moduli (GPa) = 96.46304 65.89864 75.66011
#
# Poissons Ratio (x) = 0.38442 -0.04011
# Poissons Ratio (y) = 0.56272 0.36858
# Poissons Ratio (z) = -0.05113 0.32103
#
# Static dielectric constant tensor:
#      x y z
#    x 2.016940 0.000000 -0.014090 
#    y 0.000000 1.978310 0.000000 
#    z -0.014090 0.000000 2.003290 
# 
# From -- ./inp_files/22691.got.cif
#   From: 2010.05.17/outbox.cif.g08.bks.cpg/sg9_12_cif.got.tgz:22691.got - 2010.06.03 20:04:27.
