data_PCOD9137452
_publ_section_title
;
Structure prediction by ZEFSAII (Michael W. Deem and Ramdas Pophale) SiO2 
 PCOD9137452
Probable space group: C C
;
_chemical_formula_sum "Si O2"
_cell_formula_units_Z 28
_cell_length_a 14.326844
_cell_length_b 8.695802
_cell_length_c 10.253998
_cell_angle_alpha 90.000000
_cell_angle_beta 68.681355
_cell_angle_gamma 90.000000
_cell_volume 1190.063901
_symmetry_space_group_name_H-M "C C"
_symmetry_group_IT_number 9
_symmetry_cell_setting 'monoclinic'
loop_
_space_group_symop_operation_xyz
x,y,z
x,-y,1/2+z
1/2+x,1/2+y,z
1/2+x,1/2-y,1/2+z
loop_
_atom_site_type_symbol
_atom_site_label
_atom_site_fract_x
_atom_site_fract_y
_atom_site_fract_z
Si Si1 0.976280 0.709651 0.621670
Si Si2 0.295039 0.388849 0.611105
Si Si3 0.007460 0.621553 0.095622
Si Si4 0.155138 0.092195 0.995936
Si Si5 0.083531 0.728871 0.305965
Si Si6 0.311888 0.747473 0.588062
Si Si7 0.209218 0.246385 0.414925
O O1 0.869891 0.790296 0.662328
O O2 0.986154 0.541774 0.677776
O O3 0.059039 0.835895 0.620122
O O4 0.013415 0.665347 0.455984
O O5 0.181137 0.372126 0.720548
O O6 0.326619 0.564771 0.582748
O O7 0.291827 0.320037 0.467279
O O8 0.916798 0.667045 0.049448
O O9 0.018842 0.742068 0.209259
O O10 0.113446 0.640797 0.968792
O O11 0.248166 0.192823 0.998428
O O12 0.178627 0.914609 0.996898
O O13 0.128457 0.122652 0.857194
O O14 0.249297 0.782430 0.751080
#
# Coordination Sequence:
#
# PCOD9137452 Si02
#       7
#     4   4   4   4   4   4   4
#     4  10  22  42  65  99 130 174 218 272 329 394
#     4  11  23  44  68  96 137 175 224 273 331 387
#     4  11  23  42  68  97 134 176 225 266 336 393
#     4  10  24  44  66  97 135 167 226 269 338 384
#     4   9  23  43  65  91 137 170 219 276 321 392
#     4  12  26  43  68 102 133 177 224 271 332 399
#     4  11  25  44  70  96 136 175 220 279 329 395
#
# _framework density 23.528148000000002
#
# number of rings (size 3 to 8) (size 9 to 14) (size 15 to 20)
#    0.857    0.571    0.000    5.143    8.000    0.000 
#    2.571    0.000    0.000    0.000    0.000    0.000 
#    0.000    0.000    0.000    0.000    0.000    0.000 
#
# Total GULP energy -78182.819949 kJ/mol
# GULP energy per Si atom -5584.487139 kJ/mol
# Density = 2.347460 g / cm^3
# Si number density = 23.528148 Si / 1000 Ang^3
#
#
#
# Elastic Constant Matrix: (Units=GPa)
#
#
# Indices 1 2 3 4 5 6 
#
# 1 124.7923 22.0052 -7.1084 0.0000 -3.2976 0.0000
# 2 22.0052 119.9769 -21.6590 0.0000 -16.7924 0.0000
# 3 -7.1084 -21.6590 33.1224 0.0000 -8.3696 0.0000
# 4 0.0000 0.0000 0.0000 23.4735 0.0000 0.9785
# 5 -3.2976 -16.7924 -8.3696 0.0000 13.9253 0.0000
# 6 0.0000 0.0000 0.0000 0.9785 0.0000 30.3095
#
#
#
# Elastic Compliance Matrix: (Units=1/GPa)
#
#
# Indices 1 2 3 4 5 6 
#
# 1 0.008324 -0.001011 0.001551 0.000000 0.001684 0.000000
# 2 -0.001011 0.015787 0.017517 0.000000 0.029326 0.000000
# 3 0.001551 0.017517 0.055898 0.000000 0.055087 0.000000
# 4 0.000000 0.000000 0.000000 0.042659 0.000000 -0.001377
# 5 0.001684 0.029326 0.055087 0.000000 0.140683 0.000000
# 6 0.000000 0.000000 0.000000 -0.001377 0.000000 0.033037
#
#
# Mechanical properties :
#
#
# Convention : Reuss Voigt Hill
#
# Bulk Modulus (GPa) = 8.61160 29.37413 18.99287
# Shear Modulus (GPa) = 16.72333 32.51858 24.62096
#
# Velocity S-wave (km/s) = 2.66894 3.72171 3.23839
# Velocity P-wave (km/s) = 3.62846 5.56597 4.69817
#
# Compressibility (1/GPa) = 0.11612242
#
# Stress axis : x y z
#
# Youngs Moduli (GPa) = 120.12803 63.34242 17.88978
#
# Poissons Ratio (x) = 0.06405 -0.02774
# Poissons Ratio (y) = 0.12146 -0.31337
# Poissons Ratio (z) = -0.18630 -1.10955
#
# Static dielectric constant tensor:
#      x y z
#    x 1.851830 0.000000 -0.019290 
#    y 0.000000 1.895120 0.000000 
#    z -0.019290 0.000000 1.933710 
# 
# From -- ./inp_files/17587.got.cif
#   From: 2010.05.17/outbox.cif.g08.bks.cpg/sg9_9_cif.got.tgz:17587.got - 2010.06.03 20:04:27.
