data_PCOD9137189
_publ_section_title
;
Structure prediction by ZEFSAII (Michael W. Deem and Ramdas Pophale) SiO2 
 PCOD9137189
Probable space group: C C
;
_chemical_formula_sum "Si O2"
_cell_formula_units_Z 32
_cell_length_a 11.390458
_cell_length_b 27.144677
_cell_length_c 5.164336
_cell_angle_alpha 90.000000
_cell_angle_beta 111.594805
_cell_angle_gamma 90.000000
_cell_volume 1484.685622
_symmetry_space_group_name_H-M "C C"
_symmetry_group_IT_number 9
_symmetry_cell_setting 'monoclinic'
loop_
_space_group_symop_operation_xyz
x,y,z
x,-y,1/2+z
1/2+x,1/2+y,z
1/2+x,1/2-y,1/2+z
loop_
_atom_site_type_symbol
_atom_site_label
_atom_site_fract_x
_atom_site_fract_y
_atom_site_fract_z
Si Si1 0.679240 0.363498 0.320040
Si Si2 0.289973 0.532016 0.597726
Si Si3 0.189553 0.639492 0.583272
Si Si4 0.926570 0.311670 0.760204
Si Si5 0.590119 0.468773 0.371278
Si Si6 0.289128 0.310081 0.675365
Si Si7 0.511098 0.711447 0.956027
Si Si8 0.229368 0.790457 0.982696
O O1 0.811829 0.339018 0.521535
O O2 0.669523 0.420802 0.360506
O O3 0.560631 0.337530 0.360280
O O4 0.671159 0.341989 0.024956
O O5 0.264365 0.508803 0.296583
O O6 0.212926 0.581317 0.592140
O O7 0.440469 0.543331 0.732542
O O8 0.211106 0.659551 0.892317
O O9 0.052264 0.656509 0.372549
O O10 0.285417 0.662615 0.446511
O O11 0.868279 0.303735 0.998995
O O12 0.958687 0.254369 0.725646
O O13 0.614929 0.489000 0.678204
O O14 0.417178 0.300979 0.615648
O O15 0.233492 0.255355 0.677853
O O16 0.641938 0.731104 0.185447
#
# Coordination Sequence:
#
# PCOD9137189 Si02
#       8
#     4   4   4   4   4   4   4   4
#     4  11  24  41  71  94 136 185 226 276 345 397
#     4  10  22  43  67  95 124 161 218 289 343 391
#     4  12  24  43  64  94 132 174 219 265 339 394
#     4  10  24  41  60  97 140 180 222 268 321 416
#     4  10  24  44  71  98 130 165 228 296 339 388
#     4  11  25  37  63  97 129 175 216 266 321 400
#     4  10  22  40  62  96 135 172 223 274 323 402
#     4  10  23  39  62  91 138 176 222 264 327 392
#
# _framework density 21.553386
#
# number of rings (size 3 to 8) (size 9 to 14) (size 15 to 20)
#    0.000    1.500    1.250    2.250   12.250    2.000 
#    0.000    1.250    0.000    0.000    0.000    0.000 
#    0.000    0.000    0.000    0.000    0.000    0.000 
#
# Total GULP energy -89311.283179 kJ/mol
# GULP energy per Si atom -5581.955199 kJ/mol
# Density = 2.150433 g / cm^3
# Si number density = 21.553386 Si / 1000 Ang^3
#
#
#
# Elastic Constant Matrix: (Units=GPa)
#
#
# Indices 1 2 3 4 5 6 
#
# 1 91.1245 29.2179 17.7937 0.0000 7.4476 0.0000
# 2 29.2179 101.5526 4.7222 0.0000 13.7238 0.0000
# 3 17.7937 4.7222 61.9280 0.0000 2.4446 0.0000
# 4 0.0000 0.0000 0.0000 20.5340 0.0000 -6.7660
# 5 7.4476 13.7238 2.4446 0.0000 34.2128 0.0000
# 6 0.0000 0.0000 0.0000 -6.7660 0.0000 41.8261
#
#
#
# Elastic Compliance Matrix: (Units=1/GPa)
#
#
# Indices 1 2 3 4 5 6 
#
# 1 0.012811 -0.003367 -0.003377 0.000000 -0.001197 0.000000
# 2 -0.003367 0.011321 0.000255 0.000000 -0.003827 0.000000
# 3 -0.003377 0.000255 0.017122 0.000000 -0.000591 0.000000
# 4 0.000000 0.000000 0.000000 0.051442 0.000000 0.008321
# 5 -0.001197 -0.003827 -0.000591 0.000000 0.031067 0.000000
# 6 0.000000 0.000000 0.000000 0.008321 0.000000 0.025255
#
#
# Mechanical properties :
#
#
# Convention : Reuss Voigt Hill
#
# Bulk Modulus (GPa) = 35.36527 39.78588 37.57558
# Shear Modulus (GPa) = 29.16819 32.83932 31.00375
#
# Velocity S-wave (km/s) = 3.68271 3.90760 3.79682
# Velocity P-wave (km/s) = 5.87597 6.23365 6.05745
#
# Compressibility (1/GPa) = 0.02827632
#
# Stress axis : x y z
#
# Youngs Moduli (GPa) = 78.05899 88.33060 58.40464
#
# Poissons Ratio (x) = 0.29742 0.19723
# Poissons Ratio (y) = 0.26283 -0.01491
# Poissons Ratio (z) = 0.26360 -0.02255
#
# Static dielectric constant tensor:
#      x y z
#    x 1.814850 0.000000 -0.001160 
#    y 0.000000 1.744590 0.000000 
#    z -0.001160 0.000000 1.848180 
# 
# From -- ./inp_files/1856.got.cif
#   From: 2010.05.17/outbox.cif.g08.bks.cpg/sg9_1_cif.got.tgz:1856.got - 2010.06.03 20:04:27.
