data_PCOD9137980
_publ_section_title
;
Structure prediction by ZEFSAII (Michael W. Deem and Ramdas Pophale) SiO2 
 PCOD9137980
Probable space group: C C
;
_chemical_formula_sum "Si O2"
_cell_formula_units_Z 32
_cell_length_a 16.025734
_cell_length_b 5.803916
_cell_length_c 23.783190
_cell_angle_alpha 90.000000
_cell_angle_beta 35.906020
_cell_angle_gamma 90.000000
_cell_volume 1297.315692
_symmetry_space_group_name_H-M "C C"
_symmetry_group_IT_number 9
_symmetry_cell_setting 'monoclinic'
loop_
_space_group_symop_operation_xyz
x,y,z
x,-y,1/2+z
1/2+x,1/2+y,z
1/2+x,1/2-y,1/2+z
loop_
_atom_site_type_symbol
_atom_site_label
_atom_site_fract_x
_atom_site_fract_y
_atom_site_fract_z
Si Si1 0.563900 0.377061 0.670550
Si Si2 0.266277 0.302576 0.146033
Si Si3 0.680149 0.925947 0.945849
Si Si4 0.432349 0.674909 0.837600
Si Si5 0.866572 0.295202 0.114706
Si Si6 0.761843 0.289738 0.293340
Si Si7 0.082465 0.156524 0.347524
Si Si8 0.332739 0.098313 0.949578
O O1 0.643410 0.193670 0.666748
O O2 0.507275 0.589790 0.739683
O O3 0.425508 0.246174 0.722351
O O4 0.683650 0.461980 0.561219
O O5 0.355969 0.541180 0.092159
O O6 0.198752 0.286997 0.245725
O O7 0.322616 0.036069 0.109216
O O8 0.684787 0.889536 0.876426
O O9 0.783053 0.753994 0.924006
O O10 0.761047 0.155704 0.919556
O O11 0.523801 0.861584 0.049099
O O12 0.503607 0.518599 0.846946
O O13 0.437115 0.921765 0.862124
O O14 0.768978 0.267039 0.222779
O O15 0.670016 0.525569 0.348214
O O16 0.939881 0.299081 0.438627
#
# Coordination Sequence:
#
# PCOD9137980 Si02
#       8
#     4   4   4   4   4   4   4   4
#     4  10  22  46  70 108 142 202 246 313 391 447
#     4  10  25  45  71 104 150 197 244 309 380 455
#     4  10  23  43  66 104 144 192 244 311 370 454
#     4   9  22  44  66 100 148 188 243 307 382 452
#     4  11  24  47  71 106 150 192 252 311 374 455
#     4  10  22  46  69 104 145 185 251 307 387 435
#     4   9  22  42  69  98 139 193 235 312 371 452
#     4  11  22  43  72 102 146 193 259 306 383 462
#
# _framework density 24.666315999999998
#
# number of rings (size 3 to 8) (size 9 to 14) (size 15 to 20)
#    0.000    2.000    1.250    0.750    8.750    1.000 
#   13.500    0.000    0.000    0.000    0.000    0.000 
#    0.000    0.000    0.000    0.000    0.000    0.000 
#
# Total GULP energy -89077.112467 kJ/mol
# GULP energy per Si atom -5567.319529 kJ/mol
# Density = 2.461017 g / cm^3
# Si number density = 24.666316 Si / 1000 Ang^3
#
#
#
# Elastic Constant Matrix: (Units=GPa)
#
#
# Indices 1 2 3 4 5 6 
#
# 1 74.5683 44.3823 35.0195 -0.0002 -5.5895 -0.0001
# 2 44.3823 98.2610 30.1446 0.0004 -18.5506 -0.0012
# 3 35.0195 30.1446 90.2783 -0.0005 -15.8328 0.0021
# 4 -0.0002 0.0004 -0.0005 23.8395 0.0000 -9.3462
# 5 -5.5895 -18.5506 -15.8328 0.0000 51.0735 0.0005
# 6 -0.0001 -0.0012 0.0021 -9.3462 0.0005 24.7507
#
#
#
# Elastic Compliance Matrix: (Units=1/GPa)
#
#
# Indices 1 2 3 4 5 6 
#
# 1 0.020737 -0.008054 -0.005784 0.000000 -0.002449 0.000000
# 2 -0.008054 0.014955 -0.001133 0.000000 0.004199 0.000001
# 3 -0.005784 -0.001133 0.014293 0.000000 0.003386 -0.000001
# 4 0.000000 0.000000 0.000000 0.049236 0.000000 0.018592
# 5 -0.002449 0.004199 0.003386 0.000000 0.021887 -0.000001
# 6 0.000000 0.000001 -0.000001 0.018592 -0.000001 0.047424
#
#
# Mechanical properties :
#
#
# Convention : Reuss Voigt Hill
#
# Bulk Modulus (GPa) = 49.89442 53.57784 51.73613
# Shear Modulus (GPa) = 24.37174 30.17016 27.27095
#
# Velocity S-wave (km/s) = 3.14675 3.50112 3.32866
# Velocity P-wave (km/s) = 5.78570 6.17349 5.98274
#
# Compressibility (1/GPa) = 0.02004232
#
# Stress axis : x y z
#
# Youngs Moduli (GPa) = 48.22227 66.86577 69.96564
#
# Poissons Ratio (x) = 0.53857 0.40469
# Poissons Ratio (y) = 0.38840 0.07926
# Poissons Ratio (z) = 0.27893 0.07575
#
# Static dielectric constant tensor:
#      x y z
#    x 1.955700 0.000000 -0.031030 
#    y 0.000000 2.101000 0.000000 
#    z -0.031030 0.000000 2.017640 
# 
# From -- ./inp_files/37478.got.cif
#   From: 2010.05.17/outbox.cif.g08.bks.cpg/sg9_19_cif.got.tgz:37478.got - 2010.06.03 20:04:27.
