data_PCOD9137396
_publ_section_title
;
Structure prediction by ZEFSAII (Michael W. Deem and Ramdas Pophale) SiO2 
 PCOD9137396
Probable space group: C C
;
_chemical_formula_sum "Si O2"
_cell_formula_units_Z 32
_cell_length_a 21.205748
_cell_length_b 5.143126
_cell_length_c 22.798946
_cell_angle_alpha 90.000000
_cell_angle_beta 146.096666
_cell_angle_gamma 90.000000
_cell_volume 1386.975872
_symmetry_space_group_name_H-M "C C"
_symmetry_group_IT_number 9
_symmetry_cell_setting 'monoclinic'
loop_
_space_group_symop_operation_xyz
x,y,z
x,-y,1/2+z
1/2+x,1/2+y,z
1/2+x,1/2-y,1/2+z
loop_
_atom_site_type_symbol
_atom_site_label
_atom_site_fract_x
_atom_site_fract_y
_atom_site_fract_z
Si Si1 0.519220 0.980662 0.228090
Si Si2 0.010546 0.575700 0.356446
Si Si3 0.759405 0.520436 0.676952
Si Si4 0.211712 0.251943 0.813370
Si Si5 0.521554 0.376118 0.636167
Si Si6 0.156561 0.087064 0.474504
Si Si7 0.179317 0.481024 0.183439
Si Si8 0.322409 0.083347 0.493179
O O1 0.491438 0.024273 0.272801
O O2 0.639465 0.102981 0.306724
O O3 0.532483 0.686812 0.214638
O O4 0.419161 0.067786 0.106398
O O5 0.105117 0.369301 0.447463
O O6 0.892552 0.495930 0.294690
O O7 0.058339 0.867350 0.399430
O O8 0.739848 0.520601 0.592092
O O9 0.694198 0.768671 0.653260
O O10 0.712100 0.259097 0.668473
O O11 0.259315 0.447265 0.801334
O O12 0.112944 0.100698 0.699842
O O13 0.291237 0.057444 0.909084
O O14 0.386467 0.354365 0.525662
O O15 0.569282 0.136785 0.633026
O O16 0.220802 0.102193 0.461430
#
# Coordination Sequence:
#
# PCOD9137396 Si02
#       8
#     4   4   4   4   4   4   4   4
#     4   9  21  39  66 101 140 174 220 289 347 413
#     4  12  25  46  69 106 138 180 236 284 347 417
#     4  12  25  51  68 100 141 187 235 288 344 400
#     4  11  20  45  69  99 146 179 234 287 350 416
#     4   9  21  43  63 104 133 181 224 286 337 411
#     4  12  26  45  75 104 136 183 231 290 351 426
#     4  11  24  46  74  92 146 187 231 292 333 408
#     4  10  22  41  70 108 132 183 219 290 367 409
#
# _framework density 23.071778999999999
#
# number of rings (size 3 to 8) (size 9 to 14) (size 15 to 20)
#    0.750    0.500    3.750    2.250    0.000    1.000 
#   13.500    0.000    0.000    0.000    0.000    0.000 
#    0.000    0.000    0.000    0.000    0.000    0.000 
#
# Total GULP energy -89120.645134 kJ/mol
# GULP energy per Si atom -5570.040321 kJ/mol
# Density = 2.301927 g / cm^3
# Si number density = 23.071779 Si / 1000 Ang^3
#
#
#
# Elastic Constant Matrix: (Units=GPa)
#
#
# Indices 1 2 3 4 5 6 
#
# 1 64.1399 15.5883 23.8503 0.0039 -13.0859 0.0036
# 2 15.5883 86.6001 5.4199 0.0109 -7.0358 0.0098
# 3 23.8503 5.4199 70.7540 0.0009 -0.1260 0.0006
# 4 0.0039 0.0109 0.0009 27.9011 0.0000 -5.8857
# 5 -13.0859 -7.0358 -0.1260 0.0000 27.7451 0.0009
# 6 0.0036 0.0098 0.0006 -5.8857 0.0009 19.9339
#
#
#
# Elastic Compliance Matrix: (Units=1/GPa)
#
#
# Indices 1 2 3 4 5 6 
#
# 1 0.020545 -0.002546 -0.006715 -0.000002 0.009014 -0.000003
# 2 -0.002546 0.012163 -0.000070 -0.000006 0.001883 -0.000007
# 3 -0.006715 -0.000070 0.016397 0.000001 -0.003110 0.000001
# 4 -0.000002 -0.000006 0.000001 0.038222 -0.000003 0.011285
# 5 0.009014 0.001883 -0.003110 -0.000003 0.040757 -0.000005
# 6 -0.000003 -0.000007 0.000001 0.011285 -0.000005 0.053498
#
#
# Mechanical properties :
#
#
# Convention : Reuss Voigt Hill
#
# Bulk Modulus (GPa) = 32.84697 34.57900 33.71298
# Shear Modulus (GPa) = 23.76529 26.89172 25.32851
#
# Velocity S-wave (km/s) = 3.21293 3.41775 3.31692
# Velocity P-wave (km/s) = 5.29450 5.53125 5.41417
#
# Compressibility (1/GPa) = 0.03044421
#
# Stress axis : x y z
#
# Youngs Moduli (GPa) = 48.67253 82.21671 60.98782
#
# Poissons Ratio (x) = 0.20930 0.40951
# Poissons Ratio (y) = 0.12390 0.00428
# Poissons Ratio (z) = 0.32681 0.00578
#
# Static dielectric constant tensor:
#      x y z
#    x 1.887470 -0.000010 0.029630 
#    y -0.000010 1.949760 0.000000 
#    z 0.029630 0.000000 1.916450 
# 
# From -- ./inp_files/34241.got.cif
#   From: 2010.05.17/outbox.cif.g08.bks.cpg/sg9_18_cif.got.tgz:34241.got - 2010.06.03 20:04:27.
