data_PCOD9137324
_publ_section_title
;
Structure prediction by ZEFSAII (Michael W. Deem and Ramdas Pophale) SiO2 
 PCOD9137324
Probable space group: C C
;
_chemical_formula_sum "Si O2"
_cell_formula_units_Z 32
_cell_length_a 6.496844
_cell_length_b 17.872754
_cell_length_c 14.554727
_cell_angle_alpha 90.000000
_cell_angle_beta 122.928926
_cell_angle_gamma 90.000000
_cell_volume 1418.530782
_symmetry_space_group_name_H-M "C C"
_symmetry_group_IT_number 9
_symmetry_cell_setting 'monoclinic'
loop_
_space_group_symop_operation_xyz
x,y,z
x,-y,1/2+z
1/2+x,1/2+y,z
1/2+x,1/2-y,1/2+z
loop_
_atom_site_type_symbol
_atom_site_label
_atom_site_fract_x
_atom_site_fract_y
_atom_site_fract_z
Si Si1 0.949670 0.012507 0.881570
Si Si2 0.943460 0.198824 0.594670
Si Si3 0.241294 0.095573 0.798955
Si Si4 0.403298 0.188345 0.381721
Si Si5 0.255269 0.154663 0.141101
Si Si6 0.458391 0.997957 0.181782
Si Si7 0.256582 0.660348 0.931054
Si Si8 0.229722 0.117488 0.519885
O O1 0.829154 0.082202 0.903048
O O2 0.154348 0.046749 0.864036
O O3 0.733845 0.977895 0.768106
O O4 0.031658 0.948800 0.971624
O O5 0.685884 0.180841 0.481837
O O6 0.903501 0.282378 0.621257
O O7 0.028271 0.146187 0.700398
O O8 0.152253 0.183052 0.569345
O O9 0.468678 0.150160 0.881990
O O10 0.330306 0.038465 0.740659
O O11 0.345356 0.159037 0.267317
O O12 0.312494 0.273698 0.372344
O O13 0.255429 0.144203 0.423474
O O14 0.313901 0.072102 0.118089
O O15 0.964370 0.171492 0.059655
O O16 0.463054 0.928505 0.112367
#
# Coordination Sequence:
#
# PCOD9137324 Si02
#       8
#     4   4   4   4   4   4   4   4
#     4  11  21  41  65  95 131 175 225 280 336 407
#     4  10  24  44  70  94 140 179 224 282 344 400
#     4  10  22  42  67  96 132 184 220 276 352 398
#     4  11  24  43  67 102 135 179 229 286 334 406
#     4  11  22  45  70  99 138 185 231 284 339 415
#     4  10  22  41  64  96 133 170 228 284 332 407
#     4  10  24  42  64  96 141 169 226 284 335 411
#     4  11  23  42  65  98 134 175 227 278 342 396
#
# _framework density 22.558551000000001
#
# number of rings (size 3 to 8) (size 9 to 14) (size 15 to 20)
#    0.000    1.500    1.250    3.000    0.000   10.000 
#    4.500    1.250    0.000    0.000    0.000    0.000 
#    0.000    0.000    0.000    0.000    0.000    0.000 
#
# Total GULP energy -89388.006170 kJ/mol
# GULP energy per Si atom -5586.750386 kJ/mol
# Density = 2.250721 g / cm^3
# Si number density = 22.558551 Si / 1000 Ang^3
#
#
#
# Elastic Constant Matrix: (Units=GPa)
#
#
# Indices 1 2 3 4 5 6 
#
# 1 45.7315 27.6983 31.6947 0.0000 4.6146 0.0000
# 2 27.6983 95.4980 24.6957 0.0000 -7.0103 0.0000
# 3 31.6947 24.6957 97.6867 0.0000 -4.7335 0.0000
# 4 0.0000 0.0000 0.0000 32.3658 0.0000 -1.7422
# 5 4.6146 -7.0103 -4.7335 0.0000 33.5592 0.0000
# 6 0.0000 0.0000 0.0000 -1.7422 0.0000 25.1480
#
#
#
# Elastic Compliance Matrix: (Units=1/GPa)
#
#
# Indices 1 2 3 4 5 6 
#
# 1 0.033979 -0.007994 -0.009375 0.000000 -0.007664 0.000000
# 2 -0.007994 0.013213 -0.000564 0.000000 0.003780 0.000000
# 3 -0.009375 -0.000564 0.013571 0.000000 0.003086 0.000000
# 4 0.000000 0.000000 0.000000 0.031012 0.000000 0.002148
# 5 -0.007664 0.003780 0.003086 0.000000 0.032077 0.000000
# 6 0.000000 0.000000 0.000000 0.002148 0.000000 0.039913
#
#
# Mechanical properties :
#
#
# Convention : Reuss Voigt Hill
#
# Bulk Modulus (GPa) = 40.16376 45.23264 42.69820
# Shear Modulus (GPa) = 24.04658 28.53643 26.29150
#
# Velocity S-wave (km/s) = 3.26845 3.56053 3.41761
# Velocity P-wave (km/s) = 5.66450 6.08259 5.87727
#
# Compressibility (1/GPa) = 0.02489807
#
# Stress axis : x y z
#
# Youngs Moduli (GPa) = 29.42978 75.68243 73.68863
#
# Poissons Ratio (x) = 0.60497 0.69085
# Poissons Ratio (y) = 0.23525 0.04154
# Poissons Ratio (z) = 0.27591 0.04266
#
# Static dielectric constant tensor:
#      x y z
#    x 1.821110 0.000000 0.036590 
#    y 0.000000 1.836980 0.000000 
#    z 0.036590 0.000000 1.887550 
# 
# From -- ./inp_files/21928.got.cif
#   From: 2010.05.17/outbox.cif.g08.bks.cpg/sg9_11_cif.got.tgz:21928.got - 2010.06.03 20:04:27.
