data_PCOD9137122
_publ_section_title
;
Structure prediction by ZEFSAII (Michael W. Deem and Ramdas Pophale) SiO2 
 PCOD9137122
Probable space group: C C
;
_chemical_formula_sum "Si O2"
_cell_formula_units_Z 28
_cell_length_a 10.191702
_cell_length_b 11.286324
_cell_length_c 13.092961
_cell_angle_alpha 90.000000
_cell_angle_beta 55.869405
_cell_angle_gamma 90.000000
_cell_volume 1246.642658
_symmetry_space_group_name_H-M "C C"
_symmetry_group_IT_number 9
_symmetry_cell_setting 'monoclinic'
loop_
_space_group_symop_operation_xyz
x,y,z
x,-y,1/2+z
1/2+x,1/2+y,z
1/2+x,1/2-y,1/2+z
loop_
_atom_site_type_symbol
_atom_site_label
_atom_site_fract_x
_atom_site_fract_y
_atom_site_fract_z
Si Si1 0.303180 0.494953 0.009410
Si Si2 0.153061 0.921446 0.331983
Si Si3 0.220982 0.322076 0.702850
Si Si4 0.390304 0.628604 0.678803
Si Si5 0.335296 0.118028 0.144345
Si Si6 0.075892 0.897646 0.597111
Si Si7 0.114018 0.500345 0.407447
O O1 0.233592 0.618274 0.085868
O O2 0.325638 0.410202 0.095761
O O3 0.478701 0.522657 0.892876
O O4 0.188629 0.440803 0.975802
O O5 0.174832 0.811159 0.246632
O O6 0.154271 0.883503 0.450833
O O7 0.282602 0.020038 0.249087
O O8 0.400568 0.340853 0.667690
O O9 0.106693 0.405694 0.820176
O O10 0.411327 0.768058 0.664746
O O11 0.537189 0.538604 0.628921
O O12 0.248828 0.594566 0.817184
O O13 0.179859 0.148428 0.144855
O O14 0.454250 0.061049 0.010656
#
# Coordination Sequence:
#
# PCOD9137122 Si02
#       7
#     4   4   4   4   4   4   4
#     4   9  21  42  63  85 127 165 198 266 329 356
#     4  10  22  39  65  93 117 161 215 251 315 389
#     4   9  21  41  63  89 122 161 212 257 316 381
#     4   9  23  44  60  91 129 161 211 267 313 375
#     4  12  25  37  67  96 122 167 216 251 322 395
#     4   9  23  44  61  90 128 166 201 268 323 360
#     4  10  23  39  61  92 123 163 207 258 318 378
#
# _framework density 22.460325999999998
#
# number of rings (size 3 to 8) (size 9 to 14) (size 15 to 20)
#    0.000    2.857    0.000    1.714   10.000    5.714 
#    0.000    0.000    0.000    0.000    0.000    0.000 
#    0.000    0.000    0.000    0.000    0.000    0.000 
#
# Total GULP energy -78208.742673 kJ/mol
# GULP energy per Si atom -5586.338762 kJ/mol
# Density = 2.240920 g / cm^3
# Si number density = 22.460326 Si / 1000 Ang^3
#
#
#
# Elastic Constant Matrix: (Units=GPa)
#
#
# Indices 1 2 3 4 5 6 
#
# 1 24.1033 -8.5210 -3.2892 0.0000 -3.2314 0.0000
# 2 -8.5210 93.2257 29.6571 0.0000 -12.0920 0.0000
# 3 -3.2892 29.6571 103.2593 0.0000 -6.7032 0.0000
# 4 0.0000 0.0000 0.0000 15.3756 0.0000 -1.3730
# 5 -3.2314 -12.0920 -6.7032 0.0000 24.9848 0.0000
# 6 0.0000 0.0000 0.0000 -1.3730 0.0000 18.9578
#
#
#
# Elastic Compliance Matrix: (Units=1/GPa)
#
#
# Indices 1 2 3 4 5 6 
#
# 1 0.044428 0.004969 0.000526 0.000000 0.008292 0.000000
# 2 0.004969 0.012978 -0.003175 0.000000 0.006072 0.000000
# 3 0.000526 -0.003175 0.010704 0.000000 0.001403 0.000000
# 4 0.000000 0.000000 0.000000 0.065461 0.000000 0.004741
# 5 0.008292 0.006072 0.001403 0.000000 0.044412 0.000000
# 6 0.000000 0.000000 0.000000 0.004741 0.000000 0.053092
#
#
# Mechanical properties :
#
#
# Convention : Reuss Voigt Hill
#
# Bulk Modulus (GPa) = 13.74545 28.47579 21.11062
# Shear Modulus (GPa) = 19.94524 25.37974 22.66249
#
# Velocity S-wave (km/s) = 2.98320 3.36517 3.17992
# Velocity P-wave (km/s) = 4.24254 5.27304 4.78561
#
# Compressibility (1/GPa) = 0.07275134
#
# Stress axis : x y z
#
# Youngs Moduli (GPa) = 22.50817 77.05073 93.42184
#
# Poissons Ratio (x) = -0.38286 -0.04918
# Poissons Ratio (y) = -0.11184 0.29662
# Poissons Ratio (z) = -0.01185 0.24464
#
# Static dielectric constant tensor:
#      x y z
#    x 1.871960 0.000000 0.039490 
#    y 0.000000 1.859960 0.000000 
#    z 0.039490 0.000000 1.824560 
# 
# From -- ./inp_files/24475.got.cif
#   From: 2010.05.17/outbox.cif.g08.bks.cpg/sg9_13_cif.got.tgz:24475.got - 2010.06.03 20:04:27.
