data_PCOD9137863
_publ_section_title
;
Structure prediction by ZEFSAII (Michael W. Deem and Ramdas Pophale) SiO2 
 PCOD9137863
Probable space group: C C
;
_chemical_formula_sum "Si O2"
_cell_formula_units_Z 32
_cell_length_a 30.458013
_cell_length_b 8.087859
_cell_length_c 12.267729
_cell_angle_alpha 90.000000
_cell_angle_beta 27.193008
_cell_angle_gamma 90.000000
_cell_volume 1381.037353
_symmetry_space_group_name_H-M "C C"
_symmetry_group_IT_number 9
_symmetry_cell_setting 'monoclinic'
loop_
_space_group_symop_operation_xyz
x,y,z
x,-y,1/2+z
1/2+x,1/2+y,z
1/2+x,1/2-y,1/2+z
loop_
_atom_site_type_symbol
_atom_site_label
_atom_site_fract_x
_atom_site_fract_y
_atom_site_fract_z
Si Si1 0.928790 0.010265 0.638850
Si Si2 0.967970 0.297763 0.386566
Si Si3 0.796919 0.480913 0.245371
Si Si4 0.080610 0.203840 0.921067
Si Si5 0.078139 0.458996 0.326777
Si Si6 0.451082 0.762789 0.778602
Si Si7 0.642400 0.405581 0.928032
Si Si8 0.753950 0.231553 0.509839
O O1 0.964541 0.132630 0.466016
O O2 0.913577 0.122187 0.779761
O O3 0.834041 0.907258 0.824619
O O4 0.010580 0.881442 0.489838
O O5 0.859545 0.354577 0.609052
O O6 0.019744 0.267969 0.158893
O O7 0.022574 0.440424 0.335543
O O8 0.693900 0.521184 0.420429
O O9 0.791633 0.400642 0.375485
O O10 0.862386 0.350157 0.033388
O O11 0.120152 0.364860 0.771750
O O12 0.140668 0.056512 0.843834
O O13 0.004606 0.395681 0.582526
O O14 0.163678 0.326984 0.137582
O O15 0.535835 0.675949 0.663354
O O16 0.712789 0.267378 0.720446
#
# Coordination Sequence:
#
# PCOD9137863 Si02
#       8
#     4   4   4   4   4   4   4   4
#     4  10  24  42  68  96 138 166 235 279 343 415
#     4  11  24  43  70 103 128 182 232 278 350 416
#     4  12  24  43  73  97 137 181 234 284 353 421
#     4  11  22  45  72  94 137 186 217 291 346 403
#     4  10  22  45  65  99 137 172 230 282 342 419
#     4   9  22  45  68  95 133 184 221 294 342 414
#     4  10  25  44  67  98 142 175 238 283 353 414
#     4  11  25  43  63 106 134 176 227 287 343 418
#
# _framework density 23.170987
#
# number of rings (size 3 to 8) (size 9 to 14) (size 15 to 20)
#    0.000    1.500    1.250    3.000    8.750    0.000 
#    4.500    0.000    0.000    0.000    0.000    0.000 
#    0.000    0.000    0.000    0.000    0.000    0.000 
#
# Total GULP energy -89492.606786 kJ/mol
# GULP energy per Si atom -5593.287924 kJ/mol
# Density = 2.311825 g / cm^3
# Si number density = 23.170987 Si / 1000 Ang^3
#
#
#
# Elastic Constant Matrix: (Units=GPa)
#
#
# Indices 1 2 3 4 5 6 
#
# 1 87.7493 26.5516 26.7681 0.0000 -9.7291 0.0000
# 2 26.5516 71.4814 13.9156 0.0000 5.8704 0.0000
# 3 26.7681 13.9156 62.6921 0.0000 0.3656 0.0000
# 4 0.0000 0.0000 0.0000 13.5396 0.0000 1.1469
# 5 -9.7291 5.8704 0.3656 0.0000 22.8801 0.0000
# 6 0.0000 0.0000 0.0000 1.1469 0.0000 24.1309
#
#
#
# Elastic Compliance Matrix: (Units=1/GPa)
#
#
# Indices 1 2 3 4 5 6 
#
# 1 0.015608 -0.005390 -0.005515 0.000000 0.008108 0.000000
# 2 -0.005390 0.016803 -0.001390 0.000000 -0.006581 0.000000
# 3 -0.005515 -0.001390 0.018628 0.000000 -0.002286 0.000000
# 4 0.000000 0.000000 0.000000 0.074156 0.000000 -0.003524
# 5 0.008108 -0.006581 -0.002286 0.000000 0.048879 0.000000
# 6 0.000000 0.000000 0.000000 -0.003524 0.000000 0.041608
#
#
# Mechanical properties :
#
#
# Convention : Reuss Voigt Hill
#
# Bulk Modulus (GPa) = 37.80921 39.59929 38.70425
# Shear Modulus (GPa) = 20.07320 22.42262 21.24791
#
# Velocity S-wave (km/s) = 2.94650 3.11417 3.03149
# Velocity P-wave (km/s) = 5.28477 5.48250 5.38454
#
# Compressibility (1/GPa) = 0.02644858
#
# Stress axis : x y z
#
# Youngs Moduli (GPa) = 64.06795 59.51409 53.68337
#
# Poissons Ratio (x) = 0.32077 0.29608
# Poissons Ratio (y) = 0.34532 0.07462
# Poissons Ratio (z) = 0.35336 0.08272
#
# Static dielectric constant tensor:
#      x y z
#    x 1.850670 0.000000 0.008340 
#    y 0.000000 1.895080 0.000000 
#    z 0.008340 0.000000 1.827740 
# 
# From -- ./inp_files/17801.got.cif
#   From: 2010.05.17/outbox.cif.g08.bks.cpg/sg9_9_cif.got.tgz:17801.got - 2010.06.03 20:04:27.
