data_PCOD9137184
_publ_section_title
;
Structure prediction by ZEFSAII (Michael W. Deem and Ramdas Pophale) SiO2 
 PCOD9137184
Probable space group: C C
;
_chemical_formula_sum "Si O2"
_cell_formula_units_Z 32
_cell_length_a 8.249297
_cell_length_b 22.210306
_cell_length_c 12.334890
_cell_angle_alpha 90.000000
_cell_angle_beta 136.287264
_cell_angle_gamma 90.000000
_cell_volume 1561.751375
_symmetry_space_group_name_H-M "C C"
_symmetry_group_IT_number 9
_symmetry_cell_setting 'monoclinic'
loop_
_space_group_symop_operation_xyz
x,y,z
x,-y,1/2+z
1/2+x,1/2+y,z
1/2+x,1/2-y,1/2+z
loop_
_atom_site_type_symbol
_atom_site_label
_atom_site_fract_x
_atom_site_fract_y
_atom_site_fract_z
Si Si1 0.130560 0.619474 0.528980
Si Si2 0.199656 0.924356 0.683930
Si Si3 0.785087 0.370815 0.490544
Si Si4 0.802727 0.204925 0.777664
Si Si5 0.742047 0.787277 0.710259
Si Si6 0.090219 0.941606 0.200305
Si Si7 0.479431 0.326957 0.039936
Si Si8 0.461404 0.694896 0.085037
O O1 0.128123 0.655545 0.640158
O O2 0.328666 0.567259 0.624895
O O3 0.241988 0.666759 0.496265
O O4 0.895148 0.594829 0.365604
O O5 0.278001 0.909337 0.598626
O O6 0.992747 0.876625 0.600791
O O7 0.135975 0.992718 0.677715
O O8 0.560294 0.324442 0.378978
O O9 0.757585 0.415735 0.375395
O O10 0.021435 0.332492 0.602125
O O11 0.709023 0.269084 0.688486
O O12 0.800011 0.210568 0.905475
O O13 0.642035 0.720664 0.678719
O O14 0.915468 0.806272 0.889636
O O15 0.858857 0.786858 0.649632
O O16 0.091577 0.892859 0.103768
#
# Coordination Sequence:
#
# PCOD9137184 Si02
#       8
#     4   4   4   4   4   4   4   4
#     4   9  21  41  65  91 118 169 211 264 308 377
#     4  11  22  41  67  91 124 173 219 255 316 385
#     4  10  22  40  68  89 123 174 215 262 314 390
#     4  10  22  40  62  91 127 162 218 259 321 380
#     4  12  23  40  63  99 131 163 210 268 331 374
#     4   9  22  41  58  97 120 160 218 263 305 370
#     4  10  23  38  66  93 125 166 209 266 312 384
#     4  11  25  37  61  97 134 163 206 273 325 372
#
# _framework density 20.489816999999999
#
# number of rings (size 3 to 8) (size 9 to 14) (size 15 to 20)
#    0.750    1.000    1.250    2.250    5.250    2.000 
#    0.000    8.750    0.000    0.000    0.000    0.000 
#    0.000    0.000    0.000    0.000    0.000    0.000 
#
# Total GULP energy -89274.825268 kJ/mol
# GULP energy per Si atom -5579.676579 kJ/mol
# Density = 2.044318 g / cm^3
# Si number density = 20.489817 Si / 1000 Ang^3
#
#
#
# Elastic Constant Matrix: (Units=GPa)
#
#
# Indices 1 2 3 4 5 6 
#
# 1 40.4783 27.0593 23.6893 0.0000 -12.7231 0.0000
# 2 27.0593 155.8647 57.5038 0.0000 -5.7865 0.0000
# 3 23.6893 57.5038 141.7537 0.0000 -25.1674 0.0000
# 4 0.0000 0.0000 0.0000 28.0490 0.0000 1.3410
# 5 -12.7231 -5.7865 -25.1674 0.0000 17.3898 0.0000
# 6 0.0000 0.0000 0.0000 1.3410 0.0000 20.8431
#
#
#
# Elastic Compliance Matrix: (Units=1/GPa)
#
#
# Indices 1 2 3 4 5 6 
#
# 1 0.036049 -0.005603 0.000808 0.000000 0.025680 0.000000
# 2 -0.005603 0.008503 -0.003685 0.000000 -0.006604 0.000000
# 3 0.000808 -0.003685 0.011172 0.000000 0.015534 0.000000
# 4 0.000000 0.000000 0.000000 0.035762 0.000000 -0.002301
# 5 0.025680 -0.006604 0.015534 0.000000 0.096578 0.000000
# 6 0.000000 0.000000 0.000000 -0.002301 0.000000 0.048125
#
#
# Mechanical properties :
#
#
# Convention : Reuss Voigt Hill
#
# Bulk Modulus (GPa) = 25.79765 61.62240 43.71002
# Shear Modulus (GPa) = 18.79189 28.57932 23.68561
#
# Velocity S-wave (km/s) = 3.03171 3.73876 3.40364
# Velocity P-wave (km/s) = 4.98726 6.98411 6.06838
#
# Compressibility (1/GPa) = 0.03876322
#
# Stress axis : x y z
#
# Youngs Moduli (GPa) = 27.74001 117.60448 89.50550
#
# Poissons Ratio (x) = 0.65894 -0.07230
# Poissons Ratio (y) = 0.15543 0.32987
# Poissons Ratio (z) = -0.02241 0.43343
#
# Static dielectric constant tensor:
#      x y z
#    x 1.764860 0.000000 0.006770 
#    y 0.000000 1.708640 0.000000 
#    z 0.006770 0.000000 1.741750 
# 
# From -- ./inp_files/15439.got.cif
#   From: 2010.05.17/outbox.cif.g08.bks.cpg/sg9_8_cif.got.tgz:15439.got - 2010.06.03 20:04:27.
