data_PCOD9137923
_publ_section_title
;
Structure prediction by ZEFSAII (Michael W. Deem and Ramdas Pophale) SiO2 
 PCOD9137923
Probable space group: C C
;
_chemical_formula_sum "Si O2"
_cell_formula_units_Z 32
_cell_length_a 5.673746
_cell_length_b 12.847246
_cell_length_c 16.616753
_cell_angle_alpha 90.000000
_cell_angle_beta 89.288558
_cell_angle_gamma 90.000000
_cell_volume 1211.135162
_symmetry_space_group_name_H-M "C C"
_symmetry_group_IT_number 9
_symmetry_cell_setting 'monoclinic'
loop_
_space_group_symop_operation_xyz
x,y,z
x,-y,1/2+z
1/2+x,1/2+y,z
1/2+x,1/2-y,1/2+z
loop_
_atom_site_type_symbol
_atom_site_label
_atom_site_fract_x
_atom_site_fract_y
_atom_site_fract_z
Si Si1 0.733710 0.164887 0.646990
Si Si2 0.025699 0.975807 0.020822
Si Si3 0.007160 0.060266 0.773033
Si Si4 0.861906 0.695289 0.862615
Si Si5 0.749893 0.675250 0.411015
Si Si6 0.044984 0.200613 0.021013
Si Si7 0.643014 0.887330 0.782717
Si Si8 0.871023 0.513933 0.151942
O O1 0.898233 0.158214 0.724231
O O2 0.654767 0.271990 0.606891
O O3 0.503174 0.096115 0.665903
O O4 0.875830 0.099356 0.578530
O O5 0.915191 0.090083 0.014953
O O6 0.275769 0.009754 0.061516
O O7 0.067813 0.913056 0.939110
O O8 0.216841 0.098275 0.829158
O O9 0.788125 0.991841 0.803188
O O10 0.135880 0.987580 0.706688
O O11 0.804115 0.788194 0.800108
O O12 0.134491 0.718543 0.877951
O O13 0.742475 0.708227 0.950738
O O14 0.870379 0.708156 0.494333
O O15 0.929754 0.630019 0.345936
O O16 0.547098 0.903580 0.692301
#
# Coordination Sequence:
#
# PCOD9137923 Si02
#       8
#     4   4   4   4   4   4   4   4
#     4  10  22  47  66 102 144 176 251 300 351 447
#     4  11  24  44  71  99 140 185 230 297 363 435
#     4  10  24  45  70  99 140 189 239 302 372 434
#     4  11  25  44  68 103 143 184 237 299 366 449
#     4  11  24  47  69 105 149 181 243 303 360 454
#     4  11  25  42  71 102 136 193 230 288 375 436
#     4  10  24  44  70 101 137 182 239 301 364 436
#     4  10  22  45  71  97 135 186 231 304 363 427
#
# _framework density 26.421495
#
# number of rings (size 3 to 8) (size 9 to 14) (size 15 to 20)
#    0.000    1.500    2.500    0.750    5.250    5.000 
#    6.750    0.000    0.000    0.000    0.000    0.000 
#    0.000    0.000    0.000    0.000    0.000    0.000 
#
# Total GULP energy -89498.124121 kJ/mol
# GULP energy per Si atom -5593.632758 kJ/mol
# Density = 2.636136 g / cm^3
# Si number density = 26.421495 Si / 1000 Ang^3
#
#
#
# Elastic Constant Matrix: (Units=GPa)
#
#
# Indices 1 2 3 4 5 6 
#
# 1 82.2373 15.1820 33.8488 0.0000 6.5707 0.0000
# 2 15.1820 101.3810 20.0708 0.0000 6.0971 0.0000
# 3 33.8488 20.0708 72.7534 0.0000 21.7218 0.0000
# 4 0.0000 0.0000 0.0000 47.6717 0.0000 8.2197
# 5 6.5707 6.0971 21.7218 0.0000 45.5138 0.0000
# 6 0.0000 0.0000 0.0000 8.2197 0.0000 47.4752
#
#
#
# Elastic Compliance Matrix: (Units=1/GPa)
#
#
# Indices 1 2 3 4 5 6 
#
# 1 0.015195 -0.000928 -0.007225 0.000000 0.001379 0.000000
# 2 -0.000928 0.010490 -0.002429 0.000000 -0.000112 0.000000
# 3 -0.007225 -0.002429 0.020254 0.000000 -0.008298 0.000000
# 4 0.000000 0.000000 0.000000 0.021622 0.000000 -0.003744
# 5 0.001379 -0.000112 -0.008298 0.000000 0.025748 0.000000
# 6 0.000000 0.000000 0.000000 -0.003744 0.000000 0.021712
#
#
# Mechanical properties :
#
#
# Convention : Reuss Voigt Hill
#
# Bulk Modulus (GPa) = 40.36242 43.84163 42.10202
# Shear Modulus (GPa) = 34.61558 40.61680 37.61619
#
# Velocity S-wave (km/s) = 3.62350 3.92505 3.77728
# Velocity P-wave (km/s) = 5.72851 6.09676 5.91550
#
# Compressibility (1/GPa) = 0.02477552
#
# Stress axis : x y z
#
# Youngs Moduli (GPa) = 65.81126 95.32591 49.37254
#
# Poissons Ratio (x) = 0.08846 0.35673
# Poissons Ratio (y) = 0.06107 0.11991
# Poissons Ratio (z) = 0.47550 0.23152
#
# Static dielectric constant tensor:
#      x y z
#    x 2.064650 0.000000 0.041850 
#    y 0.000000 2.076360 0.000000 
#    z 0.041850 0.000000 2.058480 
# 
# From -- ./inp_files/28610.got.cif
#   From: 2010.05.17/outbox.cif.g08.bks.cpg/sg9_15_cif.got.tgz:28610.got - 2010.06.03 20:04:27.
