data_PCOD9137957
_publ_section_title
;
Structure prediction by ZEFSAII (Michael W. Deem and Ramdas Pophale) SiO2 
 PCOD9137957
Probable space group: C C
;
_chemical_formula_sum "Si O2"
_cell_formula_units_Z 32
_cell_length_a 8.860687
_cell_length_b 18.710869
_cell_length_c 8.510034
_cell_angle_alpha 90.000000
_cell_angle_beta 92.054306
_cell_angle_gamma 90.000000
_cell_volume 1409.981577
_symmetry_space_group_name_H-M "C C"
_symmetry_group_IT_number 9
_symmetry_cell_setting 'monoclinic'
loop_
_space_group_symop_operation_xyz
x,y,z
x,-y,1/2+z
1/2+x,1/2+y,z
1/2+x,1/2-y,1/2+z
loop_
_atom_site_type_symbol
_atom_site_label
_atom_site_fract_x
_atom_site_fract_y
_atom_site_fract_z
Si Si1 0.981970 0.418761 0.696130
Si Si2 0.833987 0.214243 0.900512
Si Si3 0.349245 0.351586 0.070329
Si Si4 0.301409 0.020436 0.480969
Si Si5 0.801516 0.078972 0.078712
Si Si6 0.203810 0.831083 0.082290
Si Si7 0.954553 0.021872 0.385451
Si Si8 0.130976 0.723370 0.319747
O O1 0.858505 0.448861 0.568398
O O2 0.140816 0.448851 0.634824
O O3 0.022594 0.334820 0.724531
O O4 0.923450 0.453066 0.857143
O O5 0.791781 0.178646 0.733355
O O6 0.012720 0.227587 0.909812
O O7 0.785699 0.162266 0.039047
O O8 0.762468 0.291408 0.929672
O O9 0.522895 0.327032 0.063715
O O10 0.379267 0.434189 0.028603
O O11 0.236996 0.322950 0.934685
O O12 0.272246 0.089627 0.593376
O O13 0.133240 0.011290 0.404336
O O14 0.916460 0.062613 0.224381
O O15 0.868002 0.051064 0.915696
O O16 0.233946 0.780354 0.230726
#
# Coordination Sequence:
#
# PCOD9137957 Si02
#       8
#     4   4   4   4   4   4   4   4
#     4  12  24  46  67 106 140 188 237 309 358 432
#     4  11  23  42  70 102 137 187 237 296 359 433
#     4  10  23  41  67  98 136 187 233 292 352 431
#     4  11  26  45  71 101 144 186 242 299 366 428
#     4  12  24  43  73 102 142 189 243 291 377 426
#     4  10  22  46  65 100 140 183 235 294 354 438
#     4  11  23  45  68 100 144 185 237 297 361 442
#     4  11  23  46  69 101 145 183 242 294 363 434
#
# _framework density 22.695330999999999
#
# number of rings (size 3 to 8) (size 9 to 14) (size 15 to 20)
#    0.000    1.000    3.750    2.250    0.000    5.000 
#    9.000    0.000    0.000    0.000    0.000    0.000 
#    0.000    0.000    0.000    0.000    0.000    0.000 
#
# Total GULP energy -89218.463317 kJ/mol
# GULP energy per Si atom -5576.153957 kJ/mol
# Density = 2.264368 g / cm^3
# Si number density = 22.695331 Si / 1000 Ang^3
#
#
#
# Elastic Constant Matrix: (Units=GPa)
#
#
# Indices 1 2 3 4 5 6 
#
# 1 82.1735 19.6711 31.5009 0.0000 2.2752 0.0000
# 2 19.6711 48.1817 16.6185 0.0000 1.9241 0.0000
# 3 31.5009 16.6185 57.9196 0.0000 -5.9269 0.0000
# 4 0.0000 0.0000 0.0000 33.2345 0.0000 -9.0811
# 5 2.2752 1.9241 -5.9269 0.0000 38.3436 0.0000
# 6 0.0000 0.0000 0.0000 -9.0811 0.0000 27.0967
#
#
#
# Elastic Compliance Matrix: (Units=1/GPa)
#
#
# Indices 1 2 3 4 5 6 
#
# 1 0.016163 -0.003792 -0.007906 0.000000 -0.001991 0.000000
# 2 -0.003792 0.024110 -0.005036 0.000000 -0.001763 0.000000
# 3 -0.007906 -0.005036 0.023455 0.000000 0.004347 0.000000
# 4 0.000000 0.000000 0.000000 0.033122 0.000000 0.011101
# 5 -0.001991 -0.001763 0.004347 0.000000 0.026959 0.000000
# 6 0.000000 0.000000 0.000000 0.011101 0.000000 0.040625
#
#
# Mechanical properties :
#
#
# Convention : Reuss Voigt Hill
#
# Bulk Modulus (GPa) = 33.04713 35.98398 34.51555
# Shear Modulus (GPa) = 24.03959 27.76723 25.90341
#
# Velocity S-wave (km/s) = 3.25811 3.50162 3.38206
# Velocity P-wave (km/s) = 5.36158 5.67786 5.52199
#
# Compressibility (1/GPa) = 0.03025981
#
# Stress axis : x y z
#
# Youngs Moduli (GPa) = 61.86883 41.47596 42.63470
#
# Poissons Ratio (x) = 0.15729 0.33708
# Poissons Ratio (y) = 0.23463 0.21469
# Poissons Ratio (z) = 0.48916 0.20886
#
# Static dielectric constant tensor:
#      x y z
#    x 1.820220 0.000000 -0.008920 
#    y 0.000000 1.992300 0.000000 
#    z -0.008920 0.000000 1.898360 
# 
# From -- ./inp_files/5638.got.cif
#   From: 2010.05.17/outbox.cif.g08.bks.cpg/sg9_3_cif.got.tgz:5638.got - 2010.06.03 20:04:27.
