data_PCOD9137428
_publ_section_title
;
Structure prediction by ZEFSAII (Michael W. Deem and Ramdas Pophale) SiO2 
 PCOD9137428
Probable space group: C C
;
_chemical_formula_sum "Si O2"
_cell_formula_units_Z 28
_cell_length_a 7.318733
_cell_length_b 12.074177
_cell_length_c 21.022884
_cell_angle_alpha 90.000000
_cell_angle_beta 37.062569
_cell_angle_gamma 90.000000
_cell_volume 1119.637451
_symmetry_space_group_name_H-M "C C"
_symmetry_group_IT_number 9
_symmetry_cell_setting 'monoclinic'
loop_
_space_group_symop_operation_xyz
x,y,z
x,-y,1/2+z
1/2+x,1/2+y,z
1/2+x,1/2-y,1/2+z
loop_
_atom_site_type_symbol
_atom_site_label
_atom_site_fract_x
_atom_site_fract_y
_atom_site_fract_z
Si Si1 0.679920 0.875425 0.833780
Si Si2 0.258124 0.857155 0.837208
Si Si3 0.175851 0.063792 0.104196
Si Si4 0.555556 0.868344 0.061864
Si Si5 0.691308 0.011154 0.129542
Si Si6 0.051208 0.185327 0.970443
Si Si7 0.628147 0.120192 0.879241
O O1 0.397696 0.893287 0.865224
O O2 0.590231 0.774682 0.904204
O O3 0.972917 0.863255 0.707635
O O4 0.738469 0.994797 0.849952
O O5 0.409078 0.927866 0.740056
O O6 0.338848 0.725838 0.811550
O O7 0.897898 0.870499 0.938227
O O8 0.954993 0.013410 0.110023
O O9 0.331843 0.961015 0.096075
O O10 0.437060 0.133526 0.997123
O O11 0.595878 0.895313 0.124999
O O12 0.448879 0.751818 0.062698
O O13 0.816655 0.084545 0.035179
O O14 0.382105 0.134654 0.891385
#
# Coordination Sequence:
#
# PCOD9137428 Si02
#       7
#     4   4   4   4   4   4   4
#     4  11  23  43  68  95 135 176 219 273 336 387
#     4  10  24  43  65  99 130 177 223 269 331 396
#     4  10  23  42  66  97 132 174 219 272 330 392
#     4  11  23  41  69  95 133 175 215 274 332 385
#     4  10  24  46  64  99 137 169 229 271 322 406
#     4  10  23  41  67  98 130 174 220 270 332 391
#     4  10  22  42  61  95 133 163 227 273 315 405
#
# _framework density 25.008095000000001
#
# number of rings (size 3 to 8) (size 9 to 14) (size 15 to 20)
#    0.000    1.714    1.429    1.714    8.000    0.000 
#    0.000   14.286    0.000    0.000    0.000    0.000 
#    0.000    0.000    0.000    0.000    0.000    0.000 
#
# Total GULP energy -78293.426433 kJ/mol
# GULP energy per Si atom -5592.387602 kJ/mol
# Density = 2.495118 g / cm^3
# Si number density = 25.008095 Si / 1000 Ang^3
#
#
#
# Elastic Constant Matrix: (Units=GPa)
#
#
# Indices 1 2 3 4 5 6 
#
# 1 74.3468 36.4483 15.3187 -0.0026 4.0545 0.0024
# 2 36.4483 111.4130 12.1936 -0.0029 11.0025 0.0023
# 3 15.3187 12.1936 85.5879 -0.0067 7.7553 -0.0010
# 4 -0.0026 -0.0029 -0.0067 29.2879 0.0014 -0.2354
# 5 4.0545 11.0025 7.7553 0.0014 32.6111 0.0006
# 6 0.0024 0.0023 -0.0010 -0.2354 0.0006 30.4704
#
#
#
# Elastic Compliance Matrix: (Units=1/GPa)
#
#
# Indices 1 2 3 4 5 6 
#
# 1 0.016422 -0.005151 -0.002226 0.000000 0.000225 -0.000001
# 2 -0.005151 0.010996 -0.000375 0.000001 -0.002980 0.000000
# 3 -0.002226 -0.000375 0.012366 0.000003 -0.002538 0.000001
# 4 0.000000 0.000001 0.000003 0.034146 -0.000002 0.000264
# 5 0.000225 -0.002980 -0.002538 -0.000002 0.032245 0.000000
# 6 -0.000001 0.000000 0.000001 0.000264 0.000000 0.032821
#
#
# Mechanical properties :
#
#
# Convention : Reuss Voigt Hill
#
# Bulk Modulus (GPa) = 41.18484 44.36322 42.77403
# Shear Modulus (GPa) = 30.75175 32.29969 31.52572
#
# Velocity S-wave (km/s) = 3.51047 3.59774 3.55437
# Velocity P-wave (km/s) = 5.73895 5.91915 5.82975
#
# Compressibility (1/GPa) = 0.02428078
#
# Stress axis : x y z
#
# Youngs Moduli (GPa) = 60.89361 90.94145 80.86967
#
# Poissons Ratio (x) = 0.46845 0.18000
# Poissons Ratio (y) = 0.31367 0.03029
# Poissons Ratio (z) = 0.13554 0.03407
#
# Static dielectric constant tensor:
#      x y z
#    x 1.996690 0.000000 0.023660 
#    y 0.000000 1.983590 0.000000 
#    z 0.023660 0.000000 1.990870 
# 
# From -- ./inp_files/29132.got.cif
#   From: 2010.05.17/outbox.cif.g08.bks.cpg/sg9_15_cif.got.tgz:29132.got - 2010.06.03 20:04:27.
