data_PCOD9137144
_publ_section_title
;
Structure prediction by ZEFSAII (Michael W. Deem and Ramdas Pophale) SiO2 
 PCOD9137144
Probable space group: C C
;
_chemical_formula_sum "Si O2"
_cell_formula_units_Z 28
_cell_length_a 12.339526
_cell_length_b 10.398162
_cell_length_c 13.349037
_cell_angle_alpha 90.000000
_cell_angle_beta 43.105282
_cell_angle_gamma 90.000000
_cell_volume 1170.422132
_symmetry_space_group_name_H-M "C C"
_symmetry_group_IT_number 9
_symmetry_cell_setting 'monoclinic'
loop_
_space_group_symop_operation_xyz
x,y,z
x,-y,1/2+z
1/2+x,1/2+y,z
1/2+x,1/2-y,1/2+z
loop_
_atom_site_type_symbol
_atom_site_label
_atom_site_fract_x
_atom_site_fract_y
_atom_site_fract_z
Si Si1 0.909440 0.806073 0.083010
Si Si2 0.966826 0.270845 0.138458
Si Si3 0.188355 0.377543 0.856160
Si Si4 0.023217 0.545694 0.088237
Si Si5 0.089683 0.901155 0.154142
Si Si6 0.078265 0.175658 0.267322
Si Si7 0.447913 0.162428 0.352539
O O1 0.987861 0.665998 0.044410
O O2 0.725676 0.763739 0.204094
O O3 0.976528 0.888510 0.131387
O O4 0.968978 0.856429 0.936115
O O5 0.841403 0.164696 0.194753
O O6 0.916533 0.417171 0.148561
O O7 0.993912 0.258012 0.237697
O O8 0.126505 0.258154 0.966089
O O9 0.051376 0.402422 0.869315
O O10 0.191813 0.488887 0.937183
O O11 0.615679 0.542677 0.182914
O O12 0.994914 0.591257 0.218758
O O13 0.010695 0.806960 0.289972
O O14 0.262215 0.847092 0.003023
#
# Coordination Sequence:
#
# PCOD9137144 Si02
#       7
#     4   4   4   4   4   4   4
#     4  11  25  51  74 103 149 197 242 307 385 426
#     4  10  24  41  65 107 142 180 250 294 363 448
#     4  10  22  39  68 103 138 188 239 302 367 430
#     4   9  24  41  73  97 138 190 241 295 370 446
#     4  11  27  47  73 111 145 195 254 305 363 466
#     4  12  27  46  76 108 149 197 245 307 380 441
#     4  11  23  45  73 101 145 189 243 304 378 425
#
# _framework density 23.922992000000001
#
# number of rings (size 3 to 8) (size 9 to 14) (size 15 to 20)
#    0.857    0.571    0.000    4.286    8.000    4.571 
#    0.000    0.000    0.000    0.000    0.000    0.000 
#    0.000    0.000    0.000    0.000    0.000    0.000 
#
# Total GULP energy -78117.739969 kJ/mol
# GULP energy per Si atom -5579.838569 kJ/mol
# Density = 2.386854 g / cm^3
# Si number density = 23.922992 Si / 1000 Ang^3
#
#
#
# Elastic Constant Matrix: (Units=GPa)
#
#
# Indices 1 2 3 4 5 6 
#
# 1 73.5455 37.5315 27.8295 0.0000 -7.7276 0.0000
# 2 37.5315 74.9227 43.6406 0.0000 -6.1969 0.0000
# 3 27.8295 43.6406 110.4110 0.0000 -0.2442 0.0000
# 4 0.0000 0.0000 0.0000 43.3473 0.0000 3.7562
# 5 -7.7276 -6.1969 -0.2442 0.0000 31.9620 0.0000
# 6 0.0000 0.0000 0.0000 3.7562 0.0000 22.4100
#
#
#
# Elastic Compliance Matrix: (Units=1/GPa)
#
#
# Indices 1 2 3 4 5 6 
#
# 1 0.018667 -0.008281 -0.001426 0.000000 0.002897 0.000000
# 2 -0.008281 0.021370 -0.006355 0.000000 0.002093 0.000000
# 3 -0.001426 -0.006355 0.011925 0.000000 -0.001486 0.000000
# 4 0.000000 0.000000 0.000000 0.023410 0.000000 -0.003924
# 5 0.002897 0.002093 -0.001486 0.000000 0.032382 0.000000
# 6 0.000000 0.000000 0.000000 -0.003924 0.000000 0.045281
#
#
# Mechanical properties :
#
#
# Convention : Reuss Voigt Hill
#
# Bulk Modulus (GPa) = 50.40551 52.98692 51.69622
# Shear Modulus (GPa) = 26.07310 29.53570 27.80440
#
# Velocity S-wave (km/s) = 3.30491 3.51752 3.41287
# Velocity P-wave (km/s) = 5.97318 6.22048 6.09808
#
# Compressibility (1/GPa) = 0.01983910
#
# Stress axis : x y z
#
# Youngs Moduli (GPa) = 53.57143 46.79503 83.85874
#
# Poissons Ratio (x) = 0.38750 0.11954
# Poissons Ratio (y) = 0.44362 0.53290
# Poissons Ratio (z) = 0.07637 0.29737
#
# Static dielectric constant tensor:
#      x y z
#    x 1.969680 0.000000 -0.076100 
#    y 0.000000 1.936120 0.000000 
#    z -0.076100 0.000000 1.975560 
# 
# From -- ./inp_files/16782.got.cif
#   From: 2010.05.17/outbox.cif.g08.bks.cpg/sg9_9_cif.got.tgz:16782.got - 2010.06.03 20:04:27.
