data_PCOD9137784
_publ_section_title
;
Structure prediction by ZEFSAII (Michael W. Deem and Ramdas Pophale) SiO2 
 PCOD9137784
Probable space group: C C
;
_chemical_formula_sum "Si O2"
_cell_formula_units_Z 32
_cell_length_a 18.165924
_cell_length_b 6.307990
_cell_length_c 11.854289
_cell_angle_alpha 90.000000
_cell_angle_beta 78.286698
_cell_angle_gamma 90.000000
_cell_volume 1330.101028
_symmetry_space_group_name_H-M "C C"
_symmetry_group_IT_number 9
_symmetry_cell_setting 'monoclinic'
loop_
_space_group_symop_operation_xyz
x,y,z
x,-y,1/2+z
1/2+x,1/2+y,z
1/2+x,1/2-y,1/2+z
loop_
_atom_site_type_symbol
_atom_site_label
_atom_site_fract_x
_atom_site_fract_y
_atom_site_fract_z
Si Si1 0.198840 0.840138 0.796460
Si Si2 0.242235 0.219357 0.917424
Si Si3 0.440791 0.404535 0.591942
Si Si4 0.838215 0.100252 0.797114
Si Si5 0.062370 0.315307 0.194881
Si Si6 0.624802 0.075654 0.009985
Si Si7 0.839833 0.412617 0.006977
Si Si8 0.974062 0.284024 0.437831
O O1 0.268842 0.689372 0.742917
O O2 0.127607 0.817993 0.737002
O O3 0.173913 0.749800 0.928811
O O4 0.225707 0.076677 0.812732
O O5 0.308242 0.386851 0.867758
O O6 0.169694 0.359372 0.968707
O O7 0.266162 0.057857 0.010447
O O8 0.411586 0.557397 0.700646
O O9 0.518096 0.291673 0.604926
O O10 0.367553 0.256787 0.591194
O O11 0.461137 0.541302 0.475385
O O12 0.848184 0.280996 0.888045
O O13 0.994197 0.332439 0.303450
O O14 0.102944 0.535343 0.146990
O O15 0.544899 0.121518 0.980710
O O16 0.902705 0.588766 0.997860
#
# Coordination Sequence:
#
# PCOD9137784 Si02
#       8
#     4   4   4   4   4   4   4   4
#     4   9  23  44  67  97 142 180 234 290 345 424
#     4  10  22  44  69 100 139 181 234 290 351 421
#     4  12  25  42  69 106 139 184 238 290 352 417
#     4  10  24  44  68 100 139 180 236 289 354 414
#     4  11  24  43  67 101 138 185 230 286 354 408
#     4  10  23  43  66  98 136 180 230 284 347 417
#     4  11  23  43  70  95 139 181 228 292 339 418
#     4  11  26  45  66 101 142 179 236 285 344 431
#
# _framework density 24.058323999999999
#
# number of rings (size 3 to 8) (size 9 to 14) (size 15 to 20)
#    0.000    1.500    1.250    2.250    5.250    8.000 
#    4.500    0.000    0.000    0.000    0.000    0.000 
#    0.000    0.000    0.000    0.000    0.000    0.000 
#
# Total GULP energy -89280.522893 kJ/mol
# GULP energy per Si atom -5580.032681 kJ/mol
# Density = 2.400357 g / cm^3
# Si number density = 24.058324 Si / 1000 Ang^3
#
#
#
# Elastic Constant Matrix: (Units=GPa)
#
#
# Indices 1 2 3 4 5 6 
#
# 1 105.3783 27.6053 -6.7392 0.0000 6.8920 0.0000
# 2 27.6053 83.6468 10.5526 0.0000 11.9833 0.0000
# 3 -6.7392 10.5526 35.7647 0.0000 -4.0192 0.0000
# 4 0.0000 0.0000 0.0000 29.7779 0.0000 12.3574
# 5 6.8920 11.9833 -4.0192 0.0000 32.9413 0.0000
# 6 0.0000 0.0000 0.0000 12.3574 0.0000 31.5931
#
#
#
# Elastic Compliance Matrix: (Units=1/GPa)
#
#
# Indices 1 2 3 4 5 6 
#
# 1 0.010732 -0.003869 0.003112 0.000000 -0.000458 0.000000
# 2 -0.003869 0.014693 -0.005652 0.000000 -0.005225 0.000000
# 3 0.003112 -0.005652 0.030795 0.000000 0.005162 0.000000
# 4 0.000000 0.000000 0.000000 0.040089 0.000000 -0.015681
# 5 -0.000458 -0.005225 0.005162 0.000000 0.032984 0.000000
# 6 0.000000 0.000000 0.000000 -0.015681 0.000000 0.037786
#
#
# Mechanical properties :
#
#
# Convention : Reuss Voigt Hill
#
# Bulk Modulus (GPa) = 23.03944 31.95859 27.49902
# Shear Modulus (GPa) = 25.72508 31.75384 28.73946
#
# Velocity S-wave (km/s) = 3.27353 3.63694 3.46001
# Velocity P-wave (km/s) = 4.88726 5.56319 5.23614
#
# Compressibility (1/GPa) = 0.04340383
#
# Stress axis : x y z
#
# Youngs Moduli (GPa) = 93.17823 68.05781 32.47325
#
# Poissons Ratio (x) = 0.26330 -0.10107
# Poissons Ratio (y) = 0.36049 0.18353
# Poissons Ratio (z) = -0.29000 0.38463
#
# Static dielectric constant tensor:
#      x y z
#    x 1.930780 0.000000 0.006950 
#    y 0.000000 1.938960 0.000000 
#    z 0.006950 0.000000 2.029450 
# 
# From -- ./inp_files/19721.got.cif
#   From: 2010.05.17/outbox.cif.g08.bks.cpg/sg9_10_cif.got.tgz:19721.got - 2010.06.03 20:04:27.
