data_PCOD9137595
_publ_section_title
;
Structure prediction by ZEFSAII (Michael W. Deem and Ramdas Pophale) SiO2 
 PCOD9137595
Probable space group: C C
;
_chemical_formula_sum "Si O2"
_cell_formula_units_Z 28
_cell_length_a 10.178757
_cell_length_b 23.544372
_cell_length_c 6.956195
_cell_angle_alpha 90.000000
_cell_angle_beta 43.928799
_cell_angle_gamma 90.000000
_cell_volume 1156.552398
_symmetry_space_group_name_H-M "C C"
_symmetry_group_IT_number 9
_symmetry_cell_setting 'monoclinic'
loop_
_space_group_symop_operation_xyz
x,y,z
x,-y,1/2+z
1/2+x,1/2+y,z
1/2+x,1/2-y,1/2+z
loop_
_atom_site_type_symbol
_atom_site_label
_atom_site_fract_x
_atom_site_fract_y
_atom_site_fract_z
Si Si1 0.627170 0.551212 0.220980
Si Si2 0.780794 0.780808 0.329808
Si Si3 0.118538 0.918958 0.172886
Si Si4 0.946245 0.659761 0.274385
Si Si5 0.956160 0.624817 0.835268
Si Si6 0.366783 0.367274 0.733846
Si Si7 0.100750 0.793260 0.727709
O O1 0.610449 0.483950 0.249716
O O2 0.617331 0.575607 0.445641
O O3 0.471428 0.585303 0.261317
O O4 0.835143 0.568052 0.923530
O O5 0.831374 0.718558 0.357741
O O6 0.648951 0.814067 0.616375
O O7 0.663757 0.766481 0.253981
O O8 0.964910 0.811326 0.050798
O O9 0.941425 0.886698 0.449537
O O10 0.307961 0.883166 0.028896
O O11 0.998241 0.627803 0.019463
O O12 0.145530 0.630377 0.513543
O O13 0.795673 0.673808 0.982163
O O14 0.469345 0.307687 0.684314
#
# Coordination Sequence:
#
# PCOD9137595 Si02
#       7
#     4   4   4   4   4   4   4
#     4  10  22  43  63  89 131 170 214 275 326 388
#     4   9  16  34  64  93 126 175 211 259 335 378
#     4  11  22  42  66  96 131 170 222 271 327 395
#     4   9  18  34  63  90 124 168 214 259 319 392
#     4   9  19  37  62  93 123 169 220 258 329 389
#     4  11  21  41  64  92 131 171 216 274 322 392
#     4   9  18  33  62  93 128 169 213 266 316 394
#
# _framework density 24.209882
#
# number of rings (size 3 to 8) (size 9 to 14) (size 15 to 20)
#    0.000    2.286    2.857    0.857    0.000    0.000 
#    5.143    7.143    0.000    0.000    0.000    0.000 
#    0.000    0.000    0.000    0.000    0.000    0.000 
#
# Total GULP energy -78085.840276 kJ/mol
# GULP energy per Si atom -5577.560020 kJ/mol
# Density = 2.415478 g / cm^3
# Si number density = 24.209882 Si / 1000 Ang^3
#
#
#
# Elastic Constant Matrix: (Units=GPa)
#
#
# Indices 1 2 3 4 5 6 
#
# 1 59.7807 30.4220 58.4272 0.0000 -18.0022 0.0000
# 2 30.4220 117.0273 47.3203 0.0000 -14.6003 0.0000
# 3 58.4272 47.3203 196.5887 0.0000 -30.3254 0.0000
# 4 0.0000 0.0000 0.0000 39.4497 0.0000 2.5512
# 5 -18.0022 -14.6003 -30.3254 0.0000 49.4009 0.0000
# 6 0.0000 0.0000 0.0000 2.5512 0.0000 19.6010
#
#
#
# Elastic Compliance Matrix: (Units=1/GPa)
#
#
# Indices 1 2 3 4 5 6 
#
# 1 0.025983 -0.003704 -0.006118 0.000000 0.004618 0.000000
# 2 -0.003704 0.010103 -0.001191 0.000000 0.000905 0.000000
# 3 -0.006118 -0.001191 0.007504 0.000000 0.002025 0.000000
# 4 0.000000 0.000000 0.000000 0.025564 0.000000 -0.003327
# 5 0.004618 0.000905 0.002025 0.000000 0.023436 0.000000
# 6 0.000000 0.000000 0.000000 -0.003327 0.000000 0.051451
#
#
# Mechanical properties :
#
#
# Convention : Reuss Voigt Hill
#
# Bulk Modulus (GPa) = 46.37756 71.74843 59.06299
# Shear Modulus (GPa) = 28.85896 37.50546 33.18221
#
# Velocity S-wave (km/s) = 3.45633 3.94023 3.70619
# Velocity P-wave (km/s) = 5.92675 7.09936 6.53939
#
# Compressibility (1/GPa) = 0.02156215
#
# Stress axis : x y z
#
# Youngs Moduli (GPa) = 38.48597 98.98494 133.25720
#
# Poissons Ratio (x) = 0.36669 0.81532
# Poissons Ratio (y) = 0.14257 0.15874
# Poissons Ratio (z) = 0.23547 0.11791
#
# Static dielectric constant tensor:
#      x y z
#    x 2.077600 0.000000 0.012410 
#    y 0.000000 1.958370 0.000000 
#    z 0.012410 0.000000 1.913320 
# 
# From -- ./inp_files/10166.got.cif
#   From: 2010.05.17/outbox.cif.g08.bks.cpg/sg9_6_cif.got.tgz:10166.got - 2010.06.03 20:04:27.
