data_PCOD9137376
_publ_section_title
;
Structure prediction by ZEFSAII (Michael W. Deem and Ramdas Pophale) SiO2 
 PCOD9137376
Probable space group: C C
;
_chemical_formula_sum "Si O2"
_cell_formula_units_Z 24
_cell_length_a 18.008915
_cell_length_b 9.333540
_cell_length_c 8.730210
_cell_angle_alpha 90.000000
_cell_angle_beta 54.432983
_cell_angle_gamma 90.000000
_cell_volume 1193.663400
_symmetry_space_group_name_H-M "C C"
_symmetry_group_IT_number 9
_symmetry_cell_setting 'monoclinic'
loop_
_space_group_symop_operation_xyz
x,y,z
x,-y,1/2+z
1/2+x,1/2+y,z
1/2+x,1/2-y,1/2+z
loop_
_atom_site_type_symbol
_atom_site_label
_atom_site_fract_x
_atom_site_fract_y
_atom_site_fract_z
Si Si1 0.642010 0.316367 0.919730
Si Si2 0.005860 0.308477 0.073027
Si Si3 0.072289 0.055268 0.811506
Si Si4 0.576093 0.054326 0.797768
Si Si5 0.873259 0.090868 0.122756
Si Si6 0.256288 0.618714 0.970167
O O1 0.640838 0.432818 0.785316
O O2 0.601210 0.172025 0.895214
O O3 0.584372 0.390537 0.124696
O O4 0.730294 0.259434 0.904404
O O5 0.077998 0.192319 0.917983
O O6 0.007668 0.440213 0.953721
O O7 0.035336 0.364680 0.201255
O O8 0.911794 0.221686 0.177626
O O9 0.966283 0.009352 0.958596
O O10 0.665581 0.964438 0.638206
O O11 0.820013 0.147319 0.038984
O O12 0.809057 0.988606 0.295345
#
# Coordination Sequence:
#
# PCOD9137376 Si02
#       6
#     4   4   4   4   4   4
#     4  12  23  41  71  98 133 176 230 269 328 403
#     4  10  22  41  68  97 132 175 231 265 327 405
#     4  10  23  43  66  99 129 178 226 266 321 407
#     4  12  21  41  73  99 126 180 232 269 320 409
#     4  10  24  40  64  97 133 169 212 278 339 381
#     4  12  21  42  66 100 131 172 217 277 339 387
#
# _framework density 20.106172000000001
#
# number of rings (size 3 to 8) (size 9 to 14) (size 15 to 20)
#    1.000    0.000    5.000    2.000    2.333    0.000 
#    0.000    1.667    0.000    0.000    0.000    0.000 
#    0.000    0.000    0.000    0.000    0.000    0.000 
#
# Total GULP energy -66944.181247 kJ/mol
# GULP energy per Si atom -5578.681771 kJ/mol
# Density = 2.006041 g / cm^3
# Si number density = 20.106172 Si / 1000 Ang^3
#
#
#
# Elastic Constant Matrix: (Units=GPa)
#
#
# Indices 1 2 3 4 5 6 
#
# 1 106.0724 24.8393 20.9443 0.0000 21.6815 0.0000
# 2 24.8393 81.5555 14.3118 0.0000 6.8266 0.0000
# 3 20.9443 14.3118 69.2253 0.0000 1.6666 0.0000
# 4 0.0000 0.0000 0.0000 13.3543 0.0000 6.2823
# 5 21.6815 6.8266 1.6666 0.0000 22.0615 0.0000
# 6 0.0000 0.0000 0.0000 6.2823 0.0000 44.2976
#
#
#
# Elastic Compliance Matrix: (Units=1/GPa)
#
#
# Indices 1 2 3 4 5 6 
#
# 1 0.013036 -0.002427 -0.003158 0.000000 -0.011822 0.000000
# 2 -0.002427 0.013491 -0.002016 0.000000 -0.001638 0.000000
# 3 -0.003158 -0.002016 0.015757 0.000000 0.002537 0.000000
# 4 0.000000 0.000000 0.000000 0.080235 0.000000 -0.011379
# 5 -0.011822 -0.001638 0.002537 0.000000 0.057261 0.000000
# 6 0.000000 0.000000 0.000000 -0.011379 0.000000 0.024188
#
#
# Mechanical properties :
#
#
# Convention : Reuss Voigt Hill
#
# Bulk Modulus (GPa) = 36.92236 41.89376 39.40806
# Shear Modulus (GPa) = 21.91098 29.05987 25.48543
#
# Velocity S-wave (km/s) = 3.30474 3.80586 3.56412
# Velocity P-wave (km/s) = 5.74154 6.33990 6.04812
#
# Compressibility (1/GPa) = 0.02708386
#
# Stress axis : x y z
#
# Youngs Moduli (GPa) = 76.71274 74.12102 63.46550
#
# Poissons Ratio (x) = 0.17986 0.20040
# Poissons Ratio (y) = 0.18615 0.12792
# Poissons Ratio (z) = 0.24223 0.14940
#
# Static dielectric constant tensor:
#      x y z
#    x 1.712210 0.000000 0.008470 
#    y 0.000000 1.717900 0.000000 
#    z 0.008470 0.000000 1.719820 
# 
# From -- ./inp_files/10288.got.cif
#   From: 2010.05.17/outbox.cif.g08.bks.cpg/sg9_6_cif.got.tgz:10288.got - 2010.06.03 20:04:27.
