data_PCOD9137785
_publ_section_title
;
Structure prediction by ZEFSAII (Michael W. Deem and Ramdas Pophale) SiO2 
 PCOD9137785
Probable space group: C C
;
_chemical_formula_sum "Si O2"
_cell_formula_units_Z 28
_cell_length_a 7.413530
_cell_length_b 17.575512
_cell_length_c 9.044705
_cell_angle_alpha 90.000000
_cell_angle_beta 85.019038
_cell_angle_gamma 90.000000
_cell_volume 1174.043716
_symmetry_space_group_name_H-M "C C"
_symmetry_group_IT_number 9
_symmetry_cell_setting 'monoclinic'
loop_
_space_group_symop_operation_xyz
x,y,z
x,-y,1/2+z
1/2+x,1/2+y,z
1/2+x,1/2-y,1/2+z
loop_
_atom_site_type_symbol
_atom_site_label
_atom_site_fract_x
_atom_site_fract_y
_atom_site_fract_z
Si Si1 0.441890 0.090928 0.380870
Si Si2 0.791719 0.826237 0.927528
Si Si3 0.421259 0.367339 0.621104
Si Si4 0.042436 0.558706 0.043996
Si Si5 0.262322 0.768403 0.978619
Si Si6 0.247391 0.853793 0.409123
Si Si7 0.955677 0.188045 0.697814
O O1 0.595154 0.154782 0.381804
O O2 0.443462 0.065977 0.210464
O O3 0.276666 0.140984 0.453157
O O4 0.513507 0.025506 0.483403
O O5 0.916513 0.866625 0.797172
O O6 0.788766 0.735208 0.922543
O O7 0.835077 0.856092 0.087369
O O8 0.396413 0.278230 0.576807
O O9 0.614094 0.388899 0.542663
O O10 0.249451 0.412445 0.561033
O O11 0.938882 0.606213 0.922837
O O12 0.315697 0.729908 0.818284
O O13 0.074757 0.757829 0.080841
O O14 0.110589 0.856616 0.278079
#
# Coordination Sequence:
#
# PCOD9137785 Si02
#       7
#     4   4   4   4   4   4   4
#     4  11  25  46  68 102 141 192 232 292 369 422
#     4  11  22  42  71 103 139 182 241 303 346 429
#     4  10  22  44  69 101 140 182 239 295 356 420
#     4  11  27  47  69 102 149 185 238 298 359 434
#     4  11  21  45  67 107 139 178 247 290 354 426
#     4  11  23  44  70 105 137 186 236 303 348 428
#     4  11  24  38  72 108 141 181 243 293 364 415
#
# _framework density 23.849195999999999
#
# number of rings (size 3 to 8) (size 9 to 14) (size 15 to 20)
#    0.000    1.143    4.286    2.571    6.000    2.286 
#    2.571    0.000    0.000    0.000    0.000    0.000 
#    0.000    0.000    0.000    0.000    0.000    0.000 
#
# Total GULP energy -78029.245029 kJ/mol
# GULP energy per Si atom -5573.517502 kJ/mol
# Density = 2.379491 g / cm^3
# Si number density = 23.849196 Si / 1000 Ang^3
#
#
#
# Elastic Constant Matrix: (Units=GPa)
#
#
# Indices 1 2 3 4 5 6 
#
# 1 66.7255 -4.5355 49.7713 0.0000 16.5767 0.0000
# 2 -4.5355 75.1591 21.0623 0.0000 17.7001 0.0000
# 3 49.7713 21.0623 155.5239 0.0000 5.7544 0.0000
# 4 0.0000 0.0000 0.0000 20.0846 0.0000 -3.5949
# 5 16.5767 17.7001 5.7544 0.0000 36.7676 0.0000
# 6 0.0000 0.0000 0.0000 -3.5949 0.0000 -6.0906
#
#
#
# Elastic Compliance Matrix: (Units=1/GPa)
#
#
# Indices 1 2 3 4 5 6 
#
# 1 0.025139 0.007056 -0.008505 0.000000 -0.013400 0.000000
# 2 0.007056 0.017491 -0.004222 0.000000 -0.010941 0.000000
# 3 -0.008505 -0.004222 0.009562 0.000000 0.004370 0.000000
# 4 0.000000 0.000000 0.000000 0.045032 0.000000 -0.026579
# 5 -0.013400 -0.010941 0.004370 0.000000 0.037822 0.000000
# 6 0.000000 0.000000 0.000000 -0.026579 0.000000 -0.148499
#
#
# Mechanical properties :
#
#
# Convention : Reuss Voigt Hill
#
# Bulk Modulus (GPa) = 24.47989 47.77829 36.12909
# Shear Modulus (GPa) = 434.59954 25.55966 230.07960
#
# Velocity S-wave (km/s) = 13.51384 3.27727 9.83271
# Velocity P-wave (km/s) = 15.93063 5.86495 12.00381
#
# Compressibility (1/GPa) = 0.04084986
#
# Stress axis : x y z
#
# Youngs Moduli (GPa) = 39.77842 57.17352 104.58350
#
# Poissons Ratio (x) = -0.40342 0.88948
# Poissons Ratio (y) = -0.28068 0.44156
# Poissons Ratio (z) = 0.33831 0.24139
#
# Static dielectric constant tensor:
#      x y z
#    x 2.053290 0.000000 -0.047350 
#    y 0.000000 1.967410 0.000000 
#    z -0.047350 0.000000 1.994640 
# 
# From -- ./inp_files/5255.got.cif
#   From: 2010.05.17/outbox.cif.g08.bks.cpg/sg9_3_cif.got.tgz:5255.got - 2010.06.03 20:04:27.
