data_PCOD9137665
_publ_section_title
;
Structure prediction by ZEFSAII (Michael W. Deem and Ramdas Pophale) SiO2 
 PCOD9137665
Probable space group: C C
;
_chemical_formula_sum "Si O2"
_cell_formula_units_Z 32
_cell_length_a 25.868497
_cell_length_b 11.083717
_cell_length_c 9.031999
_cell_angle_alpha 90.000000
_cell_angle_beta 145.818508
_cell_angle_gamma 90.000000
_cell_volume 1454.905375
_symmetry_space_group_name_H-M "C C"
_symmetry_group_IT_number 9
_symmetry_cell_setting 'monoclinic'
loop_
_space_group_symop_operation_xyz
x,y,z
x,-y,1/2+z
1/2+x,1/2+y,z
1/2+x,1/2-y,1/2+z
loop_
_atom_site_type_symbol
_atom_site_label
_atom_site_fract_x
_atom_site_fract_y
_atom_site_fract_z
Si Si1 0.918980 0.837527 0.050270
Si Si2 0.384771 0.579769 0.809310
Si Si3 0.756072 0.355027 0.120186
Si Si4 0.592612 0.781006 0.073478
Si Si5 0.175839 0.639421 0.318655
Si Si6 0.245669 0.887122 0.438768
Si Si7 0.452334 0.820555 0.005479
Si Si8 0.593076 0.006007 0.881153
O O1 0.895460 0.889672 0.159612
O O2 0.025196 0.797930 0.312079
O O3 0.850440 0.725088 0.851015
O O4 0.910026 0.944826 0.912154
O O5 0.278220 0.595497 0.598891
O O6 0.446453 0.680885 0.042880
O O7 0.729440 0.386403 0.225392
O O8 0.751574 0.481732 0.023412
O O9 0.679519 0.278725 0.853761
O O10 0.524489 0.821106 0.042974
O O11 0.622475 0.894830 0.051998
O O12 0.178283 0.784147 0.346636
O O13 0.157386 0.612427 0.100319
O O14 0.108139 0.558150 0.258345
O O15 0.349443 0.840573 0.709567
O O16 0.492055 0.938706 0.181593
#
# Coordination Sequence:
#
# PCOD9137665 Si02
#       8
#     4   4   4   4   4   4   4   4
#     4  11  23  47  68 101 141 183 231 291 346 419
#     4  10  22  43  69  96 136 183 224 285 351 403
#     4  12  25  47  70 100 146 182 234 296 351 415
#     4  11  24  42  68  98 142 184 225 289 349 406
#     4  11  23  41  69 100 135 176 244 279 347 423
#     4  11  26  46  70 100 138 188 232 291 353 416
#     4  10  22  44  66  97 142 174 231 288 343 411
#     4  12  23  40  68 104 136 182 233 287 344 417
#
# _framework density 21.994557
#
# number of rings (size 3 to 8) (size 9 to 14) (size 15 to 20)
#    0.000    1.000    5.000    3.000    1.750    3.000 
#    4.500    0.000    0.000    0.000    0.000    0.000 
#    0.000    0.000    0.000    0.000    0.000    0.000 
#
# Total GULP energy -89174.710765 kJ/mol
# GULP energy per Si atom -5573.419423 kJ/mol
# Density = 2.194450 g / cm^3
# Si number density = 21.994557 Si / 1000 Ang^3
#
#
#
# Elastic Constant Matrix: (Units=GPa)
#
#
# Indices 1 2 3 4 5 6 
#
# 1 16.3043 25.3763 14.1952 0.0000 -8.8292 0.0000
# 2 25.3763 149.5837 63.3704 0.0000 -24.3743 0.0000
# 3 14.1952 63.3704 112.2464 0.0000 -5.7529 0.0000
# 4 0.0000 0.0000 0.0000 54.8851 0.0000 -2.0568
# 5 -8.8292 -24.3743 -5.7529 0.0000 19.3672 0.0000
# 6 0.0000 0.0000 0.0000 -2.0568 0.0000 27.0796
#
#
#
# Elastic Compliance Matrix: (Units=1/GPa)
#
#
# Indices 1 2 3 4 5 6 
#
# 1 0.097187 -0.009017 -0.005596 0.000000 0.031295 0.000000
# 2 -0.009017 0.011898 -0.005098 0.000000 0.009349 0.000000
# 3 -0.005596 -0.005098 0.012221 0.000000 -0.005336 0.000000
# 4 0.000000 0.000000 0.000000 0.018272 0.000000 0.001388
# 5 0.031295 0.009349 -0.005336 0.000000 0.076082 0.000000
# 6 0.000000 0.000000 0.000000 0.001388 0.000000 0.037034
#
#
# Mechanical properties :
#
#
# Convention : Reuss Voigt Hill
#
# Bulk Modulus (GPa) = 12.21231 53.77982 32.99607
# Shear Modulus (GPa) = 15.65387 31.94589 23.79988
#
# Velocity S-wave (km/s) = 2.67069 3.81523 3.29307
# Velocity P-wave (km/s) = 3.88260 6.62665 5.43080
#
# Compressibility (1/GPa) = 0.08188460
#
# Stress axis : x y z
#
# Youngs Moduli (GPa) = 10.28942 84.04816 81.82561
#
# Poissons Ratio (x) = 0.75788 0.45789
# Poissons Ratio (y) = 0.09278 0.41712
# Poissons Ratio (z) = 0.05758 0.42845
#
# Static dielectric constant tensor:
#      x y z
#    x 1.828680 0.000000 -0.044560 
#    y 0.000000 1.944850 0.000000 
#    z -0.044560 0.000000 1.940360 
# 
# From -- ./inp_files/12731.got.cif
#   From: 2010.05.17/outbox.cif.g08.bks.cpg/sg9_7_cif.got.tgz:12731.got - 2010.06.03 20:04:27.
