data_PCOD9137875
_publ_section_title
;
Structure prediction by ZEFSAII (Michael W. Deem and Ramdas Pophale) SiO2 
 PCOD9137875
Probable space group: C C
;
_chemical_formula_sum "Si O2"
_cell_formula_units_Z 32
_cell_length_a 7.486358
_cell_length_b 12.286905
_cell_length_c 14.862890
_cell_angle_alpha 90.000000
_cell_angle_beta 75.277435
_cell_angle_gamma 90.000000
_cell_volume 1322.263949
_symmetry_space_group_name_H-M "C C"
_symmetry_group_IT_number 9
_symmetry_cell_setting 'monoclinic'
loop_
_space_group_symop_operation_xyz
x,y,z
x,-y,1/2+z
1/2+x,1/2+y,z
1/2+x,1/2-y,1/2+z
loop_
_atom_site_type_symbol
_atom_site_label
_atom_site_fract_x
_atom_site_fract_y
_atom_site_fract_z
Si Si1 0.804090 0.312409 0.924270
Si Si2 0.027491 0.063195 0.190788
Si Si3 0.100614 0.471272 0.941782
Si Si4 0.455867 0.865848 0.248373
Si Si5 0.777566 0.786199 0.621209
Si Si6 0.831033 0.133830 0.780287
Si Si7 0.945669 0.578332 0.140540
Si Si8 0.913132 0.192600 0.386269
O O1 0.881734 0.235634 0.835391
O O2 0.585633 0.318409 0.930858
O O3 0.916469 0.423984 0.918660
O O4 0.825603 0.253867 0.016590
O O5 0.884306 0.103307 0.134455
O O6 0.976563 0.127112 0.288680
O O7 0.234568 0.092816 0.139779
O O8 0.993437 0.936945 0.216987
O O9 0.215824 0.552363 0.862727
O O10 0.230889 0.366714 0.942820
O O11 0.049415 0.527583 0.041492
O O12 0.352447 0.800646 0.183024
O O13 0.674708 0.839290 0.226692
O O14 0.440919 0.991524 0.222816
O O15 0.382379 0.814923 0.352209
O O16 0.561786 0.815834 0.651840
#
# Coordination Sequence:
#
# PCOD9137875 Si02
#       8
#     4   4   4   4   4   4   4   4
#     4  11  23  42  68 100 133 185 230 283 358 412
#     4  10  24  43  68  99 132 181 229 289 352 419
#     4  11  24  44  69  99 142 179 231 301 346 424
#     4  10  22  45  67  96 135 179 225 291 350 404
#     4  11  23  46  64  98 143 176 234 293 347 424
#     4  10  22  47  70  99 139 181 236 290 351 426
#     4  12  24  43  69 101 138 182 232 291 359 422
#     4   9  24  44  65  98 134 177 235 282 343 423
#
# _framework density 24.200918000000001
#
# number of rings (size 3 to 8) (size 9 to 14) (size 15 to 20)
#    0.000    1.500    3.750    0.000    3.500    2.000 
#    4.500    0.000    0.000    0.000    0.000    0.000 
#    0.000    0.000    0.000    0.000    0.000    0.000 
#
# Total GULP energy -89575.616523 kJ/mol
# GULP energy per Si atom -5598.476033 kJ/mol
# Density = 2.414584 g / cm^3
# Si number density = 24.200918 Si / 1000 Ang^3
#
#
#
# Elastic Constant Matrix: (Units=GPa)
#
#
# Indices 1 2 3 4 5 6 
#
# 1 108.6535 7.6927 56.8051 0.0000 3.3673 0.0000
# 2 7.6927 72.1950 25.3540 0.0000 0.5471 0.0000
# 3 56.8051 25.3540 86.9804 0.0000 13.8296 0.0000
# 4 0.0000 0.0000 0.0000 28.4768 0.0000 -2.4854
# 5 3.3673 0.5471 13.8296 0.0000 39.3406 0.0000
# 6 0.0000 0.0000 0.0000 -2.4854 0.0000 48.5375
#
#
#
# Elastic Compliance Matrix: (Units=1/GPa)
#
#
# Indices 1 2 3 4 5 6 
#
# 1 0.014425 0.002102 -0.010415 0.000000 0.002397 0.000000
# 2 0.002102 0.015816 -0.006270 0.000000 0.001804 0.000000
# 3 -0.010415 -0.006270 0.021153 0.000000 -0.006457 0.000000
# 4 0.000000 0.000000 0.000000 0.035274 0.000000 0.001806
# 5 0.002397 0.001804 -0.006457 0.000000 0.027459 0.000000
# 6 0.000000 0.000000 0.000000 0.001806 0.000000 0.020695
#
#
# Mechanical properties :
#
#
# Convention : Reuss Voigt Hill
#
# Bulk Modulus (GPa) = 44.98647 49.72583 47.35615
# Shear Modulus (GPa) = 29.17211 35.13614 32.15412
#
# Velocity S-wave (km/s) = 3.47567 3.81445 3.64900
# Velocity P-wave (km/s) = 5.89374 6.32390 6.11261
#
# Compressibility (1/GPa) = 0.02222891
#
# Stress axis : x y z
#
# Youngs Moduli (GPa) = 69.32195 63.22859 47.27467
#
# Poissons Ratio (x) = -0.13293 0.49236
# Poissons Ratio (y) = -0.14574 0.29641
# Poissons Ratio (z) = 0.72198 0.39644
#
# Static dielectric constant tensor:
#      x y z
#    x 1.923790 0.000000 -0.005660 
#    y 0.000000 1.986060 0.000000 
#    z -0.005660 0.000000 1.877690 
# 
# From -- ./inp_files/28603.got.cif
#   From: 2010.05.17/outbox.cif.g08.bks.cpg/sg9_15_cif.got.tgz:28603.got - 2010.06.03 20:04:27.
