data_PCOD9137838
_publ_section_title
;
Structure prediction by ZEFSAII (Michael W. Deem and Ramdas Pophale) SiO2 
 PCOD9137838
Probable space group: C C
;
_chemical_formula_sum "Si O2"
_cell_formula_units_Z 32
_cell_length_a 5.470807
_cell_length_b 14.124700
_cell_length_c 19.324973
_cell_angle_alpha 90.000000
_cell_angle_beta 57.703375
_cell_angle_gamma 90.000000
_cell_volume 1262.283638
_symmetry_space_group_name_H-M "C C"
_symmetry_group_IT_number 9
_symmetry_cell_setting 'monoclinic'
loop_
_space_group_symop_operation_xyz
x,y,z
x,-y,1/2+z
1/2+x,1/2+y,z
1/2+x,1/2-y,1/2+z
loop_
_atom_site_type_symbol
_atom_site_label
_atom_site_fract_x
_atom_site_fract_y
_atom_site_fract_z
Si Si1 0.981790 0.602386 0.805780
Si Si2 0.406850 0.959756 0.645497
Si Si3 0.797548 0.593510 0.317606
Si Si4 0.915652 0.385013 0.457087
Si Si5 0.535894 0.602431 0.639906
Si Si6 0.714793 0.727487 0.743873
Si Si7 0.870793 0.995099 0.979981
Si Si8 0.853030 0.267897 0.595562
O O1 0.977857 0.491697 0.824850
O O2 0.061775 0.652572 0.864577
O O3 0.721638 0.661518 0.811335
O O4 0.205159 0.601538 0.710384
O O5 0.274295 0.949834 0.742432
O O6 0.508649 0.854008 0.612219
O O7 0.674338 0.024977 0.577884
O O8 0.163025 0.998163 0.628897
O O9 0.511962 0.586124 0.409254
O O10 0.985383 0.687749 0.284777
O O11 0.630285 0.439599 0.471294
O O12 0.825288 0.301347 0.521605
O O13 0.147897 0.449735 0.462725
O O14 0.664674 0.659739 0.685952
O O15 0.547368 0.673872 0.574334
O O16 0.037556 0.768104 0.680031
#
# Coordination Sequence:
#
# PCOD9137838 Si02
#       8
#     4   4   4   4   4   4   4   4
#     4  10  23  41  71  98 140 187 244 295 367 446
#     4  11  21  42  75  97 146 190 238 307 369 431
#     4  11  21  42  75  97 146 190 238 307 369 431
#     4  10  22  44  73  97 138 196 240 298 372 435
#     4  11  22  40  67 106 135 182 245 290 367 445
#     4  11  22  40  67 106 135 182 245 290 367 445
#     4  10  24  42  71 107 136 190 258 292 370 459
#     4  10  23  41  71  98 140 187 244 295 367 446
#
# _framework density 25.350877000000001
#
# number of rings (size 3 to 8) (size 9 to 14) (size 15 to 20)
#    0.000    1.500    2.500    2.250    3.500    2.000 
#    0.000    1.250   16.500    0.000    0.000    0.000 
#    0.000    0.000    0.000    0.000    0.000    0.000 
#
# Total GULP energy -89159.541607 kJ/mol
# GULP energy per Si atom -5572.471350 kJ/mol
# Density = 2.529318 g / cm^3
# Si number density = 25.350877 Si / 1000 Ang^3
#
#
#
# Elastic Constant Matrix: (Units=GPa)
#
#
# Indices 1 2 3 4 5 6 
#
# 1 107.6323 39.7751 30.5465 0.0000 12.0253 0.0000
# 2 39.7751 95.5812 14.3768 0.0000 2.2941 0.0000
# 3 30.5465 14.3768 133.3143 0.0000 10.6475 0.0000
# 4 0.0000 0.0000 0.0000 23.1295 0.0000 6.6077
# 5 12.0253 2.2941 10.6475 0.0000 40.9573 0.0000
# 6 0.0000 0.0000 0.0000 6.6077 0.0000 48.1110
#
#
#
# Elastic Compliance Matrix: (Units=1/GPa)
#
#
# Indices 1 2 3 4 5 6 
#
# 1 0.011849 -0.004564 -0.002007 0.000000 -0.002702 0.000000
# 2 -0.004564 0.012397 -0.000350 0.000000 0.000737 0.000000
# 3 -0.002007 -0.000350 0.008119 0.000000 -0.001502 0.000000
# 4 0.000000 0.000000 0.000000 0.045000 0.000000 -0.006180
# 5 -0.002702 0.000737 -0.001502 0.000000 0.025558 0.000000
# 6 0.000000 0.000000 0.000000 -0.006180 0.000000 0.021634
#
#
# Mechanical properties :
#
#
# Convention : Reuss Voigt Hill
#
# Bulk Modulus (GPa) = 53.98960 56.21385 55.10172
# Shear Modulus (GPa) = 34.58467 39.22819 36.90643
#
# Velocity S-wave (km/s) = 3.69757 3.93798 3.81967
# Velocity P-wave (km/s) = 6.29067 6.54976 6.42152
#
# Compressibility (1/GPa) = 0.01852209
#
# Stress axis : x y z
#
# Youngs Moduli (GPa) = 84.39559 80.66754 123.17372
#
# Poissons Ratio (x) = 0.36817 0.24721
# Poissons Ratio (y) = 0.38519 0.04310
# Poissons Ratio (z) = 0.16938 0.02823
#
# Static dielectric constant tensor:
#      x y z
#    x 2.086070 0.000000 -0.082650 
#    y 0.000000 2.081530 0.000000 
#    z -0.082650 0.000000 2.149970 
# 
# From -- ./inp_files/32180.got.cif
#   From: 2010.05.17/outbox.cif.g08.bks.cpg/sg9_17_cif.got.tgz:32180.got - 2010.06.03 20:04:27.
