data_PCOD9137716
_publ_section_title
;
Structure prediction by ZEFSAII (Michael W. Deem and Ramdas Pophale) SiO2 
 PCOD9137716
Probable space group: C C
;
_chemical_formula_sum "Si O2"
_cell_formula_units_Z 20
_cell_length_a 7.785666
_cell_length_b 12.270293
_cell_length_c 9.213905
_cell_angle_alpha 90.000000
_cell_angle_beta 46.520438
_cell_angle_gamma 90.000000
_cell_volume 638.709827
_symmetry_space_group_name_H-M "C C"
_symmetry_group_IT_number 9
_symmetry_cell_setting 'monoclinic'
loop_
_space_group_symop_operation_xyz
x,y,z
x,-y,1/2+z
1/2+x,1/2+y,z
1/2+x,1/2-y,1/2+z
loop_
_atom_site_type_symbol
_atom_site_label
_atom_site_fract_x
_atom_site_fract_y
_atom_site_fract_z
Si Si1 0.527210 0.786811 0.975730
Si Si2 0.640894 0.551372 0.999331
Si Si3 0.687178 0.269204 0.680724
Si Si4 0.645165 0.227201 0.990784
Si Si5 0.672314 0.962932 0.670833
O O1 0.579819 0.805812 0.113940
O O2 0.187625 0.599808 0.008103
O O3 0.677748 0.871617 0.796322
O O4 0.604879 0.659912 0.921509
O O5 0.634310 0.605091 0.164460
O O6 0.777197 0.294455 0.040794
O O7 0.903293 0.504681 0.832389
O O8 0.418030 0.476749 0.075323
O O9 0.857639 0.257955 0.732741
O O10 0.978671 0.261883 0.434723
#
# Coordination Sequence:
#
# PCOD9137716 Si02
#       5
#     4   4   4   4   4
#     4   9  22  44  82 113 162 228 281 346 435 526
#     4   9  24  44  81 123 167 215 291 358 428 524
#     4  10  22  43  74 121 153 219 290 338 424 523
#     4  11  21  42  82 113 154 230 279 340 432 517
#     4  11  21  51  81 120 170 222 285 366 429 514
#
# _framework density 31.313123999999998
#
# number of rings (size 3 to 8) (size 9 to 14) (size 15 to 20)
#    1.200    0.800    2.000    1.200    0.000    0.000 
#    3.600   10.000    4.400    0.000    0.000    0.000 
#    0.000    0.000    0.000    0.000    0.000    0.000 
#
# Total GULP energy -55855.699795 kJ/mol
# GULP energy per Si atom -5585.569980 kJ/mol
# Density = 3.124185 g / cm^3
# Si number density = 31.313124 Si / 1000 Ang^3
#
#
#
# Elastic Constant Matrix: (Units=GPa)
#
#
# Indices 1 2 3 4 5 6 
#
# 1 363.6858 42.3330 170.8852 -0.0020 -52.4840 0.0015
# 2 42.3330 91.5672 42.7911 -0.0004 3.8218 0.0002
# 3 170.8852 42.7911 258.3269 -0.0036 17.7117 0.0027
# 4 -0.0020 -0.0004 -0.0036 74.5161 0.0024 0.9705
# 5 -52.4840 3.8218 17.7117 0.0024 125.1218 -0.0013
# 6 0.0015 0.0002 0.0027 0.9705 -0.0013 50.1904
#
#
#
# Elastic Compliance Matrix: (Units=1/GPa)
#
#
# Indices 1 2 3 4 5 6 
#
# 1 0.004653 -0.000798 -0.003112 0.000000 0.002417 0.000000
# 2 -0.000798 0.011975 -0.001421 0.000000 -0.000499 0.000000
# 3 -0.003112 -0.001421 0.006313 0.000000 -0.002155 0.000000
# 4 0.000000 0.000000 0.000000 0.013423 0.000000 -0.000260
# 5 0.002417 -0.000499 -0.002155 0.000000 0.009326 0.000000
# 6 0.000000 0.000000 0.000000 -0.000260 0.000000 0.019929
#
#
# Mechanical properties :
#
#
# Convention : Reuss Voigt Hill
#
# Bulk Modulus (GPa) = 81.44244 136.17759 108.81002
# Shear Modulus (GPa) = 62.20803 80.47038 71.33921
#
# Velocity S-wave (km/s) = 4.46201 5.07488 4.77828
# Velocity P-wave (km/s) = 7.25339 8.82738 8.07881
#
# Compressibility (1/GPa) = 0.01227861
#
# Stress axis : x y z
#
# Youngs Moduli (GPa) = 214.89535 83.50724 158.40864
#
# Poissons Ratio (x) = 0.06664 0.49293
# Poissons Ratio (y) = 0.17149 0.22518
# Poissons Ratio (z) = 0.66871 0.11870
#
# Static dielectric constant tensor:
#      x y z
#    x 2.268270 0.000000 -0.196050 
#    y 0.000000 2.442600 0.000000 
#    z -0.196050 0.000000 2.804310 
# 
# From -- ./inp_files/14161.got.cif
#   From: 2010.05.17/outbox.cif.g08.bks.cpg/sg9_8_cif.got.tgz:14161.got - 2010.06.03 20:04:27.
