data_PCOD9137608
_publ_section_title
;
Structure prediction by ZEFSAII (Michael W. Deem and Ramdas Pophale) SiO2 
 PCOD9137608
Probable space group: C C
;
_chemical_formula_sum "Si O2"
_cell_formula_units_Z 32
_cell_length_a 8.499100
_cell_length_b 11.996948
_cell_length_c 14.647062
_cell_angle_alpha 90.000000
_cell_angle_beta 109.059149
_cell_angle_gamma 90.000000
_cell_volume 1411.593551
_symmetry_space_group_name_H-M "C C"
_symmetry_group_IT_number 9
_symmetry_cell_setting 'monoclinic'
loop_
_space_group_symop_operation_xyz
x,y,z
x,-y,1/2+z
1/2+x,1/2+y,z
1/2+x,1/2-y,1/2+z
loop_
_atom_site_type_symbol
_atom_site_label
_atom_site_fract_x
_atom_site_fract_y
_atom_site_fract_z
Si Si1 0.506420 0.228848 0.207000
Si Si2 0.958307 0.299766 0.903748
Si Si3 0.694963 0.501101 0.367557
Si Si4 0.142364 0.520104 0.515113
Si Si5 0.683495 0.885411 0.338770
Si Si6 0.867694 0.024222 0.710214
Si Si7 0.320997 0.157051 0.730801
Si Si8 0.324521 0.966075 0.577670
O O1 0.533252 0.197677 0.317114
O O2 0.428786 0.351594 0.196176
O O3 0.686991 0.243769 0.193569
O O4 0.370275 0.144750 0.141268
O O5 0.817704 0.394933 0.885337
O O6 0.847732 0.188289 0.891393
O O7 0.105387 0.346918 0.996178
O O8 0.519203 0.532900 0.290370
O O9 0.767544 0.405392 0.314845
O O10 0.685083 0.462828 0.471543
O O11 0.144627 0.461899 0.417912
O O12 0.302934 0.482213 0.601808
O O13 0.989200 0.481326 0.547740
O O14 0.723460 0.960008 0.257585
O O15 0.516337 0.817206 0.280674
O O16 0.301045 0.067812 0.644224
#
# Coordination Sequence:
#
# PCOD9137608 Si02
#       8
#     4   4   4   4   4   4   4   4
#     4  10  23  40  67  98 130 179 220 270 340 400
#     4  10  22  44  66  96 135 176 218 278 336 394
#     4  10  22  43  65  96 134 174 217 279 336 388
#     4  11  23  43  67  93 135 173 217 279 335 388
#     4  11  22  43  65  97 135 175 222 276 328 405
#     4  10  24  41  65 100 128 174 227 270 336 401
#     4  11  21  42  67  97 137 173 223 272 329 401
#     4  11  21  40  70  91 134 178 214 278 338 385
#
# _framework density 22.669414
#
# number of rings (size 3 to 8) (size 9 to 14) (size 15 to 20)
#    0.000    1.500    5.000    0.000    0.000    8.000 
#    4.500    0.000    0.000    0.000    0.000    0.000 
#    0.000    0.000    0.000    0.000    0.000    0.000 
#
# Total GULP energy -89270.179174 kJ/mol
# GULP energy per Si atom -5579.386198 kJ/mol
# Density = 2.261782 g / cm^3
# Si number density = 22.669414 Si / 1000 Ang^3
#
#
#
# Elastic Constant Matrix: (Units=GPa)
#
#
# Indices 1 2 3 4 5 6 
#
# 1 83.8051 15.6530 45.6312 0.0000 8.4660 0.0000
# 2 15.6530 52.6804 17.1343 0.0000 -1.3664 0.0000
# 3 45.6312 17.1343 112.7578 0.0000 19.7231 0.0000
# 4 0.0000 0.0000 0.0000 19.5361 0.0000 -5.3899
# 5 8.4660 -1.3664 19.7231 0.0000 35.9675 0.0000
# 6 0.0000 0.0000 0.0000 -5.3899 0.0000 16.9112
#
#
#
# Elastic Compliance Matrix: (Units=1/GPa)
#
#
# Indices 1 2 3 4 5 6 
#
# 1 0.015681 -0.002783 -0.005817 0.000000 -0.000607 0.000000
# 2 -0.002783 0.020700 -0.002512 0.000000 0.002819 0.000000
# 3 -0.005817 -0.002512 0.012589 0.000000 -0.005630 0.000000
# 4 0.000000 0.000000 0.000000 0.056122 0.000000 0.017887
# 5 -0.000607 0.002819 -0.005630 0.000000 0.031140 0.000000
# 6 0.000000 0.000000 0.000000 0.017887 0.000000 0.064833
#
#
# Mechanical properties :
#
#
# Convention : Reuss Voigt Hill
#
# Bulk Modulus (GPa) = 37.38990 45.12004 41.25497
# Shear Modulus (GPa) = 21.53283 25.87128 23.70205
#
# Velocity S-wave (km/s) = 3.08533 3.38189 3.23701
# Velocity P-wave (km/s) = 5.40571 5.93265 5.67530
#
# Compressibility (1/GPa) = 0.02674519
#
# Stress axis : x y z
#
# Youngs Moduli (GPa) = 63.77267 48.31015 79.43500
#
# Poissons Ratio (x) = 0.13445 0.46204
# Poissons Ratio (y) = 0.17749 0.19956
# Poissons Ratio (z) = 0.37094 0.12137
#
# Static dielectric constant tensor:
#      x y z
#    x 1.897860 0.000000 0.076080 
#    y 0.000000 1.882780 0.000000 
#    z 0.076080 0.000000 1.909060 
# 
# From -- ./inp_files/22816.got.cif
#   From: 2010.05.17/outbox.cif.g08.bks.cpg/sg9_12_cif.got.tgz:22816.got - 2010.06.03 20:04:27.
