data_PCOD9137763
_publ_section_title
;
Structure prediction by ZEFSAII (Michael W. Deem and Ramdas Pophale) SiO2 
 PCOD9137763
Probable space group: C C
;
_chemical_formula_sum "Si O2"
_cell_formula_units_Z 28
_cell_length_a 25.770919
_cell_length_b 6.280435
_cell_length_c 16.476489
_cell_angle_alpha 90.000000
_cell_angle_beta 26.364871
_cell_angle_gamma 90.000000
_cell_volume 1184.271581
_symmetry_space_group_name_H-M "C C"
_symmetry_group_IT_number 9
_symmetry_cell_setting 'monoclinic'
loop_
_space_group_symop_operation_xyz
x,y,z
x,-y,1/2+z
1/2+x,1/2+y,z
1/2+x,1/2-y,1/2+z
loop_
_atom_site_type_symbol
_atom_site_label
_atom_site_fract_x
_atom_site_fract_y
_atom_site_fract_z
Si Si1 0.691720 0.399529 0.206920
Si Si2 0.594516 0.111293 0.110515
Si Si3 0.886165 0.945320 0.432297
Si Si4 0.468592 0.843635 0.007194
Si Si5 0.564951 0.773483 0.471825
Si Si6 0.897231 0.619192 0.957134
Si Si7 0.850398 0.020212 0.298245
O O1 0.571177 0.321721 0.335895
O O2 0.645255 0.569717 0.338435
O O3 0.800903 0.544582 0.025309
O O4 0.769893 0.190731 0.112592
O O5 0.504288 0.303728 0.260505
O O6 0.522261 0.906777 0.240427
O O7 0.605918 0.128787 0.998621
O O8 0.721492 0.076774 0.969078
O O9 0.885910 0.136517 0.496684
O O10 0.872468 0.052867 0.362931
O O11 0.387974 0.717215 0.186099
O O12 0.545323 0.034561 0.937604
O O13 0.398861 0.959483 0.032308
O O14 0.437478 0.671519 0.656231
#
# Coordination Sequence:
#
# PCOD9137763 Si02
#       7
#     4   4   4   4   4   4   4
#     4  10  23  42  65  97 136 178 230 287 342 411
#     4  10  23  42  69 100 138 183 232 282 350 413
#     4  10  22  44  68 101 140 184 235 287 345 419
#     4  11  24  40  66 103 137 179 232 288 355 412
#     4  10  23  41  67 100 138 180 231 290 343 417
#     4  11  24  41  69 102 135 186 225 291 352 409
#     4  10  23  42  66 101 138 184 231 285 349 417
#
# _framework density 23.643225999999999
#
# number of rings (size 3 to 8) (size 9 to 14) (size 15 to 20)
#    0.000    1.714    0.000    2.571    4.000    6.857 
#    0.000    1.429    0.000    0.000    0.000    0.000 
#    0.000    0.000    0.000    0.000    0.000    0.000 
#
# Total GULP energy -77956.546982 kJ/mol
# GULP energy per Si atom -5568.324784 kJ/mol
# Density = 2.358941 g / cm^3
# Si number density = 23.643226 Si / 1000 Ang^3
#
#
#
# Elastic Constant Matrix: (Units=GPa)
#
#
# Indices 1 2 3 4 5 6 
#
# 1 97.8624 43.3041 33.0627 -0.0002 3.2372 -0.0005
# 2 43.3041 110.6635 48.9047 -0.0052 -8.9810 0.0022
# 3 33.0627 48.9047 141.4042 -0.0038 -28.6572 0.0000
# 4 -0.0002 -0.0052 -0.0038 12.8316 -0.0004 4.1581
# 5 3.2372 -8.9810 -28.6572 -0.0004 25.7131 0.0006
# 6 -0.0005 0.0022 0.0000 4.1581 0.0006 18.0653
#
#
#
# Elastic Compliance Matrix: (Units=1/GPa)
#
#
# Indices 1 2 3 4 5 6 
#
# 1 0.013397 -0.004490 -0.002893 -0.000003 -0.006478 0.000002
# 2 -0.004490 0.012176 -0.002822 0.000005 0.001673 -0.000003
# 3 -0.002893 -0.002822 0.011107 0.000003 0.011757 -0.000001
# 4 -0.000003 0.000005 0.000003 0.084214 0.000007 -0.019383
# 5 -0.006478 0.001673 0.011757 0.000007 0.053394 -0.000004
# 6 0.000002 -0.000003 -0.000001 -0.019383 -0.000004 0.059816
#
#
# Mechanical properties :
#
#
# Convention : Reuss Voigt Hill
#
# Bulk Modulus (GPa) = 61.46030 66.71923 64.08977
# Shear Modulus (GPa) = 19.23543 26.29924 22.76734
#
# Velocity S-wave (km/s) = 2.85541 3.33879 3.10652
# Velocity P-wave (km/s) = 6.07639 6.56839 6.32717
#
# Compressibility (1/GPa) = 0.01627067
#
# Stress axis : x y z
#
# Youngs Moduli (GPa) = 74.64520 82.12630 90.03219
#
# Poissons Ratio (x) = 0.36873 0.26042
# Poissons Ratio (y) = 0.33514 0.25411
# Poissons Ratio (z) = 0.21591 0.23180
#
# Static dielectric constant tensor:
#      x y z
#    x 2.004400 0.000000 -0.066890 
#    y 0.000000 1.991970 0.000000 
#    z -0.066890 0.000000 1.982960 
# 
# From -- ./inp_files/34649.got.cif
#   From: 2010.05.17/outbox.cif.g08.bks.cpg/sg9_18_cif.got.tgz:34649.got - 2010.06.03 20:04:27.
