data_PCOD9137629
_publ_section_title
;
Structure prediction by ZEFSAII (Michael W. Deem and Ramdas Pophale) SiO2 
 PCOD9137629
Probable space group: C C
;
_chemical_formula_sum "Si O2"
_cell_formula_units_Z 28
_cell_length_a 20.641553
_cell_length_b 7.587047
_cell_length_c 11.514431
_cell_angle_alpha 90.000000
_cell_angle_beta 137.265854
_cell_angle_gamma 90.000000
_cell_volume 1223.685740
_symmetry_space_group_name_H-M "C C"
_symmetry_group_IT_number 9
_symmetry_cell_setting 'monoclinic'
loop_
_space_group_symop_operation_xyz
x,y,z
x,-y,1/2+z
1/2+x,1/2+y,z
1/2+x,1/2-y,1/2+z
loop_
_atom_site_type_symbol
_atom_site_label
_atom_site_fract_x
_atom_site_fract_y
_atom_site_fract_z
Si Si1 0.603430 0.744472 0.724740
Si Si2 0.238907 0.519773 0.262491
Si Si3 0.934428 0.366648 0.947735
Si Si4 0.533491 0.337053 0.376049
Si Si5 0.724331 0.691951 0.079792
Si Si6 0.890902 0.854201 0.613272
Si Si7 0.916294 0.238014 0.398900
O O1 0.646512 0.881620 0.689597
O O2 0.557575 0.779752 0.793043
O O3 0.517336 0.634973 0.551193
O O4 0.702011 0.669072 0.913268
O O5 0.219490 0.390241 0.128565
O O6 0.286417 0.408591 0.430309
O O7 0.326426 0.647761 0.340970
O O8 0.002529 0.278402 0.943087
O O9 0.829156 0.360861 0.753316
O O10 0.947729 0.572060 0.985888
O O11 0.936557 0.253613 0.067782
O O12 0.639925 0.417065 0.532448
O O13 0.452715 0.474113 0.230717
O O14 0.890534 0.745202 0.730590
#
# Coordination Sequence:
#
# PCOD9137629 Si02
#       7
#     4   4   4   4   4   4   4
#     4  10  23  38  68  92 128 173 217 266 331 388
#     4  11  20  44  66  97 136 176 220 270 338 401
#     4  11  25  44  67  98 136 171 225 283 331 396
#     4  10  22  43  67  95 128 174 227 270 328 398
#     4   9  22  40  66  94 126 177 217 271 329 393
#     4  11  24  44  71  93 132 184 224 275 342 391
#     4  12  26  41  67 101 134 175 222 277 339 395
#
# _framework density 22.881692999999999
#
# number of rings (size 3 to 8) (size 9 to 14) (size 15 to 20)
#    0.857    0.571    1.429    4.286    2.000    1.143 
#    0.000    5.714    0.000    0.000    0.000    0.000 
#    0.000    0.000    0.000    0.000    0.000    0.000 
#
# Total GULP energy -77979.159954 kJ/mol
# GULP energy per Si atom -5569.939997 kJ/mol
# Density = 2.282961 g / cm^3
# Si number density = 22.881693 Si / 1000 Ang^3
#
#
#
# Elastic Constant Matrix: (Units=GPa)
#
#
# Indices 1 2 3 4 5 6 
#
# 1 81.5151 6.6755 16.4950 0.0000 -1.5520 0.0000
# 2 6.6755 58.9588 -0.3793 0.0000 -2.1872 0.0000
# 3 16.4950 -0.3793 93.1536 0.0000 -11.1706 0.0000
# 4 0.0000 0.0000 0.0000 21.6690 0.0000 0.0285
# 5 -1.5520 -2.1872 -11.1706 0.0000 34.7508 0.0000
# 6 0.0000 0.0000 0.0000 0.0285 0.0000 28.1892
#
#
#
# Elastic Compliance Matrix: (Units=1/GPa)
#
#
# Indices 1 2 3 4 5 6 
#
# 1 0.012852 -0.001480 -0.002313 0.000000 -0.000263 0.000000
# 2 -0.001480 0.017175 0.000472 0.000000 0.001167 0.000000
# 3 -0.002313 0.000472 0.011584 0.000000 0.003650 0.000000
# 4 0.000000 0.000000 0.000000 0.046149 0.000000 -0.000047
# 5 -0.000263 0.001167 0.003650 0.000000 0.030011 0.000000
# 6 0.000000 0.000000 0.000000 -0.000047 0.000000 0.035475
#
#
# Mechanical properties :
#
#
# Convention : Reuss Voigt Hill
#
# Bulk Modulus (GPa) = 28.59706 31.02333 29.81019
# Shear Modulus (GPa) = 29.14694 30.97754 30.06224
#
# Velocity S-wave (km/s) = 3.57292 3.68341 3.62859
# Velocity P-wave (km/s) = 5.43562 5.62829 5.53279
#
# Compressibility (1/GPa) = 0.03496863
#
# Stress axis : x y z
#
# Youngs Moduli (GPa) = 77.80921 58.22471 86.32445
#
# Poissons Ratio (x) = 0.08616 0.19969
# Poissons Ratio (y) = 0.11514 -0.04073
# Poissons Ratio (z) = 0.17999 -0.02747
#
# Static dielectric constant tensor:
#      x y z
#    x 1.860640 0.000000 0.050190 
#    y 0.000000 1.945810 0.000000 
#    z 0.050190 0.000000 1.961990 
# 
# From -- ./inp_files/20745.got.cif
#   From: 2010.05.17/outbox.cif.g08.bks.cpg/sg9_11_cif.got.tgz:20745.got - 2010.06.03 20:04:27.
