data_PCOD9137609
_publ_section_title
;
Structure prediction by ZEFSAII (Michael W. Deem and Ramdas Pophale) SiO2 
 PCOD9137609
Probable space group: C C
;
_chemical_formula_sum "Si O2"
_cell_formula_units_Z 20
_cell_length_a 12.381754
_cell_length_b 7.411187
_cell_length_c 19.587825
_cell_angle_alpha 90.000000
_cell_angle_beta 26.620072
_cell_angle_gamma 90.000000
_cell_volume 805.386336
_symmetry_space_group_name_H-M "C C"
_symmetry_group_IT_number 9
_symmetry_cell_setting 'monoclinic'
loop_
_space_group_symop_operation_xyz
x,y,z
x,-y,1/2+z
1/2+x,1/2+y,z
1/2+x,1/2-y,1/2+z
loop_
_atom_site_type_symbol
_atom_site_label
_atom_site_fract_x
_atom_site_fract_y
_atom_site_fract_z
Si Si1 0.621890 0.098100 0.709080
Si Si2 0.986104 0.993903 0.778647
Si Si3 0.097793 0.751035 0.954123
Si Si4 0.061702 0.056623 0.886988
Si Si5 0.927042 0.444589 0.948075
O O1 0.471831 0.278248 0.778063
O O2 0.853080 0.168628 0.624092
O O3 0.782807 0.009399 0.558405
O O4 0.474848 0.967530 0.841152
O O5 0.750282 0.116089 0.913022
O O6 0.118650 0.026183 0.775856
O O7 0.147805 0.068643 0.625522
O O8 0.010321 0.623503 0.940783
O O9 0.210990 0.929185 0.854004
O O10 0.063639 0.269023 0.898144
#
# Coordination Sequence:
#
# PCOD9137609 Si02
#       5
#     4   4   4   4   4
#     4   9  20  44  67  99 145 179 236 295 353 425
#     4  11  20  43  73  93 141 189 230 290 356 418
#     4   9  23  41  66 100 140 179 235 284 356 426
#     4  10  22  43  65  97 141 180 230 291 355 425
#     4  11  21  43  69  97 141 183 229 302 342 424
#
# _framework density 24.832802999999998
#
# number of rings (size 3 to 8) (size 9 to 14) (size 15 to 20)
#    1.200    0.800    2.000    1.200    0.000    1.600 
#    7.200    6.000    0.000    0.000    0.000    0.000 
#    0.000    0.000    0.000    0.000    0.000    0.000 
#
# Total GULP energy -55788.272941 kJ/mol
# GULP energy per Si atom -5578.827294 kJ/mol
# Density = 2.477628 g / cm^3
# Si number density = 24.832803 Si / 1000 Ang^3
#
#
#
# Elastic Constant Matrix: (Units=GPa)
#
#
# Indices 1 2 3 4 5 6 
#
# 1 58.5024 7.5842 11.6929 0.0014 3.2978 -0.0017
# 2 7.5842 147.6451 10.4472 -0.0043 6.6017 0.0010
# 3 11.6929 10.4472 93.4201 -0.0105 19.3566 0.0005
# 4 0.0014 -0.0043 -0.0105 18.5890 -0.0011 6.9999
# 5 3.2978 6.6017 19.3566 -0.0011 21.6233 0.0032
# 6 -0.0017 0.0010 0.0005 6.9999 0.0032 30.7874
#
#
#
# Elastic Compliance Matrix: (Units=1/GPa)
#
#
# Indices 1 2 3 4 5 6 
#
# 1 0.017623 -0.000734 -0.001981 -0.000003 -0.000691 0.000002
# 2 -0.000734 0.006910 -0.000328 0.000002 -0.001704 0.000000
# 3 -0.001981 -0.000328 0.013389 0.000007 -0.011583 -0.000001
# 4 -0.000003 0.000002 0.000007 0.058832 -0.000001 -0.013376
# 5 -0.000691 -0.001704 -0.011583 -0.000001 0.057241 -0.000005
# 6 0.000002 0.000000 -0.000001 -0.013376 -0.000005 0.035522
#
#
# Mechanical properties :
#
#
# Convention : Reuss Voigt Hill
#
# Bulk Modulus (GPa) = 31.40982 39.89068 35.65025
# Shear Modulus (GPa) = 24.24652 32.18950 28.21801
#
# Velocity S-wave (km/s) = 3.12811 3.60425 3.37459
# Velocity P-wave (km/s) = 5.07176 5.78095 5.43793
#
# Compressibility (1/GPa) = 0.03183718
#
# Stress axis : x y z
#
# Youngs Moduli (GPa) = 56.74308 144.71548 74.68857
#
# Poissons Ratio (x) = 0.10626 0.14793
# Poissons Ratio (y) = 0.04166 0.02448
# Poissons Ratio (z) = 0.11239 0.04743
#
# Static dielectric constant tensor:
#      x y z
#    x 1.995610 0.000000 -0.068100 
#    y 0.000000 1.947220 0.000000 
#    z -0.068100 0.000000 1.968800 
# 
# From -- ./inp_files/15827.got.cif
#   From: 2010.05.17/outbox.cif.g08.bks.cpg/sg9_8_cif.got.tgz:15827.got - 2010.06.03 20:04:27.
