data_PCOD9137519
_publ_section_title
;
Structure prediction by ZEFSAII (Michael W. Deem and Ramdas Pophale) SiO2 
 PCOD9137519
Probable space group: C C
;
_chemical_formula_sum "Si O2"
_cell_formula_units_Z 28
_cell_length_a 8.718735
_cell_length_b 11.653281
_cell_length_c 19.576370
_cell_angle_alpha 90.000000
_cell_angle_beta 33.243147
_cell_angle_gamma 90.000000
_cell_volume 1090.353960
_symmetry_space_group_name_H-M "C C"
_symmetry_group_IT_number 9
_symmetry_cell_setting 'monoclinic'
loop_
_space_group_symop_operation_xyz
x,y,z
x,-y,1/2+z
1/2+x,1/2+y,z
1/2+x,1/2-y,1/2+z
loop_
_atom_site_type_symbol
_atom_site_label
_atom_site_fract_x
_atom_site_fract_y
_atom_site_fract_z
Si Si1 0.250000 0.016532 0.685440
Si Si2 0.422665 0.059625 0.481537
Si Si3 0.257201 0.512396 0.084326
Si Si4 0.900816 0.191556 0.334390
Si Si5 0.504833 0.221552 0.653445
Si Si6 0.825145 0.408639 0.859109
Si Si7 0.554569 0.183206 0.895122
O O1 0.559062 0.964672 0.591661
O O2 0.054636 0.926553 0.796176
O O3 0.204916 0.021483 0.621030
O O4 0.262606 0.145078 0.710120
O O5 0.577728 0.161396 0.465008
O O6 0.348853 0.096293 0.432668
O O7 0.607328 0.944171 0.400527
O O8 0.199708 0.377045 0.113997
O O9 0.104223 0.566815 0.208427
O O10 0.587019 0.511586 0.942336
O O11 0.904509 0.204168 0.252638
O O12 0.067101 0.291583 0.310017
O O13 0.720500 0.294569 0.529214
O O14 0.714808 0.286322 0.872229
#
# Coordination Sequence:
#
# PCOD9137519 Si02
#       7
#     4   4   4   4   4   4   4
#     4  10  22  42  68  99 133 183 231 281 346 415
#     4  12  26  40  71 103 135 180 236 290 340 422
#     4   9  21  43  70  95 138 186 225 281 349 410
#     4  12  22  43  72  94 138 181 227 284 346 412
#     4   9  20  39  69  92 133 180 222 280 351 397
#     4  11  23  43  68 103 143 176 234 290 345 408
#     4  11  22  44  68  96 136 182 225 284 353 406
#
# _framework density 25.679735000000001
#
# number of rings (size 3 to 8) (size 9 to 14) (size 15 to 20)
#    0.857    0.571    4.286    0.857    2.000    1.143 
#    0.000    1.429    3.143    0.000    0.000    0.000 
#    0.000    0.000    0.000    0.000    0.000    0.000 
#
# Total GULP energy -77937.204989 kJ/mol
# GULP energy per Si atom -5566.943214 kJ/mol
# Density = 2.562129 g / cm^3
# Si number density = 25.679735 Si / 1000 Ang^3
#
#
#
# Elastic Constant Matrix: (Units=GPa)
#
#
# Indices 1 2 3 4 5 6 
#
# 1 101.1308 21.1897 12.5576 0.0003 30.3017 0.0012
# 2 21.1897 40.8751 -12.2182 -0.0066 3.7359 0.0016
# 3 12.5576 -12.2182 54.4850 0.0022 15.4051 0.0007
# 4 0.0003 -0.0066 0.0022 23.2977 -0.0059 1.8426
# 5 30.3017 3.7359 15.4051 -0.0059 37.1620 0.0003
# 6 0.0012 0.0016 0.0007 1.8426 0.0003 43.0780
#
#
#
# Elastic Compliance Matrix: (Units=1/GPa)
#
#
# Indices 1 2 3 4 5 6 
#
# 1 0.014832 -0.007361 -0.002106 -0.000005 -0.010481 0.000000
# 2 -0.007361 0.031006 0.008874 0.000008 -0.000794 -0.000001
# 3 -0.002106 0.008874 0.023330 -0.000002 -0.008846 -0.000001
# 4 -0.000005 0.000008 -0.000002 0.043068 0.000011 -0.001842
# 5 -0.010481 -0.000794 -0.008846 0.000011 0.039203 0.000000
# 6 0.000000 -0.000001 -0.000001 -0.001842 0.000000 0.023293
#
#
# Mechanical properties :
#
#
# Convention : Reuss Voigt Hill
#
# Bulk Modulus (GPa) = 14.70947 26.61658 20.66303
# Shear Modulus (GPa) = 25.17906 32.37164 28.77535
#
# Velocity S-wave (km/s) = 3.13470 3.55433 3.35109
# Velocity P-wave (km/s) = 4.34076 5.21840 4.79968
#
# Compressibility (1/GPa) = 0.06798340
#
# Stress axis : x y z
#
# Youngs Moduli (GPa) = 67.41977 32.25229 42.86303
#
# Poissons Ratio (x) = 0.23740 0.09025
# Poissons Ratio (y) = 0.49625 -0.38036
# Poissons Ratio (z) = 0.14196 -0.28620
#
# Static dielectric constant tensor:
#      x y z
#    x 2.061580 0.000000 -0.084600 
#    y 0.000000 2.020440 0.000030 
#    z -0.084600 0.000030 2.217260 
# 
# From -- ./inp_files/32530.got.cif
#   From: 2010.05.17/outbox.cif.g08.bks.cpg/sg9_17_cif.got.tgz:32530.got - 2010.06.03 20:04:27.
