data_PCOD9137627
_publ_section_title
;
Structure prediction by ZEFSAII (Michael W. Deem and Ramdas Pophale) SiO2 
 PCOD9137627
Probable space group: C C
;
_chemical_formula_sum "Si O2"
_cell_formula_units_Z 28
_cell_length_a 18.716206
_cell_length_b 5.085078
_cell_length_c 12.873632
_cell_angle_alpha 90.000000
_cell_angle_beta 112.649956
_cell_angle_gamma 90.000000
_cell_volume 1130.731038
_symmetry_space_group_name_H-M "C C"
_symmetry_group_IT_number 9
_symmetry_cell_setting 'monoclinic'
loop_
_space_group_symop_operation_xyz
x,y,z
x,-y,1/2+z
1/2+x,1/2+y,z
1/2+x,1/2-y,1/2+z
loop_
_atom_site_type_symbol
_atom_site_label
_atom_site_fract_x
_atom_site_fract_y
_atom_site_fract_z
Si Si1 0.983790 0.719448 0.063410
Si Si2 0.134273 0.562648 0.616621
Si Si3 0.910034 0.331102 0.160461
Si Si4 0.574565 0.376821 0.759880
Si Si5 0.847269 0.284945 0.342281
Si Si6 0.177721 0.941107 0.012028
Si Si7 0.805911 0.804233 0.433203
O O1 0.921651 0.613547 0.113528
O O2 0.932140 0.789288 0.935252
O O3 0.043045 0.909304 0.158519
O O4 0.040522 0.481567 0.055440
O O5 0.134642 0.684030 0.733471
O O6 0.164668 0.283997 0.591668
O O7 0.176838 0.780974 0.570141
O O8 0.852854 0.285219 0.222597
O O9 0.996368 0.272251 0.245086
O O10 0.881152 0.156711 0.048627
O O11 0.610955 0.473623 0.887073
O O12 0.826591 0.579607 0.362637
O O13 0.790488 0.075428 0.364904
O O14 0.247070 0.832937 0.979831
#
# Coordination Sequence:
#
# PCOD9137627 Si02
#       7
#     4   4   4   4   4   4   4
#     4  10  22  43  67 105 135 166 232 287 332 419
#     4  11  25  44  66 103 136 176 224 284 342 406
#     4  10  24  40  72  96 134 175 219 279 345 394
#     4  11  24  43  70 104 133 174 229 285 345 409
#     4  11  24  43  70  95 134 179 219 279 336 399
#     4  12  27  43  71  96 141 185 224 281 345 405
#     4  11  26  46  62 101 135 177 233 269 325 422
#
# _framework density 24.762743
#
# number of rings (size 3 to 8) (size 9 to 14) (size 15 to 20)
#    0.000    1.143    2.857    1.714    8.000    2.286 
#    0.000    0.000    0.000    0.000    0.000    0.000 
#    0.000    0.000    0.000    0.000    0.000    0.000 
#
# Total GULP energy -78140.545767 kJ/mol
# GULP energy per Si atom -5581.467555 kJ/mol
# Density = 2.470638 g / cm^3
# Si number density = 24.762743 Si / 1000 Ang^3
#
#
#
# Elastic Constant Matrix: (Units=GPa)
#
#
# Indices 1 2 3 4 5 6 
#
# 1 59.8340 -0.0958 14.6691 0.0000 -12.1468 0.0000
# 2 -0.0958 104.3897 28.8493 0.0000 -8.6918 0.0000
# 3 14.6691 28.8493 76.9141 0.0000 -15.5371 0.0000
# 4 0.0000 0.0000 0.0000 10.7047 0.0000 -1.2460
# 5 -12.1468 -8.6918 -15.5371 0.0000 37.2350 0.0000
# 6 0.0000 0.0000 0.0000 -1.2460 0.0000 30.1620
#
#
#
# Elastic Compliance Matrix: (Units=1/GPa)
#
#
# Indices 1 2 3 4 5 6 
#
# 1 0.018475 0.001261 -0.002970 0.000000 0.005082 0.000000
# 2 0.001261 0.010801 -0.004040 0.000000 0.001247 0.000000
# 3 -0.002970 -0.004040 0.016050 0.000000 0.004785 0.000000
# 4 0.000000 0.000000 0.000000 0.093868 0.000000 0.003878
# 5 0.005082 0.001247 0.004785 0.000000 0.030802 0.000000
# 6 0.000000 0.000000 0.000000 0.003878 0.000000 0.033314
#
#
# Mechanical properties :
#
#
# Convention : Reuss Voigt Hill
#
# Bulk Modulus (GPa) = 29.56153 36.44257 33.00205
# Shear Modulus (GPa) = 22.11571 28.80137 25.45854
#
# Velocity S-wave (km/s) = 2.99173 3.41411 3.20988
# Velocity P-wave (km/s) = 4.88853 5.50365 5.20519
#
# Compressibility (1/GPa) = 0.03382774
#
# Stress axis : x y z
#
# Youngs Moduli (GPa) = 54.12812 92.58465 62.30578
#
# Poissons Ratio (x) = -0.11674 0.18504
# Poissons Ratio (y) = -0.06825 0.25171
# Poissons Ratio (z) = 0.16075 0.37403
#
# Static dielectric constant tensor:
#      x y z
#    x 2.061800 0.000000 0.056770 
#    y 0.000000 2.002560 0.000000 
#    z 0.056770 0.000000 1.949390 
# 
# From -- ./inp_files/18841.got.cif
#   From: 2010.05.17/outbox.cif.g08.bks.cpg/sg9_10_cif.got.tgz:18841.got - 2010.06.03 20:04:27.
