data_PCOD9137125
_publ_section_title
;
Structure prediction by ZEFSAII (Michael W. Deem and Ramdas Pophale) SiO2 
 PCOD9137125
Probable space group: C C
;
_chemical_formula_sum "Si O2"
_cell_formula_units_Z 28
_cell_length_a 22.914183
_cell_length_b 8.313594
_cell_length_c 8.909389
_cell_angle_alpha 90.000000
_cell_angle_beta 139.708107
_cell_angle_gamma 90.000000
_cell_volume 1097.568891
_symmetry_space_group_name_H-M "C C"
_symmetry_group_IT_number 9
_symmetry_cell_setting 'monoclinic'
loop_
_space_group_symop_operation_xyz
x,y,z
x,-y,1/2+z
1/2+x,1/2+y,z
1/2+x,1/2-y,1/2+z
loop_
_atom_site_type_symbol
_atom_site_label
_atom_site_fract_x
_atom_site_fract_y
_atom_site_fract_z
Si Si1 0.682280 0.514389 0.072320
Si Si2 0.851001 0.836654 0.071358
Si Si3 0.153137 0.223795 0.739908
Si Si4 0.885639 0.510789 0.600165
Si Si5 0.853262 0.166361 0.213630
Si Si6 0.061625 0.485936 0.746656
Si Si7 0.652171 0.172543 0.686715
O O1 0.640019 0.349806 0.049679
O O2 0.788685 0.511094 0.324092
O O3 0.637583 0.660682 0.074793
O O4 0.671080 0.567038 0.879650
O O5 0.746992 0.821864 0.922596
O O6 0.888993 0.661699 0.190274
O O7 0.857232 0.841010 0.901820
O O8 0.891744 0.998978 0.221467
O O9 0.077368 0.330604 0.669528
O O10 0.889498 0.668302 0.711806
O O11 0.968440 0.504517 0.648606
O O12 0.750059 0.170085 0.952573
O O13 0.083019 0.631636 0.680268
O O14 0.136898 0.457253 0.023634
#
# Coordination Sequence:
#
# PCOD9137125 Si02
#       7
#     4   4   4   4   4   4   4
#     4   9  22  39  64  97 127 183 229 282 336 428
#     4  11  25  41  72 103 136 187 241 285 351 430
#     4  10  22  40  68  98 134 179 240 287 346 424
#     4  10  26  42  70 101 143 181 238 292 366 406
#     4  11  24  46  71 102 135 191 238 295 339 436
#     4  11  23  41  64  98 137 175 221 299 352 411
#     4  10  22  39  65  93 128 174 229 274 350 411
#
# _framework density 25.510928
#
# number of rings (size 3 to 8) (size 9 to 14) (size 15 to 20)
#    0.000    1.714    1.429    0.857   18.000    0.000 
#    2.571    1.429    0.000    0.000    0.000    0.000 
#    0.000    0.000    0.000    0.000    0.000    0.000 
#
# Total GULP energy -78400.335560 kJ/mol
# GULP energy per Si atom -5600.023969 kJ/mol
# Density = 2.545286 g / cm^3
# Si number density = 25.510928 Si / 1000 Ang^3
#
#
#
# Elastic Constant Matrix: (Units=GPa)
#
#
# Indices 1 2 3 4 5 6 
#
# 1 173.0015 85.5359 42.2414 0.0000 -0.1262 0.0000
# 2 85.5359 177.0778 30.9885 0.0000 -17.3263 0.0000
# 3 42.2414 30.9885 90.6819 0.0000 -10.9429 0.0000
# 4 0.0000 0.0000 0.0000 14.0646 0.0000 -24.3046
# 5 -0.1262 -17.3263 -10.9429 0.0000 38.3098 0.0000
# 6 0.0000 0.0000 0.0000 -24.3046 0.0000 62.6660
#
#
#
# Elastic Compliance Matrix: (Units=1/GPa)
#
#
# Indices 1 2 3 4 5 6 
#
# 1 0.008352 -0.003772 -0.002904 0.000000 -0.002508 0.000000
# 2 -0.003772 0.007895 -0.000530 0.000000 0.003407 0.000000
# 3 -0.002904 -0.000530 0.012979 0.000000 0.003458 0.000000
# 4 0.000000 0.000000 0.000000 0.215602 0.000000 0.083620
# 5 -0.002508 0.003407 0.003458 0.000000 0.028623 0.000000
# 6 0.000000 0.000000 0.000000 0.083620 0.000000 0.048389
#
#
# Mechanical properties :
#
#
# Convention : Reuss Voigt Hill
#
# Bulk Modulus (GPa) = 67.50221 84.25474 75.87847
# Shear Modulus (GPa) = 14.65454 41.80777 28.23116
#
# Velocity S-wave (km/s) = 2.39935 4.05262 3.33021
# Velocity P-wave (km/s) = 5.84751 7.41599 6.67796
#
# Compressibility (1/GPa) = 0.01481433
#
# Stress axis : x y z
#
# Youngs Moduli (GPa) = 119.72520 126.65892 77.04800
#
# Poissons Ratio (x) = 0.47772 0.22378
# Poissons Ratio (y) = 0.45157 0.04083
# Poissons Ratio (z) = 0.34774 0.06712
#
# Static dielectric constant tensor:
#      x y z
#    x 1.960280 0.000000 -0.004200 
#    y 0.000000 2.068360 0.000000 
#    z -0.004200 0.000000 2.026050 
# 
# From -- ./inp_files/11432.got.cif
#   From: 2010.05.17/outbox.cif.g08.bks.cpg/sg9_6_cif.got.tgz:11432.got - 2010.06.03 20:04:27.
