data_PCOD9137119
_publ_section_title
;
Structure prediction by ZEFSAII (Michael W. Deem and Ramdas Pophale) SiO2 
 PCOD9137119
Probable space group: C C
;
_chemical_formula_sum "Si O2"
_cell_formula_units_Z 32
_cell_length_a 5.865747
_cell_length_b 12.891393
_cell_length_c 20.627964
_cell_angle_alpha 90.000000
_cell_angle_beta 57.709409
_cell_angle_gamma 90.000000
_cell_volume 1318.608520
_symmetry_space_group_name_H-M "C C"
_symmetry_group_IT_number 9
_symmetry_cell_setting 'monoclinic'
loop_
_space_group_symop_operation_xyz
x,y,z
x,-y,1/2+z
1/2+x,1/2+y,z
1/2+x,1/2-y,1/2+z
loop_
_atom_site_type_symbol
_atom_site_label
_atom_site_fract_x
_atom_site_fract_y
_atom_site_fract_z
Si Si1 0.888430 0.714004 0.845960
Si Si2 0.160206 0.073780 0.764793
Si Si3 0.397088 0.160954 0.402086
Si Si4 0.143835 0.614508 0.916020
Si Si5 0.901683 0.644381 0.250726
Si Si6 0.005822 0.938345 0.063601
Si Si7 0.015198 0.468556 0.051785
Si Si8 0.697988 0.704578 0.628592
O O1 0.798123 0.643308 0.799705
O O2 0.688940 0.810894 0.885431
O O3 0.888533 0.644612 0.910860
O O4 0.178030 0.764090 0.786200
O O5 0.282438 0.960917 0.742371
O O6 0.186334 0.132694 0.693858
O O7 0.851341 0.068274 0.832565
O O8 0.250221 0.273381 0.423312
O O9 0.452716 0.127822 0.319488
O O10 0.203735 0.086265 0.472426
O O11 0.141526 0.534581 0.974704
O O12 0.141459 0.684750 0.168131
O O13 0.196964 0.000529 0.086086
O O14 0.976609 0.830185 0.108629
O O15 0.725696 0.979597 0.078798
O O16 0.970355 0.342275 0.054840
#
# Coordination Sequence:
#
# PCOD9137119 Si02
#       8
#     4   4   4   4   4   4   4   4
#     4  10  22  40  70 102 143 172 242 301 350 434
#     4  11  23  41  70 100 140 184 242 293 369 422
#     4  10  22  39  65 101 138 181 241 298 356 434
#     4  10  22  39  65 101 138 181 241 298 356 434
#     4  11  23  41  70 100 140 184 242 293 369 422
#     4  10  25  42  69  94 143 183 235 296 368 420
#     4  10  25  42  69  94 143 183 235 296 368 420
#     4  10  24  44  62 102 145 186 240 311 352 442
#
# _framework density 24.268004999999999
#
# number of rings (size 3 to 8) (size 9 to 14) (size 15 to 20)
#    0.750    1.000    3.750    0.750   12.250    1.000 
#    0.000    0.000   11.000    0.000    0.000    0.000 
#    0.000    0.000    0.000    0.000    0.000    0.000 
#
# Total GULP energy -89151.798592 kJ/mol
# GULP energy per Si atom -5571.987412 kJ/mol
# Density = 2.421277 g / cm^3
# Si number density = 24.268005 Si / 1000 Ang^3
#
#
#
# Elastic Constant Matrix: (Units=GPa)
#
#
# Indices 1 2 3 4 5 6 
#
# 1 133.4586 23.2786 31.1631 -0.0002 23.4752 0.0004
# 2 23.2786 104.0452 19.2350 -0.0001 1.9800 0.0003
# 3 31.1631 19.2350 41.7625 0.0000 12.9619 0.0002
# 4 -0.0002 -0.0001 0.0000 34.8089 0.0000 0.6984
# 5 23.4752 1.9800 12.9619 0.0000 31.2164 -0.0001
# 6 0.0004 0.0003 0.0002 0.6984 -0.0001 26.0529
#
#
#
# Elastic Compliance Matrix: (Units=1/GPa)
#
#
# Indices 1 2 3 4 5 6 
#
# 1 0.009811 -0.001136 -0.005200 0.000000 -0.005146 0.000000
# 2 -0.001136 0.010702 -0.004748 0.000000 0.002147 0.000000
# 3 -0.005200 -0.004748 0.032952 0.000000 -0.009471 0.000000
# 4 0.000000 0.000000 0.000000 0.028744 0.000000 -0.000770
# 5 -0.005146 0.002147 -0.009471 0.000000 0.039701 0.000000
# 6 0.000000 0.000000 0.000000 -0.000770 0.000000 0.038404
#
#
# Mechanical properties :
#
#
# Convention : Reuss Voigt Hill
#
# Bulk Modulus (GPa) = 31.95256 47.40219 39.67738
# Shear Modulus (GPa) = 25.91835 32.12160 29.01998
#
# Velocity S-wave (km/s) = 3.27158 3.64211 3.46180
# Velocity P-wave (km/s) = 5.24081 6.10424 5.68893
#
# Compressibility (1/GPa) = 0.03129639
#
# Stress axis : x y z
#
# Youngs Moduli (GPa) = 101.93081 93.43845 30.34747
#
# Poissons Ratio (x) = 0.10611 0.15782
# Poissons Ratio (y) = 0.11576 0.14409
# Poissons Ratio (z) = 0.53007 0.44366
#
# Static dielectric constant tensor:
#      x y z
#    x 2.000670 0.000000 -0.026550 
#    y 0.000000 1.977290 0.000000 
#    z -0.026550 0.000000 2.000520 
# 
# From -- ./inp_files/32133.got.cif
#   From: 2010.05.17/outbox.cif.g08.bks.cpg/sg9_17_cif.got.tgz:32133.got - 2010.06.03 20:04:27.
