data_PCOD9137116
_publ_section_title
;
Structure prediction by ZEFSAII (Michael W. Deem and Ramdas Pophale) SiO2 
 PCOD9137116
Probable space group: C C
;
_chemical_formula_sum "Si O2"
_cell_formula_units_Z 32
_cell_length_a 25.351060
_cell_length_b 5.312167
_cell_length_c 9.891931
_cell_angle_alpha 90.000000
_cell_angle_beta 119.695988
_cell_angle_gamma 90.000000
_cell_volume 1157.182473
_symmetry_space_group_name_H-M "C C"
_symmetry_group_IT_number 9
_symmetry_cell_setting 'monoclinic'
loop_
_space_group_symop_operation_xyz
x,y,z
x,-y,1/2+z
1/2+x,1/2+y,z
1/2+x,1/2-y,1/2+z
loop_
_atom_site_type_symbol
_atom_site_label
_atom_site_fract_x
_atom_site_fract_y
_atom_site_fract_z
Si Si1 0.959230 0.004645 0.796940
Si Si2 0.576429 0.122850 0.185556
Si Si3 0.660620 0.993819 0.039190
Si Si4 0.143910 0.049653 0.661805
Si Si5 0.871398 0.012930 0.432574
Si Si6 0.482053 0.993093 0.255172
Si Si7 0.340142 0.016091 0.517644
Si Si8 0.726653 0.546877 0.031126
O O1 0.929159 0.009716 0.609641
O O2 0.000462 0.758422 0.854946
O O3 0.997112 0.257644 0.856583
O O4 0.903291 0.991821 0.828596
O O5 0.619688 0.995302 0.351489
O O6 0.582923 0.426469 0.191519
O O7 0.511551 0.025406 0.146205
O O8 0.621520 0.140701 0.111003
O O9 0.636241 0.710676 0.074672
O O10 0.722603 0.840416 0.073538
O O11 0.193023 0.167060 0.582812
O O12 0.195575 0.034705 0.843489
O O13 0.834276 0.763044 0.419224
O O14 0.834405 0.260862 0.424697
O O15 0.409555 0.985250 0.157059
O O16 0.295293 0.023043 0.585795
#
# Coordination Sequence:
#
# PCOD9137116 Si02
#       8
#     4   4   4   4   4   4   4   4
#     4  10  22  39  64  88 137 174 220 267 324 411
#     4   9  21  41  68  95 130 178 222 290 337 411
#     4   9  22  44  62  96 128 175 233 277 344 399
#     4   9  24  42  64  98 128 175 237 278 348 399
#     4  10  22  41  60  92 133 177 220 264 329 405
#     4  10  22  44  66 104 136 179 223 277 351 415
#     4  10  24  42  69 100 139 178 223 280 347 418
#     4  11  23  41  69  99 131 184 224 295 344 414
#
# _framework density 27.653372000000001
#
# number of rings (size 3 to 8) (size 9 to 14) (size 15 to 20)
#    0.750    1.500    0.000    0.750    3.500    9.000 
#    4.500    0.000    0.000    0.000    0.000    0.000 
#    0.000    0.000    0.000    0.000    0.000    0.000 
#
# Total GULP energy -89225.731231 kJ/mol
# GULP energy per Si atom -5576.608202 kJ/mol
# Density = 2.759043 g / cm^3
# Si number density = 27.653372 Si / 1000 Ang^3
#
#
#
# Elastic Constant Matrix: (Units=GPa)
#
#
# Indices 1 2 3 4 5 6 
#
# 1 197.3007 62.6919 55.1844 0.0000 -32.0133 0.0000
# 2 62.6919 221.3047 0.8685 0.0000 -33.8026 0.0000
# 3 55.1844 0.8685 95.6462 0.0000 -14.6732 0.0000
# 4 0.0000 0.0000 0.0000 36.6922 0.0000 -26.2932
# 5 -32.0133 -33.8026 -14.6732 0.0000 47.3906 0.0000
# 6 0.0000 0.0000 0.0000 -26.2932 0.0000 40.0022
#
#
#
# Elastic Compliance Matrix: (Units=1/GPa)
#
#
# Indices 1 2 3 4 5 6 
#
# 1 0.006992 -0.001590 -0.003642 0.000000 0.002461 0.000000
# 2 -0.001590 0.005459 0.001365 0.000000 0.003242 0.000000
# 3 -0.003642 0.001365 0.012930 0.000000 0.002517 0.000000
# 4 0.000000 0.000000 0.000000 0.051520 0.000000 0.033864
# 5 0.002461 0.003242 0.002517 0.000000 0.025856 0.000000
# 6 0.000000 0.000000 0.000000 0.033864 0.000000 0.047257
#
#
# Mechanical properties :
#
#
# Convention : Reuss Voigt Hill
#
# Bulk Modulus (GPa) = 56.66655 83.52679 70.09667
# Shear Modulus (GPa) = 30.55657 51.18410 40.87034
#
# Velocity S-wave (km/s) = 3.32774 4.30690 3.84858
# Velocity P-wave (km/s) = 5.94149 7.41640 6.71954
#
# Compressibility (1/GPa) = 0.01764709
#
# Stress axis : x y z
#
# Youngs Moduli (GPa) = 143.02605 183.18136 77.33794
#
# Poissons Ratio (x) = 0.29134 0.28166
# Poissons Ratio (y) = 0.22748 -0.10560
# Poissons Ratio (z) = 0.52090 -0.25013
#
# Static dielectric constant tensor:
#      x y z
#    x 2.250860 0.000000 -0.050100 
#    y 0.000000 2.673240 0.000000 
#    z -0.050100 0.000000 2.241860 
# 
# From -- ./inp_files/20490.got.cif
#   From: 2010.05.17/outbox.cif.g08.bks.cpg/sg9_11_cif.got.tgz:20490.got - 2010.06.03 20:04:27.
