data_PCOD9137704
_publ_section_title
;
Structure prediction by ZEFSAII (Michael W. Deem and Ramdas Pophale) SiO2 
 PCOD9137704
Probable space group: C C
;
_chemical_formula_sum "Si O2"
_cell_formula_units_Z 28
_cell_length_a 12.563479
_cell_length_b 7.181946
_cell_length_c 30.317811
_cell_angle_alpha 90.000000
_cell_angle_beta 153.279220
_cell_angle_gamma 90.000000
_cell_volume 1230.035679
_symmetry_space_group_name_H-M "C C"
_symmetry_group_IT_number 9
_symmetry_cell_setting 'monoclinic'
loop_
_space_group_symop_operation_xyz
x,y,z
x,-y,1/2+z
1/2+x,1/2+y,z
1/2+x,1/2-y,1/2+z
loop_
_atom_site_type_symbol
_atom_site_label
_atom_site_fract_x
_atom_site_fract_y
_atom_site_fract_z
Si Si1 0.268230 0.357758 0.845580
Si Si2 0.556597 0.599271 0.376248
Si Si3 0.809795 0.341725 0.729446
Si Si4 0.304062 0.542791 0.009919
Si Si5 0.860517 0.912649 0.715971
Si Si6 0.440347 0.212904 0.997186
Si Si7 0.314885 0.048723 0.332754
O O1 0.400802 0.483692 0.858885
O O2 0.449605 0.289878 0.950872
O O3 0.225550 0.167733 0.801713
O O4 0.028972 0.422122 0.781343
O O5 0.708941 0.767067 0.452959
O O6 0.387334 0.674891 0.274618
O O7 0.737052 0.445366 0.424063
O O8 0.548903 0.420302 0.624500
O O9 0.842722 0.374984 0.793696
O O10 0.814198 0.127242 0.714034
O O11 0.362035 0.394033 0.994427
O O12 0.077582 0.454806 0.951162
O O13 0.665285 0.860105 0.607587
O O14 0.110066 0.862232 0.785670
#
# Coordination Sequence:
#
# PCOD9137704 Si02
#       7
#     4   4   4   4   4   4   4
#     4  10  24  46  69 106 145 184 241 298 354 440
#     4  11  24  50  69  99 150 187 236 301 367 422
#     4  11  22  47  69 106 142 183 252 293 361 437
#     4  11  25  44  72 102 141 190 240 298 361 436
#     4  11  25  44  75 103 144 195 235 305 367 425
#     4  12  24  48  68 107 147 185 247 299 357 439
#     4  10  22  43  72  97 143 190 227 306 353 417
#
# _framework density 22.763567999999999
#
# number of rings (size 3 to 8) (size 9 to 14) (size 15 to 20)
#    0.000    1.143    5.714    0.000    8.000    0.000 
#   12.857    0.000    0.000    0.000    0.000    0.000 
#    0.000    0.000    0.000    0.000    0.000    0.000 
#
# Total GULP energy -78085.692804 kJ/mol
# GULP energy per Si atom -5577.549486 kJ/mol
# Density = 2.271176 g / cm^3
# Si number density = 22.763568 Si / 1000 Ang^3
#
#
#
# Elastic Constant Matrix: (Units=GPa)
#
#
# Indices 1 2 3 4 5 6 
#
# 1 155.0554 18.0684 74.6655 0.0000 13.9788 -0.0001
# 2 18.0684 53.8556 17.8805 0.0009 2.6416 -0.0001
# 3 74.6655 17.8805 194.8964 0.0006 4.6146 -0.0001
# 4 0.0000 0.0009 0.0006 14.4672 0.0000 -6.3664
# 5 13.9788 2.6416 4.6146 0.0000 13.8831 0.0001
# 6 -0.0001 -0.0001 -0.0001 -6.3664 0.0001 36.3078
#
#
#
# Elastic Compliance Matrix: (Units=1/GPa)
#
#
# Indices 1 2 3 4 5 6 
#
# 1 0.008774 -0.001565 -0.003039 0.000000 -0.007526 0.000000
# 2 -0.001565 0.019563 -0.001153 -0.000001 -0.001763 0.000000
# 3 -0.003039 -0.001153 0.006374 0.000000 0.001161 0.000000
# 4 0.000000 -0.000001 0.000000 0.074902 0.000000 0.013134
# 5 -0.007526 -0.001763 0.001161 0.000000 0.079558 0.000000
# 6 0.000000 0.000000 0.000000 0.013134 0.000000 0.029845
#
#
# Mechanical properties :
#
#
# Convention : Reuss Voigt Hill
#
# Bulk Modulus (GPa) = 43.11464 69.44847 56.28155
# Shear Modulus (GPa) = 20.98527 32.47783 26.73155
#
# Velocity S-wave (km/s) = 3.03954 3.78133 3.43054
# Velocity P-wave (km/s) = 5.59462 7.04552 6.36157
#
# Compressibility (1/GPa) = 0.02319398
#
# Stress axis : x y z
#
# Youngs Moduli (GPa) = 113.97486 51.11770 156.89514
#
# Poissons Ratio (x) = 0.08001 0.47688
# Poissons Ratio (y) = 0.17841 0.18095
# Poissons Ratio (z) = 0.34643 0.05896
#
# Static dielectric constant tensor:
#      x y z
#    x 1.945020 0.000000 -0.012620 
#    y 0.000000 1.946800 0.000000 
#    z -0.012620 0.000000 1.919680 
# 
# From -- ./inp_files/15941.got.cif
#   From: 2010.05.17/outbox.cif.g08.bks.cpg/sg9_8_cif.got.tgz:15941.got - 2010.06.03 20:04:27.
