data_PCOD9137753
_publ_section_title
;
Structure prediction by ZEFSAII (Michael W. Deem and Ramdas Pophale) SiO2 
 PCOD9137753
Probable space group: C C
;
_chemical_formula_sum "Si O2"
_cell_formula_units_Z 28
_cell_length_a 23.912030
_cell_length_b 6.153033
_cell_length_c 22.598703
_cell_angle_alpha 90.000000
_cell_angle_beta 160.922734
_cell_angle_gamma 90.000000
_cell_volume 1086.746638
_symmetry_space_group_name_H-M "C C"
_symmetry_group_IT_number 9
_symmetry_cell_setting 'monoclinic'
loop_
_space_group_symop_operation_xyz
x,y,z
x,-y,1/2+z
1/2+x,1/2+y,z
1/2+x,1/2-y,1/2+z
loop_
_atom_site_type_symbol
_atom_site_label
_atom_site_fract_x
_atom_site_fract_y
_atom_site_fract_z
Si Si1 0.994140 0.810557 0.321380
Si Si2 0.292278 0.047671 0.038462
Si Si3 0.994140 0.189447 0.453207
Si Si4 0.692756 0.000001 0.585910
Si Si5 0.152942 0.199337 0.296095
Si Si6 0.792279 0.452329 0.332402
Si Si7 0.314260 0.398115 0.957414
O O1 0.825323 0.950429 0.165184
O O2 0.126324 0.937586 0.413631
O O3 0.077180 0.716208 0.464789
O O4 0.945431 0.589237 0.237046
O O5 0.307133 0.250140 0.008182
O O6 0.264473 0.850080 0.966400
O O7 0.945433 0.410764 0.440125
O O8 0.077176 0.283799 0.475875
O O9 0.126326 0.062416 0.625325
O O10 0.825324 0.049573 0.271769
O O11 0.141002 0.457485 0.284155
O O12 0.264472 0.149920 0.348851
O O13 0.989342 0.040879 0.132496
O O14 0.807133 0.249861 0.392391
#
# Coordination Sequence:
#
# PCOD9137753 Si02
#       7
#     4   4   4   4   4   4   4
#     4  10  22  47  65 100 127 187 217 296 344 403
#     4  10  22  44  67  92 148 173 218 278 358 395
#     4  10  22  47  65 100 127 187 217 296 344 403
#     4  10  24  44  72  92 138 168 246 276 352 402
#     4  11  24  40  65 103 137 175 225 274 329 431
#     4  10  22  44  67  92 148 173 218 278 358 395
#     4  11  24  40  65 109 129 181 225 272 333 439
#
# _framework density 25.764976999999998
#
# number of rings (size 3 to 8) (size 9 to 14) (size 15 to 20)
#    0.000    1.714    2.857    0.000    4.000    4.571 
#   20.571    0.000    0.000    0.000    0.000    0.000 
#    0.000    0.000    0.000    0.000    0.000    0.000 
#
# Total GULP energy -78217.716735 kJ/mol
# GULP energy per Si atom -5586.979767 kJ/mol
# Density = 2.570633 g / cm^3
# Si number density = 25.764977 Si / 1000 Ang^3
#
#
#
# Elastic Constant Matrix: (Units=GPa)
#
#
# Indices 1 2 3 4 5 6 
#
# 1 106.3787 29.5373 29.4837 0.0004 -6.0074 0.0001
# 2 29.5373 54.9958 18.1324 0.0010 -6.5482 0.0005
# 3 29.4837 18.1324 91.9515 0.0012 -2.2725 0.0005
# 4 0.0004 0.0010 0.0012 32.7932 0.0008 5.3561
# 5 -6.0074 -6.5482 -2.2725 0.0008 35.3601 0.0002
# 6 0.0001 0.0005 0.0005 5.3561 0.0002 23.4641
#
#
#
# Elastic Compliance Matrix: (Units=1/GPa)
#
#
# Indices 1 2 3 4 5 6 
#
# 1 0.011654 -0.005278 -0.002676 0.000000 0.000831 0.000000
# 2 -0.005278 0.022245 -0.002619 -0.000001 0.003054 0.000000
# 3 -0.002676 -0.002619 0.012246 0.000000 -0.000152 0.000000
# 4 0.000000 -0.000001 0.000000 0.031675 -0.000001 -0.007230
# 5 0.000831 0.003054 -0.000152 -0.000001 0.028977 0.000000
# 6 0.000000 0.000000 0.000000 -0.007230 0.000000 0.044269
#
#
# Mechanical properties :
#
#
# Convention : Reuss Voigt Hill
#
# Bulk Modulus (GPa) = 39.99951 45.29251 42.64601
# Shear Modulus (GPa) = 27.69388 30.06831 28.88110
#
# Velocity S-wave (km/s) = 3.28207 3.41988 3.35168
# Velocity P-wave (km/s) = 5.47002 5.76293 5.61838
#
# Compressibility (1/GPa) = 0.02500031
#
# Stress axis : x y z
#
# Youngs Moduli (GPa) = 85.80428 44.95350 81.66061
#
# Poissons Ratio (x) = 0.23728 0.21848
# Poissons Ratio (y) = 0.45291 0.21384
# Poissons Ratio (z) = 0.22957 0.11772
#
# Static dielectric constant tensor:
#      x y z
#    x 2.072470 0.000000 0.005100 
#    y 0.000000 2.071530 0.000000 
#    z 0.005100 0.000000 2.081370 
# 
# From -- ./inp_files/36152.got.cif
#   From: 2010.05.17/outbox.cif.g08.bks.cpg/sg9_19_cif.got.tgz:36152.got - 2010.06.03 20:04:27.
