data_PCOD9137983
_publ_section_title
;
Structure prediction by ZEFSAII (Michael W. Deem and Ramdas Pophale) SiO2 
 PCOD9137983
Probable space group: C C
;
_chemical_formula_sum "Si O2"
_cell_formula_units_Z 28
_cell_length_a 25.881658
_cell_length_b 7.467260
_cell_length_c 14.129739
_cell_angle_alpha 90.000000
_cell_angle_beta 154.877450
_cell_angle_gamma 90.000000
_cell_volume 1159.370596
_symmetry_space_group_name_H-M "C C"
_symmetry_group_IT_number 9
_symmetry_cell_setting 'monoclinic'
loop_
_space_group_symop_operation_xyz
x,y,z
x,-y,1/2+z
1/2+x,1/2+y,z
1/2+x,1/2-y,1/2+z
loop_
_atom_site_type_symbol
_atom_site_label
_atom_site_fract_x
_atom_site_fract_y
_atom_site_fract_z
Si Si1 0.527490 0.339560 0.274320
Si Si2 0.287560 0.073807 0.198393
Si Si3 0.084991 0.564790 0.883888
Si Si4 0.550063 0.139847 0.619606
Si Si5 0.668019 0.418136 0.683415
Si Si6 0.073133 0.260858 0.568897
Si Si7 0.350124 0.347085 0.816836
O O1 0.656959 0.381876 0.437220
O O2 0.553029 0.424939 0.418866
O O3 0.521192 0.126724 0.278153
O O4 0.416588 0.392429 0.025257
O O5 0.408890 0.151880 0.353960
O O6 0.303802 0.859367 0.234526
O O7 0.272729 0.135341 0.283656
O O8 0.050438 0.670186 0.732119
O O9 0.060779 0.662335 0.942356
O O10 0.230146 0.535000 0.111621
O O11 0.638058 0.273390 0.711761
O O12 0.588111 0.935068 0.659811
O O13 0.681001 0.616330 0.745524
O O14 0.955409 0.154214 0.412765
#
# Coordination Sequence:
#
# PCOD9137983 Si02
#       7
#     4   4   4   4   4   4   4
#     4  10  22  46  69  97 142 183 231 292 349 419
#     4   9  21  44  66  97 141 183 227 288 345 410
#     4  12  23  46  70 102 144 181 238 297 348 422
#     4  11  24  45  73 103 144 187 236 296 354 422
#     4  10  23  43  70 109 136 187 244 279 361 426
#     4  11  23  44  68 102 141 183 240 284 354 427
#     4  11  24  46  68 102 142 186 232 294 357 414
#
# _framework density 24.151036999999999
#
# number of rings (size 3 to 8) (size 9 to 14) (size 15 to 20)
#    0.857    0.571    5.714    0.000    2.000    3.429 
#    5.143    1.429    0.000    0.000    0.000    0.000 
#    0.000    0.000    0.000    0.000    0.000    0.000 
#
# Total GULP energy -78219.861127 kJ/mol
# GULP energy per Si atom -5587.132938 kJ/mol
# Density = 2.409607 g / cm^3
# Si number density = 24.151037 Si / 1000 Ang^3
#
#
#
# Elastic Constant Matrix: (Units=GPa)
#
#
# Indices 1 2 3 4 5 6 
#
# 1 90.0813 19.0452 -11.8459 0.0000 -9.0268 0.0000
# 2 19.0452 63.9933 -1.1962 0.0000 3.5084 0.0000
# 3 -11.8459 -1.1962 72.3033 0.0000 -1.3557 0.0000
# 4 0.0000 0.0000 0.0000 17.2425 0.0000 5.1815
# 5 -9.0268 3.5084 -1.3557 0.0000 32.7503 0.0000
# 6 0.0000 0.0000 0.0000 5.1815 0.0000 43.2390
#
#
#
# Elastic Compliance Matrix: (Units=1/GPa)
#
#
# Indices 1 2 3 4 5 6 
#
# 1 0.012604 -0.003931 0.002075 0.000000 0.003981 0.000000
# 2 -0.003931 0.016948 -0.000418 0.000000 -0.002916 0.000000
# 3 0.002075 -0.000418 0.014186 0.000000 0.001204 0.000000
# 4 0.000000 0.000000 0.000000 0.060163 0.000000 -0.007209
# 5 0.003981 -0.002916 0.001204 0.000000 0.031994 0.000000
# 6 0.000000 0.000000 0.000000 -0.007209 0.000000 0.023991
#
#
# Mechanical properties :
#
#
# Convention : Reuss Voigt Hill
#
# Bulk Modulus (GPa) = 25.51668 26.48713 26.00190
# Shear Modulus (GPa) = 28.16940 33.33801 30.75371
#
# Velocity S-wave (km/s) = 3.41894 3.71940 3.57233
# Velocity P-wave (km/s) = 5.11605 5.42553 5.27306
#
# Compressibility (1/GPa) = 0.03919005
#
# Stress axis : x y z
#
# Youngs Moduli (GPa) = 79.34111 59.00240 70.49122
#
# Poissons Ratio (x) = 0.23191 -0.14624
# Poissons Ratio (y) = 0.31185 0.02948
# Poissons Ratio (z) = -0.16460 0.02468
#
# Static dielectric constant tensor:
#      x y z
#    x 1.918540 0.000000 -0.000130 
#    y 0.000000 1.924010 0.000000 
#    z -0.000130 0.000000 1.931250 
# 
# From -- ./inp_files/20130.got.cif
#   From: 2010.05.17/outbox.cif.g08.bks.cpg/sg9_11_cif.got.tgz:20130.got - 2010.06.03 20:04:27.
