data_PCOD9137417
_publ_section_title
;
Structure prediction by ZEFSAII (Michael W. Deem and Ramdas Pophale) SiO2 
 PCOD9137417
Probable space group: C C
;
_chemical_formula_sum "Si O2"
_cell_formula_units_Z 24
_cell_length_a 5.065883
_cell_length_b 8.616199
_cell_length_c 18.598146
_cell_angle_alpha 90.000000
_cell_angle_beta 111.716123
_cell_angle_gamma 90.000000
_cell_volume 754.170534
_symmetry_space_group_name_H-M "C C"
_symmetry_group_IT_number 9
_symmetry_cell_setting 'monoclinic'
loop_
_space_group_symop_operation_xyz
x,y,z
x,-y,1/2+z
1/2+x,1/2+y,z
1/2+x,1/2-y,1/2+z
loop_
_atom_site_type_symbol
_atom_site_label
_atom_site_fract_x
_atom_site_fract_y
_atom_site_fract_z
Si Si1 0.865630 0.018269 0.764970
Si Si2 0.808073 0.497237 0.673447
Si Si3 0.289547 0.367176 0.118470
Si Si4 0.927823 0.350126 0.832808
Si Si5 0.486298 0.033715 0.979855
Si Si6 0.662542 0.340952 0.015365
O O1 0.601425 0.082411 0.678849
O O2 0.956130 0.170770 0.817935
O O3 0.057591 0.048691 0.703198
O O4 0.083453 0.875912 0.802655
O O5 0.821338 0.322624 0.646163
O O6 0.057350 0.447145 0.775625
O O7 0.597883 0.622696 0.592674
O O8 0.002575 0.327109 0.038031
O O9 0.209083 0.553947 0.069499
O O10 0.042380 0.435209 0.913922
O O11 0.164683 0.005964 0.976215
O O12 0.497168 0.213463 0.957263
#
# Coordination Sequence:
#
# PCOD9137417 Si02
#       6
#     4   4   4   4   4   4
#     4  10  24  43  66 101 137 186 237 292 356 441
#     4  10  22  41  73  96 136 189 238 285 364 422
#     4   8  21  40  67  98 137 173 244 280 359 420
#     4  11  26  45  67 104 145 179 241 301 365 428
#     4  10  23  45  67 101 150 174 241 305 364 425
#     4   9  22  42  64 100 135 183 233 293 352 440
#
# _framework density 31.823039999999999
#
# number of rings (size 3 to 8) (size 9 to 14) (size 15 to 20)
#    1.000    1.333    0.000    0.000   11.667    6.667 
#    3.000    0.000    0.000    0.000    0.000    0.000 
#    0.000    0.000    0.000    0.000    0.000    0.000 
#
# Total GULP energy -66928.813767 kJ/mol
# GULP energy per Si atom -5577.401147 kJ/mol
# Density = 3.175061 g / cm^3
# Si number density = 31.823040 Si / 1000 Ang^3
#
#
#
# Elastic Constant Matrix: (Units=GPa)
#
#
# Indices 1 2 3 4 5 6 
#
# 1 308.9469 105.7942 72.0367 0.0000 19.8839 0.0000
# 2 105.7942 117.7019 55.2534 0.0000 -7.3685 0.0000
# 3 72.0367 55.2534 195.6382 0.0000 -47.6243 0.0000
# 4 0.0000 0.0000 0.0000 64.9394 0.0000 -0.2495
# 5 19.8839 -7.3685 -47.6243 0.0000 74.9072 0.0000
# 6 0.0000 0.0000 0.0000 -0.2495 0.0000 87.9310
#
#
#
# Elastic Compliance Matrix: (Units=1/GPa)
#
#
# Indices 1 2 3 4 5 6 
#
# 1 0.005147 -0.004150 -0.001366 0.000000 -0.002643 0.000000
# 2 -0.004150 0.013197 -0.001911 0.000000 0.001185 0.000000
# 3 -0.001366 -0.001911 0.007331 0.000000 0.004836 0.000000
# 4 0.000000 0.000000 0.000000 0.015399 0.000000 0.000044
# 5 -0.002643 0.001185 0.004836 0.000000 0.017243 0.000000
# 6 0.000000 0.000000 0.000000 0.000044 0.000000 0.011373
#
#
# Mechanical properties :
#
#
# Convention : Reuss Voigt Hill
#
# Bulk Modulus (GPa) = 92.41137 120.93949 106.67543
# Shear Modulus (GPa) = 56.72082 71.50237 64.11159
#
# Velocity S-wave (km/s) = 4.22641 4.74526 4.49333
# Velocity P-wave (km/s) = 7.27454 8.25285 7.77909
#
# Compressibility (1/GPa) = 0.01082118
#
# Stress axis : x y z
#
# Youngs Moduli (GPa) = 194.30266 75.77303 136.39844
#
# Poissons Ratio (x) = 0.31446 0.18638
# Poissons Ratio (y) = 0.80635 0.26062
# Poissons Ratio (z) = 0.26550 0.14478
#
# Static dielectric constant tensor:
#      x y z
#    x 2.660990 0.000000 0.128490 
#    y 0.000000 3.177100 0.000000 
#    z 0.128490 0.000000 3.282370 
# 
# From -- ./inp_files/28911.got.cif
#   From: 2010.05.17/outbox.cif.g08.bks.cpg/sg9_15_cif.got.tgz:28911.got - 2010.06.03 20:04:27.
