data_PCOD9137861
_publ_section_title
;
Structure prediction by ZEFSAII (Michael W. Deem and Ramdas Pophale) SiO2 
 PCOD9137861
Probable space group: C C
;
_chemical_formula_sum "Si O2"
_cell_formula_units_Z 28
_cell_length_a 4.960419
_cell_length_b 23.800128
_cell_length_c 9.647188
_cell_angle_alpha 90.000000
_cell_angle_beta 110.343844
_cell_angle_gamma 90.000000
_cell_volume 1067.890520
_symmetry_space_group_name_H-M "C C"
_symmetry_group_IT_number 9
_symmetry_cell_setting 'monoclinic'
loop_
_space_group_symop_operation_xyz
x,y,z
x,-y,1/2+z
1/2+x,1/2+y,z
1/2+x,1/2-y,1/2+z
loop_
_atom_site_type_symbol
_atom_site_label
_atom_site_fract_x
_atom_site_fract_y
_atom_site_fract_z
Si Si1 0.038770 0.430513 0.401650
Si Si2 0.041368 0.952620 0.120516
Si Si3 0.009399 0.689885 0.935670
Si Si4 0.645193 0.700800 0.599096
Si Si5 0.053626 0.634684 0.482744
Si Si6 0.904663 0.967600 0.821587
Si Si7 0.445990 0.885551 0.666958
O O1 0.181617 0.368004 0.423139
O O2 0.205469 0.482556 0.358011
O O3 0.921881 0.433300 0.540218
O O4 0.751984 0.422890 0.262429
O O5 0.739964 0.920337 0.056989
O O6 0.005098 0.011921 0.191018
O O7 0.140171 0.959699 0.981371
O O8 0.773459 0.706029 0.777770
O O9 0.187426 0.743805 0.012667
O O10 0.888670 0.668432 0.062978
O O11 0.312898 0.681299 0.526011
O O12 0.840749 0.654112 0.562871
O O13 0.858457 0.627607 0.308665
O O14 0.758471 0.907967 0.771966
#
# Coordination Sequence:
#
# PCOD9137861 Si02
#       7
#     4   4   4   4   4   4   4
#     4  10  22  45  65 100 144 183 242 298 362 432
#     4  11  23  40  68  99 143 188 245 294 369 432
#     4  10  23  45  71 102 144 193 244 302 364 433
#     4  12  25  48  74 103 146 189 248 298 371 429
#     4  11  25  47  73 107 141 194 239 307 362 440
#     4  11  22  41  67 102 139 190 239 299 367 434
#     4   9  22  46  66 105 145 187 249 300 367 438
#
# _framework density 26.219919000000001
#
# number of rings (size 3 to 8) (size 9 to 14) (size 15 to 20)
#    0.857    0.571    2.857    1.714    2.000    2.286 
#   12.857    1.429    0.000    0.000    0.000    0.000 
#    0.000    0.000    0.000    0.000    0.000    0.000 
#
# Total GULP energy -77970.145561 kJ/mol
# GULP energy per Si atom -5569.296111 kJ/mol
# Density = 2.616024 g / cm^3
# Si number density = 26.219919 Si / 1000 Ang^3
#
#
#
# Elastic Constant Matrix: (Units=GPa)
#
#
# Indices 1 2 3 4 5 6 
#
# 1 74.1155 14.4026 44.5025 0.0000 2.2511 0.0000
# 2 14.4026 81.3141 5.8155 0.0000 25.8043 0.0000
# 3 44.5025 5.8155 247.6182 0.0000 1.7253 0.0000
# 4 0.0000 0.0000 0.0000 53.2367 0.0000 4.3636
# 5 2.2511 25.8043 1.7253 0.0000 19.8096 0.0000
# 6 0.0000 0.0000 0.0000 4.3636 0.0000 25.1846
#
#
#
# Elastic Compliance Matrix: (Units=1/GPa)
#
#
# Indices 1 2 3 4 5 6 
#
# 1 0.015757 -0.003582 -0.002769 0.000000 0.003116 0.000000
# 2 -0.003582 0.021801 0.000327 0.000000 -0.028019 0.000000
# 3 -0.002769 0.000327 0.004532 0.000000 -0.000506 0.000000
# 4 0.000000 0.000000 0.000000 0.019055 0.000000 -0.003301
# 5 0.003116 -0.028019 -0.000506 0.000000 0.086669 0.000000
# 6 0.000000 0.000000 0.000000 -0.003301 0.000000 0.040279
#
#
# Mechanical properties :
#
#
# Convention : Reuss Voigt Hill
#
# Bulk Modulus (GPa) = 33.28783 59.16544 46.22664
# Shear Modulus (GPa) = 23.79208 42.20133 32.99670
#
# Velocity S-wave (km/s) = 3.01558 4.01623 3.55133
# Velocity P-wave (km/s) = 4.98480 6.64235 5.87235
#
# Compressibility (1/GPa) = 0.03004101
#
# Stress axis : x y z
#
# Youngs Moduli (GPa) = 63.46495 45.87010 220.65072
#
# Poissons Ratio (x) = 0.16429 0.61108
# Poissons Ratio (y) = 0.22732 -0.07214
# Poissons Ratio (z) = 0.17576 -0.01500
#
# Static dielectric constant tensor:
#      x y z
#    x 2.094700 0.000000 -0.057600 
#    y 0.000000 2.290480 0.000000 
#    z -0.057600 0.000000 2.093120 
# 
# From -- ./inp_files/4384.got.cif
#   From: 2010.05.17/outbox.cif.g08.bks.cpg/sg9_3_cif.got.tgz:4384.got - 2010.06.03 20:04:27.
