data_PCOD9137956
_publ_section_title
;
Structure prediction by ZEFSAII (Michael W. Deem and Ramdas Pophale) SiO2 
 PCOD9137956
Probable space group: C C
;
_chemical_formula_sum "Si O2"
_cell_formula_units_Z 24
_cell_length_a 7.074961
_cell_length_b 7.818078
_cell_length_c 22.115799
_cell_angle_alpha 90.000000
_cell_angle_beta 125.301977
_cell_angle_gamma 90.000000
_cell_volume 998.342257
_symmetry_space_group_name_H-M "C C"
_symmetry_group_IT_number 9
_symmetry_cell_setting 'monoclinic'
loop_
_space_group_symop_operation_xyz
x,y,z
x,-y,1/2+z
1/2+x,1/2+y,z
1/2+x,1/2-y,1/2+z
loop_
_atom_site_type_symbol
_atom_site_label
_atom_site_fract_x
_atom_site_fract_y
_atom_site_fract_z
Si Si1 0.083810 0.325294 0.181180
Si Si2 0.613567 0.691227 0.956367
Si Si3 0.843198 0.318882 0.012908
Si Si4 0.753058 0.366774 0.814559
Si Si5 0.538760 0.138183 0.254077
Si Si6 0.882180 0.303718 0.395726
O O1 0.052080 0.205429 0.234848
O O2 0.352252 0.291722 0.211489
O O3 0.043147 0.514206 0.198562
O O4 0.924791 0.281695 0.095577
O O5 0.381937 0.709915 0.871914
O O6 0.798669 0.772479 0.944261
O O7 0.717666 0.504139 0.988819
O O8 0.557814 0.796376 0.006576
O O9 0.654098 0.186199 0.952536
O O10 0.746939 0.517383 0.861589
O O11 0.926419 0.441347 0.794486
O O12 0.790816 0.196558 0.322106
#
# Coordination Sequence:
#
# PCOD9137956 Si02
#       6
#     4   4   4   4   4   4
#     4  10  22  46  64 106 147 190 242 310 373 434
#     4  11  24  44  69 105 141 191 244 301 366 446
#     4  12  26  42  75 102 153 189 243 314 377 435
#     4   9  22  41  69  99 140 188 251 297 361 441
#     4   9  22  42  69  97 146 185 250 296 370 438
#     4  11  24  43  74 105 133 199 254 304 363 452
#
# _framework density 24.039850000000001
#
# number of rings (size 3 to 8) (size 9 to 14) (size 15 to 20)
#    1.000    0.667    1.667    2.000    7.000    0.000 
#    3.000    1.667    0.000    0.000    0.000    0.000 
#    0.000    0.000    0.000    0.000    0.000    0.000 
#
# Total GULP energy -66901.728365 kJ/mol
# GULP energy per Si atom -5575.144030 kJ/mol
# Density = 2.398513 g / cm^3
# Si number density = 24.039850 Si / 1000 Ang^3
#
#
#
# Elastic Constant Matrix: (Units=GPa)
#
#
# Indices 1 2 3 4 5 6 
#
# 1 69.5391 29.1413 40.9778 0.0000 -13.2790 0.0000
# 2 29.1413 86.0702 21.2958 0.0000 -5.8356 0.0000
# 3 40.9778 21.2958 143.4936 0.0000 -5.0532 0.0000
# 4 0.0000 0.0000 0.0000 16.6456 0.0000 -9.5005
# 5 -13.2790 -5.8356 -5.0532 0.0000 27.1910 0.0000
# 6 0.0000 0.0000 0.0000 -9.5005 0.0000 39.3711
#
#
#
# Elastic Compliance Matrix: (Units=1/GPa)
#
#
# Indices 1 2 3 4 5 6 
#
# 1 0.021117 -0.005368 -0.004943 0.000000 0.008242 0.000000
# 2 -0.005368 0.013567 -0.000473 0.000000 0.000202 0.000000
# 3 -0.004943 -0.000473 0.008417 0.000000 -0.000951 0.000000
# 4 0.000000 0.000000 0.000000 0.069671 0.000000 0.016812
# 5 0.008242 0.000202 -0.000951 0.000000 0.040668 0.000000
# 6 0.000000 0.000000 0.000000 0.016812 0.000000 0.029456
#
#
# Mechanical properties :
#
#
# Convention : Reuss Voigt Hill
#
# Bulk Modulus (GPa) = 46.44337 53.54807 49.99572
# Shear Modulus (GPa) = 23.62465 30.48741 27.05603
#
# Velocity S-wave (km/s) = 3.13825 3.56505 3.35844
# Velocity P-wave (km/s) = 5.70024 6.26651 5.99007
#
# Compressibility (1/GPa) = 0.02153160
#
# Stress axis : x y z
#
# Youngs Moduli (GPa) = 47.35584 73.71021 118.80113
#
# Poissons Ratio (x) = 0.39565 0.58729
# Poissons Ratio (y) = 0.25419 0.05624
# Poissons Ratio (z) = 0.23410 0.03490
#
# Static dielectric constant tensor:
#      x y z
#    x 2.021600 0.000000 -0.003710 
#    y 0.000000 2.008470 0.000000 
#    z -0.003710 0.000000 1.871700 
# 
# From -- ./inp_files/32281.got.cif
#   From: 2010.05.17/outbox.cif.g08.bks.cpg/sg9_17_cif.got.tgz:32281.got - 2010.06.03 20:04:27.
