data_PCOD9137252
_publ_section_title
;
Structure prediction by ZEFSAII (Michael W. Deem and Ramdas Pophale) SiO2 
 PCOD9137252
Probable space group: C C
;
_chemical_formula_sum "Si O2"
_cell_formula_units_Z 32
_cell_length_a 8.803209
_cell_length_b 11.637438
_cell_length_c 15.523417
_cell_angle_alpha 90.000000
_cell_angle_beta 96.266880
_cell_angle_gamma 90.000000
_cell_volume 1580.820954
_symmetry_space_group_name_H-M "C C"
_symmetry_group_IT_number 9
_symmetry_cell_setting 'monoclinic'
loop_
_space_group_symop_operation_xyz
x,y,z
x,-y,1/2+z
1/2+x,1/2+y,z
1/2+x,1/2-y,1/2+z
loop_
_atom_site_type_symbol
_atom_site_label
_atom_site_fract_x
_atom_site_fract_y
_atom_site_fract_z
Si Si1 0.237800 0.769327 0.962590
Si Si2 0.040913 0.266163 0.770815
Si Si3 0.061070 0.375494 0.592412
Si Si4 0.087038 0.229480 0.960385
Si Si5 0.672656 0.716185 0.264541
Si Si6 0.709749 0.114981 0.618246
Si Si7 0.547660 0.525578 0.690906
Si Si8 0.241459 0.019218 0.031904
O O1 0.407636 0.717138 0.971523
O O2 0.158418 0.756511 0.864624
O O3 0.132473 0.713005 0.029100
O O4 0.274092 0.901954 0.984800
O O5 0.098472 0.334218 0.691290
O O6 0.101502 0.292263 0.869582
O O7 0.857822 0.292563 0.762325
O O8 0.084341 0.132745 0.755534
O O9 0.128186 0.500562 0.583865
O O10 0.883162 0.401855 0.568997
O O11 0.181216 0.296356 0.039205
O O12 0.145577 0.100087 0.963491
O O13 0.636205 0.821207 0.197136
O O14 0.578634 0.600156 0.235187
O O15 0.879253 0.068673 0.650580
O O16 0.650225 0.517083 0.611840
#
# Coordination Sequence:
#
# PCOD9137252 Si02
#       8
#     4   4   4   4   4   4   4   4
#     4  11  25  44  68 100 134 171 226 274 332 394
#     4  10  22  40  67  95 129 173 225 268 330 392
#     4  12  24  42  64 102 132 174 222 270 331 404
#     4  11  23  44  65  96 137 176 219 281 325 387
#     4  10  22  44  67  94 130 175 219 275 328 392
#     4  11  24  40  67  97 134 176 222 268 334 392
#     4  11  20  42  71  92 129 176 220 272 333 395
#     4  12  22  42  71  94 131 175 217 272 339 390
#
# _framework density 20.242646000000001
#
# number of rings (size 3 to 8) (size 9 to 14) (size 15 to 20)
#    0.000    1.000    5.000    2.250    0.000    1.000 
#    2.250    1.250    0.000    0.000    0.000    0.000 
#    0.000    0.000    0.000    0.000    0.000    0.000 
#
# Total GULP energy -89213.508309 kJ/mol
# GULP energy per Si atom -5575.844269 kJ/mol
# Density = 2.019657 g / cm^3
# Si number density = 20.242646 Si / 1000 Ang^3
#
#
#
# Elastic Constant Matrix: (Units=GPa)
#
#
# Indices 1 2 3 4 5 6 
#
# 1 41.5630 23.3823 8.5623 0.0000 10.6644 0.0000
# 2 23.3823 66.5178 18.9010 0.0000 13.7991 0.0000
# 3 8.5623 18.9010 94.4732 0.0000 1.3125 0.0000
# 4 0.0000 0.0000 0.0000 -2.0173 0.0000 -8.9323
# 5 10.6644 13.7991 1.3125 0.0000 21.3029 0.0000
# 6 0.0000 0.0000 0.0000 -8.9323 0.0000 28.5255
#
#
#
# Elastic Compliance Matrix: (Units=1/GPa)
#
#
# Indices 1 2 3 4 5 6 
#
# 1 0.031821 -0.008796 -0.000983 0.000000 -0.010171 0.000000
# 2 -0.008796 0.020907 -0.003261 0.000000 -0.008938 0.000000
# 3 -0.000983 -0.003261 0.011300 0.000000 0.001908 0.000000
# 4 0.000000 0.000000 0.000000 -0.207712 0.000000 -0.065042
# 5 -0.010171 -0.008938 0.001908 0.000000 0.057706 0.000000
# 6 0.000000 0.000000 0.000000 -0.065042 0.000000 0.014689
#
#
# Mechanical properties :
#
#
# Convention : Reuss Voigt Hill
#
# Bulk Modulus (GPa) = 26.35293 33.80502 30.07898
# Shear Modulus (GPa) = -153.56404 19.67611 -66.94396
#
# Velocity S-wave (km/s) = -8.71931 3.12109 -5.75696
# Velocity P-wave (km/s) = 9.39796 5.45201 5.41282
#
# Compressibility (1/GPa) = 0.03794644
#
# Stress axis : x y z
#
# Youngs Moduli (GPa) = 31.42604 47.83201 88.49514
#
# Poissons Ratio (x) = 0.42075 0.08697
# Poissons Ratio (y) = 0.27643 0.28861
# Poissons Ratio (z) = 0.03089 0.15599
#
# Static dielectric constant tensor:
#      x y z
#    x 1.774460 0.000000 0.044840 
#    y 0.000000 1.707740 0.000000 
#    z 0.044840 0.000000 1.783000 
# 
# From -- ./inp_files/22739.got.cif
#   From: 2010.05.17/outbox.cif.g08.bks.cpg/sg9_12_cif.got.tgz:22739.got - 2010.06.03 20:04:27.
