data_PCOD9137900
_publ_section_title
;
Structure prediction by ZEFSAII (Michael W. Deem and Ramdas Pophale) SiO2 
 PCOD9137900
Probable space group: C C
;
_chemical_formula_sum "Si O2"
_cell_formula_units_Z 32
_cell_length_a 15.270281
_cell_length_b 8.739330
_cell_length_c 11.330034
_cell_angle_alpha 90.000000
_cell_angle_beta 113.420312
_cell_angle_gamma 90.000000
_cell_volume 1387.446690
_symmetry_space_group_name_H-M "C C"
_symmetry_group_IT_number 9
_symmetry_cell_setting 'monoclinic'
loop_
_space_group_symop_operation_xyz
x,y,z
x,-y,1/2+z
1/2+x,1/2+y,z
1/2+x,1/2-y,1/2+z
loop_
_atom_site_type_symbol
_atom_site_label
_atom_site_fract_x
_atom_site_fract_y
_atom_site_fract_z
Si Si1 0.102130 0.202251 0.529230
Si Si2 0.368666 0.966335 0.302304
Si Si3 0.577316 0.043827 0.479561
Si Si4 0.865085 0.732973 0.135952
Si Si5 0.883453 0.146530 0.385691
Si Si6 0.227404 0.385398 0.244506
Si Si7 0.707182 0.588149 0.389215
Si Si8 0.079169 0.197538 0.788878
O O1 0.100340 0.367002 0.464326
O O2 0.192251 0.115451 0.521645
O O3 0.109900 0.236340 0.671911
O O4 0.998689 0.117052 0.456313
O O5 0.463102 0.035503 0.416646
O O6 0.365896 0.057552 0.177562
O O7 0.286951 0.006186 0.352591
O O8 0.374400 0.784711 0.287780
O O9 0.626224 0.070977 0.632209
O O10 0.608142 0.172123 0.399715
O O11 0.780712 0.807929 0.162691
O O12 0.965015 0.803939 0.231582
O O13 0.859087 0.772167 0.996681
O O14 0.804440 0.014960 0.324784
O O15 0.209803 0.255274 0.331446
O O16 0.618882 0.472155 0.325675
#
# Coordination Sequence:
#
# PCOD9137900 Si02
#       8
#     4   4   4   4   4   4   4   4
#     4  10  24  43  68 103 132 183 235 277 352 419
#     4   9  22  45  66  99 133 183 230 281 351 409
#     4  10  24  44  69  96 139 181 229 290 349 411
#     4   9  21  44  68  98 135 183 229 286 342 417
#     4  10  22  45  69  94 142 180 227 288 347 416
#     4  11  25  41  69 103 137 181 234 284 354 416
#     4  11  25  40  66 103 135 178 237 281 346 417
#     4  10  23  44  71  96 143 181 229 291 347 411
#
# _framework density 23.063948
#
# number of rings (size 3 to 8) (size 9 to 14) (size 15 to 20)
#    0.000    2.000    0.000    0.750    8.750    1.000 
#    6.750    0.000    0.000    0.000    0.000    0.000 
#    0.000    0.000    0.000    0.000    0.000    0.000 
#
# Total GULP energy -89192.180708 kJ/mol
# GULP energy per Si atom -5574.511294 kJ/mol
# Density = 2.301145 g / cm^3
# Si number density = 23.063948 Si / 1000 Ang^3
#
#
#
# Elastic Constant Matrix: (Units=GPa)
#
#
# Indices 1 2 3 4 5 6 
#
# 1 83.2697 35.0400 26.1445 0.0000 -11.7689 0.0000
# 2 35.0400 105.5658 37.5897 0.0000 22.5239 0.0000
# 3 26.1445 37.5897 69.8932 0.0000 10.5624 0.0000
# 4 0.0000 0.0000 0.0000 23.3366 0.0000 1.8890
# 5 -11.7689 22.5239 10.5624 0.0000 33.1700 0.0000
# 6 0.0000 0.0000 0.0000 1.8890 0.0000 38.1104
#
#
#
# Elastic Compliance Matrix: (Units=1/GPa)
#
#
# Indices 1 2 3 4 5 6 
#
# 1 0.018392 -0.007072 -0.005030 0.000000 0.012930 0.000000
# 2 -0.007072 0.015815 -0.004053 0.000000 -0.011958 0.000000
# 3 -0.005030 -0.004053 0.019144 0.000000 -0.005129 0.000000
# 4 0.000000 0.000000 0.000000 0.043024 0.000000 -0.002133
# 5 0.012930 -0.011958 -0.005129 0.000000 0.044488 0.000000
# 6 0.000000 0.000000 0.000000 -0.002133 0.000000 0.026345
#
#
# Mechanical properties :
#
#
# Convention : Reuss Voigt Hill
#
# Bulk Modulus (GPa) = 47.52870 50.69745 49.11307
# Shear Modulus (GPa) = 24.20932 29.58702 26.89817
#
# Velocity S-wave (km/s) = 3.24336 3.58554 3.41874
# Velocity P-wave (km/s) = 5.88880 6.25863 6.07653
#
# Compressibility (1/GPa) = 0.02103992
#
# Stress axis : x y z
#
# Youngs Moduli (GPa) = 54.37144 63.23199 52.23618
#
# Poissons Ratio (x) = 0.44721 0.26275
# Poissons Ratio (y) = 0.38454 0.21170
# Poissons Ratio (z) = 0.27349 0.25627
#
# Static dielectric constant tensor:
#      x y z
#    x 1.864180 0.000000 0.032000 
#    y 0.000000 1.919620 0.000000 
#    z 0.032000 0.000000 1.889150 
# 
# From -- ./inp_files/17955.got.cif
#   From: 2010.05.17/outbox.cif.g08.bks.cpg/sg9_9_cif.got.tgz:17955.got - 2010.06.03 20:04:27.
