data_PCOD9137442
_publ_section_title
;
Structure prediction by ZEFSAII (Michael W. Deem and Ramdas Pophale) SiO2 
 PCOD9137442
Probable space group: C C
;
_chemical_formula_sum "Si O2"
_cell_formula_units_Z 28
_cell_length_a 5.156106
_cell_length_b 15.113060
_cell_length_c 16.211412
_cell_angle_alpha 90.000000
_cell_angle_beta 56.539476
_cell_angle_gamma 90.000000
_cell_volume 1053.900425
_symmetry_space_group_name_H-M "C C"
_symmetry_group_IT_number 9
_symmetry_cell_setting 'monoclinic'
loop_
_space_group_symop_operation_xyz
x,y,z
x,-y,1/2+z
1/2+x,1/2+y,z
1/2+x,1/2-y,1/2+z
loop_
_atom_site_type_symbol
_atom_site_label
_atom_site_fract_x
_atom_site_fract_y
_atom_site_fract_z
Si Si1 0.145780 0.737687 0.840240
Si Si2 0.733453 0.039356 0.865711
Si Si3 0.384268 0.064166 0.279623
Si Si4 0.997271 0.179922 0.525633
Si Si5 0.394171 0.130560 0.581865
Si Si6 0.495798 0.729507 0.195994
Si Si7 0.829746 0.446219 0.605607
O O1 0.281087 0.639587 0.823833
O O2 0.345466 0.829948 0.803628
O O3 0.911188 0.749828 0.804411
O O4 0.975951 0.750268 0.957064
O O5 0.553906 0.985190 0.825048
O O6 0.048141 0.985477 0.831449
O O7 0.530223 0.052882 0.986150
O O8 0.332041 0.154213 0.498307
O O9 0.505189 0.060361 0.163479
O O10 0.753650 0.106429 0.538679
O O11 0.841153 0.225117 0.632239
O O12 0.343075 0.211523 0.652580
O O13 0.188928 0.044716 0.631804
O O14 0.568291 0.629596 0.158733
#
# Coordination Sequence:
#
# PCOD9137442 Si02
#       7
#     4   4   4   4   4   4   4
#     4  11  23  48  70 101 142 182 231 296 348 420
#     4  12  26  48  73 104 143 193 233 290 363 419
#     4  11  29  45  70 113 140 182 247 290 347 431
#     4  10  22  44  63  96 130 174 223 274 343 404
#     4  10  22  42  64  92 136 171 219 281 333 404
#     4   9  23  44  64 102 129 180 223 283 342 410
#     4  11  23  47  70 104 140 186 232 292 346 424
#
# _framework density 26.567972999999999
#
# number of rings (size 3 to 8) (size 9 to 14) (size 15 to 20)
#    0.857    0.571    1.429    2.571    2.000    4.571 
#   15.429    0.000    0.000    0.000    0.000    0.000 
#    0.000    0.000    0.000    0.000    0.000    0.000 
#
# Total GULP energy -78120.463176 kJ/mol
# GULP energy per Si atom -5580.033084 kJ/mol
# Density = 2.650750 g / cm^3
# Si number density = 26.567973 Si / 1000 Ang^3
#
#
#
# Elastic Constant Matrix: (Units=GPa)
#
#
# Indices 1 2 3 4 5 6 
#
# 1 143.9620 63.2187 74.3146 0.0000 45.7436 0.0000
# 2 63.2187 226.7127 76.2302 0.0000 8.9858 0.0000
# 3 74.3146 76.2302 174.9023 0.0000 32.1553 0.0000
# 4 0.0000 0.0000 0.0000 56.7836 0.0000 -3.8939
# 5 45.7436 8.9858 32.1553 0.0000 43.8150 0.0000
# 6 0.0000 0.0000 0.0000 -3.8939 0.0000 30.3551
#
#
#
# Elastic Compliance Matrix: (Units=1/GPa)
#
#
# Indices 1 2 3 4 5 6 
#
# 1 0.012682 -0.002308 -0.002353 0.000000 -0.011041 0.000000
# 2 -0.002308 0.005606 -0.001959 0.000000 0.002697 0.000000
# 3 -0.002353 -0.001959 0.008144 0.000000 -0.003119 0.000000
# 4 0.000000 0.000000 0.000000 0.017767 0.000000 0.002279
# 5 -0.011041 0.002697 -0.003119 0.000000 0.036085 0.000000
# 6 0.000000 0.000000 0.000000 0.002279 0.000000 0.033236
#
#
# Mechanical properties :
#
#
# Convention : Reuss Voigt Hill
#
# Bulk Modulus (GPa) = 75.79273 108.12266 91.95769
# Shear Modulus (GPa) = 38.12198 48.31165 43.21681
#
# Velocity S-wave (km/s) = 3.79210 4.26892 4.03755
# Velocity P-wave (km/s) = 6.91109 8.06741 7.51153
#
# Compressibility (1/GPa) = 0.01319388
#
# Stress axis : x y z
#
# Youngs Moduli (GPa) = 78.84902 178.37835 122.78475
#
# Poissons Ratio (x) = 0.41164 0.28893
# Poissons Ratio (y) = 0.18196 0.24050
# Poissons Ratio (z) = 0.18554 0.34939
#
# Static dielectric constant tensor:
#      x y z
#    x 2.184380 0.000000 -0.139130 
#    y 0.000000 2.150200 0.000000 
#    z -0.139130 0.000000 2.134660 
# 
# From -- ./inp_files/23029.got.cif
#   From: 2010.05.17/outbox.cif.g08.bks.cpg/sg9_12_cif.got.tgz:23029.got - 2010.06.03 20:04:27.
