data_PCOD9137329
_publ_section_title
;
Structure prediction by ZEFSAII (Michael W. Deem and Ramdas Pophale) SiO2 
 PCOD9137329
Probable space group: C C
;
_chemical_formula_sum "Si O2"
_cell_formula_units_Z 32
_cell_length_a 18.960970
_cell_length_b 5.594463
_cell_length_c 14.074580
_cell_angle_alpha 90.000000
_cell_angle_beta 92.976135
_cell_angle_gamma 90.000000
_cell_volume 1490.967750
_symmetry_space_group_name_H-M "C C"
_symmetry_group_IT_number 9
_symmetry_cell_setting 'monoclinic'
loop_
_space_group_symop_operation_xyz
x,y,z
x,-y,1/2+z
1/2+x,1/2+y,z
1/2+x,1/2-y,1/2+z
loop_
_atom_site_type_symbol
_atom_site_label
_atom_site_fract_x
_atom_site_fract_y
_atom_site_fract_z
Si Si1 0.855100 0.913795 0.460590
Si Si2 0.608981 0.199133 0.889653
Si Si3 0.322053 0.079574 0.009116
Si Si4 0.584057 0.162024 0.221278
Si Si5 0.999575 0.078607 0.878515
Si Si6 0.746485 0.625146 0.349156
Si Si7 0.695378 0.528100 0.145072
Si Si8 0.079421 0.372724 0.047556
O O1 0.851909 0.154229 0.523178
O O2 0.916439 0.930497 0.386681
O O3 0.868318 0.662914 0.518112
O O4 0.781286 0.857282 0.401309
O O5 0.532579 0.316272 0.892549
O O6 0.666660 0.404065 0.880674
O O7 0.611759 0.033681 0.797925
O O8 0.623724 0.051459 0.984398
O O9 0.253757 0.014843 0.067168
O O10 0.295977 0.077535 0.896790
O O11 0.530908 0.321107 0.281528
O O12 0.651659 0.302074 0.183303
O O13 0.546589 0.030565 0.129995
O O14 0.030213 0.235522 0.968764
O O15 0.739194 0.632274 0.236989
O O16 0.632665 0.693487 0.102208
#
# Coordination Sequence:
#
# PCOD9137329 Si02
#       8
#     4   4   4   4   4   4   4   4
#     4  10  26  47  68  96 143 193 235 280 358 433
#     4  11  22  39  70  96 138 175 227 293 356 417
#     4  10  25  44  69  98 139 186 229 291 352 427
#     4  11  23  39  70 104 135 173 232 300 358 416
#     4  11  24  45  65  99 141 190 234 292 357 433
#     4  10  22  41  65 102 134 179 225 291 349 419
#     4  12  23  41  68 108 132 174 237 299 361 416
#     4  11  23  38  69  99 134 178 229 294 353 421
#
# _framework density 21.462572000000002
#
# number of rings (size 3 to 8) (size 9 to 14) (size 15 to 20)
#    0.750    0.500    2.500    3.000    8.750    0.000 
#    2.250    1.250    0.000    0.000    0.000    0.000 
#    0.000    0.000    0.000    0.000    0.000    0.000 
#
# Total GULP energy -89158.422321 kJ/mol
# GULP energy per Si atom -5572.401395 kJ/mol
# Density = 2.141372 g / cm^3
# Si number density = 21.462572 Si / 1000 Ang^3
#
#
#
# Elastic Constant Matrix: (Units=GPa)
#
#
# Indices 1 2 3 4 5 6 
#
# 1 68.1341 16.2602 13.8655 0.0000 -28.4679 0.0000
# 2 16.2602 110.7527 33.9684 0.0000 -14.2888 0.0000
# 3 13.8655 33.9684 116.0444 0.0000 -9.9212 0.0000
# 4 0.0000 0.0000 0.0000 42.3445 0.0000 -8.1146
# 5 -28.4679 -14.2888 -9.9212 0.0000 25.6989 0.0000
# 6 0.0000 0.0000 0.0000 -8.1146 0.0000 13.3532
#
#
#
# Elastic Compliance Matrix: (Units=1/GPa)
#
#
# Indices 1 2 3 4 5 6 
#
# 1 0.027379 0.000085 -0.000723 0.000000 0.030097 0.000000
# 2 0.000085 0.010461 -0.002655 0.000000 0.004886 0.000000
# 3 -0.000723 -0.002655 0.009603 0.000000 0.001430 0.000000
# 4 0.000000 0.000000 0.000000 0.026728 0.000000 0.016243
# 5 0.030097 0.004886 0.001430 0.000000 0.075521 0.000000
# 6 0.000000 0.000000 0.000000 0.016243 0.000000 0.084759
#
#
# Mechanical properties :
#
#
# Convention : Reuss Voigt Hill
#
# Bulk Modulus (GPa) = 24.47490 47.01326 35.74408
# Shear Modulus (GPa) = 19.63429 31.66846 25.65137
#
# Velocity S-wave (km/s) = 3.02787 3.84542 3.46087
# Velocity P-wave (km/s) = 4.86336 6.45512 5.71493
#
# Compressibility (1/GPa) = 0.04085818
#
# Stress axis : x y z
#
# Youngs Moduli (GPa) = 36.52422 95.59148 104.13267
#
# Poissons Ratio (x) = -0.00814 0.07530
# Poissons Ratio (y) = -0.00311 0.27643
# Poissons Ratio (z) = 0.02641 0.25376
#
# Static dielectric constant tensor:
#      x y z
#    x 1.737150 0.000000 -0.005200 
#    y 0.000000 1.853710 0.000000 
#    z -0.005200 0.000000 1.784830 
# 
# From -- ./inp_files/27042.got.cif
#   From: 2010.05.17/outbox.cif.g08.bks.cpg/sg9_14_cif.got.tgz:27042.got - 2010.06.03 20:04:27.
