data_PCOD9137285
_publ_section_title
;
Structure prediction by ZEFSAII (Michael W. Deem and Ramdas Pophale) SiO2 
 PCOD9137285
Probable space group: C C
;
_chemical_formula_sum "Si O2"
_cell_formula_units_Z 28
_cell_length_a 20.616231
_cell_length_b 7.523192
_cell_length_c 9.777727
_cell_angle_alpha 90.000000
_cell_angle_beta 128.403099
_cell_angle_gamma 90.000000
_cell_volume 1188.439086
_symmetry_space_group_name_H-M "C C"
_symmetry_group_IT_number 9
_symmetry_cell_setting 'monoclinic'
loop_
_space_group_symop_operation_xyz
x,y,z
x,-y,1/2+z
1/2+x,1/2+y,z
1/2+x,1/2-y,1/2+z
loop_
_atom_site_type_symbol
_atom_site_label
_atom_site_fract_x
_atom_site_fract_y
_atom_site_fract_z
Si Si1 0.047920 0.301106 0.730760
Si Si2 0.735850 0.145144 0.564173
Si Si3 0.123428 0.952289 0.741122
Si Si4 0.850090 0.287744 0.942025
Si Si5 0.512244 0.137378 0.489403
Si Si6 0.283634 0.142184 0.880714
Si Si7 0.767394 0.240741 0.084471
O O1 0.142548 0.317265 0.902843
O O2 0.031033 0.444335 0.586052
O O3 0.000687 0.355769 0.809651
O O4 0.050673 0.090098 0.693315
O O5 0.776076 0.256236 0.738393
O O6 0.784921 0.204315 0.492487
O O7 0.734448 0.941395 0.605219
O O8 0.084163 0.781769 0.616172
O O9 0.189475 0.861353 0.934060
O O10 0.188014 0.075939 0.741777
O O11 0.836254 0.475923 0.998914
O O12 0.827456 0.171212 0.042822
O O13 0.933521 0.285955 0.968545
O O14 0.316965 0.175078 0.773614
#
# Coordination Sequence:
#
# PCOD9137285 Si02
#       7
#     4   4   4   4   4   4   4
#     4  11  26  44  74 101 141 185 236 289 352 423
#     4  11  23  42  70 100 129 180 233 282 338 414
#     4  10  22  45  70 104 131 180 230 294 337 414
#     4  11  25  42  62  97 140 179 222 285 345 410
#     4  12  27  44  69 102 147 183 234 287 359 420
#     4  10  22  40  72  92 132 174 224 282 335 403
#     4  11  21  41  71  98 130 173 235 281 338 412
#
# _framework density 23.560316
#
# number of rings (size 3 to 8) (size 9 to 14) (size 15 to 20)
#    0.000    1.143    1.429    6.000    8.000    2.286 
#    2.571    0.000    0.000    0.000    0.000    0.000 
#    0.000    0.000    0.000    0.000    0.000    0.000 
#
# Total GULP energy -77985.319723 kJ/mol
# GULP energy per Si atom -5570.379980 kJ/mol
# Density = 2.350669 g / cm^3
# Si number density = 23.560316 Si / 1000 Ang^3
#
#
#
# Elastic Constant Matrix: (Units=GPa)
#
#
# Indices 1 2 3 4 5 6 
#
# 1 85.1571 14.7304 20.5757 0.0000 -20.1961 0.0000
# 2 14.7304 121.6299 13.9811 0.0000 -8.4356 0.0000
# 3 20.5757 13.9811 27.1289 0.0000 -12.5357 0.0000
# 4 0.0000 0.0000 0.0000 -165.6595 0.0000 -254.0831
# 5 -20.1961 -8.4356 -12.5357 0.0000 41.8974 0.0000
# 6 0.0000 0.0000 0.0000 -254.0831 0.0000 -313.1734
#
#
#
# Elastic Compliance Matrix: (Units=1/GPa)
#
#
# Indices 1 2 3 4 5 6 
#
# 1 0.015088 -0.000467 -0.009150 0.000000 0.004441 0.000000
# 2 -0.000467 0.008762 -0.004004 0.000000 0.000341 0.000000
# 3 -0.009150 -0.004004 0.050425 0.000000 0.009870 0.000000
# 4 0.000000 0.000000 0.000000 0.024702 0.000000 -0.020041
# 5 0.004441 0.000341 0.009870 0.000000 0.029030 0.000000
# 6 0.000000 0.000000 0.000000 -0.020041 0.000000 0.013067
#
#
# Mechanical properties :
#
#
# Convention : Reuss Voigt Hill
#
# Bulk Modulus (GPa) = 21.26186 36.94337 29.10262
# Shear Modulus (GPa) = 27.17471 -75.07853 -23.95191
#
# Velocity S-wave (km/s) = 3.39987 -5.65117 -3.19191
# Velocity P-wave (km/s) = 4.94532 5.18330 1.09780
#
# Compressibility (1/GPa) = 0.04703258
#
# Stress axis : x y z
#
# Youngs Moduli (GPa) = 66.27760 114.12764 19.83139
#
# Poissons Ratio (x) = 0.05335 0.18146
# Poissons Ratio (y) = 0.03098 0.07940
# Poissons Ratio (z) = 0.60646 0.45691
#
# Static dielectric constant tensor:
#      x y z
#    x 2.129400 0.000000 -0.107230 
#    y 0.000000 21.426320 0.000000 
#    z -0.107230 0.000000 1.914890 
# 
# From -- ./inp_files/10452.got.cif
#   From: 2010.05.17/outbox.cif.g08.bks.cpg/sg9_6_cif.got.tgz:10452.got - 2010.06.03 20:04:27.
