data_PCOD9137808
_publ_section_title
;
Structure prediction by ZEFSAII (Michael W. Deem and Ramdas Pophale) SiO2 
 PCOD9137808
Probable space group: C C
;
_chemical_formula_sum "Si O2"
_cell_formula_units_Z 32
_cell_length_a 8.347110
_cell_length_b 12.489798
_cell_length_c 13.454276
_cell_angle_alpha 90.000000
_cell_angle_beta 113.473301
_cell_angle_gamma 90.000000
_cell_volume 1286.582409
_symmetry_space_group_name_H-M "C C"
_symmetry_group_IT_number 9
_symmetry_cell_setting 'monoclinic'
loop_
_space_group_symop_operation_xyz
x,y,z
x,-y,1/2+z
1/2+x,1/2+y,z
1/2+x,1/2-y,1/2+z
loop_
_atom_site_type_symbol
_atom_site_label
_atom_site_fract_x
_atom_site_fract_y
_atom_site_fract_z
Si Si1 0.115170 0.047372 0.891360
Si Si2 0.561107 0.919829 0.210488
Si Si3 0.303487 0.478387 0.937902
Si Si4 0.965543 0.376795 0.553308
Si Si5 0.960788 0.935925 0.667582
Si Si6 0.241349 0.785984 0.664242
Si Si7 0.255441 0.760388 0.177010
Si Si8 0.079407 0.275561 0.844968
O O1 0.052711 0.167708 0.898335
O O2 0.326312 0.058442 0.950925
O O3 0.997548 0.975659 0.936561
O O4 0.049651 0.016031 0.765745
O O5 0.663217 0.829129 0.172323
O O6 0.370651 0.865452 0.183270
O O7 0.677041 0.947571 0.336916
O O8 0.541172 0.031071 0.145495
O O9 0.207845 0.365203 0.914177
O O10 0.324463 0.514593 0.056782
O O11 0.843947 0.298593 0.588294
O O12 0.118000 0.291461 0.562731
O O13 0.889693 0.838343 0.716161
O O14 0.098649 0.877119 0.632300
O O15 0.385804 0.819265 0.781439
O O16 0.159280 0.763334 0.258781
#
# Coordination Sequence:
#
# PCOD9137808 Si02
#       8
#     4   4   4   4   4   4   4   4
#     4  12  26  46  72 108 151 199 242 310 374 440
#     4  11  23  46  75 102 146 193 240 313 367 432
#     4  12  24  48  74 108 153 192 248 311 373 445
#     4  11  24  48  73 105 149 187 251 303 369 442
#     4  11  25  47  73 103 149 197 247 301 372 449
#     4  10  22  44  70 104 138 192 243 289 372 436
#     4  10  24  46  69 111 139 183 253 300 361 443
#     4  11  24  43  74 103 145 187 244 303 362 435
#
# _framework density 24.872094000000001
#
# number of rings (size 3 to 8) (size 9 to 14) (size 15 to 20)
#    0.000    1.000    6.250    0.000    1.750    5.000 
#   11.250    0.000    0.000    0.000    0.000    0.000 
#    0.000    0.000    0.000    0.000    0.000    0.000 
#
# Total GULP energy -89352.745568 kJ/mol
# GULP energy per Si atom -5584.546598 kJ/mol
# Density = 2.481548 g / cm^3
# Si number density = 24.872094 Si / 1000 Ang^3
#
#
#
# Elastic Constant Matrix: (Units=GPa)
#
#
# Indices 1 2 3 4 5 6 
#
# 1 89.6313 32.3970 16.0057 0.0000 12.8438 0.0000
# 2 32.3970 124.3741 38.3195 0.0000 6.2719 0.0000
# 3 16.0057 38.3195 128.5731 0.0000 18.1382 0.0000
# 4 0.0000 0.0000 0.0000 40.0305 0.0000 12.9340
# 5 12.8438 6.2719 18.1382 0.0000 34.6081 0.0000
# 6 0.0000 0.0000 0.0000 12.9340 0.0000 45.3717
#
#
#
# Elastic Compliance Matrix: (Units=1/GPa)
#
#
# Indices 1 2 3 4 5 6 
#
# 1 0.012899 -0.003123 -0.000086 0.000000 -0.004176 0.000000
# 2 -0.003123 0.009611 -0.002585 0.000000 0.000772 0.000000
# 3 -0.000086 -0.002585 0.009166 0.000000 -0.004304 0.000000
# 4 0.000000 0.000000 0.000000 0.027515 0.000000 -0.007844
# 5 -0.004176 0.000772 -0.004304 0.000000 0.032561 0.000000
# 6 0.000000 0.000000 0.000000 -0.007844 0.000000 0.024276
#
#
# Mechanical properties :
#
#
# Convention : Reuss Voigt Hill
#
# Bulk Modulus (GPa) = 49.77744 57.33585 53.55664
# Shear Modulus (GPa) = 37.22687 41.05914 39.14300
#
# Velocity S-wave (km/s) = 3.87296 4.06743 3.97138
# Velocity P-wave (km/s) = 6.32903 6.72019 6.52754
#
# Compressibility (1/GPa) = 0.02008942
#
# Stress axis : x y z
#
# Youngs Moduli (GPa) = 77.52300 104.04614 109.10143
#
# Poissons Ratio (x) = 0.32493 0.00937
# Poissons Ratio (y) = 0.24210 0.28198
# Poissons Ratio (z) = 0.00666 0.26892
#
# Static dielectric constant tensor:
#      x y z
#    x 2.052910 0.000000 0.035880 
#    y 0.000000 1.913110 0.000000 
#    z 0.035880 0.000000 2.092890 
# 
# From -- ./inp_files/22955.got.cif
#   From: 2010.05.17/outbox.cif.g08.bks.cpg/sg9_12_cif.got.tgz:22955.got - 2010.06.03 20:04:27.
