data_PCOD9137935
_publ_section_title
;
Structure prediction by ZEFSAII (Michael W. Deem and Ramdas Pophale) SiO2 
 PCOD9137935
Probable space group: C C
;
_chemical_formula_sum "Si O2"
_cell_formula_units_Z 32
_cell_length_a 12.004009
_cell_length_b 6.909371
_cell_length_c 22.501804
_cell_angle_alpha 90.000000
_cell_angle_beta 43.503327
_cell_angle_gamma 90.000000
_cell_volume 1284.756842
_symmetry_space_group_name_H-M "C C"
_symmetry_group_IT_number 9
_symmetry_cell_setting 'monoclinic'
loop_
_space_group_symop_operation_xyz
x,y,z
x,-y,1/2+z
1/2+x,1/2+y,z
1/2+x,1/2-y,1/2+z
loop_
_atom_site_type_symbol
_atom_site_label
_atom_site_fract_x
_atom_site_fract_y
_atom_site_fract_z
Si Si1 0.372250 0.579964 0.384540
Si Si2 0.535597 0.355150 0.044043
Si Si3 0.919864 0.150319 0.760825
Si Si4 0.240916 0.795044 0.066729
Si Si5 0.100817 0.154751 0.932841
Si Si6 0.211125 0.967564 0.772124
Si Si7 0.431635 0.697663 0.172167
Si Si8 0.291679 0.239157 0.041331
O O1 0.138626 0.276608 0.548771
O O2 0.380834 0.375121 0.345622
O O3 0.217633 0.685935 0.415805
O O4 0.561229 0.638182 0.298158
O O5 0.462702 0.532390 0.111017
O O6 0.394307 0.257216 0.061459
O O7 0.641145 0.461116 0.953624
O O8 0.817392 0.310299 0.765562
O O9 0.107237 0.192085 0.670582
O O10 0.879873 0.939836 0.747041
O O11 0.356031 0.360913 0.960336
O O12 0.290726 0.011708 0.027597
O O13 0.410220 0.696562 0.014862
O O14 0.133274 0.109053 0.852019
O O15 0.322091 0.122564 0.695252
O O16 0.604402 0.789263 0.122973
#
# Coordination Sequence:
#
# PCOD9137935 Si02
#       8
#     4   4   4   4   4   4   4   4
#     4  12  25  44  71 110 147 187 247 303 363 447
#     4  10  22  47  71 104 140 196 238 299 363 436
#     4  10  26  48  72 111 144 193 249 304 375 430
#     4  10  26  47  73 105 144 196 249 303 369 443
#     4  12  25  46  71 106 149 186 251 303 364 447
#     4  12  28  45  72 107 147 198 238 305 384 425
#     4  10  24  48  71 106 149 189 247 308 362 445
#     4  10  22  45  73 103 146 193 241 301 372 441
#
# _framework density 24.907436000000001
#
# number of rings (size 3 to 8) (size 9 to 14) (size 15 to 20)
#    0.000    1.500    5.000    0.000    5.250    6.000 
#    2.250    0.000    0.000    0.000    0.000    0.000 
#    0.000    0.000    0.000    0.000    0.000    0.000 
#
# Total GULP energy -89315.516806 kJ/mol
# GULP energy per Si atom -5582.219800 kJ/mol
# Density = 2.485075 g / cm^3
# Si number density = 24.907436 Si / 1000 Ang^3
#
#
#
# Elastic Constant Matrix: (Units=GPa)
#
#
# Indices 1 2 3 4 5 6 
#
# 1 182.0931 40.5350 44.3457 0.0000 -20.1823 0.0001
# 2 40.5350 78.0965 38.2428 0.0000 -17.2738 0.0004
# 3 44.3457 38.2428 65.6750 0.0000 -20.3240 0.0000
# 4 0.0000 0.0000 0.0000 36.8429 0.0000 -5.2475
# 5 -20.1823 -17.2738 -20.3240 0.0000 43.7464 0.0000
# 6 0.0001 0.0004 0.0000 -5.2475 0.0000 41.0367
#
#
#
# Elastic Compliance Matrix: (Units=1/GPa)
#
#
# Indices 1 2 3 4 5 6 
#
# 1 0.006776 -0.001696 -0.003302 0.000000 0.000922 0.000000
# 2 -0.001696 0.018594 -0.008937 0.000000 0.002408 0.000000
# 3 -0.003302 -0.008937 0.024639 0.000000 0.006395 0.000000
# 4 0.000000 0.000000 0.000000 0.027646 0.000000 0.003535
# 5 0.000922 0.002408 0.006395 0.000000 0.027206 0.000000
# 6 0.000000 0.000000 0.000000 0.003535 0.000000 0.024820
#
#
# Mechanical properties :
#
#
# Convention : Reuss Voigt Hill
#
# Bulk Modulus (GPa) = 45.17051 63.56797 54.36924
# Shear Modulus (GPa) = 30.31576 37.84128 34.07852
#
# Velocity S-wave (km/s) = 3.49253 3.90202 3.70294
# Velocity P-wave (km/s) = 5.86843 6.77334 6.33705
#
# Compressibility (1/GPa) = 0.02213834
#
# Stress axis : x y z
#
# Youngs Moduli (GPa) = 147.58840 53.78154 40.58548
#
# Poissons Ratio (x) = 0.09120 0.13402
# Poissons Ratio (y) = 0.25027 0.36272
# Poissons Ratio (z) = 0.48738 0.48065
#
# Static dielectric constant tensor:
#      x y z
#    x 2.053720 0.000000 0.035660 
#    y 0.000000 1.979820 0.000000 
#    z 0.035660 0.000000 2.059180 
# 
# From -- ./inp_files/37368.got.cif
#   From: 2010.05.17/outbox.cif.g08.bks.cpg/sg9_19_cif.got.tgz:37368.got - 2010.06.03 20:04:27.
