data_PCOD9137661
_publ_section_title
;
Structure prediction by ZEFSAII (Michael W. Deem and Ramdas Pophale) SiO2 
 PCOD9137661
Probable space group: C C
;
_chemical_formula_sum "Si O2"
_cell_formula_units_Z 32
_cell_length_a 7.106958
_cell_length_b 14.202644
_cell_length_c 18.021935
_cell_angle_alpha 90.000000
_cell_angle_beta 136.380023
_cell_angle_gamma 90.000000
_cell_volume 1254.939775
_symmetry_space_group_name_H-M "C C"
_symmetry_group_IT_number 9
_symmetry_cell_setting 'monoclinic'
loop_
_space_group_symop_operation_xyz
x,y,z
x,-y,1/2+z
1/2+x,1/2+y,z
1/2+x,1/2-y,1/2+z
loop_
_atom_site_type_symbol
_atom_site_label
_atom_site_fract_x
_atom_site_fract_y
_atom_site_fract_z
Si Si1 0.021240 0.691955 0.328240
Si Si2 0.094022 0.584063 0.082640
Si Si3 0.311564 0.500454 0.791761
Si Si4 0.550237 0.640703 0.740656
Si Si5 0.124489 0.036951 0.152581
Si Si6 0.205674 0.938393 0.017371
Si Si7 0.495018 0.818793 0.209955
Si Si8 0.890263 0.773550 0.064937
O O1 0.171928 0.766689 0.316584
O O2 0.220772 0.669544 0.454697
O O3 0.874021 0.605385 0.244725
O O4 0.748878 0.748536 0.280979
O O5 0.214053 0.568138 0.199060
O O6 0.337909 0.588918 0.093035
O O7 0.880911 0.668457 0.031209
O O8 0.922653 0.489161 0.025648
O O9 0.488186 0.574893 0.794043
O O10 0.107049 0.578957 0.767303
O O11 0.444339 0.437625 0.892203
O O12 0.623741 0.555330 0.705010
O O13 0.309993 0.693442 0.623893
O O14 0.138801 0.003131 0.071074
O O15 0.346307 0.846016 0.089743
O O16 0.222505 0.782556 0.171922
#
# Coordination Sequence:
#
# PCOD9137661 Si02
#       8
#     4   4   4   4   4   4   4   4
#     4  11  25  47  71 103 154 192 248 325 385 451
#     4  10  22  43  69 102 146 186 252 303 372 466
#     4   9  22  45  68 102 144 189 237 322 377 440
#     4  10  23  47  70 109 149 189 264 317 364 492
#     4  11  23  47  73 108 146 197 256 317 379 475
#     4  11  22  45  75 102 149 191 244 316 389 453
#     4  10  22  44  66 101 148 178 249 303 368 470
#     4  12  23  46  70 103 144 196 242 311 390 451
#
# _framework density 25.499230000000001
#
# number of rings (size 3 to 8) (size 9 to 14) (size 15 to 20)
#    0.000    1.500    2.500    3.000    0.000    3.000 
#   27.000    3.750    0.000    0.000    0.000    0.000 
#    0.000    0.000    0.000    0.000    0.000    0.000 
#
# Total GULP energy -89074.371627 kJ/mol
# GULP energy per Si atom -5567.148227 kJ/mol
# Density = 2.544119 g / cm^3
# Si number density = 25.499230 Si / 1000 Ang^3
#
#
#
# Elastic Constant Matrix: (Units=GPa)
#
#
# Indices 1 2 3 4 5 6 
#
# 1 92.9586 -0.4077 15.2917 0.0003 6.1962 0.0001
# 2 -0.4077 97.4811 5.5856 0.0002 -0.6453 0.0002
# 3 15.2917 5.5856 127.0679 0.0008 -11.8977 0.0006
# 4 0.0003 0.0002 0.0008 37.5097 0.0003 0.1297
# 5 6.1962 -0.6453 -11.8977 0.0003 27.8671 0.0002
# 6 0.0001 0.0002 0.0006 0.1297 0.0002 30.9043
#
#
#
# Elastic Compliance Matrix: (Units=1/GPa)
#
#
# Indices 1 2 3 4 5 6 
#
# 1 0.011245 0.000121 -0.001659 0.000000 -0.003206 0.000000
# 2 0.000121 0.010286 -0.000465 0.000000 0.000013 0.000000
# 3 -0.001659 -0.000465 0.008462 0.000000 0.003971 0.000000
# 4 0.000000 0.000000 0.000000 0.026660 0.000000 -0.000112
# 5 -0.003206 0.000013 0.003971 0.000000 0.038293 0.000000
# 6 0.000000 0.000000 0.000000 -0.000112 0.000000 0.032358
#
#
# Mechanical properties :
#
#
# Convention : Reuss Voigt Hill
#
# Bulk Modulus (GPa) = 38.48338 39.82741 39.15539
# Shear Modulus (GPa) = 35.72149 39.05874 37.39012
#
# Velocity S-wave (km/s) = 3.74690 3.91802 3.83341
# Velocity P-wave (km/s) = 5.81754 6.01006 5.91458
#
# Compressibility (1/GPa) = 0.02598525
#
# Stress axis : x y z
#
# Youngs Moduli (GPa) = 88.93218 97.22273 118.18010
#
# Poissons Ratio (x) = -0.01175 0.19602
# Poissons Ratio (y) = -0.01075 0.05501
# Poissons Ratio (z) = 0.14751 0.04526
#
# Static dielectric constant tensor:
#      x y z
#    x 2.395010 0.000000 0.003330 
#    y 0.000000 2.124800 0.000000 
#    z 0.003330 0.000000 2.047980 
# 
# From -- ./inp_files/29446.got.cif
#   From: 2010.05.17/outbox.cif.g08.bks.cpg/sg9_15_cif.got.tgz:29446.got - 2010.06.03 20:04:27.
