data_PCOD9137968
_publ_section_title
;
Structure prediction by ZEFSAII (Michael W. Deem and Ramdas Pophale) SiO2 
 PCOD9137968
Probable space group: C C
;
_chemical_formula_sum "Si O2"
_cell_formula_units_Z 28
_cell_length_a 10.439255
_cell_length_b 9.329540
_cell_length_c 19.651170
_cell_angle_alpha 90.000000
_cell_angle_beta 37.413280
_cell_angle_gamma 90.000000
_cell_volume 1162.806068
_symmetry_space_group_name_H-M "C C"
_symmetry_group_IT_number 9
_symmetry_cell_setting 'monoclinic'
loop_
_space_group_symop_operation_xyz
x,y,z
x,-y,1/2+z
1/2+x,1/2+y,z
1/2+x,1/2-y,1/2+z
loop_
_atom_site_type_symbol
_atom_site_label
_atom_site_fract_x
_atom_site_fract_y
_atom_site_fract_z
Si Si1 0.858590 0.138159 0.497990
Si Si2 0.080450 0.322809 0.519050
Si Si3 0.657271 0.073625 0.384536
Si Si4 0.391339 0.756304 0.192517
Si Si5 0.458232 0.643206 0.030878
Si Si6 0.785980 0.430421 0.763746
Si Si7 0.352843 0.056461 0.393169
O O1 0.626823 0.189385 0.578575
O O2 0.929526 0.236566 0.530895
O O3 0.054992 0.142425 0.363168
O O4 0.855373 0.973447 0.524754
O O5 0.172649 0.455806 0.436818
O O6 0.259074 0.206838 0.459536
O O7 0.938687 0.367635 0.642519
O O8 0.867500 0.145971 0.264790
O O9 0.526720 0.207597 0.469269
O O10 0.532663 0.013522 0.370763
O O11 0.316884 0.679420 0.155618
O O12 0.260544 0.899663 0.261814
O O13 0.666181 0.561160 0.971705
O O14 0.882013 0.421118 0.799593
#
# Coordination Sequence:
#
# PCOD9137968 Si02
#       7
#     4   4   4   4   4   4   4
#     4  10  25  46  66 102 147 183 229 299 355 417
#     4  10  23  46  72 102 135 184 237 290 353 423
#     4  12  24  42  72 106 135 183 241 281 354 421
#     4  12  24  41  72 105 138 187 234 295 347 426
#     4  10  23  43  67 101 139 181 234 280 358 411
#     4  10  22  46  67  98 140 186 229 291 358 403
#     4  10  25  46  66 102 146 176 230 296 353 417
#
# _framework density 24.079681999999998
#
# number of rings (size 3 to 8) (size 9 to 14) (size 15 to 20)
#    0.000    1.714    4.286    0.857    4.000    5.714 
#    2.571    0.000    0.000    0.000    0.000    0.000 
#    0.000    0.000    0.000    0.000    0.000    0.000 
#
# Total GULP energy -78311.474112 kJ/mol
# GULP energy per Si atom -5593.676722 kJ/mol
# Density = 2.402488 g / cm^3
# Si number density = 24.079682 Si / 1000 Ang^3
#
#
#
# Elastic Constant Matrix: (Units=GPa)
#
#
# Indices 1 2 3 4 5 6 
#
# 1 70.2360 25.8201 41.2777 0.0000 -6.6394 0.0000
# 2 25.8201 103.9198 32.0625 0.0000 3.3742 0.0000
# 3 41.2777 32.0625 143.0157 0.0000 19.3921 0.0000
# 4 0.0000 0.0000 0.0000 43.1349 0.0000 15.1005
# 5 -6.6394 3.3742 19.3921 0.0000 31.5831 0.0000
# 6 0.0000 0.0000 0.0000 15.1005 0.0000 31.9630
#
#
#
# Elastic Compliance Matrix: (Units=1/GPa)
#
#
# Indices 1 2 3 4 5 6 
#
# 1 0.019821 -0.003311 -0.006099 0.000000 0.008265 0.000000
# 2 -0.003311 0.010895 -0.001347 0.000000 -0.001033 0.000000
# 3 -0.006099 -0.001347 0.010045 0.000000 -0.007306 0.000000
# 4 0.000000 0.000000 0.000000 0.027777 0.000000 -0.013123
# 5 0.008265 -0.001033 -0.007306 0.000000 0.037996 0.000000
# 6 0.000000 0.000000 0.000000 -0.013123 0.000000 0.037486
#
#
# Mechanical properties :
#
#
# Convention : Reuss Voigt Hill
#
# Bulk Modulus (GPa) = 51.95779 57.27691 54.61735
# Shear Modulus (GPa) = 29.07829 35.87028 32.47429
#
# Velocity S-wave (km/s) = 3.47880 3.86378 3.67634
# Velocity P-wave (km/s) = 6.14495 6.61386 6.38371
#
# Compressibility (1/GPa) = 0.01924639
#
# Stress axis : x y z
#
# Youngs Moduli (GPa) = 50.45198 91.78895 99.55048
#
# Poissons Ratio (x) = 0.30394 0.60717
# Poissons Ratio (y) = 0.16706 0.13406
# Poissons Ratio (z) = 0.30771 0.12361
#
# Static dielectric constant tensor:
#      x y z
#    x 1.957180 0.000000 0.001360 
#    y 0.000000 1.905240 0.000000 
#    z 0.001360 0.000000 1.929720 
# 
# From -- ./inp_files/33107.got.cif
#   From: 2010.05.17/outbox.cif.g08.bks.cpg/sg9_17_cif.got.tgz:33107.got - 2010.06.03 20:04:27.
