data_PCOD9137024
_publ_section_title
;
Structure prediction by ZEFSAII (Michael W. Deem and Ramdas Pophale) SiO2 
 PCOD9137024
Probable space group: C C
;
_chemical_formula_sum "Si O2"
_cell_formula_units_Z 20
_cell_length_a 24.842426
_cell_length_b 8.871512
_cell_length_c 5.293169
_cell_angle_alpha 90.000000
_cell_angle_beta 54.833459
_cell_angle_gamma 90.000000
_cell_volume 953.641798
_symmetry_space_group_name_H-M "C C"
_symmetry_group_IT_number 9
_symmetry_cell_setting 'monoclinic'
loop_
_space_group_symop_operation_xyz
x,y,z
x,-y,1/2+z
1/2+x,1/2+y,z
1/2+x,1/2-y,1/2+z
loop_
_atom_site_type_symbol
_atom_site_label
_atom_site_fract_x
_atom_site_fract_y
_atom_site_fract_z
Si Si1 0.036930 0.897181 0.178640
Si Si2 0.184274 0.091104 0.351625
Si Si3 0.760662 0.042610 0.074119
Si Si4 0.311802 0.751184 0.290237
Si Si5 0.950922 0.596877 0.434676
O O1 0.989877 0.753821 0.317756
O O2 0.027715 0.007952 0.444863
O O3 0.112715 0.839946 0.989345
O O4 0.185968 0.045103 0.640606
O O5 0.248482 0.182476 0.099639
O O6 0.789977 0.203934 0.064499
O O7 0.722038 0.984687 0.423511
O O8 0.819264 0.917543 0.886972
O O9 0.373823 0.856316 0.138502
O O10 0.964972 0.505258 0.652181
#
# Coordination Sequence:
#
# PCOD9137024 Si02
#       5
#     4   4   4   4   4
#     4  10  23  45  68  86 122 174 213 244 300 387
#     4  10  22  38  62  88 114 161 201 250 304 358
#     4   8  20  32  52  86 112 162 196 232 302 358
#     4  10  22  37  61  88 128 151 209 250 309 367
#     4  12  27  40  63  98 128 160 201 268 321 348
#
# _framework density 20.972234
#
# number of rings (size 3 to 8) (size 9 to 14) (size 15 to 20)
#    1.200    0.800    0.000    2.400    8.400    0.000 
#    3.600    0.000    0.000    0.000    0.000    0.000 
#    0.000    0.000    0.000    0.000    0.000    0.000 
#
# Total GULP energy -55678.591958 kJ/mol
# GULP energy per Si atom -5567.859196 kJ/mol
# Density = 2.092450 g / cm^3
# Si number density = 20.972234 Si / 1000 Ang^3
#
#
#
# Elastic Constant Matrix: (Units=GPa)
#
#
# Indices 1 2 3 4 5 6 
#
# 1 70.0403 39.0073 57.0279 0.0000 4.1587 0.0000
# 2 39.0073 58.1510 39.6923 0.0000 -19.9567 0.0000
# 3 57.0279 39.6923 108.7366 0.0000 12.5033 0.0000
# 4 0.0000 0.0000 0.0000 44.3929 0.0000 2.8177
# 5 4.1587 -19.9567 12.5033 0.0000 41.6485 0.0000
# 6 0.0000 0.0000 0.0000 2.8177 0.0000 25.7499
#
#
#
# Elastic Compliance Matrix: (Units=1/GPa)
#
#
# Indices 1 2 3 4 5 6 
#
# 1 0.033067 -0.019266 -0.009185 0.000000 -0.009776 0.000000
# 2 -0.019266 0.046058 -0.009806 0.000000 0.026937 0.000000
# 3 -0.009185 -0.009806 0.018672 0.000000 -0.009387 0.000000
# 4 0.000000 0.000000 0.000000 0.022684 0.000000 -0.002482
# 5 -0.009776 0.026937 -0.009387 0.000000 0.040712 0.000000
# 6 0.000000 0.000000 0.000000 -0.002482 0.000000 0.039107
#
#
# Mechanical properties :
#
#
# Convention : Reuss Voigt Hill
#
# Bulk Modulus (GPa) = 46.98628 56.48698 51.73663
# Shear Modulus (GPa) = 17.61134 29.10495 23.35814
#
# Velocity S-wave (km/s) = 2.90098 3.72934 3.34093
# Velocity P-wave (km/s) = 5.80290 6.74808 6.29326
#
# Compressibility (1/GPa) = 0.02128281
#
# Stress axis : x y z
#
# Youngs Moduli (GPa) = 30.24200 21.71179 53.55484
#
# Poissons Ratio (x) = 0.41831 0.49190
# Poissons Ratio (y) = 0.58266 0.52514
# Poissons Ratio (z) = 0.27777 0.21290
#
# Static dielectric constant tensor:
#      x y z
#    x 1.811710 0.000000 0.086130 
#    y 0.000000 1.803200 0.000000 
#    z 0.086130 0.000000 1.805710 
# 
# From -- ./inp_files/2841.got.cif
#   From: 2010.05.17/outbox.cif.g08.bks.cpg/sg9_2_cif.got.tgz:2841.got - 2010.06.03 20:04:27.
