data_PCOD9137675
_publ_section_title
;
Structure prediction by ZEFSAII (Michael W. Deem and Ramdas Pophale) SiO2 
 PCOD9137675
Probable space group: C C
;
_chemical_formula_sum "Si O2"
_cell_formula_units_Z 28
_cell_length_a 5.416760
_cell_length_b 21.709891
_cell_length_c 11.860198
_cell_angle_alpha 90.000000
_cell_angle_beta 113.069746
_cell_angle_gamma 90.000000
_cell_volume 1283.188544
_symmetry_space_group_name_H-M "C C"
_symmetry_group_IT_number 9
_symmetry_cell_setting 'monoclinic'
loop_
_space_group_symop_operation_xyz
x,y,z
x,-y,1/2+z
1/2+x,1/2+y,z
1/2+x,1/2-y,1/2+z
loop_
_atom_site_type_symbol
_atom_site_label
_atom_site_fract_x
_atom_site_fract_y
_atom_site_fract_z
Si Si1 0.062450 0.323190 0.339290
Si Si2 0.553326 0.093236 0.283189
Si Si3 0.273098 0.611663 0.099934
Si Si4 0.958636 0.127485 0.723824
Si Si5 0.566840 0.597627 0.504011
Si Si6 0.129315 0.002597 0.687417
Si Si7 0.209298 0.818452 0.835234
O O1 0.188582 0.354490 0.472447
O O2 0.215270 0.351592 0.257961
O O3 0.138602 0.251549 0.345597
O O4 0.742713 0.336459 0.288826
O O5 0.534502 0.099164 0.145389
O O6 0.842753 0.073298 0.378198
O O7 0.477358 0.160054 0.318898
O O8 0.350822 0.040093 0.283406
O O9 0.408741 0.545511 0.104744
O O10 0.479417 0.653158 0.211320
O O11 0.912228 0.130077 0.580775
O O12 0.017930 0.054658 0.751124
O O13 0.724888 0.543886 0.597530
O O14 0.722557 0.646125 0.456710
#
# Coordination Sequence:
#
# PCOD9137675 Si02
#       7
#     4   4   4   4   4   4   4
#     4  12  28  46  72 103 143 185 238 285 343 429
#     4  10  22  43  70 100 141 184 232 293 358 405
#     4  10  25  43  67 105 135 185 229 296 348 413
#     4  10  28  44  70 107 133 189 230 286 350 407
#     4   9  23  42  70 100 138 185 227 293 349 417
#     4   9  23  42  68 104 141 175 240 280 359 417
#     4  10  25  44  69  99 137 187 234 287 355 410
#
# _framework density 21.820643
#
# number of rings (size 3 to 8) (size 9 to 14) (size 15 to 20)
#    0.857    1.143    0.000    0.000   16.000    3.429 
#    0.000    0.000    0.000    0.000    0.000    0.000 
#    0.000    0.000    0.000    0.000    0.000    0.000 
#
# Total GULP energy -78041.891295 kJ/mol
# GULP energy per Si atom -5574.420807 kJ/mol
# Density = 2.177098 g / cm^3
# Si number density = 21.820643 Si / 1000 Ang^3
#
#
#
# Elastic Constant Matrix: (Units=GPa)
#
#
# Indices 1 2 3 4 5 6 
#
# 1 49.9208 11.5650 9.8485 0.0000 -7.1201 0.0000
# 2 11.5650 133.8956 14.0628 0.0000 -0.9501 0.0000
# 3 9.8485 14.0628 67.8776 0.0000 -22.0569 0.0000
# 4 0.0000 0.0000 0.0000 32.3307 0.0000 -5.4426
# 5 -7.1201 -0.9501 -22.0569 0.0000 33.5595 0.0000
# 6 0.0000 0.0000 0.0000 -5.4426 0.0000 12.6438
#
#
#
# Elastic Compliance Matrix: (Units=1/GPa)
#
#
# Indices 1 2 3 4 5 6 
#
# 1 0.021216 -0.001636 -0.001643 0.000000 0.003375 0.000000
# 2 -0.001636 0.007790 -0.001803 0.000000 -0.001311 0.000000
# 3 -0.001643 -0.001803 0.019346 0.000000 0.012316 0.000000
# 4 0.000000 0.000000 0.000000 0.033347 0.000000 0.014354
# 5 0.003375 -0.001311 0.012316 0.000000 0.038571 0.000000
# 6 0.000000 0.000000 0.000000 0.014354 0.000000 0.085269
#
#
# Mechanical properties :
#
#
# Convention : Reuss Voigt Hill
#
# Bulk Modulus (GPa) = 26.18495 35.84962 31.01728
# Shear Modulus (GPa) = 21.88834 30.12131 26.00483
#
# Velocity S-wave (km/s) = 3.17062 3.71941 3.45592
# Velocity P-wave (km/s) = 5.04280 5.90849 5.49273
#
# Compressibility (1/GPa) = 0.03818988
#
# Stress axis : x y z
#
# Youngs Moduli (GPa) = 47.13372 128.37239 51.68974
#
# Poissons Ratio (x) = 0.21002 0.08490
# Poissons Ratio (y) = 0.07711 0.09318
# Poissons Ratio (z) = 0.07742 0.23141
#
# Static dielectric constant tensor:
#      x y z
#    x 1.895600 0.000000 -0.004760 
#    y 0.000000 1.801170 0.000000 
#    z -0.004760 0.000000 1.783480 
# 
# From -- ./inp_files/13681.got.cif
#   From: 2010.05.17/outbox.cif.g08.bks.cpg/sg9_7_cif.got.tgz:13681.got - 2010.06.03 20:04:27.
