data_PCOD9137874
_publ_section_title
;
Structure prediction by ZEFSAII (Michael W. Deem and Ramdas Pophale) SiO2 
 PCOD9137874
Probable space group: C C
;
_chemical_formula_sum "Si O2"
_cell_formula_units_Z 28
_cell_length_a 6.713139
_cell_length_b 17.053393
_cell_length_c 14.298341
_cell_angle_alpha 90.000000
_cell_angle_beta 119.834263
_cell_angle_gamma 90.000000
_cell_volume 1419.958354
_symmetry_space_group_name_H-M "C C"
_symmetry_group_IT_number 9
_symmetry_cell_setting 'monoclinic'
loop_
_space_group_symop_operation_xyz
x,y,z
x,-y,1/2+z
1/2+x,1/2+y,z
1/2+x,1/2-y,1/2+z
loop_
_atom_site_type_symbol
_atom_site_label
_atom_site_fract_x
_atom_site_fract_y
_atom_site_fract_z
Si Si1 0.559340 0.623256 0.064700
Si Si2 0.801618 0.239255 0.323938
Si Si3 0.112098 0.720802 0.473505
Si Si4 0.717783 0.491616 0.224134
Si Si5 0.378177 0.648961 0.699201
Si Si6 0.636869 0.119379 0.842641
Si Si7 0.135487 0.149803 0.289874
O O1 0.683886 0.542158 0.120928
O O2 0.576799 0.668972 0.167848
O O3 0.638032 0.687812 0.008406
O O4 0.310439 0.601394 0.967403
O O5 0.780878 0.211827 0.425484
O O6 0.556019 0.277518 0.242356
O O7 0.982743 0.307686 0.341823
O O8 0.902015 0.167097 0.289794
O O9 0.185894 0.668589 0.578187
O O10 0.854984 0.696405 0.381532
O O11 0.524886 0.426325 0.199574
O O12 0.698210 0.558286 0.299224
O O13 0.961628 0.450510 0.282776
O O14 0.271264 0.636775 0.777183
#
# Coordination Sequence:
#
# PCOD9137874 Si02
#       7
#     4   4   4   4   4   4   4
#     4  10  22  45  67  96 134 176 226 273 337 407
#     4  11  22  41  68 103 132 176 227 282 337 405
#     4  12  23  41  69 103 135 175 227 285 337 406
#     4   9  26  44  64  98 135 182 226 273 348 402
#     4  11  25  45  67 100 136 179 227 282 346 404
#     4  11  22  47  67  95 141 176 223 287 337 409
#     4  10  24  43  64 103 131 176 230 276 336 409
#
# _framework density 19.718888
#
# number of rings (size 3 to 8) (size 9 to 14) (size 15 to 20)
#    0.857    0.571    2.857    1.714    4.000    3.429 
#    5.143    0.000    0.000    0.000    0.000    0.000 
#    0.000    0.000    0.000    0.000    0.000    0.000 
#
# Total GULP energy -77996.984486 kJ/mol
# GULP energy per Si atom -5571.213178 kJ/mol
# Density = 1.967401 g / cm^3
# Si number density = 19.718888 Si / 1000 Ang^3
#
#
#
# Elastic Constant Matrix: (Units=GPa)
#
#
# Indices 1 2 3 4 5 6 
#
# 1 103.5819 43.9504 54.3972 0.0000 1.5031 0.0000
# 2 43.9504 81.4766 37.2318 0.0000 11.2098 0.0000
# 3 54.3972 37.2318 138.9332 0.0000 12.4203 0.0000
# 4 0.0000 0.0000 0.0000 30.4034 0.0000 1.2249
# 5 1.5031 11.2098 12.4203 0.0000 31.8687 0.0000
# 6 0.0000 0.0000 0.0000 1.2249 0.0000 25.0395
#
#
#
# Elastic Compliance Matrix: (Units=1/GPa)
#
#
# Indices 1 2 3 4 5 6 
#
# 1 0.014543 -0.006328 -0.004285 0.000000 0.003210 0.000000
# 2 -0.006328 0.017147 -0.001663 0.000000 -0.005085 0.000000
# 3 -0.004285 -0.001663 0.009585 0.000000 -0.002949 0.000000
# 4 0.000000 0.000000 0.000000 0.032956 0.000000 -0.001612
# 5 0.003210 -0.005085 -0.002949 0.000000 0.034165 0.000000
# 6 0.000000 0.000000 0.000000 -0.001612 0.000000 0.040016
#
#
# Mechanical properties :
#
#
# Convention : Reuss Voigt Hill
#
# Bulk Modulus (GPa) = 59.80204 66.12783 62.96494
# Shear Modulus (GPa) = 28.00526 30.02313 29.01420
#
# Velocity S-wave (km/s) = 3.77268 3.90623 3.84003
# Velocity P-wave (km/s) = 7.02642 7.34526 7.18761
#
# Compressibility (1/GPa) = 0.01672184
#
# Stress axis : x y z
#
# Youngs Moduli (GPa) = 68.76042 58.32088 104.33326
#
# Poissons Ratio (x) = 0.36908 0.44709
# Poissons Ratio (y) = 0.43515 0.17347
# Poissons Ratio (z) = 0.29466 0.09696
#
# Static dielectric constant tensor:
#      x y z
#    x 1.687450 0.000000 -0.002010 
#    y 0.000000 1.733070 0.000000 
#    z -0.002010 0.000000 1.702290 
# 
# From -- ./inp_files/21898.got.cif
#   From: 2010.05.17/outbox.cif.g08.bks.cpg/sg9_11_cif.got.tgz:21898.got - 2010.06.03 20:04:27.
