data_PCOD9137727
_publ_section_title
;
Structure prediction by ZEFSAII (Michael W. Deem and Ramdas Pophale) SiO2 
 PCOD9137727
Probable space group: C C
;
_chemical_formula_sum "Si O2"
_cell_formula_units_Z 32
_cell_length_a 13.006142
_cell_length_b 6.829584
_cell_length_c 15.154079
_cell_angle_alpha 90.000000
_cell_angle_beta 84.861661
_cell_angle_gamma 90.000000
_cell_volume 1340.674965
_symmetry_space_group_name_H-M "C C"
_symmetry_group_IT_number 9
_symmetry_cell_setting 'monoclinic'
loop_
_space_group_symop_operation_xyz
x,y,z
x,-y,1/2+z
1/2+x,1/2+y,z
1/2+x,1/2-y,1/2+z
loop_
_atom_site_type_symbol
_atom_site_label
_atom_site_fract_x
_atom_site_fract_y
_atom_site_fract_z
Si Si1 0.550070 0.621203 0.004960
Si Si2 0.473784 0.226010 0.224711
Si Si3 0.717247 0.658035 0.411517
Si Si4 0.272283 0.530571 0.782758
Si Si5 0.451240 0.949598 0.901086
Si Si6 0.201274 0.883094 0.243836
Si Si7 0.411819 0.720743 0.531955
Si Si8 0.705008 0.273442 0.622562
O O1 0.445807 0.503089 0.026772
O O2 0.592712 0.722062 0.089360
O O3 0.633094 0.446219 0.979652
O O4 0.529456 0.785206 0.932872
O O5 0.387594 0.380533 0.267052
O O6 0.462048 0.047807 0.294545
O O7 0.587721 0.308885 0.227622
O O8 0.449020 0.195591 0.123988
O O9 0.718217 0.881375 0.374885
O O10 0.834200 0.617513 0.432940
O O11 0.699510 0.535172 0.323567
O O12 0.267442 0.300028 0.771349
O O13 0.216097 0.619657 0.700573
O O14 0.461171 0.155301 0.949367
O O15 0.236473 0.014833 0.159282
O O16 0.288392 0.726253 0.541341
#
# Coordination Sequence:
#
# PCOD9137727 Si02
#       8
#     4   4   4   4   4   4   4   4
#     4  12  24  42  64  96 140 174 222 292 334 408
#     4  10  22  44  64 100 136 170 240 272 338 418
#     4  10  23  45  64 100 137 172 237 282 335 417
#     4   9  23  41  69  96 129 182 225 283 347 402
#     4  11  25  45  69 102 137 183 230 284 345 412
#     4  11  21  45  73  94 137 184 221 291 345 402
#     4  11  25  45  69 102 137 183 230 284 345 412
#     4  10  23  45  64 100 137 172 237 282 335 417
#
# _framework density 23.868576000000001
#
# number of rings (size 3 to 8) (size 9 to 14) (size 15 to 20)
#    0.000    1.500    3.750    0.750    3.500    4.000 
#    2.250    3.750    0.000    0.000    0.000    0.000 
#    0.000    0.000    0.000    0.000    0.000    0.000 
#
# Total GULP energy -89445.730753 kJ/mol
# GULP energy per Si atom -5590.358172 kJ/mol
# Density = 2.381425 g / cm^3
# Si number density = 23.868576 Si / 1000 Ang^3
#
#
#
# Elastic Constant Matrix: (Units=GPa)
#
#
# Indices 1 2 3 4 5 6 
#
# 1 62.0669 9.3256 -21.0984 0.0000 0.8620 0.0000
# 2 9.3256 44.8437 -2.4823 0.0000 7.4521 0.0000
# 3 -21.0984 -2.4823 37.9075 0.0000 9.1769 0.0000
# 4 0.0000 0.0000 0.0000 20.8832 0.0000 -0.1600
# 5 0.8620 7.4521 9.1769 0.0000 30.1635 0.0000
# 6 0.0000 0.0000 0.0000 -0.1600 0.0000 28.7239
#
#
#
# Elastic Compliance Matrix: (Units=1/GPa)
#
#
# Indices 1 2 3 4 5 6 
#
# 1 0.020775 -0.003052 0.012225 0.000000 -0.003559 0.000000
# 2 -0.003052 0.024056 0.001397 0.000000 -0.006281 0.000000
# 3 0.012225 0.001397 0.036103 0.000000 -0.011678 0.000000
# 4 0.000000 0.000000 0.000000 0.047887 0.000000 0.000267
# 5 -0.003559 -0.006281 -0.011678 0.000000 0.038359 0.000000
# 6 0.000000 0.000000 0.000000 0.000267 0.000000 0.034816
#
#
# Mechanical properties :
#
#
# Convention : Reuss Voigt Hill
#
# Bulk Modulus (GPa) = 9.79704 12.92311 11.36008
# Shear Modulus (GPa) = 23.26872 26.55901 24.91386
#
# Velocity S-wave (km/s) = 3.12568 3.33936 3.23428
# Velocity P-wave (km/s) = 4.14004 4.50494 4.32634
#
# Compressibility (1/GPa) = 0.10207166
#
# Stress axis : x y z
#
# Youngs Moduli (GPa) = 48.13434 41.57051 27.69889
#
# Poissons Ratio (x) = 0.12689 -0.33861
# Poissons Ratio (y) = 0.14692 -0.03869
# Poissons Ratio (z) = -0.58842 -0.05807
#
# Static dielectric constant tensor:
#      x y z
#    x 1.937010 0.000000 -0.018050 
#    y 0.000000 1.930290 0.000000 
#    z -0.018050 0.000000 1.927570 
# 
# From -- ./inp_files/30386.got.cif
#   From: 2010.05.17/outbox.cif.g08.bks.cpg/sg9_16_cif.got.tgz:30386.got - 2010.06.03 20:04:27.
