data_PCOD9137378
_publ_section_title
;
Structure prediction by ZEFSAII (Michael W. Deem and Ramdas Pophale) SiO2 
 PCOD9137378
Probable space group: C C
;
_chemical_formula_sum "Si O2"
_cell_formula_units_Z 32
_cell_length_a 9.002889
_cell_length_b 15.370410
_cell_length_c 8.719586
_cell_angle_alpha 90.000000
_cell_angle_beta 80.846573
_cell_angle_gamma 90.000000
_cell_volume 1191.234738
_symmetry_space_group_name_H-M "C C"
_symmetry_group_IT_number 9
_symmetry_cell_setting 'monoclinic'
loop_
_space_group_symop_operation_xyz
x,y,z
x,-y,1/2+z
1/2+x,1/2+y,z
1/2+x,1/2-y,1/2+z
loop_
_atom_site_type_symbol
_atom_site_label
_atom_site_fract_x
_atom_site_fract_y
_atom_site_fract_z
Si Si1 0.244510 0.428228 0.462720
Si Si2 0.309873 0.678770 0.206126
Si Si3 0.154348 0.130740 0.111423
Si Si4 0.354582 0.402889 0.011391
Si Si5 0.363636 0.165295 0.536974
Si Si6 0.374800 0.269790 0.243952
Si Si7 0.246436 0.986778 0.860089
Si Si8 0.546054 0.056949 0.730546
O O1 0.217026 0.396157 0.638968
O O2 0.378894 0.500024 0.435002
O O3 0.286818 0.339385 0.365835
O O4 0.092038 0.453354 0.401277
O O5 0.484601 0.666524 0.123217
O O6 0.310313 0.661603 0.383422
O O7 0.255847 0.767838 0.143429
O O8 0.267850 0.205378 0.158769
O O9 0.143110 0.060009 0.251174
O O10 0.206205 0.078197 0.950079
O O11 0.445538 0.340590 0.112457
O O12 0.207095 0.437147 0.123889
O O13 0.438036 0.207679 0.370221
O O14 0.272983 0.083016 0.490033
O O15 0.474771 0.140315 0.656603
O O16 0.405337 0.993407 0.745258
#
# Coordination Sequence:
#
# PCOD9137378 Si02
#       8
#     4   4   4   4   4   4   4   4
#     4  10  22  41  68  99 141 184 239 299 360 433
#     4  11  24  42  69 105 146 187 236 306 368 442
#     4  11  25  45  70 101 146 190 238 302 364 453
#     4  11  23  41  69 101 140 188 241 300 366 431
#     4  10  22  45  69 104 143 186 247 297 371 434
#     4   9  22  44  66 103 143 186 240 300 366 440
#     4  11  24  45  74 102 138 195 246 296 368 445
#     4  11  22  43  71 101 137 184 245 304 353 434
#
# _framework density 26.862884000000001
#
# number of rings (size 3 to 8) (size 9 to 14) (size 15 to 20)
#    0.000    1.500    1.250    3.750    3.500    0.000 
#    2.250    2.500    0.000    0.000    0.000    0.000 
#    0.000    0.000    0.000    0.000    0.000    0.000 
#
# Total GULP energy -89139.495836 kJ/mol
# GULP energy per Si atom -5571.218490 kJ/mol
# Density = 2.680174 g / cm^3
# Si number density = 26.862884 Si / 1000 Ang^3
#
#
#
# Elastic Constant Matrix: (Units=GPa)
#
#
# Indices 1 2 3 4 5 6 
#
# 1 74.0185 22.9157 15.4403 0.0000 -5.0965 0.0000
# 2 22.9157 140.9911 38.2387 0.0000 -12.5545 0.0000
# 3 15.4403 38.2387 122.0909 0.0000 12.5012 0.0000
# 4 0.0000 0.0000 0.0000 63.3672 0.0000 14.4019
# 5 -5.0965 -12.5545 12.5012 0.0000 31.0043 0.0000
# 6 0.0000 0.0000 0.0000 14.4019 0.0000 27.5638
#
#
#
# Elastic Compliance Matrix: (Units=1/GPa)
#
#
# Indices 1 2 3 4 5 6 
#
# 1 0.014526 -0.001742 -0.001527 0.000000 0.002298 0.000000
# 2 -0.001742 0.008550 -0.002903 0.000000 0.004346 0.000000
# 3 -0.001527 -0.002903 0.009845 0.000000 -0.005396 0.000000
# 4 0.000000 0.000000 0.000000 0.017908 0.000000 -0.009357
# 5 0.002298 0.004346 -0.005396 0.000000 0.036567 0.000000
# 6 0.000000 0.000000 0.000000 -0.009357 0.000000 0.041168
#
#
# Mechanical properties :
#
#
# Convention : Reuss Voigt Hill
#
# Bulk Modulus (GPa) = 48.59440 54.47667 51.53554
# Shear Modulus (GPa) = 33.83714 41.75411 37.79563
#
# Velocity S-wave (km/s) = 3.55297 3.94679 3.75505
# Velocity P-wave (km/s) = 5.91274 6.41039 6.16659
#
# Compressibility (1/GPa) = 0.02057850
#
# Stress axis : x y z
#
# Youngs Moduli (GPa) = 68.84100 116.95869 101.57173
#
# Poissons Ratio (x) = 0.20378 0.15507
# Poissons Ratio (y) = 0.11994 0.29481
# Poissons Ratio (z) = 0.10510 0.33947
#
# Static dielectric constant tensor:
#      x y z
#    x 2.088040 0.000000 -0.059700 
#    y 0.000000 2.331310 0.000000 
#    z -0.059700 0.000000 2.286120 
# 
# From -- ./inp_files/7451.got.cif
#   From: 2010.05.17/outbox.cif.g08.bks.cpg/sg9_4_cif.got.tgz:7451.got - 2010.06.03 20:04:27.
