data_PCOD9137589
_publ_section_title
;
Structure prediction by ZEFSAII (Michael W. Deem and Ramdas Pophale) SiO2 
 PCOD9137589
Probable space group: C C
;
_chemical_formula_sum "Si O2"
_cell_formula_units_Z 28
_cell_length_a 7.673988
_cell_length_b 29.937457
_cell_length_c 8.143400
_cell_angle_alpha 90.000000
_cell_angle_beta 124.288902
_cell_angle_gamma 90.000000
_cell_volume 1545.720219
_symmetry_space_group_name_H-M "C C"
_symmetry_group_IT_number 9
_symmetry_cell_setting 'monoclinic'
loop_
_space_group_symop_operation_xyz
x,y,z
x,-y,1/2+z
1/2+x,1/2+y,z
1/2+x,1/2-y,1/2+z
loop_
_atom_site_type_symbol
_atom_site_label
_atom_site_fract_x
_atom_site_fract_y
_atom_site_fract_z
Si Si1 0.449040 0.445146 0.545020
Si Si2 0.929840 0.552538 0.188787
Si Si3 0.690221 0.987293 0.116822
Si Si4 0.037223 0.654060 0.180846
Si Si5 0.803956 0.844859 0.497048
Si Si6 0.216682 0.211626 0.179054
Si Si7 0.112405 0.687373 0.567713
O O1 0.691476 0.452652 0.624982
O O2 0.298802 0.457617 0.312710
O O3 0.365504 0.478175 0.642187
O O4 0.409816 0.393600 0.568002
O O5 0.999237 0.516918 0.088452
O O6 0.093785 0.542635 0.422250
O O7 0.964622 0.602790 0.145656
O O8 0.164117 0.663165 0.083514
O O9 0.163866 0.664784 0.418420
O O10 0.833025 0.685754 0.092151
O O11 0.670917 0.841318 0.257457
O O12 0.986665 0.808051 0.581785
O O13 0.217842 0.264128 0.145709
O O14 0.363684 0.198059 0.411725
#
# Coordination Sequence:
#
# PCOD9137589 Si02
#       7
#     4   4   4   4   4   4   4
#     4  11  21  37  62  83 117 160 189 243 302 336
#     4  11  20  41  56  87 122 147 201 245 285 352
#     4  10  23  36  60  86 115 156 196 243 292 352
#     4  10  23  39  62  91 119 157 200 242 293 360
#     4  12  21  41  64  87 124 159 197 245 299 351
#     4  10  22  43  61  88 124 154 196 252 294 353
#     4  10  22  43  61  90 121 155 199 246 297 354
#
# _framework density 18.114530999999999
#
# number of rings (size 3 to 8) (size 9 to 14) (size 15 to 20)
#    0.857    0.571    4.286    1.714    0.000    1.143 
#    2.571    0.000    0.000    0.000    0.000    0.000 
#    0.000    0.000    0.000    0.000    0.000    0.000 
#
# Total GULP energy -78038.715547 kJ/mol
# GULP energy per Si atom -5574.193968 kJ/mol
# Density = 1.807330 g / cm^3
# Si number density = 18.114531 Si / 1000 Ang^3
#
#
#
# Elastic Constant Matrix: (Units=GPa)
#
#
# Indices 1 2 3 4 5 6 
#
# 1 126.6494 22.7443 10.1215 0.0000 -5.4756 0.0000
# 2 22.7443 59.7680 -8.8078 0.0000 0.4167 0.0000
# 3 10.1215 -8.8078 47.8098 0.0000 -7.0407 0.0000
# 4 0.0000 0.0000 0.0000 55.4356 0.0000 30.6037
# 5 -5.4756 0.4167 -7.0407 0.0000 28.4265 0.0000
# 6 0.0000 0.0000 0.0000 30.6037 0.0000 20.0718
#
#
#
# Elastic Compliance Matrix: (Units=1/GPa)
#
#
# Indices 1 2 3 4 5 6 
#
# 1 0.008802 -0.003708 -0.002375 0.000000 0.001161 0.000000
# 2 -0.003708 0.018768 0.004252 0.000000 0.000064 0.000000
# 3 -0.002375 0.004252 0.022963 0.000000 0.005168 0.000000
# 4 0.000000 0.000000 0.000000 0.113973 0.000000 -0.173775
# 5 0.001161 0.000064 0.005168 0.000000 0.036681 0.000000
# 6 0.000000 0.000000 0.000000 -0.173775 0.000000 0.314777
#
#
# Mechanical properties :
#
#
# Convention : Reuss Voigt Hill
#
# Bulk Modulus (GPa) = 21.33491 31.37146 26.35319
# Shear Modulus (GPa) = 9.34142 34.79807 22.06974
#
# Velocity S-wave (km/s) = 2.27334 4.38768 3.49427
# Velocity P-wave (km/s) = 4.32367 6.55934 5.55514
#
# Compressibility (1/GPa) = 0.04687154
#
# Stress axis : x y z
#
# Youngs Moduli (GPa) = 113.61467 53.28112 43.54751
#
# Poissons Ratio (x) = 0.19754 0.10344
# Poissons Ratio (y) = 0.42123 -0.18516
# Poissons Ratio (z) = 0.26987 -0.22655
#
# Static dielectric constant tensor:
#      x y z
#    x 1.602210 0.000000 -0.005600 
#    y 0.000000 1.597010 0.000000 
#    z -0.005600 0.000000 1.622180 
# 
# From -- ./inp_files/4264.got.cif
#   From: 2010.05.17/outbox.cif.g08.bks.cpg/sg9_3_cif.got.tgz:4264.got - 2010.06.03 20:04:27.
