data_PCOD9137690
_publ_section_title
;
Structure prediction by ZEFSAII (Michael W. Deem and Ramdas Pophale) SiO2 
 PCOD9137690
Probable space group: C C
;
_chemical_formula_sum "Si O2"
_cell_formula_units_Z 28
_cell_length_a 5.086025
_cell_length_b 16.538309
_cell_length_c 13.904506
_cell_angle_alpha 90.000000
_cell_angle_beta 63.100126
_cell_angle_gamma 90.000000
_cell_volume 1043.018246
_symmetry_space_group_name_H-M "C C"
_symmetry_group_IT_number 9
_symmetry_cell_setting 'monoclinic'
loop_
_space_group_symop_operation_xyz
x,y,z
x,-y,1/2+z
1/2+x,1/2+y,z
1/2+x,1/2-y,1/2+z
loop_
_atom_site_type_symbol
_atom_site_label
_atom_site_fract_x
_atom_site_fract_y
_atom_site_fract_z
Si Si1 0.569600 0.725777 0.847440
Si Si2 0.738114 0.380676 0.877227
Si Si3 0.693480 0.959858 0.658611
Si Si4 0.748012 0.644960 0.002699
Si Si5 0.642634 0.771461 0.153729
Si Si6 0.072821 0.415136 0.015891
Si Si7 0.296115 0.399403 0.286844
O O1 0.293761 0.784074 0.875550
O O2 0.633611 0.712858 0.947405
O O3 0.550126 0.632577 0.814396
O O4 0.846187 0.765096 0.748411
O O5 0.939123 0.413013 0.757892
O O6 0.849953 0.412177 0.963498
O O7 0.404087 0.408103 0.919228
O O8 0.970659 0.909251 0.575748
O O9 0.561226 0.008369 0.589142
O O10 0.814469 0.022852 0.718778
O O11 0.011652 0.600603 0.903596
O O12 0.836308 0.698442 0.080669
O O13 0.785139 0.824947 0.213387
O O14 0.549410 0.837832 0.089977
#
# Coordination Sequence:
#
# PCOD9137690 Si02
#       7
#     4   4   4   4   4   4   4
#     4  11  24  42  73 105 141 186 252 302 359 449
#     4  12  26  48  74 112 145 197 251 305 363 453
#     4  11  26  47  72 107 151 199 240 311 380 440
#     4  11  22  45  68 103 139 194 239 304 368 441
#     4  10  22  43  71 101 142 189 241 301 369 432
#     4  11  27  47  74 105 156 191 244 306 378 433
#     4  10  25  44  68 105 144 186 249 307 363 450
#
# _framework density 26.845165999999999
#
# number of rings (size 3 to 8) (size 9 to 14) (size 15 to 20)
#    0.000    1.143    2.857    1.714    8.000    2.286 
#    2.571    0.000    0.000    0.000    0.000    0.000 
#    0.000    0.000    0.000    0.000    0.000    0.000 
#
# Total GULP energy -78539.968892 kJ/mol
# GULP energy per Si atom -5609.997778 kJ/mol
# Density = 2.678407 g / cm^3
# Si number density = 26.845166 Si / 1000 Ang^3
#
#
#
# Elastic Constant Matrix: (Units=GPa)
#
#
# Indices 1 2 3 4 5 6 
#
# 1 57.5517 4.8570 30.5526 0.0000 -7.8741 0.0000
# 2 4.8570 83.2385 69.1243 0.0000 0.3828 0.0000
# 3 30.5526 69.1243 183.3446 0.0000 -15.3840 0.0000
# 4 0.0000 0.0000 0.0000 43.0559 0.0000 14.7272
# 5 -7.8741 0.3828 -15.3840 0.0000 45.6836 0.0000
# 6 0.0000 0.0000 0.0000 14.7272 0.0000 25.0369
#
#
#
# Elastic Compliance Matrix: (Units=1/GPa)
#
#
# Indices 1 2 3 4 5 6 
#
# 1 0.019530 0.002054 -0.003857 0.000000 0.002050 0.000000
# 2 0.002054 0.017973 -0.007308 0.000000 -0.002257 0.000000
# 3 -0.003857 -0.007308 0.009057 0.000000 0.002447 0.000000
# 4 0.000000 0.000000 0.000000 0.029076 0.000000 -0.017103
# 5 0.002050 -0.002257 0.002447 0.000000 0.023086 0.000000
# 6 0.000000 0.000000 0.000000 -0.017103 0.000000 0.050001
#
#
# Mechanical properties :
#
#
# Convention : Reuss Voigt Hill
#
# Bulk Modulus (GPa) = 35.28705 59.24473 47.26589
# Shear Modulus (GPa) = 28.34608 37.39534 32.87071
#
# Velocity S-wave (km/s) = 3.25300 3.73634 3.50302
# Velocity P-wave (km/s) = 5.22327 6.38206 5.83152
#
# Compressibility (1/GPa) = 0.02833901
#
# Stress axis : x y z
#
# Youngs Moduli (GPa) = 51.20235 55.63953 110.40747
#
# Poissons Ratio (x) = -0.11427 0.42582
# Poissons Ratio (y) = -0.10516 0.80683
# Poissons Ratio (z) = 0.19748 0.40660
#
# Static dielectric constant tensor:
#      x y z
#    x 2.077490 0.000000 0.000510 
#    y 0.000000 2.102850 0.000000 
#    z 0.000510 0.000000 2.060470 
# 
# From -- ./inp_files/13089.got.cif
#   From: 2010.05.17/outbox.cif.g08.bks.cpg/sg9_7_cif.got.tgz:13089.got - 2010.06.03 20:04:27.
