data_PCOD9137999
_publ_section_title
;
Structure prediction by ZEFSAII (Michael W. Deem and Ramdas Pophale) SiO2 
 PCOD9137999
Probable space group: C C
;
_chemical_formula_sum "Si O2"
_cell_formula_units_Z 32
_cell_length_a 7.833780
_cell_length_b 12.161395
_cell_length_c 14.420528
_cell_angle_alpha 90.000000
_cell_angle_beta 64.252993
_cell_angle_gamma 90.000000
_cell_volume 1237.445792
_symmetry_space_group_name_H-M "C C"
_symmetry_group_IT_number 9
_symmetry_cell_setting 'monoclinic'
loop_
_space_group_symop_operation_xyz
x,y,z
x,-y,1/2+z
1/2+x,1/2+y,z
1/2+x,1/2-y,1/2+z
loop_
_atom_site_type_symbol
_atom_site_label
_atom_site_fract_x
_atom_site_fract_y
_atom_site_fract_z
Si Si1 0.615330 0.328424 0.614670
Si Si2 0.755819 0.161243 0.094129
Si Si3 0.035666 0.082230 0.328588
Si Si4 0.619666 0.824950 0.351313
Si Si5 0.821157 0.628101 0.495267
Si Si6 0.422484 0.688536 0.641770
Si Si7 0.150027 0.489959 0.992590
Si Si8 0.276962 0.936255 0.388776
O O1 0.392368 0.311847 0.646626
O O2 0.611206 0.402527 0.707352
O O3 0.764910 0.231613 0.605753
O O4 0.687326 0.383710 0.502726
O O5 0.844961 0.241005 0.992089
O O6 0.543244 0.207335 0.152294
O O7 0.738491 0.035806 0.066740
O O8 0.105209 0.194109 0.364600
O O9 0.124605 0.972454 0.350806
O O10 0.095556 0.885363 0.065191
O O11 0.808957 0.859547 0.254378
O O12 0.599039 0.898132 0.447710
O O13 0.445868 0.855493 0.323883
O O14 0.873299 0.552353 0.396735
O O15 0.959501 0.580377 0.542046
O O16 0.310983 0.425799 0.898003
#
# Coordination Sequence:
#
# PCOD9137999 Si02
#       8
#     4   4   4   4   4   4   4   4
#     4  11  24  47  71 112 150 196 253 309 383 450
#     4  10  22  46  72 102 145 197 245 315 370 453
#     4  11  26  45  72 111 151 189 252 318 369 458
#     4  10  24  46  70 106 147 193 249 312 369 449
#     4   9  23  41  74 102 139 200 241 307 383 440
#     4   9  22  46  71 104 152 195 247 316 372 445
#     4  11  22  45  74 107 142 196 255 305 382 452
#     4  11  23  46  76 102 148 198 242 312 376 445
#
# _framework density 25.859719999999999
#
# number of rings (size 3 to 8) (size 9 to 14) (size 15 to 20)
#    0.750    1.000    1.250    2.250    5.250    0.000 
#   20.250    0.000    0.000    0.000    0.000    0.000 
#    0.000    0.000    0.000    0.000    0.000    0.000 
#
# Total GULP energy -89389.368162 kJ/mol
# GULP energy per Si atom -5586.835510 kJ/mol
# Density = 2.580086 g / cm^3
# Si number density = 25.859720 Si / 1000 Ang^3
#
#
#
# Elastic Constant Matrix: (Units=GPa)
#
#
# Indices 1 2 3 4 5 6 
#
# 1 144.8343 32.9231 27.3210 0.0000 -23.5249 0.0000
# 2 32.9231 86.1387 13.2931 0.0000 -4.6290 0.0000
# 3 27.3210 13.2931 85.5181 0.0000 -12.0773 0.0000
# 4 0.0000 0.0000 0.0000 31.4957 0.0000 -11.1416
# 5 -23.5249 -4.6290 -12.0773 0.0000 31.7263 0.0000
# 6 0.0000 0.0000 0.0000 -11.1416 0.0000 54.3217
#
#
#
# Elastic Compliance Matrix: (Units=1/GPa)
#
#
# Indices 1 2 3 4 5 6 
#
# 1 0.008726 -0.002797 -0.001582 0.000000 0.005460 0.000000
# 2 -0.002797 0.012827 -0.001193 0.000000 -0.000657 0.000000
# 3 -0.001582 -0.001193 0.012887 0.000000 0.003559 0.000000
# 4 0.000000 0.000000 0.000000 0.034234 0.000000 0.007022
# 5 0.005460 -0.000657 0.003559 0.000000 0.036827 0.000000
# 6 0.000000 0.000000 0.000000 0.007022 0.000000 0.019849
#
#
# Mechanical properties :
#
#
# Convention : Reuss Voigt Hill
#
# Bulk Modulus (GPa) = 42.92720 51.50725 47.21722
# Shear Modulus (GPa) = 34.65995 39.70568 37.18281
#
# Velocity S-wave (km/s) = 3.66499 3.92270 3.79603
# Velocity P-wave (km/s) = 5.87755 6.36223 6.12469
#
# Compressibility (1/GPa) = 0.02329525
#
# Stress axis : x y z
#
# Youngs Moduli (GPa) = 114.60641 77.95925 77.59901
#
# Poissons Ratio (x) = 0.21809 0.12274
# Poissons Ratio (y) = 0.32061 0.09257
# Poissons Ratio (z) = 0.18127 0.09300
#
# Static dielectric constant tensor:
#      x y z
#    x 2.156930 0.000000 0.041710 
#    y 0.000000 2.043840 0.000000 
#    z 0.041710 0.000000 2.004890 
# 
# From -- ./inp_files/35040.got.cif
#   From: 2010.05.17/outbox.cif.g08.bks.cpg/sg9_18_cif.got.tgz:35040.got - 2010.06.03 20:04:27.
