data_PCOD9137456
_publ_section_title
;
Structure prediction by ZEFSAII (Michael W. Deem and Ramdas Pophale) SiO2 
 PCOD9137456
Probable space group: C C
;
_chemical_formula_sum "Si O2"
_cell_formula_units_Z 28
_cell_length_a 14.288267
_cell_length_b 12.383697
_cell_length_c 8.694451
_cell_angle_alpha 90.000000
_cell_angle_beta 129.839417
_cell_angle_gamma 90.000000
_cell_volume 1181.257159
_symmetry_space_group_name_H-M "C C"
_symmetry_group_IT_number 9
_symmetry_cell_setting 'monoclinic'
loop_
_space_group_symop_operation_xyz
x,y,z
x,-y,1/2+z
1/2+x,1/2+y,z
1/2+x,1/2-y,1/2+z
loop_
_atom_site_type_symbol
_atom_site_label
_atom_site_fract_x
_atom_site_fract_y
_atom_site_fract_z
Si Si1 0.276900 0.702693 0.317300
Si Si2 0.276897 0.813785 0.626543
Si Si3 0.909939 0.554798 0.503590
Si Si4 0.269879 0.426007 0.107692
Si Si5 0.060822 0.598489 0.956915
Si Si6 0.482921 0.589003 0.394828
Si Si7 0.643870 0.512309 0.843050
O O1 0.298214 0.794064 0.466438
O O2 0.276033 0.598892 0.431670
O O3 0.388936 0.687297 0.320721
O O4 0.145940 0.698486 0.098304
O O5 0.251562 0.693252 0.660026
O O6 0.168381 0.900615 0.506143
O O7 0.386831 0.866094 0.834968
O O8 0.776055 0.527409 0.428352
O O9 0.985262 0.607648 0.720913
O O10 0.977296 0.450045 0.504576
O O11 0.393752 0.484889 0.283963
O O12 0.159369 0.504287 0.026119
O O13 0.566977 0.571438 0.631392
O O14 0.566630 0.585093 0.333133
#
# Coordination Sequence:
#
# PCOD9137456 Si02
#       7
#     4   4   4   4   4   4   4
#     4   9  21  42  68 100 128 184 231 280 333 406
#     4  10  22  42  66 101 134 174 231 272 348 398
#     4  12  22  39  68 100 140 184 219 282 354 419
#     4   9  21  40  68  97 123 176 232 275 328 402
#     4  11  21  41  69  97 136 181 228 277 349 414
#     4  11  21  41  70  96 135 181 226 270 348 418
#     4  12  22  39  67  99 138 180 221 274 350 419
#
# _framework density 23.70356
#
# number of rings (size 3 to 8) (size 9 to 14) (size 15 to 20)
#    0.857    0.571    5.714    0.000    0.000    2.286 
#    5.143    1.429    6.286    0.000    0.000    0.000 
#    0.000    0.000    0.000    0.000    0.000    0.000 
#
# Total GULP energy -78218.923767 kJ/mol
# GULP energy per Si atom -5587.065983 kJ/mol
# Density = 2.364961 g / cm^3
# Si number density = 23.703560 Si / 1000 Ang^3
#
#
#
# Elastic Constant Matrix: (Units=GPa)
#
#
# Indices 1 2 3 4 5 6 
#
# 1 129.9673 24.1520 37.6199 0.0000 23.0730 0.0000
# 2 24.1520 75.2537 35.8246 0.0000 1.0901 0.0000
# 3 37.6199 35.8246 198.9057 0.0000 7.5409 0.0000
# 4 0.0000 0.0000 0.0000 37.5080 0.0000 -14.0068
# 5 23.0730 1.0901 7.5409 0.0000 33.7797 0.0000
# 6 0.0000 0.0000 0.0000 -14.0068 0.0000 32.7765
#
#
#
# Elastic Compliance Matrix: (Units=1/GPa)
#
#
# Indices 1 2 3 4 5 6 
#
# 1 0.009580 -0.002444 -0.001136 0.000000 -0.006211 0.000000
# 2 -0.002444 0.015158 -0.002332 0.000000 0.001701 0.000000
# 3 -0.001136 -0.002332 0.005678 0.000000 -0.000416 0.000000
# 4 0.000000 0.000000 0.000000 0.031724 0.000000 0.013557
# 5 -0.006211 0.001701 -0.000416 0.000000 0.033884 0.000000
# 6 0.000000 0.000000 0.000000 0.013557 0.000000 0.036303
#
#
# Mechanical properties :
#
#
# Convention : Reuss Voigt Hill
#
# Bulk Modulus (GPa) = 53.78731 66.59107 60.18919
# Shear Modulus (GPa) = 33.25590 41.24819 37.25205
#
# Velocity S-wave (km/s) = 3.74972 4.17606 3.96862
# Velocity P-wave (km/s) = 6.44112 7.16986 6.81524
#
# Compressibility (1/GPa) = 0.01859174
#
# Stress axis : x y z
#
# Youngs Moduli (GPa) = 104.38538 65.97009 176.10928
#
# Poissons Ratio (x) = 0.16121 0.20011
# Poissons Ratio (y) = 0.25508 0.41077
# Poissons Ratio (z) = 0.11861 0.15387
#
# Static dielectric constant tensor:
#      x y z
#    x 1.924980 0.000000 -0.003770 
#    y 0.000000 1.948200 0.000000 
#    z -0.003770 0.000000 1.867860 
# 
# From -- ./inp_files/9744.got.cif
#   From: 2010.05.17/outbox.cif.g08.bks.cpg/sg9_5_cif.got.tgz:9744.got - 2010.06.03 20:04:27.
