data_PCOD9137180
_publ_section_title
;
Structure prediction by ZEFSAII (Michael W. Deem and Ramdas Pophale) SiO2 
 PCOD9137180
Probable space group: C C
;
_chemical_formula_sum "Si O2"
_cell_formula_units_Z 28
_cell_length_a 13.095962
_cell_length_b 4.864176
_cell_length_c 20.958588
_cell_angle_alpha 90.000000
_cell_angle_beta 121.964987
_cell_angle_gamma 90.000000
_cell_volume 1132.647875
_symmetry_space_group_name_H-M "C C"
_symmetry_group_IT_number 9
_symmetry_cell_setting 'monoclinic'
loop_
_space_group_symop_operation_xyz
x,y,z
x,-y,1/2+z
1/2+x,1/2+y,z
1/2+x,1/2-y,1/2+z
loop_
_atom_site_type_symbol
_atom_site_label
_atom_site_fract_x
_atom_site_fract_y
_atom_site_fract_z
Si Si1 0.193620 0.291870 0.770840
Si Si2 0.394812 0.428863 0.081394
Si Si3 0.057045 0.429841 0.112819
Si Si4 0.992428 0.571138 0.960286
Si Si5 0.429253 0.034262 0.306293
Si Si6 0.957987 0.965738 0.735386
Si Si7 0.330195 0.570159 0.928861
O O1 0.151371 0.473758 0.696565
O O2 0.303001 0.097809 0.785219
O O3 0.235870 0.473759 0.845115
O O4 0.084239 0.097809 0.756461
O O5 0.513205 0.618623 0.106001
O O6 0.369140 0.493374 0.146298
O O7 0.438548 0.116579 0.088954
O O8 0.304795 0.505733 0.994682
O O9 0.082445 0.494267 0.046998
O O10 0.018100 0.506626 0.895382
O O11 0.948693 0.883422 0.952725
O O12 0.874035 0.381377 0.935679
O O13 0.467732 0.848690 0.258966
O O14 0.419508 0.348691 0.282714
#
# Coordination Sequence:
#
# PCOD9137180 Si02
#       7
#     4   4   4   4   4   4   4
#     4  10  22  40  62  88 116 154 198 242 288 346
#     4   9  18  35  55  83 116 150 188 236 289 341
#     4   9  18  33  59  83 111 152 191 233 290 341
#     4   9  18  35  55  83 116 150 188 236 289 341
#     4  11  23  38  59  87 119 154 195 241 290 345
#     4  11  23  38  59  87 119 154 195 241 290 345
#     4   9  18  33  59  83 111 152 191 233 290 341
#
# _framework density 24.720835000000001
#
# number of rings (size 3 to 8) (size 9 to 14) (size 15 to 20)
#    0.000    2.286    0.000    3.429    0.000   10.286 
#    0.000    2.857    0.000    0.000    0.000    0.000 
#    0.000    0.000    0.000    0.000    0.000    0.000 
#
# Total GULP energy -78318.812593 kJ/mol
# GULP energy per Si atom -5594.200900 kJ/mol
# Density = 2.466457 g / cm^3
# Si number density = 24.720835 Si / 1000 Ang^3
#
#
#
# Elastic Constant Matrix: (Units=GPa)
#
#
# Indices 1 2 3 4 5 6 
#
# 1 67.6089 2.2804 22.2394 0.0000 16.5873 0.0001
# 2 2.2804 80.2118 5.9951 0.0000 0.2887 0.0002
# 3 22.2394 5.9951 219.4851 0.0000 -1.5826 0.0000
# 4 0.0000 0.0000 0.0000 47.5840 0.0000 -6.1424
# 5 16.5873 0.2887 -1.5826 0.0000 33.6119 0.0000
# 6 0.0001 0.0002 0.0000 -6.1424 0.0000 25.0038
#
#
#
# Elastic Compliance Matrix: (Units=1/GPa)
#
#
# Indices 1 2 3 4 5 6 
#
# 1 0.017550 -0.000331 -0.001832 0.000000 -0.008744 0.000000
# 2 -0.000331 0.012499 -0.000308 0.000000 0.000041 0.000000
# 3 -0.001832 -0.000308 0.004758 0.000000 0.001131 0.000000
# 4 0.000000 0.000000 0.000000 0.021704 0.000000 0.005332
# 5 -0.008744 0.000041 0.001131 0.000000 0.034120 0.000000
# 6 0.000000 0.000000 0.000000 0.005332 0.000000 0.041304
#
#
# Mechanical properties :
#
#
# Convention : Reuss Voigt Hill
#
# Bulk Modulus (GPa) = 33.48193 47.59284 40.53739
# Shear Modulus (GPa) = 34.05272 43.69268 38.87270
#
# Velocity S-wave (km/s) = 3.71548 4.20866 3.96974
# Velocity P-wave (km/s) = 5.65507 6.55065 6.11927
#
# Compressibility (1/GPa) = 0.02986685
#
# Stress axis : x y z
#
# Youngs Moduli (GPa) = 56.97950 80.00495 210.15762
#
# Poissons Ratio (x) = 0.02644 0.38507
# Poissons Ratio (y) = 0.01883 0.06465
# Poissons Ratio (z) = 0.10440 0.02461
#
# Static dielectric constant tensor:
#      x y z
#    x 1.994890 0.000000 -0.044640 
#    y 0.000000 1.850660 0.000000 
#    z -0.044640 0.000000 2.023720 
# 
# From -- ./inp_files/30283.got.cif
#   From: 2010.05.17/outbox.cif.g08.bks.cpg/sg9_16_cif.got.tgz:30283.got - 2010.06.03 20:04:27.
