data_PCOD9137197
_publ_section_title
;
Structure prediction by ZEFSAII (Michael W. Deem and Ramdas Pophale) SiO2 
 PCOD9137197
Probable space group: C C
;
_chemical_formula_sum "Si O2"
_cell_formula_units_Z 32
_cell_length_a 6.187399
_cell_length_b 25.729187
_cell_length_c 8.565357
_cell_angle_alpha 90.000000
_cell_angle_beta 83.854040
_cell_angle_gamma 90.000000
_cell_volume 1355.739645
_symmetry_space_group_name_H-M "C C"
_symmetry_group_IT_number 9
_symmetry_cell_setting 'monoclinic'
loop_
_space_group_symop_operation_xyz
x,y,z
x,-y,1/2+z
1/2+x,1/2+y,z
1/2+x,1/2-y,1/2+z
loop_
_atom_site_type_symbol
_atom_site_label
_atom_site_fract_x
_atom_site_fract_y
_atom_site_fract_z
Si Si1 0.931300 0.650251 0.818150
Si Si2 0.154719 0.925310 0.141274
Si Si3 0.745230 0.933047 0.352279
Si Si4 0.653687 0.645057 0.145771
Si Si5 0.332229 0.600686 0.386669
Si Si6 0.361482 0.747568 0.148274
Si Si7 0.552231 0.015187 0.558077
Si Si8 0.001168 0.310747 0.842674
O O1 0.823775 0.618737 0.682441
O O2 0.166532 0.626247 0.838448
O O3 0.927861 0.710258 0.774220
O O4 0.779720 0.636934 0.976361
O O5 0.998644 0.938827 0.298862
O O6 0.295613 0.974341 0.073370
O O7 0.998073 0.904271 0.018550
O O8 0.641852 0.958527 0.512913
O O9 0.629808 0.964000 0.219221
O O10 0.477858 0.603407 0.219543
O O11 0.523282 0.699013 0.139253
O O12 0.832377 0.652911 0.266402
O O13 0.169074 0.553136 0.423926
O O14 0.190095 0.653295 0.402690
O O15 0.123387 0.726156 0.208553
O O16 0.384792 0.776252 0.981803
#
# Coordination Sequence:
#
# PCOD9137197 Si02
#       8
#     4   4   4   4   4   4   4   4
#     4  11  24  43  64 100 133 173 229 275 339 401
#     4  10  22  43  68  90 132 178 210 281 328 393
#     4  10  24  40  67  96 133 173 222 271 339 399
#     4  11  25  40  65  97 129 176 214 289 330 398
#     4  10  22  42  64  93 129 172 224 262 346 389
#     4  11  23  42  60  95 129 177 224 267 340 403
#     4  10  22  40  63  98 128 175 217 273 329 403
#     4  11  24  40  65  93 129 176 222 272 335 402
#
# _framework density 23.603352000000001
#
# number of rings (size 3 to 8) (size 9 to 14) (size 15 to 20)
#    0.000    1.500    1.250    3.750    1.750   12.000 
#    0.000    0.000    0.000    0.000    0.000    0.000 
#    0.000    0.000    0.000    0.000    0.000    0.000 
#
# Total GULP energy -89538.658378 kJ/mol
# GULP energy per Si atom -5596.166149 kJ/mol
# Density = 2.354963 g / cm^3
# Si number density = 23.603352 Si / 1000 Ang^3
#
#
#
# Elastic Constant Matrix: (Units=GPa)
#
#
# Indices 1 2 3 4 5 6 
#
# 1 89.6089 26.6487 32.9816 0.0000 -23.8519 0.0000
# 2 26.6487 42.0485 3.5726 0.0000 -5.0258 0.0000
# 3 32.9816 3.5726 91.6843 0.0000 -22.0444 0.0000
# 4 0.0000 0.0000 0.0000 40.2341 0.0000 -11.1203
# 5 -23.8519 -5.0258 -22.0444 0.0000 38.2295 0.0000
# 6 0.0000 0.0000 0.0000 -11.1203 0.0000 26.8061
#
#
#
# Elastic Compliance Matrix: (Units=1/GPa)
#
#
# Indices 1 2 3 4 5 6 
#
# 1 0.017583 -0.009921 -0.004196 0.000000 0.007246 0.000000
# 2 -0.009921 0.029763 0.002161 0.000000 -0.001031 0.000000
# 3 -0.004196 0.002161 0.013666 0.000000 0.005546 0.000000
# 4 0.000000 0.000000 0.000000 0.028073 0.000000 0.011646
# 5 0.007246 -0.001031 0.005546 0.000000 0.033742 0.000000
# 6 0.000000 0.000000 0.000000 0.011646 0.000000 0.042136
#
#
# Mechanical properties :
#
#
# Convention : Reuss Voigt Hill
#
# Bulk Modulus (GPa) = 26.95429 38.86085 32.90757
# Shear Modulus (GPa) = 24.84571 31.72985 28.28778
#
# Velocity S-wave (km/s) = 3.24795 3.67044 3.46564
# Velocity P-wave (km/s) = 5.05075 5.87049 5.47598
#
# Compressibility (1/GPa) = 0.03709985
#
# Stress axis : x y z
#
# Youngs Moduli (GPa) = 56.87185 33.59899 73.17519
#
# Poissons Ratio (x) = 0.33334 0.30707
# Poissons Ratio (y) = 0.56423 -0.15815
# Poissons Ratio (z) = 0.23865 -0.07262
#
# Static dielectric constant tensor:
#      x y z
#    x 1.874160 0.000000 -0.002570 
#    y 0.000000 1.885230 0.000000 
#    z -0.002570 0.000000 1.917250 
# 
# From -- ./inp_files/4321.got.cif
#   From: 2010.05.17/outbox.cif.g08.bks.cpg/sg9_3_cif.got.tgz:4321.got - 2010.06.03 20:04:27.
