data_PCOD9137480
_publ_section_title
;
Structure prediction by ZEFSAII (Michael W. Deem and Ramdas Pophale) SiO2 
 PCOD9137480
Probable space group: C C
;
_chemical_formula_sum "Si O2"
_cell_formula_units_Z 32
_cell_length_a 28.382139
_cell_length_b 11.607100
_cell_length_c 9.444985
_cell_angle_alpha 90.000000
_cell_angle_beta 26.967722
_cell_angle_gamma 90.000000
_cell_volume 1411.030409
_symmetry_space_group_name_H-M "C C"
_symmetry_group_IT_number 9
_symmetry_cell_setting 'monoclinic'
loop_
_space_group_symop_operation_xyz
x,y,z
x,-y,1/2+z
1/2+x,1/2+y,z
1/2+x,1/2-y,1/2+z
loop_
_atom_site_type_symbol
_atom_site_label
_atom_site_fract_x
_atom_site_fract_y
_atom_site_fract_z
Si Si1 0.812960 0.602343 0.177020
Si Si2 0.069946 0.922081 0.375448
Si Si3 0.153120 0.574651 0.240471
Si Si4 0.804586 0.264978 0.958249
Si Si5 0.102366 0.865141 0.602490
Si Si6 0.091510 0.403631 0.207439
Si Si7 0.416547 0.865222 0.888355
Si Si8 0.974576 0.296770 0.037309
O O1 0.688439 0.618310 0.516480
O O2 0.862851 0.677480 0.170843
O O3 0.838746 0.468932 0.135528
O O4 0.869465 0.651829 0.887378
O O5 0.049140 0.903873 0.598266
O O6 0.987633 0.839568 0.520721
O O7 0.069938 0.050520 0.314134
O O8 0.246825 0.653975 0.048847
O O9 0.177857 0.465227 0.075504
O O10 0.096338 0.542037 0.539335
O O11 0.073027 0.651096 0.361265
O O12 0.721570 0.363149 0.228699
O O13 0.868620 0.256726 0.930705
O O14 0.094597 0.732965 0.673012
O O15 0.990418 0.422714 0.572630
O O16 0.473934 0.825043 0.874258
#
# Coordination Sequence:
#
# PCOD9137480 Si02
#       8
#     4   4   4   4   4   4   4   4
#     4  11  22  41  72 104 145 183 245 302 348 436
#     4  11  24  45  71 103 145 188 236 295 364 432
#     4  11  22  44  67 103 143 188 234 296 369 423
#     4  10  22  42  67 101 145 185 235 299 357 421
#     4  10  23  43  70  98 136 189 235 282 360 426
#     4  11  23  42  70 101 139 185 239 299 353 428
#     4  12  24  37  70 108 141 183 245 302 350 422
#     4  12  24  40  67 112 140 183 241 301 367 418
#
# _framework density 22.678462
#
# number of rings (size 3 to 8) (size 9 to 14) (size 15 to 20)
#    0.000    1.000    6.250    2.250    3.500    0.000 
#    2.250    0.000   11.000    0.000    0.000    0.000 
#    0.000    0.000    0.000    0.000    0.000    0.000 
#
# Total GULP energy -89223.590746 kJ/mol
# GULP energy per Si atom -5576.474422 kJ/mol
# Density = 2.262685 g / cm^3
# Si number density = 22.678462 Si / 1000 Ang^3
#
#
#
# Elastic Constant Matrix: (Units=GPa)
#
#
# Indices 1 2 3 4 5 6 
#
# 1 155.8529 67.7787 36.6293 0.0000 35.9062 0.0000
# 2 67.7787 141.4898 18.9017 0.0000 22.8671 0.0000
# 3 36.6293 18.9017 39.1525 0.0000 19.7650 0.0000
# 4 0.0000 0.0000 0.0000 28.1385 0.0000 9.4488
# 5 35.9062 22.8671 19.7650 0.0000 34.6020 0.0000
# 6 0.0000 0.0000 0.0000 9.4488 0.0000 31.6021
#
#
#
# Elastic Compliance Matrix: (Units=1/GPa)
#
#
# Indices 1 2 3 4 5 6 
#
# 1 0.010411 -0.003383 -0.005314 0.000000 -0.005532 0.000000
# 2 -0.003383 0.009090 0.000052 0.000000 -0.002526 0.000000
# 3 -0.005314 0.000052 0.038954 0.000000 -0.016771 0.000000
# 4 0.000000 0.000000 0.000000 0.039505 0.000000 -0.011812
# 5 -0.005532 -0.002526 -0.016771 0.000000 0.045890 0.000000
# 6 0.000000 0.000000 0.000000 -0.011812 0.000000 0.035175
#
#
# Mechanical properties :
#
#
# Convention : Reuss Voigt Hill
#
# Bulk Modulus (GPa) = 24.29288 64.79053 44.54171
# Shear Modulus (GPa) = 23.80545 33.08089 28.44317
#
# Velocity S-wave (km/s) = 3.24341 3.82343 3.54530
# Velocity P-wave (km/s) = 4.97609 6.93705 6.03672
#
# Compressibility (1/GPa) = 0.04116432
#
# Stress axis : x y z
#
# Youngs Moduli (GPa) = 96.05092 110.01538 25.67143
#
# Poissons Ratio (x) = 0.37222 0.13642
# Poissons Ratio (y) = 0.32497 -0.00134
# Poissons Ratio (z) = 0.51042 -0.00575
#
# Static dielectric constant tensor:
#      x y z
#    x 1.923140 0.000000 -0.069980 
#    y 0.000000 1.903140 0.000000 
#    z -0.069980 0.000000 1.898100 
# 
# From -- ./inp_files/12734.got.cif
#   From: 2010.05.17/outbox.cif.g08.bks.cpg/sg9_7_cif.got.tgz:12734.got - 2010.06.03 20:04:27.
