data_PCOD9137060
_publ_section_title
;
Structure prediction by ZEFSAII (Michael W. Deem and Ramdas Pophale) SiO2 
 PCOD9137060
Probable space group: C C
;
_chemical_formula_sum "Si O2"
_cell_formula_units_Z 32
_cell_length_a 22.004081
_cell_length_b 8.484295
_cell_length_c 14.197007
_cell_angle_alpha 90.000000
_cell_angle_beta 141.313682
_cell_angle_gamma 90.000000
_cell_volume 1656.665818
_symmetry_space_group_name_H-M "C C"
_symmetry_group_IT_number 9
_symmetry_cell_setting 'monoclinic'
loop_
_space_group_symop_operation_xyz
x,y,z
x,-y,1/2+z
1/2+x,1/2+y,z
1/2+x,1/2-y,1/2+z
loop_
_atom_site_type_symbol
_atom_site_label
_atom_site_fract_x
_atom_site_fract_y
_atom_site_fract_z
Si Si1 0.750000 0.060429 0.488750
Si Si2 0.055026 0.053736 0.166379
Si Si3 0.204752 0.597172 0.110766
Si Si4 0.064236 0.396251 0.277185
Si Si5 0.838707 0.579305 0.491163
Si Si6 0.831305 0.934726 0.412957
Si Si7 0.201720 0.088604 0.974298
Si Si8 0.699925 0.551631 0.678306
O O1 0.739150 0.233450 0.516518
O O2 0.771650 0.934192 0.598175
O O3 0.643202 0.007470 0.322223
O O4 0.821795 0.053269 0.489087
O O5 0.073221 0.223849 0.239360
O O6 0.099165 0.931080 0.295790
O O7 0.116504 0.015315 0.146954
O O8 0.940547 0.047857 0.006716
O O9 0.247299 0.471897 0.236041
O O10 0.201991 0.763029 0.159630
O O11 0.101561 0.590508 0.930953
O O12 0.953023 0.444158 0.139620
O O13 0.819717 0.762427 0.444581
O O14 0.777000 0.519453 0.505786
O O15 0.798554 0.487115 0.352519
O O16 0.193212 0.031131 0.069834
#
# Coordination Sequence:
#
# PCOD9137060 Si02
#       8
#     4   4   4   4   4   4   4   4
#     4  10  22  38  64  87 131 163 203 259 314 367
#     4  10  22  39  65  91 125 164 208 261 313 366
#     4  10  22  42  62  94 125 167 209 256 314 372
#     4   9  21  45  61  92 128 166 203 260 321 363
#     4  10  22  40  66  92 127 161 209 262 314 372
#     4  11  21  40  64  93 125 163 211 256 314 376
#     4  11  21  40  62  94 127 164 207 260 313 371
#     4  11  21  40  64  91 126 164 214 254 311 375
#
# _framework density 19.315905000000001
#
# number of rings (size 3 to 8) (size 9 to 14) (size 15 to 20)
#    0.750    1.000    1.250    4.500    0.000    3.000 
#    4.500    1.250    0.000    0.000    0.000    0.000 
#    0.000    0.000    0.000    0.000    0.000    0.000 
#
# Total GULP energy -89103.278840 kJ/mol
# GULP energy per Si atom -5568.954927 kJ/mol
# Density = 1.927194 g / cm^3
# Si number density = 19.315905 Si / 1000 Ang^3
#
#
#
# Elastic Constant Matrix: (Units=GPa)
#
#
# Indices 1 2 3 4 5 6 
#
# 1 81.2388 33.1119 47.0298 0.0000 -16.9814 0.0000
# 2 33.1119 63.7718 40.1520 0.0000 14.4057 0.0000
# 3 47.0298 40.1520 94.0175 0.0000 -8.3500 0.0000
# 4 0.0000 0.0000 0.0000 25.5543 0.0000 -9.8026
# 5 -16.9814 14.4057 -8.3500 0.0000 26.0937 0.0000
# 6 0.0000 0.0000 0.0000 -9.8026 0.0000 26.3063
#
#
#
# Elastic Compliance Matrix: (Units=1/GPa)
#
#
# Indices 1 2 3 4 5 6 
#
# 1 0.027154 -0.017713 -0.003685 0.000000 0.026271 0.000000
# 2 -0.017713 0.041067 -0.012058 0.000000 -0.038058 0.000000
# 3 -0.003685 -0.012058 0.018534 0.000000 0.010190 0.000000
# 4 0.000000 0.000000 0.000000 0.045659 0.000000 0.017014
# 5 0.026271 -0.038058 0.010190 0.000000 0.079692 0.000000
# 6 0.000000 0.000000 0.000000 0.017014 0.000000 0.044354
#
#
# Mechanical properties :
#
#
# Convention : Reuss Voigt Hill
#
# Bulk Modulus (GPa) = 50.39638 53.29061 51.84350
# Shear Modulus (GPa) = 15.15211 23.50650 19.32930
#
# Velocity S-wave (km/s) = 2.80382 3.49227 3.16681
# Velocity P-wave (km/s) = 6.05220 6.62647 6.34583
#
# Compressibility (1/GPa) = 0.01984269
#
# Stress axis : x y z
#
# Youngs Moduli (GPa) = 36.82716 24.35028 53.95430
#
# Poissons Ratio (x) = 0.43133 0.19882
# Poissons Ratio (y) = 0.65233 0.65058
# Poissons Ratio (z) = 0.13570 0.29362
#
# Static dielectric constant tensor:
#      x y z
#    x 1.700140 0.000000 -0.008590 
#    y 0.000000 1.716560 0.000000 
#    z -0.008590 0.000000 1.681430 
# 
# From -- ./inp_files/27283.got.cif
#   From: 2010.05.17/outbox.cif.g08.bks.cpg/sg9_14_cif.got.tgz:27283.got - 2010.06.03 20:04:27.
