data_PCOD9137069
_publ_section_title
;
Structure prediction by ZEFSAII (Michael W. Deem and Ramdas Pophale) SiO2 
 PCOD9137069
Probable space group: C C
;
_chemical_formula_sum "Si O2"
_cell_formula_units_Z 32
_cell_length_a 11.551359
_cell_length_b 18.248558
_cell_length_c 9.208576
_cell_angle_alpha 90.000000
_cell_angle_beta 53.266413
_cell_angle_gamma 90.000000
_cell_volume 1555.668621
_symmetry_space_group_name_H-M "C C"
_symmetry_group_IT_number 9
_symmetry_cell_setting 'monoclinic'
loop_
_space_group_symop_operation_xyz
x,y,z
x,-y,1/2+z
1/2+x,1/2+y,z
1/2+x,1/2-y,1/2+z
loop_
_atom_site_type_symbol
_atom_site_label
_atom_site_fract_x
_atom_site_fract_y
_atom_site_fract_z
Si Si1 0.265300 0.470163 0.056580
Si Si2 0.198946 0.713100 0.208040
Si Si3 0.391864 0.240874 0.836686
Si Si4 0.330933 0.841285 0.672651
Si Si5 0.078802 0.460573 0.487464
Si Si6 0.566038 0.880126 0.027455
Si Si7 0.509266 0.376256 0.940572
Si Si8 0.430242 0.294270 0.288304
O O1 0.167285 0.463861 0.272173
O O2 0.203944 0.539188 0.015672
O O3 0.216712 0.403269 0.988419
O O4 0.430851 0.452806 0.961447
O O5 0.280257 0.738592 0.293499
O O6 0.093415 0.649646 0.346586
O O7 0.090387 0.773850 0.225299
O O8 0.321670 0.690070 0.002033
O O9 0.495748 0.181951 0.679024
O O10 0.470865 0.310373 0.854396
O O11 0.320570 0.197564 0.023827
O O12 0.467828 0.894963 0.571205
O O13 0.362675 0.777819 0.763916
O O14 0.181036 0.880845 0.818177
O O15 0.995969 0.538694 0.573297
O O16 0.446317 0.351237 0.144234
#
# Coordination Sequence:
#
# PCOD9137069 Si02
#       8
#     4   4   4   4   4   4   4   4
#     4  10  23  42  66  93 125 177 221 267 317 404
#     4  12  22  40  64  99 137 167 217 273 331 395
#     4  11  21  39  67  99 131 171 219 268 341 392
#     4  11  23  40  67  93 137 174 218 277 327 400
#     4  10  23  42  66  92 124 183 225 257 320 397
#     4  10  22  38  66  93 125 170 219 263 315 398
#     4  11  24  42  64 104 133 170 218 280 343 383
#     4  11  26  37  64 105 134 170 209 283 344 385
#
# _framework density 20.569932999999999
#
# number of rings (size 3 to 8) (size 9 to 14) (size 15 to 20)
#    0.750    0.500    5.000    0.750    5.250    0.000 
#    0.000    2.500    0.000    0.000    0.000    0.000 
#    0.000    0.000    0.000    0.000    0.000    0.000 
#
# Total GULP energy -89202.611023 kJ/mol
# GULP energy per Si atom -5575.163189 kJ/mol
# Density = 2.052312 g / cm^3
# Si number density = 20.569933 Si / 1000 Ang^3
#
#
#
# Elastic Constant Matrix: (Units=GPa)
#
#
# Indices 1 2 3 4 5 6 
#
# 1 97.5045 19.7905 31.6532 0.0000 7.0840 0.0000
# 2 19.7905 46.0424 17.7133 0.0000 9.8974 0.0000
# 3 31.6532 17.7133 114.4387 0.0000 10.8416 0.0000
# 4 0.0000 0.0000 0.0000 17.1911 0.0000 -2.1828
# 5 7.0840 9.8974 10.8416 0.0000 31.9944 0.0000
# 6 0.0000 0.0000 0.0000 -2.1828 0.0000 21.2448
#
#
#
# Elastic Compliance Matrix: (Units=1/GPa)
#
#
# Indices 1 2 3 4 5 6 
#
# 1 0.011965 -0.004018 -0.002639 0.000000 -0.000512 0.000000
# 2 -0.004018 0.025669 -0.002267 0.000000 -0.006283 0.000000
# 3 -0.002639 -0.002267 0.010019 0.000000 -0.002110 0.000000
# 4 0.000000 0.000000 0.000000 0.058939 0.000000 0.006056
# 5 -0.000512 -0.006283 -0.002110 0.000000 0.034027 0.000000
# 6 0.000000 0.000000 0.000000 0.006056 0.000000 0.047693
#
#
# Mechanical properties :
#
#
# Convention : Reuss Voigt Hill
#
# Bulk Modulus (GPa) = 33.55021 44.03326 38.79174
# Shear Modulus (GPa) = 23.13813 26.67464 24.90639
#
# Velocity S-wave (km/s) = 3.35752 3.60499 3.48345
# Velocity P-wave (km/s) = 5.60146 6.22744 5.92272
#
# Compressibility (1/GPa) = 0.02980608
#
# Stress axis : x y z
#
# Youngs Moduli (GPa) = 83.57450 38.95808 99.81067
#
# Poissons Ratio (x) = 0.15652 0.26342
# Poissons Ratio (y) = 0.33577 0.22623
# Poissons Ratio (z) = 0.22057 0.08830
#
# Static dielectric constant tensor:
#      x y z
#    x 1.765320 0.000000 0.022700 
#    y 0.000000 1.766810 0.000000 
#    z 0.022700 0.000000 1.724090 
# 
# From -- ./inp_files/8143.got.cif
#   From: 2010.05.17/outbox.cif.g08.bks.cpg/sg9_5_cif.got.tgz:8143.got - 2010.06.03 20:04:27.
