data_PCOD9137491
_publ_section_title
;
Structure prediction by ZEFSAII (Michael W. Deem and Ramdas Pophale) SiO2 
 PCOD9137491
Probable space group: C C
;
_chemical_formula_sum "Si O2"
_cell_formula_units_Z 32
_cell_length_a 17.601900
_cell_length_b 9.666920
_cell_length_c 9.410710
_cell_angle_alpha 90.000000
_cell_angle_beta 111.295087
_cell_angle_gamma 90.000000
_cell_volume 1491.957968
_symmetry_space_group_name_H-M "C C"
_symmetry_group_IT_number 9
_symmetry_cell_setting 'monoclinic'
loop_
_space_group_symop_operation_xyz
x,y,z
x,-y,1/2+z
1/2+x,1/2+y,z
1/2+x,1/2-y,1/2+z
loop_
_atom_site_type_symbol
_atom_site_label
_atom_site_fract_x
_atom_site_fract_y
_atom_site_fract_z
Si Si1 0.816290 0.821238 0.408500
Si Si2 0.618286 0.053606 0.885238
Si Si3 0.680088 0.643044 0.381948
Si Si4 0.514986 0.029646 0.062074
Si Si5 0.278258 0.430832 0.063967
Si Si6 0.490087 0.728655 0.921620
Si Si7 0.937660 0.797716 0.060512
Si Si8 0.092927 0.018363 0.581231
O O1 0.773820 0.672210 0.402543
O O2 0.785948 0.886502 0.234770
O O3 0.912800 0.822019 0.459631
O O4 0.797825 0.909429 0.538275
O O5 0.543825 0.000620 0.740342
O O6 0.645764 0.199782 0.836108
O O7 0.685663 0.932294 0.944041
O O8 0.591876 0.088258 0.026974
O O9 0.656769 0.597263 0.524476
O O10 0.635815 0.529115 0.255324
O O11 0.445473 0.144300 0.002199
O O12 0.500425 0.883712 0.980025
O O13 0.345308 0.352256 0.012596
O O14 0.465438 0.716187 0.742150
O O15 0.565761 0.628812 0.997660
O O16 0.008067 0.894659 0.038918
#
# Coordination Sequence:
#
# PCOD9137491 Si02
#       8
#     4   4   4   4   4   4   4   4
#     4  10  23  45  65  97 134 173 224 273 337 404
#     4  11  22  39  67  96 132 169 221 273 335 397
#     4  11  24  41  64  96 132 173 218 277 326 397
#     4  12  23  41  65  99 130 174 219 277 330 391
#     4  10  22  42  67  95 133 174 221 270 333 403
#     4  11  23  42  67  96 135 172 217 277 339 394
#     4  11  23  41  66  99 133 172 227 271 331 400
#     4  12  22  41  67  96 129 171 221 274 329 394
#
# _framework density 21.448326999999999
#
# number of rings (size 3 to 8) (size 9 to 14) (size 15 to 20)
#    0.000    1.000    6.250    1.500    0.000    0.000 
#    6.750    0.000    0.000    0.000    0.000    0.000 
#    0.000    0.000    0.000    0.000    0.000    0.000 
#
# Total GULP energy -89151.310373 kJ/mol
# GULP energy per Si atom -5571.956898 kJ/mol
# Density = 2.139951 g / cm^3
# Si number density = 21.448327 Si / 1000 Ang^3
#
#
#
# Elastic Constant Matrix: (Units=GPa)
#
#
# Indices 1 2 3 4 5 6 
#
# 1 47.5847 22.8969 12.8782 0.0000 -18.2134 0.0000
# 2 22.8969 92.1655 20.6743 0.0000 -5.5124 0.0000
# 3 12.8782 20.6743 55.1013 0.0000 -16.1557 0.0000
# 4 0.0000 0.0000 0.0000 19.5269 0.0000 -10.0356
# 5 -18.2134 -5.5124 -16.1557 0.0000 23.6872 0.0000
# 6 0.0000 0.0000 0.0000 -10.0356 0.0000 40.5270
#
#
#
# Elastic Compliance Matrix: (Units=1/GPa)
#
#
# Indices 1 2 3 4 5 6 
#
# 1 0.033867 -0.007417 0.002496 0.000000 0.026017 0.000000
# 2 -0.007417 0.013474 -0.005093 0.000000 -0.006042 0.000000
# 3 0.002496 -0.005093 0.024613 0.000000 0.017521 0.000000
# 4 0.000000 0.000000 0.000000 0.058679 0.000000 0.014531
# 5 0.026017 -0.006042 0.017521 0.000000 0.072765 0.000000
# 6 0.000000 0.000000 0.000000 0.014531 0.000000 0.028273
#
#
# Mechanical properties :
#
#
# Convention : Reuss Voigt Hill
#
# Bulk Modulus (GPa) = 19.25881 34.19448 26.72665
# Shear Modulus (GPa) = 18.58667 25.97502 22.28085
#
# Velocity S-wave (km/s) = 2.94696 3.48379 3.22656
# Velocity P-wave (km/s) = 4.53631 5.67096 5.13507
#
# Compressibility (1/GPa) = 0.05192429
#
# Stress axis : x y z
#
# Youngs Moduli (GPa) = 29.52735 74.21729 40.62847
#
# Poissons Ratio (x) = 0.55050 -0.10140
# Poissons Ratio (y) = 0.21902 0.20693
# Poissons Ratio (z) = -0.07369 0.37801
#
# Static dielectric constant tensor:
#      x y z
#    x 1.939730 0.000000 -0.018870 
#    y 0.000000 1.829850 0.000000 
#    z -0.018870 0.000000 1.744800 
# 
# From -- ./inp_files/11366.got.cif
#   From: 2010.05.17/outbox.cif.g08.bks.cpg/sg9_6_cif.got.tgz:11366.got - 2010.06.03 20:04:27.
