data_PCOD9137307
_publ_section_title
;
Structure prediction by ZEFSAII (Michael W. Deem and Ramdas Pophale) SiO2 
 PCOD9137307
Probable space group: C C
;
_chemical_formula_sum "Si O2"
_cell_formula_units_Z 32
_cell_length_a 11.943402
_cell_length_b 13.817428
_cell_length_c 8.416408
_cell_angle_alpha 90.000000
_cell_angle_beta 80.664473
_cell_angle_gamma 90.000000
_cell_volume 1370.539379
_symmetry_space_group_name_H-M "C C"
_symmetry_group_IT_number 9
_symmetry_cell_setting 'monoclinic'
loop_
_space_group_symop_operation_xyz
x,y,z
x,-y,1/2+z
1/2+x,1/2+y,z
1/2+x,1/2-y,1/2+z
loop_
_atom_site_type_symbol
_atom_site_label
_atom_site_fract_x
_atom_site_fract_y
_atom_site_fract_z
Si Si1 0.377120 0.810359 0.208000
Si Si2 0.353225 0.392936 0.586367
Si Si3 0.278062 0.289906 0.034813
Si Si4 0.982700 0.516370 0.119038
Si Si5 0.652757 0.587809 0.797478
Si Si6 0.236008 0.098161 0.132081
Si Si7 0.627718 0.912677 0.849868
Si Si8 0.414735 0.426540 0.227217
O O1 0.396090 0.717079 0.093761
O O2 0.358925 0.763140 0.386632
O O3 0.456445 0.905013 0.182100
O O4 0.253483 0.852934 0.191986
O O5 0.237198 0.413475 0.709769
O O6 0.344383 0.423456 0.406184
O O7 0.436790 0.466064 0.657686
O O8 0.169466 0.330723 0.964127
O O9 0.245452 0.210300 0.173490
O O10 0.347206 0.373494 0.104230
O O11 0.863324 0.555202 0.080285
O O12 0.022894 0.588231 0.249922
O O13 0.083967 0.501494 0.969483
O O14 0.675082 0.474375 0.763708
O O15 0.534247 0.618081 0.751367
O O16 0.671390 0.601605 0.979378
#
# Coordination Sequence:
#
# PCOD9137307 Si02
#       8
#     4   4   4   4   4   4   4   4
#     4   9  22  43  63  93 128 156 209 270 311 374
#     4  11  24  41  62  93 129 164 214 264 307 375
#     4  10  23  41  61  93 131 162 208 262 309 377
#     4  11  22  41  69  93 124 170 208 258 322 371
#     4  10  22  41  64  91 123 162 205 256 315 373
#     4  10  22  41  63  95 127 155 206 264 309 373
#     4  11  23  40  64  92 126 167 211 258 314 370
#     4  12  24  42  66  90 126 176 209 254 319 373
#
# _framework density 23.348472999999998
#
# number of rings (size 3 to 8) (size 9 to 14) (size 15 to 20)
#    0.000    1.500    0.000    6.000    0.000   10.000 
#    0.000    3.750    0.000    0.000    0.000    0.000 
#    0.000    0.000    0.000    0.000    0.000    0.000 
#
# Total GULP energy -89284.801255 kJ/mol
# GULP energy per Si atom -5580.300078 kJ/mol
# Density = 2.329533 g / cm^3
# Si number density = 23.348473 Si / 1000 Ang^3
#
#
#
# Elastic Constant Matrix: (Units=GPa)
#
#
# Indices 1 2 3 4 5 6 
#
# 1 81.3664 56.5757 40.7077 0.0000 0.7978 0.0000
# 2 56.5757 103.1693 26.1488 0.0000 16.9184 0.0000
# 3 40.7077 26.1488 55.8404 0.0000 10.1523 0.0000
# 4 0.0000 0.0000 0.0000 37.7200 0.0000 2.9636
# 5 0.7978 16.9184 10.1523 0.0000 25.1316 0.0000
# 6 0.0000 0.0000 0.0000 2.9636 0.0000 18.3658
#
#
#
# Elastic Compliance Matrix: (Units=1/GPa)
#
#
# Indices 1 2 3 4 5 6 
#
# 1 0.033359 -0.016158 -0.020007 0.000000 0.017901 0.000000
# 2 -0.016158 0.019651 0.005276 0.000000 -0.014847 0.000000
# 3 -0.020007 0.005276 0.032974 0.000000 -0.016238 0.000000
# 4 0.000000 0.000000 0.000000 0.026852 0.000000 -0.004333
# 5 0.017901 -0.014847 -0.016238 0.000000 0.055777 0.000000
# 6 0.000000 0.000000 0.000000 -0.004333 0.000000 0.055148
#
#
# Mechanical properties :
#
#
# Convention : Reuss Voigt Hill
#
# Bulk Modulus (GPa) = 41.30900 54.13782 47.72341
# Shear Modulus (GPa) = 17.02958 24.03974 20.53466
#
# Velocity S-wave (km/s) = 2.70361 3.21223 2.96883
# Velocity P-wave (km/s) = 5.24183 6.08236 5.67767
#
# Compressibility (1/GPa) = 0.02420780
#
# Stress axis : x y z
#
# Youngs Moduli (GPa) = 29.97697 50.88835 30.32651
#
# Poissons Ratio (x) = 0.82225 0.60674
# Poissons Ratio (y) = 0.48437 -0.16002
# Poissons Ratio (z) = 0.59974 -0.26851
#
# Static dielectric constant tensor:
#      x y z
#    x 1.910560 0.000000 -0.038240 
#    y 0.000000 1.912690 0.000000 
#    z -0.038240 0.000000 1.897900 
# 
# From -- ./inp_files/7594.got.cif
#   From: 2010.05.17/outbox.cif.g08.bks.cpg/sg9_4_cif.got.tgz:7594.got - 2010.06.03 20:04:27.
