data_PCOD9137669
_publ_section_title
;
Structure prediction by ZEFSAII (Michael W. Deem and Ramdas Pophale) SiO2 
 PCOD9137669
Probable space group: C C
;
_chemical_formula_sum "Si O2"
_cell_formula_units_Z 32
_cell_length_a 23.113337
_cell_length_b 9.320184
_cell_length_c 12.577123
_cell_angle_alpha 90.000000
_cell_angle_beta 152.625579
_cell_angle_gamma 90.000000
_cell_volume 1245.777864
_symmetry_space_group_name_H-M "C C"
_symmetry_group_IT_number 9
_symmetry_cell_setting 'monoclinic'
loop_
_space_group_symop_operation_xyz
x,y,z
x,-y,1/2+z
1/2+x,1/2+y,z
1/2+x,1/2-y,1/2+z
loop_
_atom_site_type_symbol
_atom_site_label
_atom_site_fract_x
_atom_site_fract_y
_atom_site_fract_z
Si Si1 0.618340 0.465756 0.983870
Si Si2 0.887650 0.723116 0.100941
Si Si3 0.299011 0.174305 0.413538
Si Si4 0.962458 0.672434 0.499690
Si Si5 0.910005 0.968635 0.297154
Si Si6 0.244608 0.976517 0.502159
Si Si7 0.630880 0.072748 0.606855
Si Si8 0.260879 0.324372 0.703697
O O1 0.505774 0.437864 0.881681
O O2 0.616492 0.534273 0.860862
O O3 0.697384 0.580398 0.181768
O O4 0.687105 0.321136 0.060782
O O5 0.018006 0.648327 0.352540
O O6 0.861185 0.865766 0.124344
O O7 0.769291 0.624637 0.940573
O O8 0.878279 0.763869 0.963961
O O9 0.432680 0.152720 0.574617
O O10 0.284664 0.126491 0.511669
O O11 0.256948 0.333152 0.314032
O O12 0.081691 0.591888 0.646787
O O13 0.963816 0.839946 0.463423
O O14 0.849326 0.589634 0.252852
O O15 0.814542 0.069580 0.202562
O O16 0.667642 0.919738 0.623803
#
# Coordination Sequence:
#
# PCOD9137669 Si02
#       8
#     4   4   4   4   4   4   4   4
#     4  11  23  41  70 101 136 180 234 294 352 426
#     4  10  23  45  71 103 140 192 232 293 369 426
#     4  11  18  41  70  95 132 185 224 282 359 419
#     4   9  20  40  67  95 136 181 226 286 347 427
#     4  10  22  44  65  99 139 180 233 292 350 434
#     4   9  21  39  69  96 133 182 228 282 357 422
#     4  10  22  43  69  98 142 182 231 292 352 420
#     4  12  25  45  71 107 140 186 242 299 358 434
#
# _framework density 25.686762000000002
#
# number of rings (size 3 to 8) (size 9 to 14) (size 15 to 20)
#    0.000    2.000    5.000    0.000    0.000    5.000 
#    2.250    5.000    0.000    0.000    0.000    0.000 
#    0.000    0.000    0.000    0.000    0.000    0.000 
#
# Total GULP energy -89226.796904 kJ/mol
# GULP energy per Si atom -5576.674806 kJ/mol
# Density = 2.562830 g / cm^3
# Si number density = 25.686762 Si / 1000 Ang^3
#
#
#
# Elastic Constant Matrix: (Units=GPa)
#
#
# Indices 1 2 3 4 5 6 
#
# 1 118.4029 0.9235 23.1331 0.0000 24.7292 0.0000
# 2 0.9235 61.7356 5.2908 0.0000 -4.4989 0.0000
# 3 23.1331 5.2908 51.5735 0.0000 -4.3523 0.0000
# 4 0.0000 0.0000 0.0000 -336.9068 0.0000 -503.7885
# 5 24.7292 -4.4989 -4.3523 0.0000 33.6083 0.0000
# 6 0.0000 0.0000 0.0000 -503.7885 0.0000 -668.4066
#
#
#
# Elastic Compliance Matrix: (Units=1/GPa)
#
#
# Indices 1 2 3 4 5 6 
#
# 1 0.011553 -0.000343 -0.005933 0.000000 -0.009315 0.000000
# 2 -0.000343 0.016485 -0.001344 0.000000 0.002285 0.000000
# 3 -0.005933 -0.001344 0.022791 0.000000 0.007137 0.000000
# 4 0.000000 0.000000 0.000000 0.023361 0.000000 -0.017607
# 5 -0.009315 0.002285 0.007137 0.000000 0.037839 0.000000
# 6 0.000000 0.000000 0.000000 -0.017607 0.000000 0.011775
#
#
# Mechanical properties :
#
#
# Convention : Reuss Voigt Hill
#
# Bulk Modulus (GPa) = 28.09920 32.26743 30.18331
# Shear Modulus (GPa) = 33.13279 -180.85003 -73.85862
#
# Velocity S-wave (km/s) = 3.59538 -8.39993 -5.36805
# Velocity P-wave (km/s) = 5.31024 9.02714 5.16191
#
# Compressibility (1/GPa) = 0.03558820
#
# Stress axis : x y z
#
# Youngs Moduli (GPa) = 86.55679 60.66126 43.87646
#
# Poissons Ratio (x) = 0.02082 0.26032
# Poissons Ratio (y) = 0.02970 0.05899
# Poissons Ratio (z) = 0.51354 0.08155
#
# Static dielectric constant tensor:
#      x y z
#    x 2.079000 0.000000 -0.010910 
#    y 0.000000 2.088050 0.000000 
#    z -0.010910 0.000000 2.119130 
# 
# From -- ./inp_files/27745.got.cif
#   From: 2010.05.17/outbox.cif.g08.bks.cpg/sg9_14_cif.got.tgz:27745.got - 2010.06.03 20:04:27.
