data_PCOD9137850
_publ_section_title
;
Structure prediction by ZEFSAII (Michael W. Deem and Ramdas Pophale) SiO2 
 PCOD9137850
Probable space group: C C
;
_chemical_formula_sum "Si O2"
_cell_formula_units_Z 24
_cell_length_a 11.736563
_cell_length_b 7.785466
_cell_length_c 20.516589
_cell_angle_alpha 90.000000
_cell_angle_beta 41.639758
_cell_angle_gamma 90.000000
_cell_volume 1245.631878
_symmetry_space_group_name_H-M "C C"
_symmetry_group_IT_number 9
_symmetry_cell_setting 'monoclinic'
loop_
_space_group_symop_operation_xyz
x,y,z
x,-y,1/2+z
1/2+x,1/2+y,z
1/2+x,1/2-y,1/2+z
loop_
_atom_site_type_symbol
_atom_site_label
_atom_site_fract_x
_atom_site_fract_y
_atom_site_fract_z
Si Si1 0.812800 0.277588 0.428640
Si Si2 0.075716 0.820281 0.211949
Si Si3 0.033915 0.954461 0.371302
Si Si4 0.422938 0.044716 0.751228
Si Si5 0.445752 0.730060 0.040789
Si Si6 0.537295 0.610720 0.130925
O O1 0.004680 0.297712 0.176180
O O2 0.636815 0.195906 0.472692
O O3 0.732866 0.390721 0.521071
O O4 0.938065 0.132544 0.399994
O O5 0.022300 0.846678 0.309523
O O6 0.280541 0.846731 0.119005
O O7 0.994262 0.965602 0.200917
O O8 0.028282 0.631290 0.206887
O O9 0.233193 0.984273 0.303281
O O10 0.952479 0.858651 0.468029
O O11 0.397236 0.109811 0.836201
O O12 0.431355 0.598504 0.108580
#
# Coordination Sequence:
#
# PCOD9137850 Si02
#       6
#     4   4   4   4   4   4
#     4   9  21  43  63  89 131 161 204 272 302 369
#     4  12  24  40  71  91 123 176 206 253 327 372
#     4  11  21  43  65  95 127 169 207 262 315 365
#     4  11  23  42  62  98 128 160 218 257 309 379
#     4   9  23  39  63  91 130 161 211 260 304 379
#     4  10  22  45  60  92 133 161 208 262 311 370
#
# _framework density 19.267330000000001
#
# number of rings (size 3 to 8) (size 9 to 14) (size 15 to 20)
#    1.000    0.667    3.333    1.000    2.333    1.333 
#    6.000    0.000    0.000    0.000    0.000    0.000 
#    0.000    0.000    0.000    0.000    0.000    0.000 
#
# Total GULP energy -66854.982781 kJ/mol
# GULP energy per Si atom -5571.248565 kJ/mol
# Density = 1.922348 g / cm^3
# Si number density = 19.267330 Si / 1000 Ang^3
#
#
#
# Elastic Constant Matrix: (Units=GPa)
#
#
# Indices 1 2 3 4 5 6 
#
# 1 70.6188 29.7248 35.4335 0.0000 37.1808 0.0000
# 2 29.7248 67.5797 31.7864 0.0000 29.0703 0.0000
# 3 35.4335 31.7864 73.6724 0.0000 35.4431 0.0000
# 4 0.0000 0.0000 0.0000 22.5568 0.0000 1.1248
# 5 37.1808 29.0703 35.4431 0.0000 31.7761 0.0000
# 6 0.0000 0.0000 0.0000 1.1248 0.0000 30.2058
#
#
#
# Elastic Compliance Matrix: (Units=1/GPa)
#
#
# Indices 1 2 3 4 5 6 
#
# 1 0.039104 0.004202 0.006995 0.000000 -0.057402 0.000000
# 2 0.004202 0.024858 0.001208 0.000000 -0.029006 0.000000
# 3 0.006995 0.001208 0.030552 0.000000 -0.043367 0.000000
# 4 0.000000 0.000000 0.000000 0.044415 0.000000 -0.001654
# 5 -0.057402 -0.029006 -0.043367 0.000000 0.173543 0.000000
# 6 0.000000 0.000000 0.000000 -0.001654 0.000000 0.033168
#
#
# Mechanical properties :
#
#
# Convention : Reuss Voigt Hill
#
# Bulk Modulus (GPa) = 8.38052 45.08449 26.73251
# Shear Modulus (GPa) = 13.86562 24.56949 19.21755
#
# Velocity S-wave (km/s) = 2.68553 3.57485 3.16162
# Velocity P-wave (km/s) = 3.73833 6.36315 5.21847
#
# Compressibility (1/GPa) = 0.11932429
#
# Stress axis : x y z
#
# Youngs Moduli (GPa) = 25.57283 40.22846 32.73144
#
# Poissons Ratio (x) = -0.16905 -0.22895
# Poissons Ratio (y) = -0.10746 -0.03955
# Poissons Ratio (z) = -0.17888 -0.04861
#
# Static dielectric constant tensor:
#      x y z
#    x 1.685990 0.000000 0.008980 
#    y 0.000000 1.645870 0.000000 
#    z 0.008980 0.000000 1.692140 
# 
# From -- ./inp_files/23967.got.cif
#   From: 2010.05.17/outbox.cif.g08.bks.cpg/sg9_12_cif.got.tgz:23967.got - 2010.06.03 20:04:27.
