data_PCOD9137965
_publ_section_title
;
Structure prediction by ZEFSAII (Michael W. Deem and Ramdas Pophale) SiO2 
 PCOD9137965
Probable space group: C C
;
_chemical_formula_sum "Si O2"
_cell_formula_units_Z 28
_cell_length_a 9.768283
_cell_length_b 12.820123
_cell_length_c 9.018903
_cell_angle_alpha 90.000000
_cell_angle_beta 99.153627
_cell_angle_gamma 90.000000
_cell_volume 1115.059477
_symmetry_space_group_name_H-M "C C"
_symmetry_group_IT_number 9
_symmetry_cell_setting 'monoclinic'
loop_
_space_group_symop_operation_xyz
x,y,z
x,-y,1/2+z
1/2+x,1/2+y,z
1/2+x,1/2-y,1/2+z
loop_
_atom_site_type_symbol
_atom_site_label
_atom_site_fract_x
_atom_site_fract_y
_atom_site_fract_z
Si Si1 0.092760 0.855090 0.057240
Si Si2 0.721328 0.234453 0.434833
Si Si3 0.908114 0.109947 0.258208
Si Si4 0.899882 0.578299 0.658763
Si Si5 0.930176 0.780281 0.462503
Si Si6 0.315054 0.607129 0.694227
Si Si7 0.972865 0.630412 0.008267
O O1 0.230432 0.913812 0.137338
O O2 0.961851 0.889049 0.133294
O O3 0.081780 0.726547 0.050383
O O4 0.045435 0.890404 0.883293
O O5 0.809028 0.199158 0.308907
O O6 0.570409 0.278500 0.391325
O O7 0.710932 0.138985 0.548157
O O8 0.824241 0.318018 0.524731
O O9 0.939575 0.134966 0.094178
O O10 0.815835 0.007314 0.258780
O O11 0.917679 0.671471 0.543290
O O12 0.970809 0.473502 0.607040
O O13 0.964070 0.600466 0.832356
O O14 0.811176 0.811374 0.327660
#
# Coordination Sequence:
#
# PCOD9137965 Si02
#       7
#     4   4   4   4   4   4   4
#     4  10  24  45  70 104 146 171 237 312 339 441
#     4  10  24  47  61  99 144 164 234 303 333 444
#     4  10  22  46  66  99 133 174 239 289 352 427
#     4  12  26  45  74 100 143 195 228 300 367 427
#     4  12  24  42  69  99 133 181 230 278 367 426
#     4  10  23  41  71  99 125 184 228 287 368 413
#     4  10  25  48  67 108 140 183 246 289 366 426
#
# _framework density 25.110769999999999
#
# number of rings (size 3 to 8) (size 9 to 14) (size 15 to 20)
#    0.000    1.714    2.857    2.571   12.000    0.000 
#    7.714    0.000    0.000    0.000    0.000    0.000 
#    0.000    0.000    0.000    0.000    0.000    0.000 
#
# Total GULP energy -78251.784655 kJ/mol
# GULP energy per Si atom -5589.413190 kJ/mol
# Density = 2.505362 g / cm^3
# Si number density = 25.110770 Si / 1000 Ang^3
#
#
#
# Elastic Constant Matrix: (Units=GPa)
#
#
# Indices 1 2 3 4 5 6 
#
# 1 68.1516 -10.1404 -0.1752 0.0000 0.8752 0.0000
# 2 -10.1404 124.5390 24.4364 0.0000 -1.0836 0.0000
# 3 -0.1752 24.4364 96.6485 0.0000 8.4049 0.0000
# 4 0.0000 0.0000 0.0000 41.7931 0.0000 -6.5200
# 5 0.8752 -1.0836 8.4049 0.0000 31.0215 0.0000
# 6 0.0000 0.0000 0.0000 -6.5200 0.0000 14.1251
#
#
#
# Elastic Compliance Matrix: (Units=1/GPa)
#
#
# Indices 1 2 3 4 5 6 
#
# 1 0.014864 0.001260 -0.000265 0.000000 -0.000304 0.000000
# 2 0.001260 0.008580 -0.002243 0.000000 0.000872 0.000000
# 3 -0.000265 -0.002243 0.011183 0.000000 -0.003101 0.000000
# 4 0.000000 0.000000 0.000000 0.025784 0.000000 0.011902
# 5 -0.000304 0.000872 -0.003101 0.000000 0.033115 0.000000
# 6 0.000000 0.000000 0.000000 0.011902 0.000000 0.076290
#
#
# Mechanical properties :
#
#
# Convention : Reuss Voigt Hill
#
# Bulk Modulus (GPa) = 31.12358 35.28675 33.20517
# Shear Modulus (GPa) = 27.31914 35.73583 31.52748
#
# Velocity S-wave (km/s) = 3.30198 3.77653 3.54720
# Velocity P-wave (km/s) = 5.19219 5.75319 5.47987
#
# Compressibility (1/GPa) = 0.03212998
#
# Stress axis : x y z
#
# Youngs Moduli (GPa) = 67.27751 116.55223 89.42128
#
# Poissons Ratio (x) = -0.14681 0.02371
# Poissons Ratio (y) = -0.08475 0.20056
# Poissons Ratio (z) = 0.01784 0.26141
#
# Static dielectric constant tensor:
#      x y z
#    x 2.009490 0.000000 0.010930 
#    y 0.000000 2.015460 0.000000 
#    z 0.010930 0.000000 1.959000 
# 
# From -- ./inp_files/6991.got.cif
#   From: 2010.05.17/outbox.cif.g08.bks.cpg/sg9_4_cif.got.tgz:6991.got - 2010.06.03 20:04:27.
