data_PCOD9137883
_publ_section_title
;
Structure prediction by ZEFSAII (Michael W. Deem and Ramdas Pophale) SiO2 
 PCOD9137883
Probable space group: C C
;
_chemical_formula_sum "Si O2"
_cell_formula_units_Z 28
_cell_length_a 10.018753
_cell_length_b 15.978052
_cell_length_c 11.637269
_cell_angle_alpha 90.000000
_cell_angle_beta 147.331017
_cell_angle_gamma 90.000000
_cell_volume 1005.562655
_symmetry_space_group_name_H-M "C C"
_symmetry_group_IT_number 9
_symmetry_cell_setting 'monoclinic'
loop_
_space_group_symop_operation_xyz
x,y,z
x,-y,1/2+z
1/2+x,1/2+y,z
1/2+x,1/2-y,1/2+z
loop_
_atom_site_type_symbol
_atom_site_label
_atom_site_fract_x
_atom_site_fract_y
_atom_site_fract_z
Si Si1 0.747250 0.639817 0.405370
Si Si2 0.789568 0.060562 0.164773
Si Si3 0.873363 0.887865 0.197700
Si Si4 0.783562 0.581162 0.180100
Si Si5 0.502294 0.183859 0.793982
Si Si6 0.983371 0.271102 0.692369
Si Si7 0.569351 0.402439 0.081529
O O1 0.567138 0.565257 0.314397
O O2 0.778523 0.632134 0.294611
O O3 0.619741 0.727432 0.349098
O O4 0.985302 0.635825 0.659473
O O5 0.831611 0.085664 0.326775
O O6 0.656837 0.131971 0.997539
O O7 0.690483 0.967333 0.069186
O O8 0.034373 0.904576 0.425794
O O9 0.008201 0.896558 0.170801
O O10 0.828014 0.789509 0.165700
O O11 0.966031 0.633895 0.227373
O O12 0.741186 0.483014 0.180118
O O13 0.227358 0.176813 0.649750
O O14 0.781048 0.257340 0.435133
#
# Coordination Sequence:
#
# PCOD9137883 Si02
#       7
#     4   4   4   4   4   4   4
#     4  11  22  43  69 103 138 179 239 301 354 431
#     4  10  22  45  68 102 135 187 240 297 361 433
#     4  10  22  47  71 100 146 190 239 301 370 443
#     4  10  23  45  71 102 144 186 244 302 364 436
#     4  11  24  40  71 104 137 182 240 297 363 425
#     4  10  24  45  68 103 144 189 241 301 369 438
#     4  10  23  47  70 100 144 189 237 299 365 446
#
# _framework density 27.845109000000001
#
# number of rings (size 3 to 8) (size 9 to 14) (size 15 to 20)
#    0.000    1.714    2.857    0.000    6.000    0.000 
#   18.000    0.000    0.000    0.000    0.000    0.000 
#    0.000    0.000    0.000    0.000    0.000    0.000 
#
# Total GULP energy -78084.325725 kJ/mol
# GULP energy per Si atom -5577.451837 kJ/mol
# Density = 2.778173 g / cm^3
# Si number density = 27.845109 Si / 1000 Ang^3
#
#
#
# Elastic Constant Matrix: (Units=GPa)
#
#
# Indices 1 2 3 4 5 6 
#
# 1 118.4610 47.7652 84.8967 0.0001 -22.5223 0.0000
# 2 47.7652 157.6519 63.9913 0.0002 -5.7279 0.0001
# 3 84.8967 63.9913 152.9295 0.0000 -21.1847 -0.0001
# 4 0.0001 0.0002 0.0000 49.9329 0.0001 -10.7515
# 5 -22.5223 -5.7279 -21.1847 0.0001 38.9392 -0.0001
# 6 0.0000 0.0001 -0.0001 -10.7515 -0.0001 26.6337
#
#
#
# Elastic Compliance Matrix: (Units=1/GPa)
#
#
# Indices 1 2 3 4 5 6 
#
# 1 0.014973 -0.001511 -0.007042 0.000000 0.004607 0.000000
# 2 -0.001511 0.007809 -0.002586 0.000000 -0.001132 0.000000
# 3 -0.007042 -0.002586 0.011803 0.000000 0.001968 0.000000
# 4 0.000000 0.000000 0.000000 0.021933 0.000000 0.008854
# 5 0.004607 -0.001132 0.001968 0.000000 0.029250 0.000000
# 6 0.000000 0.000000 0.000000 0.008854 0.000000 0.041121
#
#
# Mechanical properties :
#
#
# Convention : Reuss Voigt Hill
#
# Bulk Modulus (GPa) = 81.24514 91.37210 86.30862
# Shear Modulus (GPa) = 32.62234 38.59376 35.60805
#
# Velocity S-wave (km/s) = 3.42653 3.72696 3.57990
# Velocity P-wave (km/s) = 6.70042 7.16980 6.93908
#
# Compressibility (1/GPa) = 0.01230843
#
# Stress axis : x y z
#
# Youngs Moduli (GPa) = 66.78514 128.05252 84.72639
#
# Poissons Ratio (x) = 0.19348 0.59663
# Poissons Ratio (y) = 0.10091 0.21908
# Poissons Ratio (z) = 0.47029 0.33111
#
# Static dielectric constant tensor:
#      x y z
#    x 2.140110 0.000000 0.104790 
#    y 0.000000 2.236290 0.000000 
#    z 0.104790 0.000000 2.392440 
# 
# From -- ./inp_files/17053.got.cif
#   From: 2010.05.17/outbox.cif.g08.bks.cpg/sg9_9_cif.got.tgz:17053.got - 2010.06.03 20:04:27.
