data_PCOD9137581
_publ_section_title
;
Structure prediction by ZEFSAII (Michael W. Deem and Ramdas Pophale) SiO2 
 PCOD9137581
Probable space group: C C
;
_chemical_formula_sum "Si O2"
_cell_formula_units_Z 24
_cell_length_a 15.668778
_cell_length_b 10.238925
_cell_length_c 10.781750
_cell_angle_alpha 90.000000
_cell_angle_beta 146.772812
_cell_angle_gamma 90.000000
_cell_volume 947.824173
_symmetry_space_group_name_H-M "C C"
_symmetry_group_IT_number 9
_symmetry_cell_setting 'monoclinic'
loop_
_space_group_symop_operation_xyz
x,y,z
x,-y,1/2+z
1/2+x,1/2+y,z
1/2+x,1/2-y,1/2+z
loop_
_atom_site_type_symbol
_atom_site_label
_atom_site_fract_x
_atom_site_fract_y
_atom_site_fract_z
Si Si1 0.769160 0.784371 0.890720
Si Si2 0.957695 0.252737 0.996597
Si Si3 0.166271 0.638595 0.537086
Si Si4 0.958420 0.189381 0.415218
Si Si5 0.401817 0.994911 0.593597
Si Si6 0.173960 0.136209 0.470797
O O1 0.891213 0.870666 0.960884
O O2 0.600473 0.786359 0.621683
O O3 0.732554 0.807226 0.988267
O O4 0.848623 0.642163 0.971641
O O5 0.816591 0.151825 0.806590
O O6 0.903204 0.389467 0.994526
O O7 0.039004 0.283198 0.963686
O O8 0.079663 0.195893 0.242190
O O9 0.068110 0.515219 0.365940
O O10 0.048822 0.101801 0.425032
O O11 0.810546 0.261099 0.174794
O O12 0.272120 0.016687 0.540289
#
# Coordination Sequence:
#
# PCOD9137581 Si02
#       6
#     4   4   4   4   4   4
#     4  11  23  45  72 109 149 203 255 315 393 464
#     4  12  25  49  75 113 158 199 262 329 384 475
#     4  12  25  47  79 111 162 202 262 331 386 476
#     4  10  22  42  75  97 151 188 249 323 359 467
#     4  12  26  44  79 108 149 216 247 307 421 435
#     4  11  23  47  72 112 149 202 253 323 385 463
#
# _framework density 25.321152000000001
#
# number of rings (size 3 to 8) (size 9 to 14) (size 15 to 20)
#    0.000    0.667    6.667    0.000    4.667    0.000 
#    3.000    3.333    0.000    0.000    0.000    0.000 
#    0.000    0.000    0.000    0.000    0.000    0.000 
#
# Total GULP energy -67034.242748 kJ/mol
# GULP energy per Si atom -5586.186896 kJ/mol
# Density = 2.526352 g / cm^3
# Si number density = 25.321152 Si / 1000 Ang^3
#
#
#
# Elastic Constant Matrix: (Units=GPa)
#
#
# Indices 1 2 3 4 5 6 
#
# 1 231.8688 43.9610 48.1001 0.0000 27.6772 0.0000
# 2 43.9610 83.6118 37.7718 0.0000 7.0148 0.0000
# 3 48.1001 37.7718 172.3256 0.0000 7.2857 0.0000
# 4 0.0000 0.0000 0.0000 25.2170 0.0000 31.0435
# 5 27.6772 7.0148 7.2857 0.0000 39.9803 0.0000
# 6 0.0000 0.0000 0.0000 31.0435 0.0000 -37.8855
#
#
#
# Elastic Compliance Matrix: (Units=1/GPa)
#
#
# Indices 1 2 3 4 5 6 
#
# 1 0.005267 -0.002112 -0.000875 0.000000 -0.003116 0.000000
# 2 -0.002112 0.014253 -0.002510 0.000000 -0.000581 0.000000
# 3 -0.000875 -0.002510 0.006604 0.000000 -0.000157 0.000000
# 4 0.000000 0.000000 0.000000 0.019742 0.000000 0.016176
# 5 -0.003116 -0.000581 -0.000157 0.000000 0.027300 0.000000
# 6 0.000000 0.000000 0.000000 0.016176 0.000000 -0.013140
#
#
# Mechanical properties :
#
#
# Convention : Reuss Voigt Hill
#
# Bulk Modulus (GPa) = 66.09871 83.05245 74.57558
# Shear Modulus (GPa) = 65.73432 29.32725 47.53079
#
# Velocity S-wave (km/s) = 5.10065 3.40694 4.33727
# Velocity P-wave (km/s) = 7.80062 6.95321 7.38907
#
# Compressibility (1/GPa) = 0.01512889
#
# Stress axis : x y z
#
# Youngs Moduli (GPa) = 189.86926 70.15929 151.42097
#
# Poissons Ratio (x) = 0.14820 0.13255
# Poissons Ratio (y) = 0.40106 0.38007
# Poissons Ratio (z) = 0.16620 0.17610
#
# Static dielectric constant tensor:
#      x y z
#    x 2.040170 0.000000 -0.048510 
#    y 0.000000 2.094460 0.000000 
#    z -0.048510 0.000000 2.047350 
# 
# From -- ./inp_files/16336.got.cif
#   From: 2010.05.17/outbox.cif.g08.bks.cpg/sg9_9_cif.got.tgz:16336.got - 2010.06.03 20:04:27.
