data_PCOD9137271
_publ_section_title
;
Structure prediction by ZEFSAII (Michael W. Deem and Ramdas Pophale) SiO2 
 PCOD9137271
Probable space group: C C
;
_chemical_formula_sum "Si O2"
_cell_formula_units_Z 24
_cell_length_a 8.611453
_cell_length_b 12.108599
_cell_length_c 10.079634
_cell_angle_alpha 90.000000
_cell_angle_beta 57.563594
_cell_angle_gamma 90.000000
_cell_volume 887.055925
_symmetry_space_group_name_H-M "C C"
_symmetry_group_IT_number 9
_symmetry_cell_setting 'monoclinic'
loop_
_space_group_symop_operation_xyz
x,y,z
x,-y,1/2+z
1/2+x,1/2+y,z
1/2+x,1/2-y,1/2+z
loop_
_atom_site_type_symbol
_atom_site_label
_atom_site_fract_x
_atom_site_fract_y
_atom_site_fract_z
Si Si1 0.998860 0.904896 0.709030
Si Si2 0.643983 0.818143 0.533685
Si Si3 0.927474 0.658464 0.689678
Si Si4 0.025280 0.743648 0.373085
Si Si5 0.041527 0.081861 0.492245
Si Si6 0.157853 0.461732 0.282927
O O1 0.027049 0.774344 0.685618
O O2 0.783882 0.933615 0.771799
O O3 0.105324 0.983106 0.558001
O O4 0.044280 0.940383 0.836218
O O5 0.540475 0.810419 0.720437
O O6 0.584034 0.902389 0.448590
O O7 0.714884 0.690437 0.806748
O O8 0.861845 0.834736 0.456745
O O9 0.968614 0.657370 0.513895
O O10 0.004931 0.556838 0.739222
O O11 0.140027 0.804301 0.976415
O O12 0.830407 0.103459 0.635874
#
# Coordination Sequence:
#
# PCOD9137271 Si02
#       6
#     4   4   4   4   4   4
#     4  10  23  39  69  98 142 183 238 300 354 427
#     4  11  20  42  64 100 134 181 235 287 357 431
#     4  11  22  44  66 100 138 187 237 298 355 430
#     4  10  24  36  69  97 136 180 239 287 357 432
#     4  10  22  40  69 102 140 189 237 297 361 423
#     4  10  23  39  69  99 130 188 242 279 368 423
#
# _framework density 27.055792
#
# number of rings (size 3 to 8) (size 9 to 14) (size 15 to 20)
#    1.000    0.667    3.333    1.000    7.000    0.000 
#    0.000    1.667    0.000    0.000    0.000    0.000 
#    0.000    0.000    0.000    0.000    0.000    0.000 
#
# Total GULP energy -67146.990302 kJ/mol
# GULP energy per Si atom -5595.582525 kJ/mol
# Density = 2.699421 g / cm^3
# Si number density = 27.055792 Si / 1000 Ang^3
#
#
#
# Elastic Constant Matrix: (Units=GPa)
#
#
# Indices 1 2 3 4 5 6 
#
# 1 82.7676 7.0360 41.8112 0.0000 1.3841 0.0000
# 2 7.0360 127.8327 44.7090 0.0000 24.5861 0.0000
# 3 41.8112 44.7090 231.5706 0.0000 37.1547 0.0000
# 4 0.0000 0.0000 0.0000 29.7297 0.0000 1.6854
# 5 1.3841 24.5861 37.1547 0.0000 54.6476 0.0000
# 6 0.0000 0.0000 0.0000 1.6854 0.0000 43.2119
#
#
#
# Elastic Compliance Matrix: (Units=1/GPa)
#
#
# Indices 1 2 3 4 5 6 
#
# 1 0.013400 -0.000103 -0.002640 0.000000 0.001502 0.000000
# 2 -0.000103 0.008852 -0.001181 0.000000 -0.003177 0.000000
# 3 -0.002640 -0.001181 0.005530 0.000000 -0.003162 0.000000
# 4 0.000000 0.000000 0.000000 0.033711 0.000000 -0.001315
# 5 0.001502 -0.003177 -0.003162 0.000000 0.021840 0.000000
# 6 0.000000 0.000000 0.000000 -0.001315 0.000000 0.023193
#
#
# Mechanical properties :
#
#
# Convention : Reuss Voigt Hill
#
# Bulk Modulus (GPa) = 50.16556 69.92038 60.04297
# Shear Modulus (GPa) = 41.31559 48.75883 45.03721
#
# Velocity S-wave (km/s) = 3.91199 4.24979 4.08438
# Velocity P-wave (km/s) = 6.24393 7.06966 6.66959
#
# Compressibility (1/GPa) = 0.01993399
#
# Stress axis : x y z
#
# Youngs Moduli (GPa) = 74.62947 112.96309 180.81912
#
# Poissons Ratio (x) = 0.01163 0.47745
# Poissons Ratio (y) = 0.00768 0.21350
# Poissons Ratio (z) = 0.19706 0.13338
#
# Static dielectric constant tensor:
#      x y z
#    x 2.203860 0.000000 -0.008620 
#    y 0.000000 2.184220 0.000000 
#    z -0.008620 0.000000 2.070650 
# 
# From -- ./inp_files/7095.got.cif
#   From: 2010.05.17/outbox.cif.g08.bks.cpg/sg9_4_cif.got.tgz:7095.got - 2010.06.03 20:04:27.
