data_PCOD9137885
_publ_section_title
;
Structure prediction by ZEFSAII (Michael W. Deem and Ramdas Pophale) SiO2 
 PCOD9137885
Probable space group: C C
;
_chemical_formula_sum "Si O2"
_cell_formula_units_Z 32
_cell_length_a 10.231268
_cell_length_b 26.957075
_cell_length_c 8.983331
_cell_angle_alpha 90.000000
_cell_angle_beta 28.460547
_cell_angle_gamma 90.000000
_cell_volume 1180.731908
_symmetry_space_group_name_H-M "C C"
_symmetry_group_IT_number 9
_symmetry_cell_setting 'monoclinic'
loop_
_space_group_symop_operation_xyz
x,y,z
x,-y,1/2+z
1/2+x,1/2+y,z
1/2+x,1/2-y,1/2+z
loop_
_atom_site_type_symbol
_atom_site_label
_atom_site_fract_x
_atom_site_fract_y
_atom_site_fract_z
Si Si1 0.063710 0.584194 0.459390
Si Si2 0.421358 0.217403 0.099477
Si Si3 0.470885 0.483145 0.691230
Si Si4 0.711789 0.157711 0.062304
Si Si5 0.211788 0.651381 0.562305
Si Si6 0.002219 0.782597 0.525132
Si Si7 0.859867 0.084194 0.665220
Si Si8 0.952692 0.516855 0.933380
O O1 0.367256 0.561627 0.190924
O O2 0.053491 0.621531 0.333144
O O3 0.020875 0.616741 0.649421
O O4 0.211788 0.492783 0.062305
O O5 0.527293 0.184411 0.856614
O O6 0.604825 0.267678 0.909533
O O7 0.512175 0.190569 0.160255
O O8 0.513318 0.533976 0.557682
O O9 0.910259 0.466024 0.066927
O O10 0.711788 0.472564 0.562305
O O11 0.911403 0.190569 0.964354
O O12 0.870087 0.121531 0.791465
O O13 0.396284 0.684410 0.267996
O O14 0.402701 0.616741 0.475190
O O15 0.318753 0.767678 0.215078
O O16 0.556321 0.061627 0.933686
#
# Coordination Sequence:
#
# PCOD9137885 Si02
#       8
#     4   4   4   4   4   4   4   4
#     4  10  22  45  68 106 138 184 228 281 334 400
#     4  11  24  47  70  99 136 177 222 281 352 405
#     4  11  24  46  69  97 145 184 226 276 339 399
#     4  10  22  45  70 104 136 176 230 283 332 414
#     4  10  22  45  70 104 136 176 230 283 332 414
#     4  11  24  47  70  99 136 177 222 281 352 405
#     4  10  22  45  68 106 138 184 228 281 334 400
#     4  11  24  46  69  97 145 184 226 276 339 399
#
# _framework density 27.101832999999999
#
# number of rings (size 3 to 8) (size 9 to 14) (size 15 to 20)
#    0.000    1.500    2.500    1.500    0.000    4.000 
#   18.000    0.000    0.000    0.000    0.000    0.000 
#    0.000    0.000    0.000    0.000    0.000    0.000 
#
# Total GULP energy -89806.671642 kJ/mol
# GULP energy per Si atom -5612.916978 kJ/mol
# Density = 2.704015 g / cm^3
# Si number density = 27.101833 Si / 1000 Ang^3
#
#
#
# Elastic Constant Matrix: (Units=GPa)
#
#
# Indices 1 2 3 4 5 6 
#
# 1 155.1564 63.0620 46.8012 0.0000 22.9249 0.0000
# 2 63.0620 151.3640 27.3659 0.0000 16.9250 0.0000
# 3 46.8012 27.3659 73.4095 0.0000 -3.0273 0.0000
# 4 0.0000 0.0000 0.0000 38.5860 0.0000 14.6517
# 5 22.9249 16.9250 -3.0273 0.0000 56.2025 0.0000
# 6 0.0000 0.0000 0.0000 14.6517 0.0000 62.8117
#
#
#
# Elastic Compliance Matrix: (Units=1/GPa)
#
#
# Indices 1 2 3 4 5 6 
#
# 1 0.009629 -0.002676 -0.005282 0.000000 -0.003406 0.000000
# 2 -0.002676 0.008132 -0.001384 0.000000 -0.001432 0.000000
# 3 -0.005282 -0.001384 0.017651 0.000000 0.003522 0.000000
# 4 0.000000 0.000000 0.000000 0.028435 0.000000 -0.006633
# 5 -0.003406 -0.001432 0.003522 0.000000 0.019803 0.000000
# 6 0.000000 0.000000 0.000000 -0.006633 0.000000 0.017468
#
#
# Mechanical properties :
#
#
# Convention : Reuss Voigt Hill
#
# Bulk Modulus (GPa) = 59.78201 72.70980 66.24590
# Shear Modulus (GPa) = 39.87931 47.70010 43.78971
#
# Velocity S-wave (km/s) = 3.84013 4.19983 4.02400
# Velocity P-wave (km/s) = 6.46284 7.09962 6.78870
#
# Compressibility (1/GPa) = 0.01672744
#
# Stress axis : x y z
#
# Youngs Moduli (GPa) = 103.85000 122.97283 56.65405
#
# Poissons Ratio (x) = 0.32907 0.29924
# Poissons Ratio (y) = 0.27790 0.07844
# Poissons Ratio (z) = 0.54853 0.17025
#
# Static dielectric constant tensor:
#      x y z
#    x 2.024630 0.000000 0.038310 
#    y 0.000000 2.087180 0.000000 
#    z 0.038310 0.000000 2.210730 
# 
# From -- ./inp_files/1331.got.cif
#   From: 2010.05.17/outbox.cif.g08.bks.cpg/sg9_1_cif.got.tgz:1331.got - 2010.06.03 20:04:27.
