data_PCOD9137700
_publ_section_title
;
Structure prediction by ZEFSAII (Michael W. Deem and Ramdas Pophale) SiO2 
 PCOD9137700
Probable space group: C C
;
_chemical_formula_sum "Si O2"
_cell_formula_units_Z 28
_cell_length_a 9.791457
_cell_length_b 14.980636
_cell_length_c 15.237421
_cell_angle_alpha 90.000000
_cell_angle_beta 34.248910
_cell_angle_gamma 90.000000
_cell_volume 1257.867210
_symmetry_space_group_name_H-M "C C"
_symmetry_group_IT_number 9
_symmetry_cell_setting 'monoclinic'
loop_
_space_group_symop_operation_xyz
x,y,z
x,-y,1/2+z
1/2+x,1/2+y,z
1/2+x,1/2-y,1/2+z
loop_
_atom_site_type_symbol
_atom_site_label
_atom_site_fract_x
_atom_site_fract_y
_atom_site_fract_z
Si Si1 0.717380 0.236081 0.625000
Si Si2 0.903129 0.431193 0.338980
Si Si3 0.422952 0.676341 0.051192
Si Si4 0.740414 0.156782 0.336091
Si Si5 0.730336 0.229585 0.807586
Si Si6 0.092429 0.546511 0.934346
Si Si7 0.505176 0.104302 0.173194
O O1 0.590046 0.140282 0.696367
O O2 0.506343 0.307982 0.723646
O O3 0.848858 0.238802 0.649132
O O4 0.941910 0.255301 0.442344
O O5 0.639801 0.392010 0.457781
O O6 0.942741 0.446920 0.422211
O O7 0.957424 0.521829 0.261103
O O8 0.540828 0.774672 0.980639
O O9 0.245059 0.670607 0.228892
O O10 0.275596 0.642943 0.044959
O O11 0.698023 0.053440 0.382356
O O12 0.770742 0.132213 0.825776
O O13 0.832066 0.316504 0.798455
O O14 0.965760 0.570198 0.094147
#
# Coordination Sequence:
#
# PCOD9137700 Si02
#       7
#     4   4   4   4   4   4   4
#     4  10  22  43  72 100 141 194 234 295 352 438
#     4  10  25  48  70 104 147 192 244 289 364 435
#     4  11  27  47  71 106 150 188 232 309 363 425
#     4  11  24  47  75 106 146 184 247 293 364 431
#     4  11  24  45  69 104 145 187 245 292 361 430
#     4  11  25  47  72 109 139 195 241 292 361 432
#     4  12  27  45  73 111 142 192 237 308 363 423
#
# _framework density 22.259902
#
# number of rings (size 3 to 8) (size 9 to 14) (size 15 to 20)
#    0.000    1.143    2.857    2.571   10.000    0.000 
#    5.143    0.000    0.000    0.000    0.000    0.000 
#    0.000    0.000    0.000    0.000    0.000    0.000 
#
# Total GULP energy -78135.701263 kJ/mol
# GULP energy per Si atom -5581.121519 kJ/mol
# Density = 2.220924 g / cm^3
# Si number density = 22.259902 Si / 1000 Ang^3
#
#
#
# Elastic Constant Matrix: (Units=GPa)
#
#
# Indices 1 2 3 4 5 6 
#
# 1 81.1176 64.2280 34.9688 0.0031 3.7979 -0.0010
# 2 64.2280 231.6097 54.6607 -0.0117 -14.4726 0.0041
# 3 34.9688 54.6607 67.4291 -0.0014 7.0644 -0.0006
# 4 0.0031 -0.0117 -0.0014 24.7914 0.0014 5.6074
# 5 3.7979 -14.4726 7.0644 0.0014 35.8245 -0.0008
# 6 -0.0010 0.0041 -0.0006 5.6074 -0.0008 28.7430
#
#
#
# Elastic Compliance Matrix: (Units=1/GPa)
#
#
# Indices 1 2 3 4 5 6 
#
# 1 0.017979 -0.003680 -0.006111 -0.000005 -0.002188 0.000002
# 2 -0.003680 0.006446 -0.003707 0.000003 0.003725 -0.000002
# 3 -0.006111 -0.003707 0.021539 0.000000 -0.005097 0.000001
# 4 -0.000005 0.000003 0.000000 0.042199 0.000000 -0.008232
# 5 -0.002188 0.003725 -0.005097 0.000000 0.030656 0.000000
# 6 0.000002 -0.000002 0.000001 -0.008232 0.000000 0.036397
#
#
# Mechanical properties :
#
#
# Convention : Reuss Voigt Hill
#
# Bulk Modulus (GPa) = 52.72492 76.43016 64.57754
# Shear Modulus (GPa) = 26.52050 32.95838 29.73944
#
# Velocity S-wave (km/s) = 3.45541 3.85205 3.65911
# Velocity P-wave (km/s) = 6.29741 7.36168 6.85024
#
# Compressibility (1/GPa) = 0.01896636
#
# Stress axis : x y z
#
# Youngs Moduli (GPa) = 55.62184 155.14070 46.42789
#
# Poissons Ratio (x) = 0.57093 0.28374
# Poissons Ratio (y) = 0.20469 0.17211
# Poissons Ratio (z) = 0.33992 0.57510
#
# Static dielectric constant tensor:
#      x y z
#    x 1.876620 0.000000 0.001480 
#    y 0.000000 1.805840 0.000000 
#    z 0.001480 0.000000 1.798820 
# 
# From -- ./inp_files/23451.got.cif
#   From: 2010.05.17/outbox.cif.g08.bks.cpg/sg9_12_cif.got.tgz:23451.got - 2010.06.03 20:04:27.
