data_PCOD9137783
_publ_section_title
;
Structure prediction by ZEFSAII (Michael W. Deem and Ramdas Pophale) SiO2 
 PCOD9137783
Probable space group: C C
;
_chemical_formula_sum "Si O2"
_cell_formula_units_Z 32
_cell_length_a 9.040775
_cell_length_b 10.801357
_cell_length_c 18.395800
_cell_angle_alpha 90.000000
_cell_angle_beta 46.389082
_cell_angle_gamma 90.000000
_cell_volume 1300.665087
_symmetry_space_group_name_H-M "C C"
_symmetry_group_IT_number 9
_symmetry_cell_setting 'monoclinic'
loop_
_space_group_symop_operation_xyz
x,y,z
x,-y,1/2+z
1/2+x,1/2+y,z
1/2+x,1/2-y,1/2+z
loop_
_atom_site_type_symbol
_atom_site_label
_atom_site_fract_x
_atom_site_fract_y
_atom_site_fract_z
Si Si1 0.088470 0.130322 0.988300
Si Si2 0.946051 0.157020 0.244264
Si Si3 0.130210 0.846606 0.300740
Si Si4 0.678147 0.767585 0.427493
Si Si5 0.306585 0.035271 0.031407
Si Si6 0.672662 0.126471 0.076948
Si Si7 0.146889 0.400009 0.974158
Si Si8 0.715778 0.371369 0.774865
O O1 0.100802 0.144003 0.897893
O O2 0.169142 0.260096 0.993033
O O3 0.232537 0.027500 0.973902
O O4 0.847328 0.116272 0.077755
O O5 0.820262 0.252069 0.236454
O O6 0.780392 0.090401 0.354262
O O7 0.102329 0.078917 0.142091
O O8 0.098052 0.212662 0.255099
O O9 0.917524 0.806554 0.336033
O O10 0.175721 0.987282 0.264841
O O11 0.673486 0.762989 0.516731
O O12 0.641400 0.661266 0.380682
O O13 0.693650 0.997900 0.519300
O O14 0.497182 0.132127 0.973130
O O15 0.411043 0.917042 0.031593
O O16 0.455940 0.138442 0.187379
#
# Coordination Sequence:
#
# PCOD9137783 Si02
#       8
#     4   4   4   4   4   4   4   4
#     4  10  23  43  66  97 138 176 221 295 339 410
#     4  11  23  43  72 107 137 188 240 288 350 429
#     4  10  25  44  70 100 137 183 232 283 360 413
#     4  10  22  44  68  99 143 173 233 297 336 416
#     4  11  23  42  71 104 139 185 241 281 358 418
#     4  10  23  44  67 104 132 182 238 276 361 412
#     4  10  22  46  68  91 145 178 225 292 348 406
#     4  12  23  44  74  96 137 191 230 286 358 414
#
# _framework density 24.602796999999999
#
# number of rings (size 3 to 8) (size 9 to 14) (size 15 to 20)
#    0.000    1.500    2.500    3.750    3.500    3.000 
#    4.500    3.750    0.000    0.000    0.000    0.000 
#    0.000    0.000    0.000    0.000    0.000    0.000 
#
# Total GULP energy -89267.254040 kJ/mol
# GULP energy per Si atom -5579.203378 kJ/mol
# Density = 2.454680 g / cm^3
# Si number density = 24.602797 Si / 1000 Ang^3
#
#
#
# Elastic Constant Matrix: (Units=GPa)
#
#
# Indices 1 2 3 4 5 6 
#
# 1 147.2778 16.5579 6.0322 0.0000 -16.5850 0.0000
# 2 16.5579 59.7703 8.1579 0.0000 2.5496 0.0000
# 3 6.0322 8.1579 77.1288 0.0000 -18.2195 0.0000
# 4 0.0000 0.0000 0.0000 19.0171 0.0000 -4.4005
# 5 -16.5850 2.5496 -18.2195 0.0000 47.7673 0.0000
# 6 0.0000 0.0000 0.0000 -4.4005 0.0000 36.2047
#
#
#
# Elastic Compliance Matrix: (Units=1/GPa)
#
#
# Indices 1 2 3 4 5 6 
#
# 1 0.007337 -0.002195 0.000316 0.000000 0.002785 0.000000
# 2 -0.002195 0.017766 -0.002321 0.000000 -0.002595 0.000000
# 3 0.000316 -0.002321 0.014552 0.000000 0.005784 0.000000
# 4 0.000000 0.000000 0.000000 0.054106 0.000000 0.006576
# 5 0.002785 -0.002595 0.005784 0.000000 0.024247 0.000000
# 6 0.000000 0.000000 0.000000 0.006576 0.000000 0.028420
#
#
# Mechanical properties :
#
#
# Convention : Reuss Voigt Hill
#
# Bulk Modulus (GPa) = 31.99185 38.40810 35.19997
# Shear Modulus (GPa) = 30.25798 37.49310 33.87554
#
# Velocity S-wave (km/s) = 3.51074 3.90800 3.71468
# Velocity P-wave (km/s) = 5.42819 6.00070 5.72161
#
# Compressibility (1/GPa) = 0.03125796
#
# Stress axis : x y z
#
# Youngs Moduli (GPa) = 136.28959 56.28690 68.71715
#
# Poissons Ratio (x) = 0.12353 -0.02173
# Poissons Ratio (y) = 0.29910 0.15946
# Poissons Ratio (z) = -0.04310 0.13062
#
# Static dielectric constant tensor:
#      x y z
#    x 1.981380 0.000000 -0.021500 
#    y 0.000000 2.010620 0.000000 
#    z -0.021500 0.000000 2.017490 
# 
# From -- ./inp_files/32555.got.cif
#   From: 2010.05.17/outbox.cif.g08.bks.cpg/sg9_17_cif.got.tgz:32555.got - 2010.06.03 20:04:27.
