data_PCOD9137051
_publ_section_title
;
Structure prediction by ZEFSAII (Michael W. Deem and Ramdas Pophale) SiO2 
 PCOD9137051
Probable space group: C C
;
_chemical_formula_sum "Si O2"
_cell_formula_units_Z 32
_cell_length_a 10.817244
_cell_length_b 28.107885
_cell_length_c 7.356052
_cell_angle_alpha 90.000000
_cell_angle_beta 47.153814
_cell_angle_gamma 90.000000
_cell_volume 1639.839478
_symmetry_space_group_name_H-M "C C"
_symmetry_group_IT_number 9
_symmetry_cell_setting 'monoclinic'
loop_
_space_group_symop_operation_xyz
x,y,z
x,-y,1/2+z
1/2+x,1/2+y,z
1/2+x,1/2-y,1/2+z
loop_
_atom_site_type_symbol
_atom_site_label
_atom_site_fract_x
_atom_site_fract_y
_atom_site_fract_z
Si Si1 0.840440 0.695620 0.221340
Si Si2 0.242773 0.304376 0.319005
Si Si3 0.232674 0.873810 0.539858
Si Si4 0.041606 0.438248 0.261841
Si Si5 0.233989 0.114645 0.605868
Si Si6 0.041607 0.549375 0.331962
Si Si7 0.350531 0.626195 0.421999
Si Si8 0.349219 0.385351 0.490636
O O1 0.791601 0.749998 0.301987
O O2 0.766676 0.676066 0.104883
O O3 0.769263 0.660537 0.447262
O O4 0.041607 0.691201 0.016903
O O5 0.313957 0.339458 0.402565
O O6 0.316542 0.323928 0.055015
O O7 0.372920 0.909505 0.480086
O O8 0.250455 0.872004 0.303631
O O9 0.041600 0.889406 0.770873
O O10 0.041619 0.492764 0.319211
O O11 0.041607 0.439160 0.044299
O O12 0.210278 0.409498 0.142727
O O13 0.373858 0.074581 0.423023
O O14 0.041602 0.098208 0.769208
O O15 0.209343 0.574587 0.087535
O O16 0.332751 0.628000 0.221332
#
# Coordination Sequence:
#
# PCOD9137051 Si02
#       8
#     4   4   4   4   4   4   4   4
#     4  12  24  40  66  95 127 168 213 263 320 376
#     4  12  24  40  66  95 127 168 213 263 320 376
#     4  10  22  42  63  88 128 167 208 265 313 377
#     4  10  22  38  62  92 124 170 214 257 323 373
#     4  10  22  42  63  88 128 167 208 265 313 377
#     4  10  22  38  62  92 124 170 214 257 323 373
#     4  10  22  42  63  88 128 167 208 265 313 377
#     4  10  22  42  63  88 128 167 208 265 313 377
#
# _framework density 19.514106000000002
#
# number of rings (size 3 to 8) (size 9 to 14) (size 15 to 20)
#    0.000    1.500    2.500    2.250    3.500    2.000 
#    0.000    0.000    0.000    0.000    0.000    0.000 
#    0.000    0.000    0.000    0.000    0.000    0.000 
#
# Total GULP energy -89363.927862 kJ/mol
# GULP energy per Si atom -5585.245491 kJ/mol
# Density = 1.946969 g / cm^3
# Si number density = 19.514106 Si / 1000 Ang^3
#
#
#
# Elastic Constant Matrix: (Units=GPa)
#
#
# Indices 1 2 3 4 5 6 
#
# 1 74.3573 14.8345 41.6925 0.0000 -26.6503 0.0000
# 2 14.8345 96.2245 21.5115 0.0000 -21.7436 0.0000
# 3 41.6925 21.5115 92.7106 0.0000 -33.1121 0.0000
# 4 0.0000 0.0000 0.0000 28.9443 0.0000 2.0966
# 5 -26.6503 -21.7436 -33.1121 0.0000 41.4634 0.0000
# 6 0.0000 0.0000 0.0000 2.0966 0.0000 29.5882
#
#
#
# Elastic Compliance Matrix: (Units=1/GPa)
#
#
# Indices 1 2 3 4 5 6 
#
# 1 0.019631 0.000097 -0.006052 0.000000 0.007835 0.000000
# 2 0.000097 0.011826 -0.000770 0.000000 0.005649 0.000000
# 3 -0.006052 -0.000770 0.017003 0.000000 0.009284 0.000000
# 4 0.000000 0.000000 0.000000 0.034727 0.000000 -0.002461
# 5 0.007835 0.005649 0.009284 0.000000 0.039530 0.000000
# 6 0.000000 0.000000 0.000000 -0.002461 0.000000 0.033972
#
#
# Mechanical properties :
#
#
# Convention : Reuss Voigt Hill
#
# Bulk Modulus (GPa) = 28.56387 46.59659 37.58023
# Shear Modulus (GPa) = 27.50137 32.34944 29.92541
#
# Velocity S-wave (km/s) = 3.75815 4.07596 3.92028
# Velocity P-wave (km/s) = 5.78799 6.78834 6.30803
#
# Compressibility (1/GPa) = 0.03500927
#
# Stress axis : x y z
#
# Youngs Moduli (GPa) = 50.93986 84.55904 58.81473
#
# Poissons Ratio (x) = -0.00821 0.35596
# Poissons Ratio (y) = -0.00495 0.04529
# Poissons Ratio (z) = 0.30830 0.06511
#
# Static dielectric constant tensor:
#      x y z
#    x 1.705750 0.000000 0.000890 
#    y 0.000000 1.645910 0.000000 
#    z 0.000890 0.000000 1.705490 
# 
# From -- ./inp_files/8516.got.cif
#   From: 2010.05.17/outbox.cif.g08.bks.cpg/sg9_5_cif.got.tgz:8516.got - 2010.06.03 20:04:27.
