data_PCOD9137195
_publ_section_title
;
Structure prediction by ZEFSAII (Michael W. Deem and Ramdas Pophale) SiO2 
 PCOD9137195
Probable space group: C C
;
_chemical_formula_sum "Si O2"
_cell_formula_units_Z 32
_cell_length_a 19.935642
_cell_length_b 13.438568
_cell_length_c 8.924150
_cell_angle_alpha 90.000000
_cell_angle_beta 141.619646
_cell_angle_gamma 90.000000
_cell_volume 1484.420930
_symmetry_space_group_name_H-M "C C"
_symmetry_group_IT_number 9
_symmetry_cell_setting 'monoclinic'
loop_
_space_group_symop_operation_xyz
x,y,z
x,-y,1/2+z
1/2+x,1/2+y,z
1/2+x,1/2-y,1/2+z
loop_
_atom_site_type_symbol
_atom_site_label
_atom_site_fract_x
_atom_site_fract_y
_atom_site_fract_z
Si Si1 0.379310 0.190145 0.953550
Si Si2 0.492908 0.508534 0.291367
Si Si3 0.178444 0.091124 0.281227
Si Si4 0.514162 0.905976 0.908833
Si Si5 0.866482 0.902476 0.813682
Si Si6 0.115695 0.411932 0.405697
Si Si7 0.809767 0.528288 0.229223
Si Si8 0.142967 0.200540 0.509199
O O1 0.390515 0.284747 0.865295
O O2 0.255599 0.204116 0.798263
O O3 0.364938 0.078749 0.863239
O O4 0.483713 0.184299 0.244091
O O5 0.562674 0.428668 0.506274
O O6 0.387693 0.549140 0.191215
O O7 0.570421 0.605060 0.415109
O O8 0.451598 0.457647 0.069501
O O9 0.266062 0.083860 0.300277
O O10 0.176910 0.183938 0.392411
O O11 0.210361 0.000018 0.447665
O O12 0.398661 0.917420 0.788234
O O13 0.551705 0.999034 0.872801
O O14 0.593303 0.903148 0.188852
O O15 0.744187 0.921478 0.650909
O O16 0.083933 0.305269 0.420173
#
# Coordination Sequence:
#
# PCOD9137195 Si02
#       8
#     4   4   4   4   4   4   4   4
#     4  10  22  40  63  95 128 158 214 274 322 384
#     4  12  21  41  67  90 127 175 213 263 328 382
#     4  11  19  37  64  95 128 155 208 269 324 375
#     4  12  22  42  69  94 128 175 211 267 329 391
#     4  11  26  42  64  90 135 173 218 265 319 390
#     4  11  26  44  64  93 136 172 223 261 323 391
#     4  11  19  37  64  96 126 157 204 270 331 364
#     4  10  23  41  65  97 130 165 217 273 324 385
#
# _framework density 21.557227999999999
#
# number of rings (size 3 to 8) (size 9 to 14) (size 15 to 20)
#    0.000    1.000    6.250    0.750    3.500    0.000 
#    2.250    0.000    8.250    0.000    0.000    0.000 
#    0.000    0.000    0.000    0.000    0.000    0.000 
#
# Total GULP energy -89191.035380 kJ/mol
# GULP energy per Si atom -5574.439711 kJ/mol
# Density = 2.150816 g / cm^3
# Si number density = 21.557228 Si / 1000 Ang^3
#
#
#
# Elastic Constant Matrix: (Units=GPa)
#
#
# Indices 1 2 3 4 5 6 
#
# 1 70.8273 14.0787 -5.4204 0.0000 4.5834 0.0000
# 2 14.0787 71.1060 15.1394 0.0000 3.7017 0.0000
# 3 -5.4204 15.1394 106.9514 0.0000 0.2193 0.0000
# 4 0.0000 0.0000 0.0000 18.4948 0.0000 2.6524
# 5 4.5834 3.7017 0.2193 0.0000 24.7423 0.0000
# 6 0.0000 0.0000 0.0000 2.6524 0.0000 20.6898
#
#
#
# Elastic Compliance Matrix: (Units=1/GPa)
#
#
# Indices 1 2 3 4 5 6 
#
# 1 0.014977 -0.003101 0.001203 0.000000 -0.002321 0.000000
# 2 -0.003101 0.015258 -0.002313 0.000000 -0.001688 0.000000
# 3 0.001203 -0.002313 0.009738 0.000000 0.000037 0.000000
# 4 0.000000 0.000000 0.000000 0.055082 0.000000 -0.007061
# 5 -0.002321 -0.001688 0.000037 0.000000 0.041099 0.000000
# 6 0.000000 0.000000 0.000000 -0.007061 0.000000 0.049238
#
#
# Mechanical properties :
#
#
# Convention : Reuss Voigt Hill
#
# Bulk Modulus (GPa) = 31.69491 32.94224 32.31857
# Shear Modulus (GPa) = 24.46992 27.79120 26.13056
#
# Velocity S-wave (km/s) = 3.37280 3.59441 3.48537
# Velocity P-wave (km/s) = 5.46830 5.70446 5.58763
#
# Compressibility (1/GPa) = 0.03155081
#
# Stress axis : x y z
#
# Youngs Moduli (GPa) = 66.76705 65.53992 102.68624
#
# Poissons Ratio (x) = 0.20322 -0.12351
# Poissons Ratio (y) = 0.20703 0.23756
# Poissons Ratio (z) = -0.08030 0.15163
#
# Static dielectric constant tensor:
#      x y z
#    x 1.806580 0.000000 -0.003670 
#    y 0.000000 1.774940 0.000000 
#    z -0.003670 0.000000 1.835280 
# 
# From -- ./inp_files/11703.got.cif
#   From: 2010.05.17/outbox.cif.g08.bks.cpg/sg9_6_cif.got.tgz:11703.got - 2010.06.03 20:04:27.
