data_PCOD9137001
_publ_section_title
;
Structure prediction by ZEFSAII (Michael W. Deem and Ramdas Pophale) SiO2 
 PCOD9137001
Probable space group: C C
;
_chemical_formula_sum "Si O2"
_cell_formula_units_Z 28
_cell_length_a 5.510382
_cell_length_b 22.510704
_cell_length_c 10.242823
_cell_angle_alpha 90.000000
_cell_angle_beta 59.697331
_cell_angle_gamma 90.000000
_cell_volume 1096.954050
_symmetry_space_group_name_H-M "C C"
_symmetry_group_IT_number 9
_symmetry_cell_setting 'monoclinic'
loop_
_space_group_symop_operation_xyz
x,y,z
x,-y,1/2+z
1/2+x,1/2+y,z
1/2+x,1/2-y,1/2+z
loop_
_atom_site_type_symbol
_atom_site_label
_atom_site_fract_x
_atom_site_fract_y
_atom_site_fract_z
Si Si1 0.261200 0.337031 0.046770
Si Si2 0.729816 0.364949 0.084602
Si Si3 0.540840 0.741063 0.275900
Si Si4 0.679951 0.223240 0.127029
Si Si5 0.436360 0.517468 0.117528
Si Si6 0.374460 0.614277 0.931211
Si Si7 0.577972 0.998992 0.471344
O O1 0.528450 0.374777 0.017567
O O2 0.096546 0.309833 0.218334
O O3 0.060014 0.374336 0.006819
O O4 0.359802 0.275683 0.951359
O O5 0.718758 0.292756 0.092206
O O6 0.589465 0.388480 0.254362
O O7 0.354363 0.712267 0.211509
O O8 0.845996 0.712931 0.221613
O O9 0.804652 0.181805 0.981320
O O10 0.477249 0.581013 0.034365
O O11 0.219764 0.487473 0.073099
O O12 0.746609 0.488430 0.046966
O O13 0.274793 0.519709 0.298512
O O14 0.111422 0.573519 0.960939
#
# Coordination Sequence:
#
# PCOD9137001 Si02
#       7
#     4   4   4   4   4   4   4
#     4  10  22  36  58  83 121 173 230 274 317 368
#     4  10  23  36  62  88 132 176 224 258 321 388
#     4  10  22  36  58  83 121 173 230 274 317 368
#     4  10  23  36  62  88 132 176 224 258 321 388
#     4  10  23  45  78 107 138 175 228 295 362 419
#     4  10  26  40  74  96 142 178 226 268 358 394
#     4  10  23  45  78 107 138 175 228 295 362 419
#
# _framework density 25.525224000000001
#
# number of rings (size 3 to 8) (size 9 to 14) (size 15 to 20)
#    0.857    1.143    0.000    1.714   20.000    0.000 
#    0.000    4.286    0.000    0.000    0.000    0.000 
#    0.000    0.000    0.000    0.000    0.000    0.000 
#
# Total GULP energy -78215.981837 kJ/mol
# GULP energy per Si atom -5586.855846 kJ/mol
# Density = 2.546713 g / cm^3
# Si number density = 25.525224 Si / 1000 Ang^3
#
#
#
# Elastic Constant Matrix: (Units=GPa)
#
#
# Indices 1 2 3 4 5 6 
#
# 1 231.5699 6.9769 53.9355 0.0000 -25.3267 0.0000
# 2 6.9769 59.7442 -1.0414 0.0000 0.1372 0.0000
# 3 53.9355 -1.0414 89.6128 0.0000 0.0837 0.0000
# 4 0.0000 0.0000 0.0000 44.8063 0.0000 2.9986
# 5 -25.3267 0.1372 0.0837 0.0000 39.0673 0.0000
# 6 0.0000 0.0000 0.0000 2.9986 0.0000 31.9024
#
#
#
# Elastic Compliance Matrix: (Units=1/GPa)
#
#
# Indices 1 2 3 4 5 6 
#
# 1 0.005506 -0.000709 -0.003325 0.000000 0.003579 0.000000
# 2 -0.000709 0.016833 0.000623 0.000000 -0.000520 0.000000
# 3 -0.003325 0.000623 0.013170 0.000000 -0.002186 0.000000
# 4 0.000000 0.000000 0.000000 0.022460 0.000000 -0.002111
# 5 0.003579 -0.000520 -0.002186 0.000000 0.027923 0.000000
# 6 0.000000 0.000000 0.000000 -0.002111 0.000000 0.031544
#
#
# Mechanical properties :
#
#
# Convention : Reuss Voigt Hill
#
# Bulk Modulus (GPa) = 34.86105 55.62989 45.24547
# Shear Modulus (GPa) = 37.36359 44.55892 40.96125
#
# Velocity S-wave (km/s) = 3.83010 4.18267 4.01026
# Velocity P-wave (km/s) = 5.76600 6.72069 6.26157
#
# Compressibility (1/GPa) = 0.02868531
#
# Stress axis : x y z
#
# Youngs Moduli (GPa) = 181.63227 59.40755 75.93134
#
# Poissons Ratio (x) = 0.04213 0.25249
# Poissons Ratio (y) = 0.12880 -0.04730
# Poissons Ratio (z) = 0.60398 -0.03700
#
# Static dielectric constant tensor:
#      x y z
#    x 2.120080 0.000000 -0.012950 
#    y 0.000000 2.111550 0.000000 
#    z -0.012950 0.000000 1.958130 
# 
# From -- ./inp_files/13849.got.cif
#   From: 2010.05.17/outbox.cif.g08.bks.cpg/sg9_7_cif.got.tgz:13849.got - 2010.06.03 20:04:27.
