data_PCOD9137178
_publ_section_title
;
Structure prediction by ZEFSAII (Michael W. Deem and Ramdas Pophale) SiO2 
 PCOD9137178
Probable space group: C C
;
_chemical_formula_sum "Si O2"
_cell_formula_units_Z 28
_cell_length_a 4.996231
_cell_length_b 13.932801
_cell_length_c 18.608983
_cell_angle_alpha 90.000000
_cell_angle_beta 118.156015
_cell_angle_gamma 90.000000
_cell_volume 1142.109272
_symmetry_space_group_name_H-M "C C"
_symmetry_group_IT_number 9
_symmetry_cell_setting 'monoclinic'
loop_
_space_group_symop_operation_xyz
x,y,z
x,-y,1/2+z
1/2+x,1/2+y,z
1/2+x,1/2-y,1/2+z
loop_
_atom_site_type_symbol
_atom_site_label
_atom_site_fract_x
_atom_site_fract_y
_atom_site_fract_z
Si Si1 0.769600 0.690745 0.021670
Si Si2 0.553738 0.176208 0.384332
Si Si3 0.886831 0.914072 0.565626
Si Si4 0.196171 0.609959 0.598426
Si Si5 0.994553 0.975034 0.271011
Si Si6 0.132902 0.938565 0.932762
Si Si7 0.931328 0.597142 0.232987
O O1 0.480487 0.621377 0.999107
O O2 0.088352 0.635572 0.059249
O O3 0.756659 0.786652 0.070398
O O4 0.725192 0.734678 0.937533
O O5 0.276435 0.145226 0.399601
O O6 0.461098 0.185103 0.290768
O O7 0.797214 0.089543 0.413976
O O8 0.877577 0.025982 0.580299
O O9 0.188990 0.878186 0.643165
O O10 0.308809 0.600113 0.695860
O O11 0.857834 0.573595 0.530269
O O12 0.747708 0.061924 0.241719
O O13 0.105321 0.975260 0.369164
O O14 0.282883 0.010640 0.261265
#
# Coordination Sequence:
#
# PCOD9137178 Si02
#       7
#     4   4   4   4   4   4   4
#     4  11  23  38  59  89 117 151 199 240 290 358
#     4   9  18  35  57  81 114 153 190 237 290 341
#     4  11  23  38  59  89 117 151 199 240 290 358
#     4  10  22  40  62  84 122 160 190 248 302 334
#     4   9  18  33  57  85 112 152 198 234 288 353
#     4   9  18  33  57  85 112 152 198 234 288 353
#     4   9  18  35  57  81 114 153 190 237 290 341
#
# _framework density 24.516043
#
# number of rings (size 3 to 8) (size 9 to 14) (size 15 to 20)
#    0.000    2.286    0.000    3.429    0.000   10.286 
#    0.000    2.857    0.000    0.000    0.000    2.000 
#    0.000    0.000    0.000    0.000    0.000    0.000 
#
# Total GULP energy -78001.710123 kJ/mol
# GULP energy per Si atom -5571.550723 kJ/mol
# Density = 2.446024 g / cm^3
# Si number density = 24.516043 Si / 1000 Ang^3
#
#
#
# Elastic Constant Matrix: (Units=GPa)
#
#
# Indices 1 2 3 4 5 6 
#
# 1 105.6614 21.0459 15.0520 0.0000 14.2006 0.0000
# 2 21.0459 100.0962 22.8895 0.0000 -1.3913 0.0000
# 3 15.0520 22.8895 60.3856 0.0000 10.5721 0.0000
# 4 0.0000 0.0000 0.0000 17.5336 0.0000 -8.1055
# 5 14.2006 -1.3913 10.5721 0.0000 33.3098 0.0000
# 6 0.0000 0.0000 0.0000 -8.1055 0.0000 20.7959
#
#
#
# Elastic Compliance Matrix: (Units=1/GPa)
#
#
# Indices 1 2 3 4 5 6 
#
# 1 0.010600 -0.002029 -0.001130 0.000000 -0.004245 0.000000
# 2 -0.002029 0.011439 -0.004304 0.000000 0.002709 0.000000
# 3 -0.001130 -0.004304 0.019504 0.000000 -0.005889 0.000000
# 4 0.000000 0.000000 0.000000 0.069568 0.000000 0.027115
# 5 -0.004245 0.002709 -0.005889 0.000000 0.033813 0.000000
# 6 0.000000 0.000000 0.000000 0.027115 0.000000 0.058655
#
#
# Mechanical properties :
#
#
# Convention : Reuss Voigt Hill
#
# Bulk Modulus (GPa) = 37.57104 42.67978 40.12541
# Shear Modulus (GPa) = 21.98975 28.13825 25.06400
#
# Velocity S-wave (km/s) = 2.99817 3.39152 3.20089
# Velocity P-wave (km/s) = 5.22912 5.72567 5.48302
#
# Compressibility (1/GPa) = 0.02661624
#
# Stress axis : x y z
#
# Youngs Moduli (GPa) = 94.34075 87.41975 51.27038
#
# Poissons Ratio (x) = 0.17741 0.05792
# Poissons Ratio (y) = 0.19145 0.22069
# Poissons Ratio (z) = 0.10658 0.37630
#
# Static dielectric constant tensor:
#      x y z
#    x 1.909790 0.000000 -0.024820 
#    y 0.000000 2.005100 0.000000 
#    z -0.024820 0.000000 2.124370 
# 
# From -- ./inp_files/28507.got.cif
#   From: 2010.05.17/outbox.cif.g08.bks.cpg/sg9_15_cif.got.tgz:28507.got - 2010.06.03 20:04:27.
