data_PCOD9137860
_publ_section_title
;
Structure prediction by ZEFSAII (Michael W. Deem and Ramdas Pophale) SiO2 
 PCOD9137860
Probable space group: C C
;
_chemical_formula_sum "Si O2"
_cell_formula_units_Z 32
_cell_length_a 21.490969
_cell_length_b 4.836728
_cell_length_c 13.672547
_cell_angle_alpha 90.000000
_cell_angle_beta 61.348551
_cell_angle_gamma 90.000000
_cell_volume 1247.183432
_symmetry_space_group_name_H-M "C C"
_symmetry_group_IT_number 9
_symmetry_cell_setting 'monoclinic'
loop_
_space_group_symop_operation_xyz
x,y,z
x,-y,1/2+z
1/2+x,1/2+y,z
1/2+x,1/2-y,1/2+z
loop_
_atom_site_type_symbol
_atom_site_label
_atom_site_fract_x
_atom_site_fract_y
_atom_site_fract_z
Si Si1 0.560630 0.437334 0.171760
Si Si2 0.308680 0.782300 0.964716
Si Si3 0.573870 0.935038 0.295408
Si Si4 0.337948 0.582032 0.115580
Si Si5 0.924651 0.392641 0.453719
Si Si6 0.694973 0.338178 0.454559
Si Si7 0.905103 0.109739 0.262303
Si Si8 0.208542 0.332819 0.320549
O O1 0.561643 0.622359 0.269059
O O2 0.482509 0.476358 0.185997
O O3 0.574327 0.129421 0.199719
O O4 0.622662 0.563765 0.059192
O O5 0.260931 0.028839 0.963922
O O6 0.354683 0.618533 0.852169
O O7 0.364510 0.873022 0.013015
O O8 0.275396 0.589387 0.071013
O O9 0.503044 0.001798 0.410784
O O10 0.644232 0.941432 0.304264
O O11 0.372119 0.733376 0.188922
O O12 0.284876 0.383537 0.220449
O O13 0.400362 0.373697 0.029377
O O14 0.916162 0.328386 0.343350
O O15 0.698737 0.510310 0.350686
O O16 0.702766 0.015707 0.425222
#
# Coordination Sequence:
#
# PCOD9137860 Si02
#       8
#     4   4   4   4   4   4   4   4
#     4  11  24  45  71  98 139 190 227 297 356 424
#     4  11  23  43  70  97 140 182 237 291 356 422
#     4  11  24  46  70 100 142 181 239 290 360 424
#     4  11  25  41  70 104 136 190 237 295 355 426
#     4  10  24  41  71  99 139 185 234 297 354 423
#     4  12  27  44  72 102 143 188 238 291 363 426
#     4  10  22  45  65 100 140 178 237 290 357 419
#     4  12  27  45  69 104 145 184 237 299 351 434
#
# _framework density 25.657813000000001
#
# number of rings (size 3 to 8) (size 9 to 14) (size 15 to 20)
#    0.000    1.000    2.500    3.000    7.000    2.000 
#    0.000    0.000    0.000    0.000    0.000    0.000 
#    0.000    0.000    0.000    0.000    0.000    0.000 
#
# Total GULP energy -89386.366579 kJ/mol
# GULP energy per Si atom -5586.647911 kJ/mol
# Density = 2.559941 g / cm^3
# Si number density = 25.657813 Si / 1000 Ang^3
#
#
#
# Elastic Constant Matrix: (Units=GPa)
#
#
# Indices 1 2 3 4 5 6 
#
# 1 128.4945 7.4034 39.2023 0.0044 11.8184 -0.0132
# 2 7.4034 91.7153 3.4639 0.0161 8.1046 -0.0094
# 3 39.2023 3.4639 91.4359 -0.0046 3.0039 -0.0037
# 4 0.0044 0.0161 -0.0046 20.0490 0.0027 1.6981
# 5 11.8184 8.1046 3.0039 0.0027 47.1435 0.0030
# 6 -0.0132 -0.0094 -0.0037 1.6981 0.0030 29.2725
#
#
#
# Elastic Compliance Matrix: (Units=1/GPa)
#
#
# Indices 1 2 3 4 5 6 
#
# 1 0.009162 -0.000419 -0.003847 -0.000003 -0.001980 0.000004
# 2 -0.000419 0.011102 -0.000182 -0.000009 -0.001792 0.000004
# 3 -0.003847 -0.000182 0.012587 0.000004 0.000194 0.000000
# 4 -0.000003 -0.000009 0.000004 0.050124 -0.000001 -0.002908
# 5 -0.001980 -0.001792 0.000194 -0.000001 0.022004 -0.000004
# 6 0.000004 0.000004 0.000000 -0.002908 -0.000004 0.034330
#
#
# Mechanical properties :
#
#
# Convention : Reuss Voigt Hill
#
# Bulk Modulus (GPa) = 41.74639 45.75387 43.75013
# Shear Modulus (GPa) = 32.01186 36.73139 34.37162
#
# Velocity S-wave (km/s) = 3.53603 3.78774 3.66405
# Velocity P-wave (km/s) = 5.74257 6.08279 5.91513
#
# Compressibility (1/GPa) = 0.02395417
#
# Stress axis : x y z
#
# Youngs Moduli (GPa) = 109.14070 90.07076 79.44897
#
# Poissons Ratio (x) = 0.03777 0.30567
# Poissons Ratio (y) = 0.04577 0.01445
# Poissons Ratio (z) = 0.41991 0.01639
#
# Static dielectric constant tensor:
#      x y z
#    x 2.194700 -0.000010 -0.005520 
#    y -0.000010 2.052300 0.000000 
#    z -0.005520 0.000000 2.034270 
# 
# From -- ./inp_files/19783.got.cif
#   From: 2010.05.17/outbox.cif.g08.bks.cpg/sg9_10_cif.got.tgz:19783.got - 2010.06.03 20:04:27.
