data_PCOD9137907
_publ_section_title
;
Structure prediction by ZEFSAII (Michael W. Deem and Ramdas Pophale) SiO2 
 PCOD9137907
Probable space group: C C
;
_chemical_formula_sum "Si O2"
_cell_formula_units_Z 28
_cell_length_a 9.322817
_cell_length_b 16.115583
_cell_length_c 6.725745
_cell_angle_alpha 90.000000
_cell_angle_beta 88.941135
_cell_angle_gamma 90.000000
_cell_volume 1010.321070
_symmetry_space_group_name_H-M "C C"
_symmetry_group_IT_number 9
_symmetry_cell_setting 'monoclinic'
loop_
_space_group_symop_operation_xyz
x,y,z
x,-y,1/2+z
1/2+x,1/2+y,z
1/2+x,1/2-y,1/2+z
loop_
_atom_site_type_symbol
_atom_site_label
_atom_site_fract_x
_atom_site_fract_y
_atom_site_fract_z
Si Si1 0.188230 0.706124 0.736770
Si Si2 0.452575 0.008552 0.795675
Si Si3 0.795021 0.033785 0.816502
Si Si4 0.944806 0.367139 0.975159
Si Si5 0.515591 0.504225 0.556905
Si Si6 0.232306 0.857742 0.477860
Si Si7 0.141627 0.187504 0.573339
O O1 0.295558 0.634787 0.805757
O O2 0.263003 0.782494 0.624732
O O3 0.085638 0.665290 0.573468
O O4 0.091695 0.742812 0.920281
O O5 0.624224 0.018894 0.819153
O O6 0.427002 0.035258 0.551000
O O7 0.351902 0.089335 0.857733
O O8 0.439416 0.906439 0.758394
O O9 0.827251 0.998585 0.563857
O O10 0.976250 0.013007 0.809079
O O11 0.812329 0.310156 0.023863
O O12 0.628905 0.428206 0.573692
O O13 0.582454 0.596463 0.525394
O O14 0.137365 0.809269 0.309161
#
# Coordination Sequence:
#
# PCOD9137907 Si02
#       7
#     4   4   4   4   4   4   4
#     4  11  27  47  70 111 158 186 246 319 385 441
#     4  10  22  45  70 103 140 191 255 292 362 456
#     4  11  25  44  69 111 148 191 244 314 381 435
#     4  10  23  44  72 108 138 195 248 301 376 440
#     4  12  23  46  75 106 143 195 259 303 367 449
#     4  11  25  48  79 107 141 205 256 303 376 450
#     4  11  25  46  75 108 144 195 252 310 363 457
#
# _framework density 27.713961999999999
#
# number of rings (size 3 to 8) (size 9 to 14) (size 15 to 20)
#    0.000    1.143    2.857    2.571    4.000    3.429 
#   10.286    0.000    0.000    0.000    0.000    0.000 
#    0.000    0.000    0.000    0.000    0.000    0.000 
#
# Total GULP energy -78075.909320 kJ/mol
# GULP energy per Si atom -5576.850666 kJ/mol
# Density = 2.765088 g / cm^3
# Si number density = 27.713962 Si / 1000 Ang^3
#
#
#
# Elastic Constant Matrix: (Units=GPa)
#
#
# Indices 1 2 3 4 5 6 
#
# 1 101.9933 38.5709 23.2601 0.0000 -17.6237 0.0000
# 2 38.5709 197.6403 78.6427 0.0000 -5.9429 0.0000
# 3 23.2601 78.6427 177.3772 0.0000 -14.0631 0.0000
# 4 0.0000 0.0000 0.0000 56.9264 0.0000 -1.5041
# 5 -17.6237 -5.9429 -14.0631 0.0000 55.3117 0.0000
# 6 0.0000 0.0000 0.0000 -1.5041 0.0000 34.9412
#
#
#
# Elastic Compliance Matrix: (Units=1/GPa)
#
#
# Indices 1 2 3 4 5 6 
#
# 1 0.011184 -0.001947 -0.000344 0.000000 0.003267 0.000000
# 2 -0.001947 0.006483 -0.002667 0.000000 -0.000602 0.000000
# 3 -0.000344 -0.002667 0.006974 0.000000 0.001377 0.000000
# 4 0.000000 0.000000 0.000000 0.017587 0.000000 0.000757
# 5 0.003267 -0.000602 0.001377 0.000000 0.019406 0.000000
# 6 0.000000 0.000000 0.000000 0.000757 0.000000 0.028652
#
#
# Mechanical properties :
#
#
# Convention : Reuss Voigt Hill
#
# Bulk Modulus (GPa) = 67.91343 84.21756 76.06549
# Shear Modulus (GPa) = 47.56930 51.87167 49.72049
#
# Velocity S-wave (km/s) = 4.14749 4.33099 4.24023
# Velocity P-wave (km/s) = 6.89158 7.44742 7.17488
#
# Compressibility (1/GPa) = 0.01472463
#
# Stress axis : x y z
#
# Youngs Moduli (GPa) = 89.41340 154.25679 143.38442
#
# Poissons Ratio (x) = 0.30041 0.04935
# Poissons Ratio (y) = 0.17413 0.38234
# Poissons Ratio (z) = 0.03077 0.41133
#
# Static dielectric constant tensor:
#      x y z
#    x 2.124850 0.000000 -0.072230 
#    y 0.000000 2.264410 0.000000 
#    z -0.072230 0.000000 2.726020 
# 
# From -- ./inp_files/5374.got.cif
#   From: 2010.05.17/outbox.cif.g08.bks.cpg/sg9_3_cif.got.tgz:5374.got - 2010.06.03 20:04:27.
