data_PCOD9137317
_publ_section_title
;
Structure prediction by ZEFSAII (Michael W. Deem and Ramdas Pophale) SiO2 
 PCOD9137317
Probable space group: C C
;
_chemical_formula_sum "Si O2"
_cell_formula_units_Z 28
_cell_length_a 18.777525
_cell_length_b 5.109053
_cell_length_c 14.177962
_cell_angle_alpha 90.000000
_cell_angle_beta 87.454196
_cell_angle_gamma 90.000000
_cell_volume 1358.825594
_symmetry_space_group_name_H-M "C C"
_symmetry_group_IT_number 9
_symmetry_cell_setting 'monoclinic'
loop_
_space_group_symop_operation_xyz
x,y,z
x,-y,1/2+z
1/2+x,1/2+y,z
1/2+x,1/2-y,1/2+z
loop_
_atom_site_type_symbol
_atom_site_label
_atom_site_fract_x
_atom_site_fract_y
_atom_site_fract_z
Si Si1 0.136630 0.664067 0.875000
Si Si2 0.341843 0.368976 0.904640
Si Si3 0.782855 0.624152 0.309148
Si Si4 0.057831 0.644260 0.234390
Si Si5 0.274301 0.758335 0.604957
Si Si6 0.496442 0.354181 0.812163
Si Si7 0.179966 0.727335 0.083024
O O1 0.198814 0.809861 0.814393
O O2 0.112876 0.408377 0.818254
O O3 0.063311 0.827425 0.879562
O O4 0.165251 0.630267 0.977869
O O5 0.319699 0.662286 0.875640
O O6 0.422787 0.317470 0.869358
O O7 0.295183 0.164620 0.847099
O O8 0.325719 0.304622 0.014351
O O9 0.810124 0.658768 0.201034
O O10 0.015777 0.369516 0.234295
O O11 0.106166 0.725570 0.144163
O O12 0.002331 0.866156 0.264099
O O13 0.230979 0.490961 0.625340
O O14 0.219720 0.993373 0.581104
#
# Coordination Sequence:
#
# PCOD9137317 Si02
#       7
#     4   4   4   4   4   4   4
#     4  10  23  39  68  94 125 170 215 268 318 377
#     4  12  25  46  63  99 135 174 213 271 335 394
#     4  12  24  42  72  93 131 172 224 270 328 383
#     4  10  22  41  64  90 133 163 221 257 326 377
#     4  12  24  40  67 101 129 166 219 273 324 393
#     4  10  24  44  63  89 139 169 210 269 324 395
#     4  12  22  38  69 100 126 162 222 276 319 377
#
# _framework density 20.606031999999999
#
# number of rings (size 3 to 8) (size 9 to 14) (size 15 to 20)
#    0.857    0.000    4.286    3.429    4.000    0.000 
#    5.143    0.000    0.000    0.000    0.000    0.000 
#    0.000    0.000    0.000    0.000    0.000    0.000 
#
# Total GULP energy -78168.605219 kJ/mol
# GULP energy per Si atom -5583.471801 kJ/mol
# Density = 2.055913 g / cm^3
# Si number density = 20.606032 Si / 1000 Ang^3
#
#
#
# Elastic Constant Matrix: (Units=GPa)
#
#
# Indices 1 2 3 4 5 6 
#
# 1 64.3230 4.2813 13.0718 0.0000 -36.5992 0.0000
# 2 4.2813 78.3303 -7.4076 0.0000 -9.3921 0.0000
# 3 13.0718 -7.4076 116.5061 0.0000 -16.3913 0.0000
# 4 0.0000 0.0000 0.0000 22.9498 0.0000 -3.5562
# 5 -36.5992 -9.3921 -16.3913 0.0000 38.8625 0.0000
# 6 0.0000 0.0000 0.0000 -3.5562 0.0000 18.3426
#
#
#
# Elastic Compliance Matrix: (Units=1/GPa)
#
#
# Indices 1 2 3 4 5 6 
#
# 1 0.033904 0.002177 0.000957 0.000000 0.032859 0.000000
# 2 0.002177 0.013494 0.001447 0.000000 0.005922 0.000000
# 3 0.000957 0.001447 0.009295 0.000000 0.005172 0.000000
# 4 0.000000 0.000000 0.000000 0.044923 0.000000 0.008710
# 5 0.032859 0.005922 0.005172 0.000000 0.060290 0.000000
# 6 0.000000 0.000000 0.000000 0.008710 0.000000 0.056207
#
#
# Mechanical properties :
#
#
# Convention : Reuss Voigt Hill
#
# Bulk Modulus (GPa) = 15.18445 31.00561 23.09503
# Shear Modulus (GPa) = 21.65426 32.64525 27.14975
#
# Velocity S-wave (km/s) = 3.24523 3.98459 3.63376
# Velocity P-wave (km/s) = 4.62893 6.02070 5.37009
#
# Compressibility (1/GPa) = 0.06585685
#
# Stress axis : x y z
#
# Youngs Moduli (GPa) = 29.49543 74.10512 107.57935
#
# Poissons Ratio (x) = -0.16136 -0.10300
# Poissons Ratio (y) = -0.06422 -0.15565
# Poissons Ratio (z) = -0.02824 -0.10722
#
# Static dielectric constant tensor:
#      x y z
#    x 1.726770 0.000000 0.012770 
#    y 0.000000 1.743090 0.000000 
#    z 0.012770 0.000000 1.738040 
# 
# From -- ./inp_files/26271.got.cif
#   From: 2010.05.17/outbox.cif.g08.bks.cpg/sg9_14_cif.got.tgz:26271.got - 2010.06.03 20:04:27.
