data_PCOD9137203
_publ_section_title
;
Structure prediction by ZEFSAII (Michael W. Deem and Ramdas Pophale) SiO2 
 PCOD9137203
Probable space group: C C
;
_chemical_formula_sum "Si O2"
_cell_formula_units_Z 12
_cell_length_a 4.714475
_cell_length_b 13.974399
_cell_length_c 7.031899
_cell_angle_alpha 90.000000
_cell_angle_beta 54.050451
_cell_angle_gamma 90.000000
_cell_volume 375.037182
_symmetry_space_group_name_H-M "C C"
_symmetry_group_IT_number 9
_symmetry_cell_setting 'monoclinic'
loop_
_space_group_symop_operation_xyz
x,y,z
x,-y,1/2+z
1/2+x,1/2+y,z
1/2+x,1/2-y,1/2+z
loop_
_atom_site_type_symbol
_atom_site_label
_atom_site_fract_x
_atom_site_fract_y
_atom_site_fract_z
Si Si1 0.708330 0.517854 0.150520
Si Si2 0.190713 0.612846 0.716883
Si Si3 0.358322 0.714862 0.190504
O O1 0.554266 0.441595 0.049997
O O2 0.424486 0.605390 0.230861
O O3 0.878526 0.437696 0.221581
O O4 0.064424 0.579226 0.974058
O O5 0.152037 0.722146 0.687372
O O6 0.995040 0.755486 0.424347
#
# Coordination Sequence:
#
# PCOD9137203 Si02
#       3
#     4   4   4
#     4  11  23  41  65  94 129 169 214 265 321 382
#     4  11  23  41  65  94 129 169 214 265 321 382
#     4  10  22  40  64  94 128 168 214 264 320 382
#
# _framework density 31.996825999999999
#
# number of rings (size 3 to 8) (size 9 to 14) (size 15 to 20)
#    0.000    1.333    0.000    6.000    0.000    2.667 
#    0.000    6.667    0.000    0.000    0.000    0.000 
#    0.000    0.000    0.000    0.000    0.000    0.000 
#
# Total GULP energy -33437.234778 kJ/mol
# GULP energy per Si atom -5572.872463 kJ/mol
# Density = 3.192400 g / cm^3
# Si number density = 31.996826 Si / 1000 Ang^3
#
#
#
# Elastic Constant Matrix: (Units=GPa)
#
#
# Indices 1 2 3 4 5 6 
#
# 1 193.5439 46.1020 -4.3686 0.0000 8.3183 0.0000
# 2 46.1020 194.8384 30.8945 0.0000 -4.7876 0.0000
# 3 -4.3686 30.8945 138.6912 0.0000 -37.7359 0.0000
# 4 0.0000 0.0000 0.0000 68.1668 0.0000 -16.6990
# 5 8.3183 -4.7876 -37.7359 0.0000 16.5256 0.0000
# 6 0.0000 0.0000 0.0000 -16.6990 0.0000 54.0181
#
#
#
# Elastic Compliance Matrix: (Units=1/GPa)
#
#
# Indices 1 2 3 4 5 6 
#
# 1 0.005703 -0.001318 -0.001087 0.000000 -0.005735 0.000000
# 2 -0.001318 0.005685 -0.001794 0.000000 -0.001785 0.000000
# 3 -0.001087 -0.001794 0.020024 0.000000 0.045753 0.000000
# 4 0.000000 0.000000 0.000000 0.015872 0.000000 0.004907
# 5 -0.005735 -0.001785 0.045753 0.000000 0.167357 0.000000
# 6 0.000000 0.000000 0.000000 0.004907 0.000000 0.020029
#
#
# Mechanical properties :
#
#
# Convention : Reuss Voigt Hill
#
# Bulk Modulus (GPa) = 43.45125 74.70324 59.07725
# Shear Modulus (GPa) = 19.94107 58.03847 38.98977
#
# Velocity S-wave (km/s) = 2.49915 4.26359 3.49456
# Velocity P-wave (km/s) = 4.68369 6.90184 5.89798
#
# Compressibility (1/GPa) = 0.02301430
#
# Stress axis : x y z
#
# Youngs Moduli (GPa) = 175.35737 175.90691 49.93950
#
# Poissons Ratio (x) = 0.23182 0.05429
# Poissons Ratio (y) = 0.23110 0.08957
# Poissons Ratio (z) = 0.19064 0.31552
#
# Static dielectric constant tensor:
#      x y z
#    x 2.455360 0.000000 0.569490 
#    y 0.000000 2.295100 0.000000 
#    z 0.569490 0.000000 3.814380 
# 
# From -- ./inp_files/96.got.cif
#   From: 2010.05.17/outbox.cif.g08.bks.cpg/sg9_1_cif.got.tgz:96.got - 2010.06.03 20:04:27.
