data_PCOD9137736
_publ_section_title
;
Structure prediction by ZEFSAII (Michael W. Deem and Ramdas Pophale) SiO2 
 PCOD9137736
Probable space group: C C
;
_chemical_formula_sum "Si O2"
_cell_formula_units_Z 32
_cell_length_a 13.189098
_cell_length_b 4.829736
_cell_length_c 24.694030
_cell_angle_alpha 90.000000
_cell_angle_beta 113.089584
_cell_angle_gamma 90.000000
_cell_volume 1446.997170
_symmetry_space_group_name_H-M "C C"
_symmetry_group_IT_number 9
_symmetry_cell_setting 'monoclinic'
loop_
_space_group_symop_operation_xyz
x,y,z
x,-y,1/2+z
1/2+x,1/2+y,z
1/2+x,1/2-y,1/2+z
loop_
_atom_site_type_symbol
_atom_site_label
_atom_site_fract_x
_atom_site_fract_y
_atom_site_fract_z
Si Si1 0.636250 0.559789 0.335590
Si Si2 0.785995 0.941482 0.836410
Si Si3 0.102922 0.400819 0.505189
Si Si4 0.497706 0.221575 0.385327
Si Si5 0.846218 0.099181 0.087403
Si Si6 0.064897 0.099298 0.068628
Si Si7 0.308247 0.099140 0.150889
Si Si8 0.914561 0.702448 0.773210
O O1 0.692265 0.855201 0.338818
O O2 0.591663 0.428111 0.382072
O O3 0.519576 0.605644 0.280002
O O4 0.733671 0.354653 0.338570
O O5 0.897949 0.077843 0.882870
O O6 0.821790 0.899817 0.780992
O O7 0.234809 0.441111 0.529487
O O8 0.078123 0.089120 0.517813
O O9 0.042679 0.521915 0.440900
O O10 0.064230 0.586316 0.548001
O O11 0.455750 0.012812 0.328807
O O12 0.833332 0.911032 0.138379
O O13 0.955435 0.030872 0.077884
O O14 0.846916 0.413469 0.108105
O O15 0.176349 0.059052 0.126473
O O16 0.368205 0.980779 0.215471
#
# Coordination Sequence:
#
# PCOD9137736 Si02
#       8
#     4   4   4   4   4   4   4   4
#     4  11  24  42  61  91 135 175 215 257 319 391
#     4  11  24  42  61  91 135 175 215 257 319 391
#     4  10  24  40  67  93 129 164 218 271 326 387
#     4  11  25  42  67  99 137 175 220 274 329 396
#     4  10  22  44  65  94 123 168 216 273 330 384
#     4  10  22  44  65  94 123 168 216 273 330 384
#     4  10  24  40  67  93 129 164 218 271 326 387
#     4  11  25  42  67  99 137 175 220 274 329 396
#
# _framework density 22.114761999999999
#
# number of rings (size 3 to 8) (size 9 to 14) (size 15 to 20)
#    0.000    1.500    2.500    0.750    7.000    4.000 
#    0.000    0.000    0.000    0.000    0.000    0.000 
#    0.000    0.000    0.000    0.000    0.000    0.000 
#
# Total GULP energy -89311.137106 kJ/mol
# GULP energy per Si atom -5581.946069 kJ/mol
# Density = 2.206443 g / cm^3
# Si number density = 22.114762 Si / 1000 Ang^3
#
#
#
# Elastic Constant Matrix: (Units=GPa)
#
#
# Indices 1 2 3 4 5 6 
#
# 1 153.9178 1.2150 21.2825 0.0000 2.8343 0.0000
# 2 1.2150 78.2955 -5.5474 0.0000 4.7171 0.0000
# 3 21.2825 -5.5474 81.7109 0.0000 18.7045 0.0000
# 4 0.0000 0.0000 0.0000 26.5527 0.0000 1.5729
# 5 2.8343 4.7171 18.7045 0.0000 10.7499 0.0000
# 6 0.0000 0.0000 0.0000 1.5729 0.0000 26.6152
#
#
#
# Elastic Compliance Matrix: (Units=1/GPa)
#
#
# Indices 1 2 3 4 5 6 
#
# 1 0.006782 -0.000426 -0.002375 0.000000 0.002531 0.000000
# 2 -0.000426 0.013843 0.004015 0.000000 -0.012947 0.000000
# 3 -0.002375 0.004015 0.022252 0.000000 -0.039854 0.000000
# 4 0.000000 0.000000 0.000000 0.037793 0.000000 -0.002233
# 5 0.002531 -0.012947 -0.039854 0.000000 0.167383 0.000000
# 6 0.000000 0.000000 0.000000 -0.002233 0.000000 0.037705
#
#
# Mechanical properties :
#
#
# Convention : Reuss Voigt Hill
#
# Bulk Modulus (GPa) = 22.07236 38.64716 30.35976
# Shear Modulus (GPa) = 16.75423 32.58184 24.66803
#
# Velocity S-wave (km/s) = 2.75545 3.84253 3.34347
# Velocity P-wave (km/s) = 4.48618 6.09921 5.35379
#
# Compressibility (1/GPa) = 0.04530554
#
# Stress axis : x y z
#
# Youngs Moduli (GPa) = 147.44725 72.23748 44.93912
#
# Poissons Ratio (x) = 0.03077 0.10672
# Poissons Ratio (y) = 0.06281 -0.18041
# Poissons Ratio (z) = 0.35014 -0.29000
#
# Static dielectric constant tensor:
#      x y z
#    x 1.795340 0.000000 0.002900 
#    y 0.000000 1.814000 0.000000 
#    z 0.002900 0.000000 1.814800 
# 
# From -- ./inp_files/32971.got.cif
#   From: 2010.05.17/outbox.cif.g08.bks.cpg/sg9_17_cif.got.tgz:32971.got - 2010.06.03 20:04:27.
