data_PCOD9137682
_publ_section_title
;
Structure prediction by ZEFSAII (Michael W. Deem and Ramdas Pophale) SiO2 
 PCOD9137682
Probable space group: C C
;
_chemical_formula_sum "Si O2"
_cell_formula_units_Z 32
_cell_length_a 10.727474
_cell_length_b 15.156250
_cell_length_c 15.740315
_cell_angle_alpha 90.000000
_cell_angle_beta 33.725261
_cell_angle_gamma 90.000000
_cell_volume 1420.891272
_symmetry_space_group_name_H-M "C C"
_symmetry_group_IT_number 9
_symmetry_cell_setting 'monoclinic'
loop_
_space_group_symop_operation_xyz
x,y,z
x,-y,1/2+z
1/2+x,1/2+y,z
1/2+x,1/2-y,1/2+z
loop_
_atom_site_type_symbol
_atom_site_label
_atom_site_fract_x
_atom_site_fract_y
_atom_site_fract_z
Si Si1 0.806530 0.351523 0.053580
Si Si2 0.834514 0.103585 0.747287
Si Si3 0.430669 0.554041 0.072103
Si Si4 0.064094 0.330194 0.733399
Si Si5 0.410578 0.966974 0.548412
Si Si6 0.225709 0.303622 0.145475
Si Si7 0.164194 0.092925 0.350535
Si Si8 0.766261 0.649070 0.985247
O O1 0.577933 0.394247 0.147748
O O2 0.705873 0.259345 0.143353
O O3 0.915860 0.426831 0.051325
O O4 0.972808 0.335024 0.881099
O O5 0.798856 0.187389 0.704470
O O6 0.643863 0.086950 0.924790
O O7 0.818428 0.017213 0.697584
O O8 0.241621 0.591267 0.117539
O O9 0.633947 0.501330 0.913709
O O10 0.536893 0.632858 0.066092
O O11 0.846005 0.347671 0.797958
O O12 0.243383 0.926728 0.711539
O O13 0.333804 0.939822 0.497037
O O14 0.964711 0.328102 0.306490
O O15 0.414270 0.366592 0.996552
O O16 0.243783 0.219211 0.074534
#
# Coordination Sequence:
#
# PCOD9137682 Si02
#       8
#     4   4   4   4   4   4   4   4
#     4  12  26  46  68 105 142 186 230 291 359 413
#     4  10  22  43  70  94 135 182 228 284 343 411
#     4  11  24  49  68  93 146 189 223 285 358 420
#     4  12  28  45  70 104 148 182 234 291 358 423
#     4  11  24  43  72 101 135 180 239 287 343 415
#     4  10  23  40  71 101 136 175 234 291 344 400
#     4  11  26  44  72 107 136 185 240 285 353 419
#     4  11  23  44  71 101 136 181 234 292 346 409
#
# _framework density 22.521076000000001
#
# number of rings (size 3 to 8) (size 9 to 14) (size 15 to 20)
#    0.000    1.000    5.000    0.750   12.250    1.000 
#    0.000    0.000    0.000    0.000    0.000    0.000 
#    0.000    0.000    0.000    0.000    0.000    0.000 
#
# Total GULP energy -89274.644482 kJ/mol
# GULP energy per Si atom -5579.665280 kJ/mol
# Density = 2.246982 g / cm^3
# Si number density = 22.521076 Si / 1000 Ang^3
#
#
#
# Elastic Constant Matrix: (Units=GPa)
#
#
# Indices 1 2 3 4 5 6 
#
# 1 32.6691 31.6805 37.2896 0.0002 -4.9574 0.0010
# 2 31.6805 106.9405 49.6670 -0.0019 5.8943 0.0016
# 3 37.2896 49.6670 135.8192 0.0010 16.5081 0.0084
# 4 0.0002 -0.0019 0.0010 28.5169 0.0011 1.4720
# 5 -4.9574 5.8943 16.5081 0.0011 24.9414 -0.0034
# 6 0.0010 0.0016 0.0084 1.4720 -0.0034 17.3840
#
#
#
# Elastic Compliance Matrix: (Units=1/GPa)
#
#
# Indices 1 2 3 4 5 6 
#
# 1 0.067291 -0.013632 -0.016864 -0.000002 0.027758 0.000011
# 2 -0.013632 0.014026 -0.000711 0.000001 -0.005554 -0.000001
# 3 -0.016864 -0.000711 0.013746 0.000000 -0.012282 -0.000008
# 4 -0.000002 0.000001 0.000000 0.035221 -0.000003 -0.002982
# 5 0.027758 -0.005554 -0.012282 -0.000003 0.055053 0.000016
# 6 0.000011 -0.000001 -0.000008 -0.002982 0.000016 0.057777
#
#
# Mechanical properties :
#
#
# Convention : Reuss Voigt Hill
#
# Bulk Modulus (GPa) = 30.62996 56.96698 43.79847
# Shear Modulus (GPa) = 15.80230 24.62125 20.21177
#
# Velocity S-wave (km/s) = 2.65177 3.31003 2.99901
# Velocity P-wave (km/s) = 4.79645 6.32125 5.61089
#
# Compressibility (1/GPa) = 0.03264778
#
# Stress axis : x y z
#
# Youngs Moduli (GPa) = 14.86086 71.29646 72.75085
#
# Poissons Ratio (x) = 0.97194 1.22684
# Poissons Ratio (y) = 0.20259 0.05174
# Poissons Ratio (z) = 0.25061 0.05071
#
# Static dielectric constant tensor:
#      x y z
#    x 1.828620 0.000000 -0.013360 
#    y 0.000000 1.944760 0.000000 
#    z -0.013360 0.000000 1.847370 
# 
# From -- ./inp_files/30140.got.cif
#   From: 2010.05.17/outbox.cif.g08.bks.cpg/sg9_16_cif.got.tgz:30140.got - 2010.06.03 20:04:27.
