data_PCOD9137801
_publ_section_title
;
Structure prediction by ZEFSAII (Michael W. Deem and Ramdas Pophale) SiO2 
 PCOD9137801
Probable space group: C C
;
_chemical_formula_sum "Si O2"
_cell_formula_units_Z 32
_cell_length_a 12.658470
_cell_length_b 7.924176
_cell_length_c 14.519097
_cell_angle_alpha 90.000000
_cell_angle_beta 113.850659
_cell_angle_gamma 90.000000
_cell_volume 1332.009508
_symmetry_space_group_name_H-M "C C"
_symmetry_group_IT_number 9
_symmetry_cell_setting 'monoclinic'
loop_
_space_group_symop_operation_xyz
x,y,z
x,-y,1/2+z
1/2+x,1/2+y,z
1/2+x,1/2-y,1/2+z
loop_
_atom_site_type_symbol
_atom_site_label
_atom_site_fract_x
_atom_site_fract_y
_atom_site_fract_z
Si Si1 0.513690 0.155629 0.589020
Si Si2 0.034305 0.346231 0.887723
Si Si3 0.719132 0.052213 0.152795
Si Si4 0.230186 0.922341 0.459703
Si Si5 0.625622 0.787435 0.429863
Si Si6 0.868143 0.573119 0.174822
Si Si7 0.488535 0.577072 0.225570
Si Si8 0.716994 0.363167 0.263684
O O1 0.481308 0.136098 0.471298
O O2 0.483474 0.329312 0.625090
O O3 0.650023 0.119757 0.641129
O O4 0.455475 0.026094 0.638789
O O5 0.109668 0.177887 0.919038
O O6 0.108702 0.516265 0.890974
O O7 0.938118 0.328528 0.776160
O O8 0.700353 0.170297 0.233781
O O9 0.855618 0.026154 0.191676
O O10 0.653505 0.156627 0.047004
O O11 0.293433 0.842897 0.569175
O O12 0.288088 0.878432 0.383149
O O13 0.214498 0.125969 0.457284
O O14 0.527482 0.696708 0.327393
O O15 0.784757 0.449798 0.203903
O O16 0.595565 0.452624 0.242783
#
# Coordination Sequence:
#
# PCOD9137801 Si02
#       8
#     4   4   4   4   4   4   4   4
#     4  11  23  42  75 101 141 195 237 297 372 433
#     4  11  24  44  71 108 142 190 251 296 365 445
#     4  11  23  46  69 101 146 185 240 306 361 432
#     4  11  24  44  71 108 142 190 251 296 365 445
#     4  10  22  44  70 100 140 186 238 300 364 426
#     4  12  22  46  74 100 152 194 232 308 378 422
#     4  11  23  46  69 101 146 185 240 306 361 432
#     4  11  23  42  75 101 141 195 237 297 372 433
#
# _framework density 24.023852999999999
#
# number of rings (size 3 to 8) (size 9 to 14) (size 15 to 20)
#    0.000    1.000    3.750    2.250    0.000    2.000 
#   20.250    1.250    0.000    0.000    0.000    0.000 
#    0.000    0.000    0.000    0.000    0.000    0.000 
#
# Total GULP energy -89109.794034 kJ/mol
# GULP energy per Si atom -5569.362127 kJ/mol
# Density = 2.396917 g / cm^3
# Si number density = 24.023853 Si / 1000 Ang^3
#
#
#
# Elastic Constant Matrix: (Units=GPa)
#
#
# Indices 1 2 3 4 5 6 
#
# 1 123.6983 27.5765 41.1720 0.0000 -7.7111 0.0000
# 2 27.5765 67.7495 6.5454 0.0000 -6.6339 0.0000
# 3 41.1720 6.5454 172.7637 0.0000 -8.2792 0.0000
# 4 0.0000 0.0000 0.0000 32.7253 0.0000 -3.0682
# 5 -7.7111 -6.6339 -8.2792 0.0000 33.7636 0.0000
# 6 0.0000 0.0000 0.0000 -3.0682 0.0000 7.7582
#
#
#
# Elastic Compliance Matrix: (Units=1/GPa)
#
#
# Indices 1 2 3 4 5 6 
#
# 1 0.009659 -0.003632 -0.002118 0.000000 0.000973 0.000000
# 2 -0.003632 0.016448 0.000362 0.000000 0.002491 0.000000
# 3 -0.002118 0.000362 0.006334 0.000000 0.001141 0.000000
# 4 0.000000 0.000000 0.000000 0.031734 0.000000 0.012550
# 5 0.000973 0.002491 0.001141 0.000000 0.030609 0.000000
# 6 0.000000 0.000000 0.000000 0.012550 0.000000 0.133859
#
#
# Mechanical properties :
#
#
# Convention : Reuss Voigt Hill
#
# Bulk Modulus (GPa) = 46.15709 57.19993 51.67851
# Shear Modulus (GPa) = 20.27243 34.11058 27.19150
#
# Velocity S-wave (km/s) = 2.90805 3.77219 3.36795
# Velocity P-wave (km/s) = 5.52544 6.54476 6.05658
#
# Compressibility (1/GPa) = 0.02166514
#
# Stress axis : x y z
#
# Youngs Moduli (GPa) = 103.52631 60.79948 157.88078
#
# Poissons Ratio (x) = 0.22081 0.33435
# Poissons Ratio (y) = 0.37599 -0.05711
# Poissons Ratio (z) = 0.21924 -0.02199
#
# Static dielectric constant tensor:
#      x y z
#    x 1.992890 0.000000 0.091450 
#    y 0.000000 1.982980 0.000000 
#    z 0.091450 0.000000 2.051440 
# 
# From -- ./inp_files/24300.got.cif
#   From: 2010.05.17/outbox.cif.g08.bks.cpg/sg9_13_cif.got.tgz:24300.got - 2010.06.03 20:04:27.
