data_PCOD9137622
_publ_section_title
;
Structure prediction by ZEFSAII (Michael W. Deem and Ramdas Pophale) SiO2 
 PCOD9137622
Probable space group: C C
;
_chemical_formula_sum "Si O2"
_cell_formula_units_Z 32
_cell_length_a 11.533991
_cell_length_b 9.377016
_cell_length_c 14.284578
_cell_angle_alpha 90.000000
_cell_angle_beta 59.965120
_cell_angle_gamma 90.000000
_cell_volume 1337.486975
_symmetry_space_group_name_H-M "C C"
_symmetry_group_IT_number 9
_symmetry_cell_setting 'monoclinic'
loop_
_space_group_symop_operation_xyz
x,y,z
x,-y,1/2+z
1/2+x,1/2+y,z
1/2+x,1/2-y,1/2+z
loop_
_atom_site_type_symbol
_atom_site_label
_atom_site_fract_x
_atom_site_fract_y
_atom_site_fract_z
Si Si1 0.722540 0.303669 0.252870
Si Si2 0.045174 0.032168 0.217592
Si Si3 0.310874 0.465128 0.454698
Si Si4 0.343792 0.502423 0.149021
Si Si5 0.369366 0.936996 0.762353
Si Si6 0.009663 0.425848 0.517044
Si Si7 0.957535 0.676695 0.416856
Si Si8 0.644366 0.764602 0.304806
O O1 0.646478 0.408910 0.210733
O O2 0.786048 0.162084 0.184646
O O3 0.832879 0.398583 0.261129
O O4 0.601659 0.251782 0.368933
O O5 0.102802 0.184855 0.225884
O O6 0.990822 0.006556 0.135839
O O7 0.911240 0.019042 0.334963
O O8 0.341789 0.536363 0.541226
O O9 0.157675 0.475011 0.487831
O O10 0.348411 0.299188 0.453330
O O11 0.243510 0.394860 0.242059
O O12 0.457302 0.904644 0.817101
O O13 0.229321 0.854061 0.826411
O O14 0.437544 0.876217 0.640384
O O15 0.030524 0.320058 0.421282
O O16 0.933869 0.563211 0.506936
#
# Coordination Sequence:
#
# PCOD9137622 Si02
#       8
#     4   4   4   4   4   4   4   4
#     4  10  22  43  66  97 135 175 221 280 336 397
#     4  10  24  45  64  96 139 172 225 283 340 404
#     4  11  24  43  69 100 133 182 229 277 351 400
#     4  12  23  43  69  97 136 176 225 284 335 401
#     4  11  25  44  71 100 139 182 227 283 347 402
#     4  12  24  42  70 102 131 183 231 273 346 408
#     4  11  22  46  69  97 141 175 226 292 330 409
#     4  11  24  46  66 101 140 177 230 290 335 409
#
# _framework density 23.925469
#
# number of rings (size 3 to 8) (size 9 to 14) (size 15 to 20)
#    0.000    1.000    3.750    2.250    3.500    1.000 
#    0.000    6.250    0.000    0.000    0.000    0.000 
#    0.000    0.000    0.000    0.000    0.000    0.000 
#
# Total GULP energy -89590.750392 kJ/mol
# GULP energy per Si atom -5599.421900 kJ/mol
# Density = 2.387101 g / cm^3
# Si number density = 23.925469 Si / 1000 Ang^3
#
#
#
# Elastic Constant Matrix: (Units=GPa)
#
#
# Indices 1 2 3 4 5 6 
#
# 1 56.0335 35.7552 -0.4243 0.0000 0.4319 0.0000
# 2 35.7552 89.3982 12.6958 0.0000 3.5319 0.0000
# 3 -0.4243 12.6958 60.8097 0.0000 10.1347 0.0000
# 4 0.0000 0.0000 0.0000 17.8203 0.0000 -6.4454
# 5 0.4319 3.5319 10.1347 0.0000 30.3263 0.0000
# 6 0.0000 0.0000 0.0000 -6.4454 0.0000 31.0309
#
#
#
# Elastic Compliance Matrix: (Units=1/GPa)
#
#
# Indices 1 2 3 4 5 6 
#
# 1 0.024260 -0.010025 0.002251 0.000000 0.000070 0.000000
# 2 -0.010025 0.015680 -0.003244 0.000000 -0.000599 0.000000
# 3 0.002251 -0.003244 0.018087 0.000000 -0.005699 0.000000
# 4 0.000000 0.000000 0.000000 0.060674 0.000000 0.012603
# 5 0.000070 -0.000599 -0.005699 0.000000 0.034948 0.000000
# 6 0.000000 0.000000 0.000000 0.012603 0.000000 0.034844
#
#
# Mechanical properties :
#
#
# Convention : Reuss Voigt Hill
#
# Bulk Modulus (GPa) = 27.78483 33.58832 30.68658
# Shear Modulus (GPa) = 22.46920 26.38315 24.42617
#
# Velocity S-wave (km/s) = 3.06785 3.32433 3.19866
# Velocity P-wave (km/s) = 4.91805 5.36694 5.14739
#
# Compressibility (1/GPa) = 0.03599086
#
# Stress axis : x y z
#
# Youngs Moduli (GPa) = 41.21976 63.77580 55.28693
#
# Poissons Ratio (x) = 0.63938 -0.12444
# Poissons Ratio (y) = 0.41324 0.17933
# Poissons Ratio (z) = -0.09277 0.20687
#
# Static dielectric constant tensor:
#      x y z
#    x 1.906180 0.000000 0.021640 
#    y 0.000000 1.917360 0.000000 
#    z 0.021640 0.000000 1.915130 
# 
# From -- ./inp_files/24201.got.cif
#   From: 2010.05.17/outbox.cif.g08.bks.cpg/sg9_13_cif.got.tgz:24201.got - 2010.06.03 20:04:27.
