data_PCOD9137402
_publ_section_title
;
Structure prediction by ZEFSAII (Michael W. Deem and Ramdas Pophale) SiO2 
 PCOD9137402
Probable space group: C C
;
_chemical_formula_sum "Si O2"
_cell_formula_units_Z 28
_cell_length_a 11.175151
_cell_length_b 22.005460
_cell_length_c 5.036096
_cell_angle_alpha 90.000000
_cell_angle_beta 126.207276
_cell_angle_gamma 90.000000
_cell_volume 999.285666
_symmetry_space_group_name_H-M "C C"
_symmetry_group_IT_number 9
_symmetry_cell_setting 'monoclinic'
loop_
_space_group_symop_operation_xyz
x,y,z
x,-y,1/2+z
1/2+x,1/2+y,z
1/2+x,1/2-y,1/2+z
loop_
_atom_site_type_symbol
_atom_site_label
_atom_site_fract_x
_atom_site_fract_y
_atom_site_fract_z
Si Si1 0.182770 0.220859 0.754940
Si Si2 0.442560 0.954375 0.331497
Si Si3 0.598117 0.814214 0.025042
Si Si4 0.403590 0.722378 0.136310
Si Si5 0.573531 0.458821 0.190937
Si Si6 0.814770 0.375541 0.775156
Si Si7 0.756184 0.959526 0.879668
O O1 0.316295 0.234420 0.730941
O O2 0.039580 0.186885 0.452196
O O3 0.122180 0.286381 0.766667
O O4 0.239193 0.187862 0.094470
O O5 0.607682 0.927483 0.587268
O O6 0.428567 0.000087 0.560501
O O7 0.333937 0.899971 0.098914
O O8 0.503307 0.762871 0.063858
O O9 0.768238 0.818508 0.348708
O O10 0.484784 0.870009 0.896506
O O11 0.577486 0.517142 0.396410
O O12 0.709885 0.419945 0.472311
O O13 0.413488 0.429082 0.035295
O O14 0.753740 0.981272 0.180737
#
# Coordination Sequence:
#
# PCOD9137402 Si02
#       7
#     4   4   4   4   4   4   4
#     4  11  22  43  64  98 133 176 231 289 341 414
#     4  10  22  42  65  99 138 172 226 287 340 422
#     4  11  22  43  64  98 133 176 231 289 341 414
#     4  10  22  41  71  88 136 177 224 294 347 398
#     4  10  22  42  65  99 138 172 226 287 340 422
#     4  12  24  38  69  95 132 184 224 282 360 406
#     4   8  16  35  64  85 124 171 206 268 339 388
#
# _framework density 28.020012000000001
#
# number of rings (size 3 to 8) (size 9 to 14) (size 15 to 20)
#    0.000    1.714    2.857    0.857    0.000    3.429 
#    0.000    0.000   18.857    0.000    0.000    0.000 
#    0.000    0.000    0.000    0.000    0.000    0.000 
#
# Total GULP energy -78310.047263 kJ/mol
# GULP energy per Si atom -5593.574804 kJ/mol
# Density = 2.795624 g / cm^3
# Si number density = 28.020012 Si / 1000 Ang^3
#
#
#
# Elastic Constant Matrix: (Units=GPa)
#
#
# Indices 1 2 3 4 5 6 
#
# 1 148.7274 31.7973 56.2630 0.0000 11.4590 0.0000
# 2 31.7973 57.0949 13.0489 0.0000 10.3928 0.0000
# 3 56.2630 13.0489 191.5368 0.0000 49.7753 0.0000
# 4 0.0000 0.0000 0.0000 42.5733 0.0000 7.7405
# 5 11.4590 10.3928 49.7753 0.0000 71.6390 0.0000
# 6 0.0000 0.0000 0.0000 7.7405 0.0000 43.2210
#
#
#
# Elastic Compliance Matrix: (Units=1/GPa)
#
#
# Indices 1 2 3 4 5 6 
#
# 1 0.008509 -0.004355 -0.002457 0.000000 0.000978 0.000000
# 2 -0.004355 0.020289 0.000587 0.000000 -0.002655 0.000000
# 3 -0.002457 0.000587 0.007106 0.000000 -0.004629 0.000000
# 4 0.000000 0.000000 0.000000 0.024279 0.000000 -0.004348
# 5 0.000978 -0.002655 -0.004629 0.000000 0.017404 0.000000
# 6 0.000000 0.000000 0.000000 -0.004348 0.000000 0.023916
#
#
# Mechanical properties :
#
#
# Convention : Reuss Voigt Hill
#
# Bulk Modulus (GPa) = 42.63756 66.61970 54.62863
# Shear Modulus (GPa) = 41.06061 51.23666 46.14863
#
# Velocity S-wave (km/s) = 3.83221 4.28082 4.06271
# Velocity P-wave (km/s) = 5.90178 6.94703 6.44563
#
# Compressibility (1/GPa) = 0.02345350
#
# Stress axis : x y z
#
# Youngs Moduli (GPa) = 117.52351 49.28703 140.73327
#
# Poissons Ratio (x) = 0.21466 0.34576
# Poissons Ratio (y) = 0.51185 -0.08260
# Poissons Ratio (z) = 0.28874 -0.02893
#
# Static dielectric constant tensor:
#      x y z
#    x 2.216530 0.000000 -0.013140 
#    y 0.000000 2.232560 0.000000 
#    z -0.013140 0.000000 2.214020 
# 
# From -- ./inp_files/2079.got.cif
#   From: 2010.05.17/outbox.cif.g08.bks.cpg/sg9_2_cif.got.tgz:2079.got - 2010.06.03 20:04:27.
