data_PCOD9137173
_publ_section_title
;
Structure prediction by ZEFSAII (Michael W. Deem and Ramdas Pophale) SiO2 
 PCOD9137173
Probable space group: C C
;
_chemical_formula_sum "Si O2"
_cell_formula_units_Z 24
_cell_length_a 12.564174
_cell_length_b 14.122610
_cell_length_c 5.055137
_cell_angle_alpha 90.000000
_cell_angle_beta 86.242602
_cell_angle_gamma 90.000000
_cell_volume 895.050016
_symmetry_space_group_name_H-M "C C"
_symmetry_group_IT_number 9
_symmetry_cell_setting 'monoclinic'
loop_
_space_group_symop_operation_xyz
x,y,z
x,-y,1/2+z
1/2+x,1/2+y,z
1/2+x,1/2-y,1/2+z
loop_
_atom_site_type_symbol
_atom_site_label
_atom_site_fract_x
_atom_site_fract_y
_atom_site_fract_z
Si Si1 0.347320 0.771541 0.884740
Si Si2 0.475863 0.561167 0.434905
Si Si3 0.291381 0.037011 0.674448
Si Si4 0.058108 0.254991 0.188296
Si Si5 0.538651 0.955795 0.295644
Si Si6 0.778378 0.816822 0.891522
O O1 0.296395 0.867892 0.003665
O O2 0.464545 0.762891 0.986407
O O3 0.345301 0.756496 0.573431
O O4 0.284043 0.695117 0.074130
O O5 0.497248 0.522833 0.723484
O O6 0.350107 0.590778 0.437615
O O7 0.542536 0.654845 0.336633
O O8 0.415056 0.018911 0.745386
O O9 0.240420 0.035762 0.972718
O O10 0.044360 0.347568 0.375994
O O11 0.165425 0.282149 0.017766
O O12 0.589797 0.977636 0.004860
#
# Coordination Sequence:
#
# PCOD9137173 Si02
#       6
#     4   4   4   4   4   4
#     4  10  22  40  61  93 132 173 229 298 357 414
#     4  11  25  47  71 104 148 196 246 303 366 442
#     4   9  16  30  52  79 115 155 191 251 336 409
#     4  10  24  44  71  99 143 195 243 299 369 439
#     4   9  19  33  57  93 127 162 216 280 348 411
#     4  11  24  42  68  98 131 183 247 299 352 429
#
# _framework density 26.814146000000001
#
# number of rings (size 3 to 8) (size 9 to 14) (size 15 to 20)
#    0.000    2.000    0.000    3.000    0.000   16.000 
#    0.000    5.000    0.000    2.000    0.000    0.000 
#    0.000    0.000    0.000    0.000    0.000    0.000 
#
# Total GULP energy -66989.884391 kJ/mol
# GULP energy per Si atom -5582.490366 kJ/mol
# Density = 2.675312 g / cm^3
# Si number density = 26.814146 Si / 1000 Ang^3
#
#
#
# Elastic Constant Matrix: (Units=GPa)
#
#
# Indices 1 2 3 4 5 6 
#
# 1 115.3887 14.2049 9.8016 0.0000 -16.7981 0.0000
# 2 14.2049 114.0737 26.5576 0.0000 4.8653 0.0000
# 3 9.8016 26.5576 121.0513 0.0000 7.0524 0.0000
# 4 0.0000 0.0000 0.0000 42.0357 0.0000 -0.5611
# 5 -16.7981 4.8653 7.0524 0.0000 27.5799 0.0000
# 6 0.0000 0.0000 0.0000 -0.5611 0.0000 9.6348
#
#
#
# Elastic Compliance Matrix: (Units=1/GPa)
#
#
# Indices 1 2 3 4 5 6 
#
# 1 0.009840 -0.001293 -0.000889 0.000000 0.006449 0.000000
# 2 -0.001293 0.009443 -0.001852 0.000000 -0.001980 0.000000
# 3 -0.000889 -0.001852 0.008884 0.000000 -0.002486 0.000000
# 4 0.000000 0.000000 0.000000 0.023808 0.000000 0.001387
# 5 0.006449 -0.001980 -0.002486 0.000000 0.041171 0.000000
# 6 0.000000 0.000000 0.000000 0.001387 0.000000 0.103871
#
#
# Mechanical properties :
#
#
# Convention : Reuss Voigt Hill
#
# Bulk Modulus (GPa) = 49.75295 50.18244 49.96769
# Shear Modulus (GPa) = 23.60900 35.84672 29.72786
#
# Velocity S-wave (km/s) = 2.97049 3.66027 3.33327
# Velocity P-wave (km/s) = 5.51000 6.05136 5.78702
#
# Compressibility (1/GPa) = 0.02009931
#
# Stress axis : x y z
#
# Youngs Moduli (GPa) = 101.62757 105.90022 112.56205
#
# Poissons Ratio (x) = 0.13698 0.10003
# Poissons Ratio (y) = 0.13145 0.20842
# Poissons Ratio (z) = 0.09031 0.19608
#
# Static dielectric constant tensor:
#      x y z
#    x 2.225520 0.000000 -0.159930 
#    y 0.000000 2.138320 0.000000 
#    z -0.159930 0.000000 2.176360 
# 
# From -- ./inp_files/2344.got.cif
#   From: 2010.05.17/outbox.cif.g08.bks.cpg/sg9_2_cif.got.tgz:2344.got - 2010.06.03 20:04:27.
