data_PCOD9137352
_publ_section_title
;
Structure prediction by ZEFSAII (Michael W. Deem and Ramdas Pophale) SiO2 
 PCOD9137352
Probable space group: C C
;
_chemical_formula_sum "Si O2"
_cell_formula_units_Z 28
_cell_length_a 13.629029
_cell_length_b 8.758234
_cell_length_c 16.821936
_cell_angle_alpha 90.000000
_cell_angle_beta 142.516430
_cell_angle_gamma 90.000000
_cell_volume 1221.918432
_symmetry_space_group_name_H-M "C C"
_symmetry_group_IT_number 9
_symmetry_cell_setting 'monoclinic'
loop_
_space_group_symop_operation_xyz
x,y,z
x,-y,1/2+z
1/2+x,1/2+y,z
1/2+x,1/2-y,1/2+z
loop_
_atom_site_type_symbol
_atom_site_label
_atom_site_fract_x
_atom_site_fract_y
_atom_site_fract_z
Si Si1 0.789540 0.538766 0.502010
Si Si2 0.993445 0.425674 0.779018
Si Si3 0.405634 0.568940 0.241492
Si Si4 0.419661 0.484129 0.917573
Si Si5 0.211165 0.804578 0.337305
Si Si6 0.242427 0.108794 0.687911
Si Si7 0.814073 0.113613 0.008370
O O1 0.598462 0.564669 0.365649
O O2 0.825099 0.431507 0.449359
O O3 0.848213 0.710409 0.547875
O O4 0.875700 0.449071 0.628433
O O5 0.084274 0.265411 0.819746
O O6 0.873912 0.472182 0.774017
O O7 0.134078 0.553494 0.873346
O O8 0.363234 0.468495 0.293054
O O9 0.331684 0.735162 0.217906
O O10 0.353254 0.530337 0.117905
O O11 0.314368 0.340545 0.877340
O O12 0.604041 0.428332 0.035537
O O13 0.405050 0.593476 0.983091
O O14 0.154198 0.869038 0.215871
#
# Coordination Sequence:
#
# PCOD9137352 Si02
#       7
#     4   4   4   4   4   4   4
#     4  12  21  43  70  98 136 181 229 299 356 419
#     4  11  23  43  69 101 135 182 239 288 360 434
#     4  11  21  38  71  98 134 182 230 277 358 433
#     4  10  22  41  66  98 135 185 236 286 352 439
#     4  10  25  39  66  99 141 182 236 296 364 419
#     4  11  20  41  68  96 136 186 237 284 351 440
#     4  11  22  41  70 102 137 180 233 296 353 426
#
# _framework density 22.914785999999999
#
# number of rings (size 3 to 8) (size 9 to 14) (size 15 to 20)
#    0.000    1.143    4.286    1.714    2.000    1.143 
#    2.571    0.000    6.286    0.000    0.000    0.000 
#    0.000    0.000    0.000    0.000    0.000    0.000 
#
# Total GULP energy -77938.647017 kJ/mol
# GULP energy per Si atom -5567.046216 kJ/mol
# Density = 2.286263 g / cm^3
# Si number density = 22.914786 Si / 1000 Ang^3
#
#
#
# Elastic Constant Matrix: (Units=GPa)
#
#
# Indices 1 2 3 4 5 6 
#
# 1 85.2121 18.7278 16.0391 0.0000 -21.2343 0.0000
# 2 18.7278 43.3025 -4.8567 0.0000 -12.1047 0.0000
# 3 16.0391 -4.8567 84.5409 0.0000 -17.1500 0.0000
# 4 0.0000 0.0000 0.0000 16.9185 0.0000 -3.8571
# 5 -21.2343 -12.1047 -17.1500 0.0000 40.0786 0.0000
# 6 0.0000 0.0000 0.0000 -3.8571 0.0000 16.5876
#
#
#
# Elastic Compliance Matrix: (Units=1/GPa)
#
#
# Indices 1 2 3 4 5 6 
#
# 1 0.014539 -0.005012 -0.001961 0.000000 0.005350 0.000000
# 2 -0.005012 0.027809 0.004067 0.000000 0.007484 0.000000
# 3 -0.001961 0.004067 0.013658 0.000000 0.006034 0.000000
# 4 0.000000 0.000000 0.000000 0.062416 0.000000 0.014514
# 5 0.005350 0.007484 0.006034 0.000000 0.032628 0.000000
# 6 0.000000 0.000000 0.000000 0.014514 0.000000 0.063661
#
#
# Mechanical properties :
#
#
# Convention : Reuss Voigt Hill
#
# Bulk Modulus (GPa) = 19.92296 30.31952 25.12124
# Shear Modulus (GPa) = 21.07430 26.92664 24.00047
#
# Velocity S-wave (km/s) = 3.03591 3.43166 3.23983
# Velocity P-wave (km/s) = 4.58282 5.38162 4.99821
#
# Compressibility (1/GPa) = 0.05019336
#
# Stress axis : x y z
#
# Youngs Moduli (GPa) = 68.77865 35.95925 73.21563
#
# Poissons Ratio (x) = 0.18024 0.14358
# Poissons Ratio (y) = 0.34475 -0.29774
# Poissons Ratio (z) = 0.13488 -0.14623
#
# Static dielectric constant tensor:
#      x y z
#    x 2.007580 0.000000 -0.038640 
#    y 0.000000 1.892010 0.000000 
#    z -0.038640 0.000000 1.837720 
# 
# From -- ./inp_files/21135.got.cif
#   From: 2010.05.17/outbox.cif.g08.bks.cpg/sg9_11_cif.got.tgz:21135.got - 2010.06.03 20:04:27.
