data_PCOD9137559
_publ_section_title
;
Structure prediction by ZEFSAII (Michael W. Deem and Ramdas Pophale) SiO2 
 PCOD9137559
Probable space group: C C
;
_chemical_formula_sum "Si O2"
_cell_formula_units_Z 28
_cell_length_a 13.285593
_cell_length_b 7.315807
_cell_length_c 13.188798
_cell_angle_alpha 90.000000
_cell_angle_beta 63.575605
_cell_angle_gamma 90.000000
_cell_volume 1147.954928
_symmetry_space_group_name_H-M "C C"
_symmetry_group_IT_number 9
_symmetry_cell_setting 'monoclinic'
loop_
_space_group_symop_operation_xyz
x,y,z
x,-y,1/2+z
1/2+x,1/2+y,z
1/2+x,1/2-y,1/2+z
loop_
_atom_site_type_symbol
_atom_site_label
_atom_site_fract_x
_atom_site_fract_y
_atom_site_fract_z
Si Si1 0.026330 0.762433 0.125000
Si Si2 0.237850 0.412469 0.795914
Si Si3 0.258662 0.145567 0.596086
Si Si4 0.564822 0.620193 0.396595
Si Si5 0.974585 0.164187 0.228829
Si Si6 0.508395 0.785460 0.982977
Si Si7 0.291151 0.827638 0.726524
O O1 0.160824 0.754548 0.075773
O O2 0.920199 0.637512 0.203389
O O3 0.007633 0.954750 0.189543
O O4 0.005686 0.778522 0.014804
O O5 0.244271 0.265547 0.703932
O O6 0.342891 0.347209 0.816438
O O7 0.271240 0.609261 0.734431
O O8 0.116696 0.404014 0.903015
O O9 0.385542 0.157881 0.499954
O O10 0.255709 0.937156 0.640461
O O11 0.538843 0.716136 0.301781
O O12 0.525580 0.412399 0.424460
O O13 0.699024 0.608447 0.348793
O O14 0.001027 0.262440 0.109478
#
# Coordination Sequence:
#
# PCOD9137559 Si02
#       7
#     4   4   4   4   4   4   4
#     4  10  23  42  69 103 134 188 244 292 367 438
#     4  10  22  43  69 105 138 187 244 289 374 438
#     4  11  23  48  67 102 149 181 242 313 355 445
#     4  11  22  44  69  98 145 185 233 305 368 433
#     4   9  20  41  67  96 144 179 230 308 348 431
#     4  10  22  42  72 100 141 193 232 304 372 427
#     4  11  24  44  71 102 143 185 237 303 360 442
#
# _framework density 24.391200999999999
#
# number of rings (size 3 to 8) (size 9 to 14) (size 15 to 20)
#    0.000    1.714    2.857    0.857    2.000    4.571 
#    5.143    0.000    0.000    0.000    0.000    0.000 
#    0.000    0.000    0.000    0.000    0.000    0.000 
#
# Total GULP energy -78045.746895 kJ/mol
# GULP energy per Si atom -5574.696207 kJ/mol
# Density = 2.433569 g / cm^3
# Si number density = 24.391201 Si / 1000 Ang^3
#
#
#
# Elastic Constant Matrix: (Units=GPa)
#
#
# Indices 1 2 3 4 5 6 
#
# 1 151.1114 18.1745 55.9734 0.0000 -31.4646 0.0000
# 2 18.1745 69.0000 12.9885 0.0000 -10.7265 0.0000
# 3 55.9734 12.9885 93.1400 0.0000 -26.6419 0.0000
# 4 0.0000 0.0000 0.0000 24.6412 0.0000 -6.6232
# 5 -31.4646 -10.7265 -26.6419 0.0000 50.4081 0.0000
# 6 0.0000 0.0000 0.0000 -6.6232 0.0000 22.6696
#
#
#
# Elastic Compliance Matrix: (Units=1/GPa)
#
#
# Indices 1 2 3 4 5 6 
#
# 1 0.009012 -0.001069 -0.004386 0.000000 0.003080 0.000000
# 2 -0.001069 0.015269 -0.000881 0.000000 0.002116 0.000000
# 3 -0.004386 -0.000881 0.014913 0.000000 0.004957 0.000000
# 4 0.000000 0.000000 0.000000 0.044041 0.000000 0.012867
# 5 0.003080 0.002116 0.004957 0.000000 0.024830 0.000000
# 6 0.000000 0.000000 0.000000 0.012867 0.000000 0.047871
#
#
# Mechanical properties :
#
#
# Convention : Reuss Voigt Hill
#
# Bulk Modulus (GPa) = 37.70605 54.16937 45.93771
# Shear Modulus (GPa) = 28.17685 34.61811 31.39748
#
# Velocity S-wave (km/s) = 3.40252 3.77143 3.59171
# Velocity P-wave (km/s) = 5.56135 6.42041 6.00626
#
# Compressibility (1/GPa) = 0.02652094
#
# Stress axis : x y z
#
# Youngs Moduli (GPa) = 110.96220 65.49098 67.05574
#
# Poissons Ratio (x) = 0.07004 0.29410
# Poissons Ratio (y) = 0.11867 0.05911
# Poissons Ratio (z) = 0.48666 0.05773
#
# Static dielectric constant tensor:
#      x y z
#    x 2.094430 0.000000 -0.018980 
#    y 0.000000 2.176630 0.000000 
#    z -0.018980 0.000000 1.898900 
# 
# From -- ./inp_files/25487.got.cif
#   From: 2010.05.17/outbox.cif.g08.bks.cpg/sg9_13_cif.got.tgz:25487.got - 2010.06.03 20:04:27.
