data_PCOD9137817
_publ_section_title
;
Structure prediction by ZEFSAII (Michael W. Deem and Ramdas Pophale) SiO2 
 PCOD9137817
Probable space group: C C
;
_chemical_formula_sum "Si O2"
_cell_formula_units_Z 32
_cell_length_a 12.178720
_cell_length_b 13.350414
_cell_length_c 12.547988
_cell_angle_alpha 90.000000
_cell_angle_beta 140.482660
_cell_angle_gamma 90.000000
_cell_volume 1298.196379
_symmetry_space_group_name_H-M "C C"
_symmetry_group_IT_number 9
_symmetry_cell_setting 'monoclinic'
loop_
_space_group_symop_operation_xyz
x,y,z
x,-y,1/2+z
1/2+x,1/2+y,z
1/2+x,1/2-y,1/2+z
loop_
_atom_site_type_symbol
_atom_site_label
_atom_site_fract_x
_atom_site_fract_y
_atom_site_fract_z
Si Si1 0.726980 0.791449 0.609810
Si Si2 0.652991 0.833197 0.046541
Si Si3 0.033521 0.664884 0.770502
Si Si4 0.919347 0.817442 0.956379
Si Si5 0.593717 0.510477 0.682531
Si Si6 0.253892 0.155782 0.972506
Si Si7 0.912718 0.520298 0.263028
Si Si8 0.390778 0.675632 0.921416
O O1 0.599256 0.851843 0.441144
O O2 0.611349 0.695833 0.553343
O O3 0.895430 0.753052 0.673800
O O4 0.789644 0.840112 0.764648
O O5 0.666598 0.756396 0.956619
O O6 0.579004 0.937045 0.948720
O O7 0.500932 0.777536 0.000102
O O8 0.822923 0.847519 0.248595
O O9 0.206471 0.687794 0.839241
O O10 0.944441 0.558904 0.690501
O O11 0.874038 0.711407 0.975605
O O12 0.937859 0.911366 0.044858
O O13 0.765610 0.511385 0.737247
O O14 0.658889 0.561684 0.843421
O O15 0.502824 0.406571 0.572092
O O16 0.340258 0.114406 0.143125
#
# Coordination Sequence:
#
# PCOD9137817 Si02
#       8
#     4   4   4   4   4   4   4   4
#     4  10  22  44  70  98 150 184 247 303 379 443
#     4  12  27  52  74 110 156 209 251 326 390 467
#     4  11  25  45  71 111 140 205 241 318 375 459
#     4  11  22  42  72 107 138 194 243 311 372 444
#     4  12  26  46  74 114 146 201 259 322 373 471
#     4  12  26  48  81 103 156 203 254 313 395 453
#     4  12  27  48  74 112 152 195 262 318 381 463
#     4  12  27  47  76 109 154 201 259 313 393 466
#
# _framework density 24.649583
#
# number of rings (size 3 to 8) (size 9 to 14) (size 15 to 20)
#    0.000    0.500    5.000    2.250    5.250    1.000 
#    2.250    0.000    0.000    0.000    0.000    0.000 
#    0.000    0.000    0.000    0.000    0.000    0.000 
#
# Total GULP energy -89171.759819 kJ/mol
# GULP energy per Si atom -5573.234989 kJ/mol
# Density = 2.459348 g / cm^3
# Si number density = 24.649583 Si / 1000 Ang^3
#
#
#
# Elastic Constant Matrix: (Units=GPa)
#
#
# Indices 1 2 3 4 5 6 
#
# 1 82.7139 -12.7333 -11.4942 -0.0002 6.0371 0.0000
# 2 -12.7333 76.4943 14.4620 -0.0001 -3.2290 0.0000
# 3 -11.4942 14.4620 107.3488 -0.0002 -8.0180 0.0000
# 4 -0.0002 -0.0001 -0.0002 -8.0356 -0.0002 11.2087
# 5 6.0371 -3.2290 -8.0180 -0.0002 27.2889 0.0000
# 6 0.0000 0.0000 0.0000 11.2087 0.0000 27.4802
#
#
#
# Elastic Compliance Matrix: (Units=1/GPa)
#
#
# Indices 1 2 3 4 5 6 
#
# 1 0.012671 0.001835 0.000937 0.000000 -0.002311 0.000000
# 2 0.001835 0.013711 -0.001595 0.000000 0.000748 0.000000
# 3 0.000937 -0.001595 0.009816 0.000000 0.002488 0.000000
# 4 0.000000 0.000000 0.000000 -0.079318 0.000000 0.032353
# 5 -0.002311 0.000748 0.002488 0.000000 0.037976 0.000000
# 6 0.000000 0.000000 0.000000 0.032353 0.000000 0.023194
#
#
# Mechanical properties :
#
#
# Convention : Reuss Voigt Hill
#
# Bulk Modulus (GPa) = 25.93879 27.44733 26.69306
# Shear Modulus (GPa) = 175.14594 27.76819 101.45707
#
# Velocity S-wave (km/s) = 8.43852 3.36001 6.42255
# Velocity P-wave (km/s) = 10.27086 5.11977 8.11488
#
# Compressibility (1/GPa) = 0.03855230
#
# Stress axis : x y z
#
# Youngs Moduli (GPa) = 78.91942 72.93226 101.86963
#
# Poissons Ratio (x) = -0.13380 -0.09545
# Poissons Ratio (y) = -0.14478 0.16247
# Poissons Ratio (z) = -0.07395 0.11632
#
# Static dielectric constant tensor:
#      x y z
#    x 2.061730 0.000000 -0.064160 
#    y 0.000000 2.195250 0.000000 
#    z -0.064160 0.000000 1.992540 
# 
# From -- ./inp_files/16897.got.cif
#   From: 2010.05.17/outbox.cif.g08.bks.cpg/sg9_9_cif.got.tgz:16897.got - 2010.06.03 20:04:27.
