data_PCOD9137310
_publ_section_title
;
Structure prediction by ZEFSAII (Michael W. Deem and Ramdas Pophale) SiO2 
 PCOD9137310
Probable space group: C C
;
_chemical_formula_sum "Si O2"
_cell_formula_units_Z 32
_cell_length_a 12.045370
_cell_length_b 7.354498
_cell_length_c 23.491683
_cell_angle_alpha 90.000000
_cell_angle_beta 40.548644
_cell_angle_gamma 90.000000
_cell_volume 1352.891805
_symmetry_space_group_name_H-M "C C"
_symmetry_group_IT_number 9
_symmetry_cell_setting 'monoclinic'
loop_
_space_group_symop_operation_xyz
x,y,z
x,-y,1/2+z
1/2+x,1/2+y,z
1/2+x,1/2-y,1/2+z
loop_
_atom_site_type_symbol
_atom_site_label
_atom_site_fract_x
_atom_site_fract_y
_atom_site_fract_z
Si Si1 0.502920 0.647232 0.598690
Si Si2 0.866798 0.097852 0.248171
Si Si3 0.937898 0.934663 0.519200
Si Si4 0.760646 0.718860 0.684024
Si Si5 0.627114 0.326490 0.734344
Si Si6 0.909286 0.226306 0.429224
Si Si7 0.539481 0.951388 0.936168
Si Si8 0.087913 0.486595 0.040237
O O1 0.482913 0.530755 0.663393
O O2 0.549794 0.523439 0.526502
O O3 0.310813 0.728170 0.660754
O O4 0.621804 0.824132 0.557832
O O5 0.989874 0.224741 0.238818
O O6 0.730668 0.178225 0.254689
O O7 0.733625 0.003592 0.342801
O O8 0.012057 0.763005 0.455596
O O9 0.787553 0.846007 0.618248
O O10 0.914778 0.096778 0.483074
O O11 0.646024 0.544185 0.718783
O O12 0.947025 0.632785 0.626120
O O13 0.556553 0.298551 0.825326
O O14 0.913121 0.436326 0.445362
O O15 0.741488 0.145298 0.466392
O O16 0.507947 0.034351 0.010663
#
# Coordination Sequence:
#
# PCOD9137310 Si02
#       8
#     4   4   4   4   4   4   4   4
#     4  10  22  44  67  98 136 178 231 288 341 407
#     4  11  22  41  68  94 136 176 220 280 349 398
#     4  10  23  41  68  93 134 174 223 286 336 397
#     4   9  23  41  63  96 131 168 226 280 330 405
#     4  11  23  41  68  97 133 180 226 277 345 409
#     4  12  23  41  69  96 135 180 223 280 345 407
#     4  11  22  44  64  96 137 174 223 288 336 411
#     4  10  22  41  63  98 128 176 228 273 340 404
#
# _framework density 23.653036
#
# number of rings (size 3 to 8) (size 9 to 14) (size 15 to 20)
#    0.000    1.500    3.750    0.750    3.500    0.000 
#    4.500    0.000    0.000    0.000    0.000    0.000 
#    0.000    0.000    0.000    0.000    0.000    0.000 
#
# Total GULP energy -89233.267158 kJ/mol
# GULP energy per Si atom -5577.079197 kJ/mol
# Density = 2.359920 g / cm^3
# Si number density = 23.653036 Si / 1000 Ang^3
#
#
#
# Elastic Constant Matrix: (Units=GPa)
#
#
# Indices 1 2 3 4 5 6 
#
# 1 72.6680 15.4294 14.8812 0.0000 16.4493 -0.0003
# 2 15.4294 115.5780 21.7406 0.0000 5.3682 -0.0004
# 3 14.8812 21.7406 76.0653 0.0000 14.7883 0.0000
# 4 0.0000 0.0000 0.0000 25.0438 0.0000 5.6611
# 5 16.4493 5.3682 14.7883 0.0000 32.8817 -0.0001
# 6 -0.0003 -0.0004 0.0000 5.6611 -0.0001 29.6603
#
#
#
# Elastic Compliance Matrix: (Units=1/GPa)
#
#
# Indices 1 2 3 4 5 6 
#
# 1 0.015976 -0.001558 -0.001289 0.000000 -0.007158 0.000000
# 2 -0.001558 0.009299 -0.002421 0.000000 0.000350 0.000000
# 3 -0.001289 -0.002421 0.015219 0.000000 -0.005805 0.000000
# 4 0.000000 0.000000 0.000000 0.041730 0.000000 -0.007965
# 5 -0.007158 0.000350 -0.005805 0.000000 0.036547 0.000000
# 6 0.000000 0.000000 0.000000 -0.007965 0.000000 0.035235
#
#
# Mechanical properties :
#
#
# Convention : Reuss Voigt Hill
#
# Bulk Modulus (GPa) = 33.37836 40.93486 37.15661
# Shear Modulus (GPa) = 28.64850 31.66782 30.15816
#
# Velocity S-wave (km/s) = 3.48400 3.66300 3.57462
# Velocity P-wave (km/s) = 5.50696 5.93583 5.72541
#
# Compressibility (1/GPa) = 0.02995953
#
# Stress axis : x y z
#
# Youngs Moduli (GPa) = 62.59280 107.53483 65.70622
#
# Poissons Ratio (x) = 0.16753 0.08467
# Poissons Ratio (y) = 0.09752 0.15909
# Poissons Ratio (z) = 0.08066 0.26036
#
# Static dielectric constant tensor:
#      x y z
#    x 1.975080 0.000000 -0.013980 
#    y 0.000000 1.976280 0.000000 
#    z -0.013980 0.000000 1.844870 
# 
# From -- ./inp_files/33201.got.cif
#   From: 2010.05.17/outbox.cif.g08.bks.cpg/sg9_17_cif.got.tgz:33201.got - 2010.06.03 20:04:27.
