data_PCOD9137373
_publ_section_title
;
Structure prediction by ZEFSAII (Michael W. Deem and Ramdas Pophale) SiO2 
 PCOD9137373
Probable space group: C C
;
_chemical_formula_sum "Si O2"
_cell_formula_units_Z 28
_cell_length_a 4.974217
_cell_length_b 19.412698
_cell_length_c 16.698900
_cell_angle_alpha 90.000000
_cell_angle_beta 58.284984
_cell_angle_gamma 90.000000
_cell_volume 1371.706905
_symmetry_space_group_name_H-M "C C"
_symmetry_group_IT_number 9
_symmetry_cell_setting 'monoclinic'
loop_
_space_group_symop_operation_xyz
x,y,z
x,-y,1/2+z
1/2+x,1/2+y,z
1/2+x,1/2-y,1/2+z
loop_
_atom_site_type_symbol
_atom_site_label
_atom_site_fract_x
_atom_site_fract_y
_atom_site_fract_z
Si Si1 0.012220 0.284828 0.398550
Si Si2 0.821712 0.079926 0.149829
Si Si3 0.268306 0.866454 0.847580
Si Si4 0.109039 0.558552 0.425200
Si Si5 0.855185 0.511409 0.634787
Si Si6 0.846410 0.079485 0.825220
Si Si7 0.873155 0.158746 0.975881
O O1 0.177094 0.213123 0.356480
O O2 0.171100 0.350007 0.328589
O O3 0.066881 0.306931 0.483136
O O4 0.648307 0.284915 0.433026
O O5 0.578627 0.116498 0.247403
O O6 0.640659 0.012093 0.146603
O O7 0.859496 0.126281 0.065061
O O8 0.146287 0.055216 0.139816
O O9 0.366062 0.890338 0.920777
O O10 0.962868 0.910557 0.868829
O O11 0.123918 0.486882 0.373056
O O12 0.996562 0.543550 0.532394
O O13 0.621630 0.559422 0.721866
O O14 0.958694 0.098936 0.898027
#
# Coordination Sequence:
#
# PCOD9137373 Si02
#       7
#     4   4   4   4   4   4   4
#     4  10  24  43  63  91 135 174 209 265 326 395
#     4  12  22  40  69  99 126 172 218 266 327 399
#     4  12  25  45  64 100 135 169 215 279 329 378
#     4  12  24  42  69  95 133 167 218 282 323 378
#     4  12  24  38  68 102 125 165 224 269 329 381
#     4  10  23  41  67  92 129 172 214 267 319 394
#     4  10  22  41  68  87 131 173 218 250 325 401
#
# _framework density 20.412524000000001
#
# number of rings (size 3 to 8) (size 9 to 14) (size 15 to 20)
#    0.857    0.000    4.286    3.429    4.000    0.000 
#    5.143    0.000    0.000    0.000    0.000    0.000 
#    0.000    0.000    0.000    0.000    0.000    0.000 
#
# Total GULP energy -78172.275856 kJ/mol
# GULP energy per Si atom -5583.733990 kJ/mol
# Density = 2.036606 g / cm^3
# Si number density = 20.412524 Si / 1000 Ang^3
#
#
#
# Elastic Constant Matrix: (Units=GPa)
#
#
# Indices 1 2 3 4 5 6 
#
# 1 55.4240 -4.0099 -18.4055 0.0000 -4.3671 0.0000
# 2 -4.0099 84.7370 17.5377 0.0000 -4.1645 0.0000
# 3 -18.4055 17.5377 85.7474 0.0000 4.4594 0.0000
# 4 0.0000 0.0000 0.0000 18.5299 0.0000 -3.0163
# 5 -4.3671 -4.1645 4.4594 0.0000 15.4441 0.0000
# 6 0.0000 0.0000 0.0000 -3.0163 0.0000 22.2223
#
#
#
# Elastic Compliance Matrix: (Units=1/GPa)
#
#
# Indices 1 2 3 4 5 6 
#
# 1 0.019730 0.000344 0.003929 0.000000 0.004537 0.000000
# 2 0.000344 0.012592 -0.002724 0.000000 0.004279 0.000000
# 3 0.003929 -0.002724 0.013242 0.000000 -0.003447 0.000000
# 4 0.000000 0.000000 0.000000 0.055186 0.000000 0.007491
# 5 0.004537 0.004279 -0.003447 0.000000 0.068182 0.000000
# 6 0.000000 0.000000 0.000000 0.007491 0.000000 0.046016
#
#
# Mechanical properties :
#
#
# Convention : Reuss Voigt Hill
#
# Bulk Modulus (GPa) = 20.55099 24.01701 22.28400
# Shear Modulus (GPa) = 21.92299 26.62502 24.27400
#
# Velocity S-wave (km/s) = 3.28074 3.61549 3.45218
# Velocity P-wave (km/s) = 4.94376 5.40559 5.17982
#
# Compressibility (1/GPa) = 0.04865945
#
# Stress axis : x y z
#
# Youngs Moduli (GPa) = 50.68485 79.41809 75.51797
#
# Poissons Ratio (x) = -0.02728 -0.29669
# Poissons Ratio (y) = -0.01741 0.20572
# Poissons Ratio (z) = -0.19913 0.21635
#
# Static dielectric constant tensor:
#      x y z
#    x 1.719390 0.000000 0.007030 
#    y 0.000000 1.728080 0.000000 
#    z 0.007030 0.000000 1.713090 
# 
# From -- ./inp_files/28749.got.cif
#   From: 2010.05.17/outbox.cif.g08.bks.cpg/sg9_15_cif.got.tgz:28749.got - 2010.06.03 20:04:27.
