data_PCOD9137747
_publ_section_title
;
Structure prediction by ZEFSAII (Michael W. Deem and Ramdas Pophale) SiO2 
 PCOD9137747
Probable space group: C C
;
_chemical_formula_sum "Si O2"
_cell_formula_units_Z 32
_cell_length_a 13.088978
_cell_length_b 11.854265
_cell_length_c 8.454059
_cell_angle_alpha 90.000000
_cell_angle_beta 85.319002
_cell_angle_gamma 90.000000
_cell_volume 1307.358323
_symmetry_space_group_name_H-M "C C"
_symmetry_group_IT_number 9
_symmetry_cell_setting 'monoclinic'
loop_
_space_group_symop_operation_xyz
x,y,z
x,-y,1/2+z
1/2+x,1/2+y,z
1/2+x,1/2-y,1/2+z
loop_
_atom_site_type_symbol
_atom_site_label
_atom_site_fract_x
_atom_site_fract_y
_atom_site_fract_z
Si Si1 0.450390 0.229718 0.908060
Si Si2 0.305621 0.593610 0.044511
Si Si3 0.395412 0.836108 0.954637
Si Si4 0.602709 0.547004 0.920256
Si Si5 0.261281 0.613831 0.373128
Si Si6 0.330590 0.967954 0.273251
Si Si7 0.597903 0.770779 0.102096
Si Si8 0.474948 0.404342 0.134679
O O1 0.373576 0.326710 0.846664
O O2 0.391673 0.113889 0.886111
O O3 0.551801 0.219762 0.784520
O O4 0.454485 0.276430 0.085510
O O5 0.349231 0.710430 0.973008
O O6 0.226949 0.624121 0.195726
O O7 0.388772 0.500158 0.104652
O O8 0.258313 0.517885 0.913631
O O9 0.346600 0.912197 0.101082
O O10 0.512847 0.824038 0.994644
O O11 0.371497 0.907177 0.801623
O O12 0.711449 0.538647 0.826597
O O13 0.517157 0.580983 0.803530
O O14 0.604979 0.639522 0.057986
O O15 0.567650 0.432726 0.004044
O O16 0.202115 0.674103 0.524097
#
# Coordination Sequence:
#
# PCOD9137747 Si02
#       8
#     4   4   4   4   4   4   4   4
#     4  10  22  44  67 100 142 183 232 296 354 413
#     4  11  22  44  68 101 140 180 232 297 351 418
#     4  11  24  45  66  93 141 185 230 286 357 418
#     4  12  21  39  66 104 129 181 236 286 343 419
#     4  11  22  42  71 102 137 179 231 293 355 409
#     4  11  24  44  66  95 143 184 222 296 353 417
#     4  11  22  42  71  96 142 185 226 293 349 423
#     4  11  23  38  73 105 136 179 243 297 348 415
#
# _framework density 24.476838999999998
#
# number of rings (size 3 to 8) (size 9 to 14) (size 15 to 20)
#    0.000    1.000    5.000    3.000    0.000    3.000 
#    2.250    5.000    2.750    0.000    0.000    0.000 
#    0.000    0.000    0.000    0.000    0.000    0.000 
#
# Total GULP energy -89415.287981 kJ/mol
# GULP energy per Si atom -5588.455499 kJ/mol
# Density = 2.442113 g / cm^3
# Si number density = 24.476839 Si / 1000 Ang^3
#
#
#
# Elastic Constant Matrix: (Units=GPa)
#
#
# Indices 1 2 3 4 5 6 
#
# 1 34.4446 21.5802 19.3934 0.0000 -22.0069 0.0000
# 2 21.5802 149.0332 59.3396 0.0000 -5.6193 0.0000
# 3 19.3934 59.3396 75.7508 0.0000 -13.3734 0.0000
# 4 0.0000 0.0000 0.0000 45.7602 0.0000 9.9611
# 5 -22.0069 -5.6193 -13.3734 0.0000 32.6891 0.0000
# 6 0.0000 0.0000 0.0000 9.9611 0.0000 22.2245
#
#
#
# Elastic Compliance Matrix: (Units=1/GPa)
#
#
# Indices 1 2 3 4 5 6 
#
# 1 0.058033 -0.005340 -0.004246 0.000000 0.036414 0.000000
# 2 -0.005340 0.010317 -0.007584 0.000000 -0.004924 0.000000
# 3 -0.004246 -0.007584 0.021012 0.000000 0.004434 0.000000
# 4 0.000000 0.000000 0.000000 0.024216 0.000000 -0.010854
# 5 0.036414 -0.004924 0.004434 0.000000 0.056074 0.000000
# 6 0.000000 0.000000 0.000000 -0.010854 0.000000 0.049860
#
#
# Mechanical properties :
#
#
# Convention : Reuss Voigt Hill
#
# Bulk Modulus (GPa) = 18.17417 51.09499 34.63458
# Shear Modulus (GPa) = 18.36933 30.72912 24.54922
#
# Velocity S-wave (km/s) = 2.74246 3.54706 3.17039
# Velocity P-wave (km/s) = 4.17962 6.13968 5.25190
#
# Compressibility (1/GPa) = 0.05502314
#
# Stress axis : x y z
#
# Youngs Moduli (GPa) = 17.23144 96.92495 47.59143
#
# Poissons Ratio (x) = 0.51756 0.20206
# Poissons Ratio (y) = 0.09201 0.36095
# Poissons Ratio (z) = 0.07316 0.73511
#
# Static dielectric constant tensor:
#      x y z
#    x 2.012430 0.000000 0.042940 
#    y 0.000000 1.933090 0.000000 
#    z 0.042940 0.000000 2.003310 
# 
# From -- ./inp_files/9251.got.cif
#   From: 2010.05.17/outbox.cif.g08.bks.cpg/sg9_5_cif.got.tgz:9251.got - 2010.06.03 20:04:27.
