data_PCOD9137236
_publ_section_title
;
Structure prediction by ZEFSAII (Michael W. Deem and Ramdas Pophale) SiO2 
 PCOD9137236
Probable space group: C C
;
_chemical_formula_sum "Si O2"
_cell_formula_units_Z 24
_cell_length_a 7.705647
_cell_length_b 22.767909
_cell_length_c 7.352430
_cell_angle_alpha 90.000000
_cell_angle_beta 76.772623
_cell_angle_gamma 90.000000
_cell_volume 1255.699107
_symmetry_space_group_name_H-M "C C"
_symmetry_group_IT_number 9
_symmetry_cell_setting 'monoclinic'
loop_
_space_group_symop_operation_xyz
x,y,z
x,-y,1/2+z
1/2+x,1/2+y,z
1/2+x,1/2-y,1/2+z
loop_
_atom_site_type_symbol
_atom_site_label
_atom_site_fract_x
_atom_site_fract_y
_atom_site_fract_z
Si Si1 0.487610 0.365016 0.224640
Si Si2 0.836939 0.084217 0.418952
Si Si3 0.611164 0.809681 0.877865
Si Si4 0.839465 0.295578 0.250215
Si Si5 0.827633 0.048340 0.016774
Si Si6 0.111201 0.652866 0.969228
O O1 0.660161 0.329800 0.239948
O O2 0.470431 0.426484 0.339090
O O3 0.305055 0.332051 0.333132
O O4 0.473241 0.381541 0.016494
O O5 0.666891 0.126734 0.442373
O O6 0.888851 0.070850 0.199326
O O7 0.800299 0.020789 0.515400
O O8 0.778778 0.765986 0.850648
O O9 0.576977 0.816248 0.670743
O O10 0.453173 0.786304 0.040184
O O11 0.958795 0.331311 0.364743
O O12 0.647622 0.084058 0.006235
#
# Coordination Sequence:
#
# PCOD9137236 Si02
#       6
#     4   4   4   4   4   4
#     4  10  22  40  66  94 129 173 214 269 324 382
#     4  11  19  40  70  94 127 175 214 262 334 385
#     4  11  25  40  67  95 131 179 212 276 322 386
#     4  12  25  43  63  98 132 171 229 263 329 385
#     4   9  19  38  70  91 126 172 213 265 332 381
#     4   9  22  43  64  96 129 172 212 273 323 387
#
# _framework density 19.112857000000002
#
# number of rings (size 3 to 8) (size 9 to 14) (size 15 to 20)
#    1.000    0.667    3.333    1.000    2.333    2.667 
#    0.000    1.667    0.000    0.000    0.000    0.000 
#    0.000    0.000    0.000    0.000    0.000    0.000 
#
# Total GULP energy -66843.315603 kJ/mol
# GULP energy per Si atom -5570.276300 kJ/mol
# Density = 1.906936 g / cm^3
# Si number density = 19.112857 Si / 1000 Ang^3
#
#
#
# Elastic Constant Matrix: (Units=GPa)
#
#
# Indices 1 2 3 4 5 6 
#
# 1 94.8332 27.3782 51.9873 0.0000 13.4850 0.0000
# 2 27.3782 78.4527 31.1000 0.0000 -0.3440 0.0000
# 3 51.9873 31.1000 104.3625 0.0000 14.3330 0.0000
# 4 0.0000 0.0000 0.0000 23.7459 0.0000 9.2293
# 5 13.4850 -0.3440 14.3330 0.0000 36.0730 0.0000
# 6 0.0000 0.0000 0.0000 9.2293 0.0000 17.0441
#
#
#
# Elastic Compliance Matrix: (Units=1/GPa)
#
#
# Indices 1 2 3 4 5 6 
#
# 1 0.015294 -0.002843 -0.006328 0.000000 -0.003230 0.000000
# 2 -0.002843 0.015114 -0.003441 0.000000 0.002574 0.000000
# 3 -0.006328 -0.003441 0.014215 0.000000 -0.003315 0.000000
# 4 0.000000 0.000000 0.000000 0.053338 0.000000 -0.028882
# 5 -0.003230 0.002574 -0.003315 0.000000 0.030271 0.000000
# 6 0.000000 0.000000 0.000000 -0.028882 0.000000 0.074311
#
#
# Mechanical properties :
#
#
# Convention : Reuss Voigt Hill
#
# Bulk Modulus (GPa) = 51.54932 55.39771 53.47352
# Shear Modulus (GPa) = 21.34627 26.51813 23.93220
#
# Velocity S-wave (km/s) = 3.34556 3.72889 3.54241
# Velocity P-wave (km/s) = 6.47714 6.89833 6.69105
#
# Compressibility (1/GPa) = 0.01939890
#
# Stress axis : x y z
#
# Youngs Moduli (GPa) = 65.38654 66.16314 70.34878
#
# Poissons Ratio (x) = 0.18810 0.44514
# Poissons Ratio (y) = 0.18589 0.24210
# Poissons Ratio (z) = 0.41374 0.22769
#
# Static dielectric constant tensor:
#      x y z
#    x 1.632400 0.000000 0.017440 
#    y 0.000000 1.683490 0.000000 
#    z 0.017440 0.000000 1.696660 
# 
# From -- ./inp_files/3929.got.cif
#   From: 2010.05.17/outbox.cif.g08.bks.cpg/sg9_2_cif.got.tgz:3929.got - 2010.06.03 20:04:27.
