data_PCOD9137087
_publ_section_title
;
Structure prediction by ZEFSAII (Michael W. Deem and Ramdas Pophale) SiO2 
 PCOD9137087
Probable space group: C C
;
_chemical_formula_sum "Si O2"
_cell_formula_units_Z 32
_cell_length_a 20.122027
_cell_length_b 10.061982
_cell_length_c 11.038886
_cell_angle_alpha 90.000000
_cell_angle_beta 41.831977
_cell_angle_gamma 90.000000
_cell_volume 1490.639961
_symmetry_space_group_name_H-M "C C"
_symmetry_group_IT_number 9
_symmetry_cell_setting 'monoclinic'
loop_
_space_group_symop_operation_xyz
x,y,z
x,-y,1/2+z
1/2+x,1/2+y,z
1/2+x,1/2-y,1/2+z
loop_
_atom_site_type_symbol
_atom_site_label
_atom_site_fract_x
_atom_site_fract_y
_atom_site_fract_z
Si Si1 0.987020 0.980717 0.559070
Si Si2 0.787391 0.899031 0.715625
Si Si3 0.109126 0.745562 0.516376
Si Si4 0.476332 0.015080 0.578084
Si Si5 0.831334 0.844592 0.414158
Si Si6 0.951445 0.394349 0.847899
Si Si7 0.082901 0.247697 0.340974
Si Si8 0.675952 0.839277 0.447846
O O1 0.903189 0.905514 0.593882
O O2 0.058151 0.878312 0.532539
O O3 0.917082 0.064351 0.743813
O O4 0.043160 0.097431 0.410191
O O5 0.726711 0.767520 0.831873
O O6 0.772015 0.927928 0.594540
O O7 0.730509 0.018360 0.861217
O O8 0.058840 0.623950 0.508376
O O9 0.096344 0.729443 0.679187
O O10 0.434482 0.063287 0.507908
O O11 0.420472 0.995394 0.781825
O O12 0.512502 0.866400 0.488929
O O13 0.755565 0.771443 0.427317
O O14 0.887566 0.733910 0.411947
O O15 0.068982 0.361319 0.658678
O O16 0.168410 0.268227 0.327559
#
# Coordination Sequence:
#
# PCOD9137087 Si02
#       8
#     4   4   4   4   4   4   4   4
#     4  11  25  44  71 101 139 185 235 290 351 415
#     4  11  23  41  70 103 130 182 236 278 346 431
#     4  12  24  43  73 102 143 184 234 296 348 424
#     4  11  20  38  70 101 134 183 229 282 347 417
#     4  11  23  42  68  99 139 180 234 281 351 422
#     4  11  21  41  70 101 138 182 238 283 350 413
#     4  11  22  45  68 105 138 184 232 293 351 415
#     4  10  22  38  70  98 133 182 230 279 344 419
#
# _framework density 21.467290999999999
#
# number of rings (size 3 to 8) (size 9 to 14) (size 15 to 20)
#    0.000    1.000    6.250    2.250    3.500    0.000 
#    2.250    2.500    0.000    0.000    0.000    0.000 
#    0.000    0.000    0.000    0.000    0.000    0.000 
#
# Total GULP energy -89104.633454 kJ/mol
# GULP energy per Si atom -5569.039591 kJ/mol
# Density = 2.141843 g / cm^3
# Si number density = 21.467291 Si / 1000 Ang^3
#
#
#
# Elastic Constant Matrix: (Units=GPa)
#
#
# Indices 1 2 3 4 5 6 
#
# 1 158.1679 57.7904 42.9094 0.0000 27.1696 0.0000
# 2 57.7904 67.3535 5.2956 0.0000 1.4607 0.0000
# 3 42.9094 5.2956 58.5736 0.0000 23.0820 0.0000
# 4 0.0000 0.0000 0.0000 24.8962 0.0000 7.1561
# 5 27.1696 1.4607 23.0820 0.0000 38.4614 0.0000
# 6 0.0000 0.0000 0.0000 7.1561 0.0000 46.7883
#
#
#
# Elastic Compliance Matrix: (Units=1/GPa)
#
#
# Indices 1 2 3 4 5 6 
#
# 1 0.012606 -0.010206 -0.006491 0.000000 -0.004622 0.000000
# 2 -0.010206 0.023219 0.003777 0.000000 0.004061 0.000000
# 3 -0.006491 0.003777 0.025849 0.000000 -0.011071 0.000000
# 4 0.000000 0.000000 0.000000 0.042014 0.000000 -0.006426
# 5 -0.004622 0.004061 -0.011071 0.000000 0.035755 0.000000
# 6 0.000000 0.000000 0.000000 -0.006426 0.000000 0.022356
#
#
# Mechanical properties :
#
#
# Convention : Reuss Voigt Hill
#
# Bulk Modulus (GPa) = 27.90606 55.12067 41.51337
# Shear Modulus (GPa) = 25.05231 33.90247 29.47739
#
# Velocity S-wave (km/s) = 3.41984 3.97830 3.70960
# Velocity P-wave (km/s) = 5.34989 6.84360 6.14232
#
# Compressibility (1/GPa) = 0.03583450
#
# Stress axis : x y z
#
# Youngs Moduli (GPa) = 79.32613 43.06875 38.68652
#
# Poissons Ratio (x) = 0.43955 0.25111
# Poissons Ratio (y) = 0.80958 -0.14612
# Poissons Ratio (z) = 0.51489 -0.16267
#
# Static dielectric constant tensor:
#      x y z
#    x 1.857580 0.000000 0.008790 
#    y 0.000000 1.819420 0.000000 
#    z 0.008790 0.000000 1.833620 
# 
# From -- ./inp_files/20809.got.cif
#   From: 2010.05.17/outbox.cif.g08.bks.cpg/sg9_11_cif.got.tgz:20809.got - 2010.06.03 20:04:27.
