data_PCOD9137319
_publ_section_title
;
Structure prediction by ZEFSAII (Michael W. Deem and Ramdas Pophale) SiO2 
 PCOD9137319
Probable space group: C C
;
_chemical_formula_sum "Si O2"
_cell_formula_units_Z 28
_cell_length_a 10.181206
_cell_length_b 9.345591
_cell_length_c 23.800674
_cell_angle_alpha 90.000000
_cell_angle_beta 35.223772
_cell_angle_gamma 90.000000
_cell_volume 1306.167558
_symmetry_space_group_name_H-M "C C"
_symmetry_group_IT_number 9
_symmetry_cell_setting 'monoclinic'
loop_
_space_group_symop_operation_xyz
x,y,z
x,-y,1/2+z
1/2+x,1/2+y,z
1/2+x,1/2-y,1/2+z
loop_
_atom_site_type_symbol
_atom_site_label
_atom_site_fract_x
_atom_site_fract_y
_atom_site_fract_z
Si Si1 0.922940 0.991090 0.021770
Si Si2 0.699046 0.726449 0.729798
Si Si3 0.500299 0.173099 0.725542
Si Si4 0.546766 0.804346 0.625353
Si Si5 0.571480 0.521338 0.086929
Si Si6 0.265079 0.946288 0.633907
Si Si7 0.318265 0.898999 0.820805
O O1 0.718823 0.889670 0.115412
O O2 0.104813 0.007643 0.008780
O O3 0.800917 0.141460 0.050823
O O4 0.054339 0.918584 0.924828
O O5 0.726460 0.603143 0.673362
O O6 0.443650 0.783019 0.815492
O O7 0.783696 0.671901 0.760016
O O8 0.871875 0.859869 0.659691
O O9 0.565550 0.332735 0.720543
O O10 0.437707 0.052332 0.791813
O O11 0.504483 0.637749 0.630441
O O12 0.391481 0.856759 0.731837
O O13 0.480979 0.885067 0.591071
O O14 0.760708 0.558617 0.067674
#
# Coordination Sequence:
#
# PCOD9137319 Si02
#       7
#     4   4   4   4   4   4   4
#     4  11  22  40  68  93 130 171 220 268 324 386
#     4  11  20  39  67  93 122 173 215 266 321 390
#     4  10  22  41  64  91 131 171 209 277 324 388
#     4  11  21  42  66  88 129 171 206 273 330 376
#     4  11  21  39  67  90 123 171 213 261 329 382
#     4  11  20  37  71  88 119 172 217 254 337 384
#     4  11  22  40  67  93 130 173 220 267 327 386
#
# _framework density 21.436758999999999
#
# number of rings (size 3 to 8) (size 9 to 14) (size 15 to 20)
#    0.000    1.143    8.571    0.000    0.000    1.143 
#    0.000    5.714   15.714    0.000    0.000    0.000 
#    0.000    0.000    0.000    0.000    0.000    0.000 
#
# Total GULP energy -78024.851661 kJ/mol
# GULP energy per Si atom -5573.203690 kJ/mol
# Density = 2.138797 g / cm^3
# Si number density = 21.436759 Si / 1000 Ang^3
#
#
#
# Elastic Constant Matrix: (Units=GPa)
#
#
# Indices 1 2 3 4 5 6 
#
# 1 131.9598 20.7451 5.6598 0.0000 -6.5264 0.0000
# 2 20.7451 138.4021 15.6238 0.0000 -4.3196 0.0000
# 3 5.6598 15.6238 66.0906 -0.0001 0.6882 0.0000
# 4 0.0000 0.0000 -0.0001 5.6819 0.0000 -7.7192
# 5 -6.5264 -4.3196 0.6882 0.0000 11.0864 0.0000
# 6 0.0000 0.0000 0.0000 -7.7192 0.0000 46.0299
#
#
#
# Elastic Compliance Matrix: (Units=1/GPa)
#
#
# Indices 1 2 3 4 5 6 
#
# 1 0.007971 -0.001004 -0.000490 0.000000 0.004332 0.000000
# 2 -0.001004 0.007651 -0.001749 0.000000 0.002499 0.000000
# 3 -0.000490 -0.001749 0.015606 0.000000 -0.001939 0.000000
# 4 0.000000 0.000000 0.000000 0.227923 0.000000 0.038223
# 5 0.004332 0.002499 -0.001939 0.000000 0.093844 0.000000
# 6 0.000000 0.000000 0.000000 0.038223 0.000000 0.028135
#
#
# Mechanical properties :
#
#
# Convention : Reuss Voigt Hill
#
# Bulk Modulus (GPa) = 40.41698 46.72333 43.57016
# Shear Modulus (GPa) = 12.63057 32.18791 22.40924
#
# Velocity S-wave (km/s) = 2.42998 3.87916 3.23672
# Velocity P-wave (km/s) = 5.17379 6.47357 5.85983
#
# Compressibility (1/GPa) = 0.02474207
#
# Stress axis : x y z
#
# Youngs Moduli (GPa) = 125.45154 130.69766 64.07660
#
# Poissons Ratio (x) = 0.13125 0.03142
# Poissons Ratio (y) = 0.12599 0.11206
# Poissons Ratio (z) = 0.06151 0.22856
#
# Static dielectric constant tensor:
#      x y z
#    x 1.866450 0.000000 0.006960 
#    y 0.000000 1.829660 0.000000 
#    z 0.006960 0.000000 1.729690 
# 
# From -- ./inp_files/29881.got.cif
#   From: 2010.05.17/outbox.cif.g08.bks.cpg/sg9_15_cif.got.tgz:29881.got - 2010.06.03 20:04:27.
