data_PCOD9137537
_publ_section_title
;
Structure prediction by ZEFSAII (Michael W. Deem and Ramdas Pophale) SiO2 
 PCOD9137537
Probable space group: C C
;
_chemical_formula_sum "Si O2"
_cell_formula_units_Z 20
_cell_length_a 9.188483
_cell_length_b 18.492703
_cell_length_c 5.047378
_cell_angle_alpha 90.000000
_cell_angle_beta 113.763429
_cell_angle_gamma 90.000000
_cell_volume 784.935818
_symmetry_space_group_name_H-M "C C"
_symmetry_group_IT_number 9
_symmetry_cell_setting 'monoclinic'
loop_
_space_group_symop_operation_xyz
x,y,z
x,-y,1/2+z
1/2+x,1/2+y,z
1/2+x,1/2-y,1/2+z
loop_
_atom_site_type_symbol
_atom_site_label
_atom_site_fract_x
_atom_site_fract_y
_atom_site_fract_z
Si Si1 0.038230 0.651009 0.630990
Si Si2 0.282802 0.243861 0.129654
Si Si3 0.024045 0.146966 0.650937
Si Si4 0.786551 0.447345 0.156274
Si Si5 0.793272 0.957371 0.260064
O O1 0.181809 0.708709 0.770325
O O2 0.134831 0.585977 0.565767
O O3 0.910406 0.693191 0.363099
O O4 0.932739 0.609792 0.770617
O O5 0.378475 0.297342 0.999650
O O6 0.156677 0.195049 0.889030
O O7 0.124460 0.099861 0.518364
O O8 0.944903 0.089048 0.789332
O O9 0.792679 0.498317 0.415318
O O10 0.793590 0.973101 0.571199
#
# Coordination Sequence:
#
# PCOD9137537 Si02
#       5
#     4   4   4   4   4
#     4  10  22  42  70 101 141 181 234 286 346 414
#     4   9  21  44  70 104 139 187 232 288 348 411
#     4  10  22  42  70 101 141 181 234 286 346 414
#     4  12  25  42  68 100 135 178 226 282 340 404
#     4  11  24  44  70 100 138 183 228 284 346 413
#
# _framework density 25.479787999999999
#
# number of rings (size 3 to 8) (size 9 to 14) (size 15 to 20)
#    0.000    1.600    0.000    3.600    0.000    4.800 
#    0.000   14.000    0.000    0.000    0.000    0.000 
#    0.000    0.000    0.000    0.000    0.000    0.000 
#
# Total GULP energy -55941.211373 kJ/mol
# GULP energy per Si atom -5594.121137 kJ/mol
# Density = 2.542179 g / cm^3
# Si number density = 25.479788 Si / 1000 Ang^3
#
#
#
# Elastic Constant Matrix: (Units=GPa)
#
#
# Indices 1 2 3 4 5 6 
#
# 1 194.2130 73.3644 31.6824 0.0000 6.4061 0.0000
# 2 73.3644 114.8330 23.8784 0.0000 -0.4734 0.0000
# 3 31.6824 23.8784 67.6316 0.0000 -4.1162 0.0000
# 4 0.0000 0.0000 0.0000 10.7702 0.0000 -6.4768
# 5 6.4061 -0.4734 -4.1162 0.0000 34.0731 0.0000
# 6 0.0000 0.0000 0.0000 -6.4768 0.0000 84.0284
#
#
#
# Elastic Compliance Matrix: (Units=1/GPa)
#
#
# Indices 1 2 3 4 5 6 
#
# 1 0.007079 -0.004122 -0.001960 0.000000 -0.001625 0.000000
# 2 -0.004122 0.011801 -0.002194 0.000000 0.000674 0.000000
# 3 -0.001960 -0.002194 0.016622 0.000000 0.002346 0.000000
# 4 0.000000 0.000000 0.000000 0.097361 0.000000 0.007504
# 5 -0.001625 0.000674 0.002346 0.000000 0.029947 0.000000
# 6 0.000000 0.000000 0.000000 0.007504 0.000000 0.012479
#
#
# Mechanical properties :
#
#
# Convention : Reuss Voigt Hill
#
# Bulk Modulus (GPa) = 52.77298 70.50308 61.63803
# Shear Modulus (GPa) = 25.23230 42.29119 33.76174
#
# Velocity S-wave (km/s) = 3.15030 4.07848 3.64406
# Velocity P-wave (km/s) = 5.83002 7.06462 6.47681
#
# Compressibility (1/GPa) = 0.01894909
#
# Stress axis : x y z
#
# Youngs Moduli (GPa) = 141.25430 84.73937 60.16225
#
# Poissons Ratio (x) = 0.34930 0.11791
# Poissons Ratio (y) = 0.58226 0.13202
# Poissons Ratio (z) = 0.27685 0.18596
#
# Static dielectric constant tensor:
#      x y z
#    x 2.034660 0.000000 -0.045380 
#    y 0.000000 2.046930 0.000000 
#    z -0.045380 0.000000 2.000610 
# 
# From -- ./inp_files/468.got.cif
#   From: 2010.05.17/outbox.cif.g08.bks.cpg/sg9_1_cif.got.tgz:468.got - 2010.06.03 20:04:27.
