data_PCOD9137684
_publ_section_title
;
Structure prediction by ZEFSAII (Michael W. Deem and Ramdas Pophale) SiO2 
 PCOD9137684
Probable space group: C C
;
_chemical_formula_sum "Si O2"
_cell_formula_units_Z 32
_cell_length_a 14.736668
_cell_length_b 10.635617
_cell_length_c 9.428384
_cell_angle_alpha 90.000000
_cell_angle_beta 116.062501
_cell_angle_gamma 90.000000
_cell_volume 1327.480209
_symmetry_space_group_name_H-M "C C"
_symmetry_group_IT_number 9
_symmetry_cell_setting 'monoclinic'
loop_
_space_group_symop_operation_xyz
x,y,z
x,-y,1/2+z
1/2+x,1/2+y,z
1/2+x,1/2-y,1/2+z
loop_
_atom_site_type_symbol
_atom_site_label
_atom_site_fract_x
_atom_site_fract_y
_atom_site_fract_z
Si Si1 0.531780 0.340233 0.224880
Si Si2 0.849631 0.915645 0.284854
Si Si3 0.162992 0.279181 0.024615
Si Si4 0.770630 0.437158 0.057092
Si Si5 0.456055 0.919855 0.548541
Si Si6 0.137917 0.062059 0.199559
Si Si7 0.069810 0.459900 0.364090
Si Si8 0.784593 0.148709 0.058004
O O1 0.459633 0.381853 0.303184
O O2 0.640480 0.300414 0.366287
O O3 0.481588 0.220837 0.116004
O O4 0.550007 0.459059 0.137565
O O5 0.773966 0.819119 0.150360
O O6 0.831565 0.895983 0.439459
O O7 0.819694 0.054165 0.206580
O O8 0.116189 0.197219 0.118700
O O9 0.106800 0.406788 0.949811
O O10 0.852439 0.525249 0.036340
O O11 0.728629 0.505509 0.166901
O O12 0.807690 0.294043 0.102864
O O13 0.676234 0.423568 0.885021
O O14 0.473866 0.925490 0.393646
O O15 0.538795 0.010119 0.682940
O O16 0.163661 0.368660 0.454510
#
# Coordination Sequence:
#
# PCOD9137684 Si02
#       8
#     4   4   4   4   4   4   4   4
#     4  11  26  43  72  98 143 186 239 288 359 427
#     4  11  25  46  72 102 142 186 237 293 359 424
#     4  10  22  44  70  94 137 182 226 290 354 413
#     4  12  26  43  72 101 146 183 242 291 359 422
#     4  11  24  43  68 105 134 184 238 290 350 426
#     4  12  24  44  67 103 137 186 229 294 355 417
#     4  10  22  43  70  97 136 179 233 289 350 421
#     4  11  25  46  69 104 141 188 234 295 358 426
#
# _framework density 24.105817999999999
#
# number of rings (size 3 to 8) (size 9 to 14) (size 15 to 20)
#    0.000    1.000    2.500    3.750    5.250    2.000 
#    2.250    0.000    0.000    0.000    0.000    0.000 
#    0.000    0.000    0.000    0.000    0.000    0.000 
#
# Total GULP energy -89548.181487 kJ/mol
# GULP energy per Si atom -5596.761343 kJ/mol
# Density = 2.405095 g / cm^3
# Si number density = 24.105818 Si / 1000 Ang^3
#
#
#
# Elastic Constant Matrix: (Units=GPa)
#
#
# Indices 1 2 3 4 5 6 
#
# 1 95.3277 24.8596 -0.8217 0.0000 -12.3233 0.0000
# 2 24.8596 126.1929 18.9258 0.0000 4.7405 0.0000
# 3 -0.8217 18.9258 64.7842 0.0000 -4.2100 0.0000
# 4 0.0000 0.0000 0.0000 37.7300 0.0000 -4.4452
# 5 -12.3233 4.7405 -4.2100 0.0000 37.9294 0.0000
# 6 0.0000 0.0000 0.0000 -4.4452 0.0000 26.7131
#
#
#
# Elastic Compliance Matrix: (Units=1/GPa)
#
#
# Indices 1 2 3 4 5 6 
#
# 1 0.011746 -0.002655 0.001203 0.000000 0.004282 0.000000
# 2 -0.002655 0.008953 -0.002798 0.000000 -0.002292 0.000000
# 3 0.001203 -0.002798 0.016435 0.000000 0.002565 0.000000
# 4 0.000000 0.000000 0.000000 0.027034 0.000000 0.004499
# 5 0.004282 -0.002292 0.002565 0.000000 0.028327 0.000000
# 6 0.000000 0.000000 0.000000 0.004499 0.000000 0.038183
#
#
# Mechanical properties :
#
#
# Convention : Reuss Voigt Hill
#
# Bulk Modulus (GPa) = 34.92367 41.35913 38.14140
# Shear Modulus (GPa) = 33.61902 36.69724 35.15813
#
# Velocity S-wave (km/s) = 3.73854 3.90595 3.82316
# Velocity P-wave (km/s) = 5.75801 6.12670 5.94522
#
# Compressibility (1/GPa) = 0.02863387
#
# Stress axis : x y z
#
# Youngs Moduli (GPa) = 85.13201 111.69160 60.84484
#
# Poissons Ratio (x) = 0.29657 -0.07319
# Poissons Ratio (y) = 0.22605 0.17026
# Poissons Ratio (z) = -0.10241 0.31253
#
# Static dielectric constant tensor:
#      x y z
#    x 1.912340 0.000000 0.039150 
#    y 0.000000 1.891180 0.000000 
#    z 0.039150 0.000000 1.924200 
# 
# From -- ./inp_files/9288.got.cif
#   From: 2010.05.17/outbox.cif.g08.bks.cpg/sg9_5_cif.got.tgz:9288.got - 2010.06.03 20:04:27.
