data_PCOD9137118
_publ_section_title
;
Structure prediction by ZEFSAII (Michael W. Deem and Ramdas Pophale) SiO2 
 PCOD9137118
Probable space group: C C
;
_chemical_formula_sum "Si O2"
_cell_formula_units_Z 28
_cell_length_a 16.815532
_cell_length_b 9.340441
_cell_length_c 14.352602
_cell_angle_alpha 90.000000
_cell_angle_beta 152.508965
_cell_angle_gamma 90.000000
_cell_volume 1040.599643
_symmetry_space_group_name_H-M "C C"
_symmetry_group_IT_number 9
_symmetry_cell_setting 'monoclinic'
loop_
_space_group_symop_operation_xyz
x,y,z
x,-y,1/2+z
1/2+x,1/2+y,z
1/2+x,1/2-y,1/2+z
loop_
_atom_site_type_symbol
_atom_site_label
_atom_site_fract_x
_atom_site_fract_y
_atom_site_fract_z
Si Si1 0.744980 0.122026 0.595360
Si Si2 0.391678 0.010169 0.003605
Si Si3 0.722547 0.215135 0.363286
Si Si4 0.934777 0.956789 0.556968
Si Si5 0.430565 0.900650 0.250053
Si Si6 0.617648 0.788621 0.152157
Si Si7 0.045655 0.076728 0.385842
O O1 0.761932 0.208246 0.516064
O O2 0.688881 0.216962 0.622850
O O3 0.591945 0.005752 0.429864
O O4 0.917278 0.035050 0.800625
O O5 0.546090 0.128221 0.170173
O O6 0.234000 0.123154 0.839067
O O7 0.391787 0.919112 0.099435
O O8 0.456169 0.898565 0.993233
O O9 0.861620 0.112733 0.457596
O O10 0.069359 0.865632 0.638802
O O11 0.999815 0.955952 0.730163
O O12 0.760315 0.860852 0.366984
O O13 0.488226 0.741481 0.339071
O O14 0.249694 0.936134 0.111861
#
# Coordination Sequence:
#
# PCOD9137118 Si02
#       7
#     4   4   4   4   4   4   4
#     4  10  24  43  61  99 139 173 219 285 336 399
#     4  10  22  39  64  95 127 171 226 273 326 396
#     4   9  22  40  62  91 130 171 227 264 327 404
#     4  10  22  41  68  95 128 183 221 274 330 410
#     4  11  21  39  71  99 131 184 232 275 332 413
#     4  11  23  43  66 100 139 166 226 286 340 399
#     4  11  20  41  72  97 132 180 237 271 327 411
#
# _framework density 26.907564000000001
#
# number of rings (size 3 to 8) (size 9 to 14) (size 15 to 20)
#    0.000    1.714    2.857    1.714    4.000    2.286 
#    7.714    0.000    0.000    0.000    0.000    0.000 
#    0.000    0.000    0.000    0.000    0.000    0.000 
#
# Total GULP energy -78483.976640 kJ/mol
# GULP energy per Si atom -5605.998331 kJ/mol
# Density = 2.684632 g / cm^3
# Si number density = 26.907564 Si / 1000 Ang^3
#
#
#
# Elastic Constant Matrix: (Units=GPa)
#
#
# Indices 1 2 3 4 5 6 
#
# 1 101.0877 57.1116 8.3620 0.0000 24.3585 0.0000
# 2 57.1116 196.3882 28.4378 0.0000 14.2797 0.0000
# 3 8.3620 28.4378 97.6854 0.0001 29.9703 0.0000
# 4 0.0000 0.0000 0.0001 50.5534 0.0000 16.1759
# 5 24.3585 14.2797 29.9703 0.0000 40.0533 0.0000
# 6 0.0000 0.0000 0.0000 16.1759 0.0000 34.4098
#
#
#
# Elastic Compliance Matrix: (Units=1/GPa)
#
#
# Indices 1 2 3 4 5 6 
#
# 1 0.014042 -0.003809 0.002739 0.000000 -0.009231 0.000000
# 2 -0.003809 0.006378 -0.002004 0.000000 0.001542 0.000000
# 3 0.002739 -0.002004 0.014119 0.000000 -0.011516 0.000000
# 4 0.000000 0.000000 0.000000 0.023283 0.000000 -0.010945
# 5 -0.009231 0.001542 -0.011516 0.000000 0.038648 0.000000
# 6 0.000000 0.000000 0.000000 -0.010945 0.000000 0.034207
#
#
# Mechanical properties :
#
#
# Convention : Reuss Voigt Hill
#
# Bulk Modulus (GPa) = 35.22172 64.77601 49.99886
# Shear Modulus (GPa) = 34.17909 45.08663 39.63286
#
# Velocity S-wave (km/s) = 3.56791 4.09786 3.84204
# Velocity P-wave (km/s) = 5.48558 6.82025 6.18900
#
# Compressibility (1/GPa) = 0.02839157
#
# Stress axis : x y z
#
# Youngs Moduli (GPa) = 71.21372 156.79697 70.82685
#
# Poissons Ratio (x) = 0.59724 -0.19400
# Poissons Ratio (y) = 0.27125 0.14191
# Poissons Ratio (z) = -0.19506 0.31417
#
# Static dielectric constant tensor:
#      x y z
#    x 2.107490 0.000000 0.065090 
#    y 0.000000 2.033980 0.000000 
#    z 0.065090 0.000000 2.290980 
# 
# From -- ./inp_files/11295.got.cif
#   From: 2010.05.17/outbox.cif.g08.bks.cpg/sg9_6_cif.got.tgz:11295.got - 2010.06.03 20:04:27.
