data_PCOD9137360
_publ_section_title
;
Structure prediction by ZEFSAII (Michael W. Deem and Ramdas Pophale) SiO2 
 PCOD9137360
Probable space group: C C
;
_chemical_formula_sum "Si O2"
_cell_formula_units_Z 32
_cell_length_a 24.427913
_cell_length_b 8.740998
_cell_length_c 9.865237
_cell_angle_alpha 90.000000
_cell_angle_beta 128.747612
_cell_angle_gamma 90.000000
_cell_volume 1642.856819
_symmetry_space_group_name_H-M "C C"
_symmetry_group_IT_number 9
_symmetry_cell_setting 'monoclinic'
loop_
_space_group_symop_operation_xyz
x,y,z
x,-y,1/2+z
1/2+x,1/2+y,z
1/2+x,1/2-y,1/2+z
loop_
_atom_site_type_symbol
_atom_site_label
_atom_site_fract_x
_atom_site_fract_y
_atom_site_fract_z
Si Si1 0.135260 0.356079 0.128230
Si Si2 0.775170 0.323681 0.902589
Si Si3 0.961970 0.370282 0.566568
Si Si4 0.340684 0.333858 0.248995
Si Si5 0.474403 0.165454 0.400691
Si Si6 0.623082 0.841523 0.789399
Si Si7 0.826349 0.189478 0.257060
Si Si8 0.250320 0.820474 0.379858
O O1 0.196629 0.243377 0.269021
O O2 0.140203 0.513777 0.219845
O O3 0.140605 0.378892 0.973771
O O4 0.056642 0.295870 0.035065
O O5 0.813268 0.279841 0.822401
O O6 0.773185 0.504228 0.924245
O O7 0.814930 0.239733 0.085532
O O8 0.957557 0.529625 0.479257
O O9 0.959432 0.392129 0.724568
O O10 0.898996 0.260720 0.424145
O O11 0.040101 0.308324 0.654463
O O12 0.422618 0.304479 0.350812
O O13 0.325794 0.507156 0.266712
O O14 0.299040 0.286062 0.049642
O O15 0.671978 0.705577 0.812185
O O16 0.763914 0.262260 0.249293
#
# Coordination Sequence:
#
# PCOD9137360 Si02
#       8
#     4   4   4   4   4   4   4   4
#     4  10  22  42  65  96 127 169 209 257 320 377
#     4  12  26  41  66  95 127 166 211 262 318 376
#     4  10  22  42  65  96 127 169 209 257 320 377
#     4  12  24  43  64  94 127 165 212 264 316 373
#     4  10  22  41  67  93 131 166 209 260 315 381
#     4  10  22  41  67  93 131 166 209 260 315 381
#     4  12  26  41  66  95 127 166 211 262 318 376
#     4  12  24  43  64  94 127 165 212 264 316 373
#
# _framework density 19.478265
#
# number of rings (size 3 to 8) (size 9 to 14) (size 15 to 20)
#    0.000    1.000    2.500    4.500    3.500    1.000 
#    0.000    0.000    0.000    0.000    0.000    0.000 
#    0.000    0.000    0.000    0.000    0.000    0.000 
#
# Total GULP energy -89464.416285 kJ/mol
# GULP energy per Si atom -5591.526018 kJ/mol
# Density = 1.943393 g / cm^3
# Si number density = 19.478265 Si / 1000 Ang^3
#
#
#
# Elastic Constant Matrix: (Units=GPa)
#
#
# Indices 1 2 3 4 5 6 
#
# 1 72.6063 27.3778 -2.0478 0.0000 6.1322 0.0000
# 2 27.3778 59.3955 3.7765 0.0000 10.0222 0.0000
# 3 -2.0478 3.7765 58.0826 0.0000 10.7218 0.0000
# 4 0.0000 0.0000 0.0000 24.2657 0.0000 1.5031
# 5 6.1322 10.0222 10.7218 0.0000 29.7482 0.0000
# 6 0.0000 0.0000 0.0000 1.5031 0.0000 34.5339
#
#
#
# Elastic Compliance Matrix: (Units=1/GPa)
#
#
# Indices 1 2 3 4 5 6 
#
# 1 0.016790 -0.007590 0.001342 0.000000 -0.001387 0.000000
# 2 -0.007590 0.021283 -0.000661 0.000000 -0.005367 0.000000
# 3 0.001342 -0.000661 0.018551 0.000000 -0.006740 0.000000
# 4 0.000000 0.000000 0.000000 0.041322 0.000000 -0.001799
# 5 -0.001387 -0.005367 -0.006740 0.000000 0.038139 0.000000
# 6 0.000000 0.000000 0.000000 -0.001799 0.000000 0.029035
#
#
# Mechanical properties :
#
#
# Convention : Reuss Voigt Hill
#
# Bulk Modulus (GPa) = 23.36163 27.58859 25.47511
# Shear Modulus (GPa) = 25.87889 28.44142 27.16015
#
# Velocity S-wave (km/s) = 3.64896 3.82535 3.73819
# Velocity P-wave (km/s) = 5.45645 5.80565 5.63376
#
# Compressibility (1/GPa) = 0.04280524
#
# Stress axis : x y z
#
# Youngs Moduli (GPa) = 59.55908 46.98646 53.90447
#
# Poissons Ratio (x) = 0.35665 -0.07232
# Poissons Ratio (y) = 0.45208 0.03561
# Poissons Ratio (z) = -0.07990 0.03104
#
# Static dielectric constant tensor:
#      x y z
#    x 1.691990 0.000000 0.016530 
#    y 0.000000 1.626970 0.000000 
#    z 0.016530 0.000000 1.667730 
# 
# From -- ./inp_files/12059.got.cif
#   From: 2010.05.17/outbox.cif.g08.bks.cpg/sg9_7_cif.got.tgz:12059.got - 2010.06.03 20:04:27.
