data_PCOD9137259
_publ_section_title
;
Structure prediction by ZEFSAII (Michael W. Deem and Ramdas Pophale) SiO2 
 PCOD9137259
Probable space group: C C
;
_chemical_formula_sum "Si O2"
_cell_formula_units_Z 28
_cell_length_a 6.194167
_cell_length_b 19.144980
_cell_length_c 10.309307
_cell_angle_alpha 90.000000
_cell_angle_beta 73.486339
_cell_angle_gamma 90.000000
_cell_volume 1172.124053
_symmetry_space_group_name_H-M "C C"
_symmetry_group_IT_number 9
_symmetry_cell_setting 'monoclinic'
loop_
_space_group_symop_operation_xyz
x,y,z
x,-y,1/2+z
1/2+x,1/2+y,z
1/2+x,1/2-y,1/2+z
loop_
_atom_site_type_symbol
_atom_site_label
_atom_site_fract_x
_atom_site_fract_y
_atom_site_fract_z
Si Si1 0.633160 0.753015 0.442940
Si Si2 0.692741 0.669194 0.060176
Si Si3 0.873959 0.868011 0.830690
Si Si4 0.605173 0.989993 0.408486
Si Si5 0.953844 0.130037 0.836815
Si Si6 0.868523 0.551326 0.683119
Si Si7 0.496661 0.810403 0.041825
O O1 0.454525 0.812163 0.516804
O O2 0.517709 0.686244 0.394535
O O3 0.824602 0.796917 0.331652
O O4 0.753753 0.717094 0.544086
O O5 0.543002 0.622924 0.181390
O O6 0.596051 0.746372 0.101780
O O7 0.620308 0.647775 0.927914
O O8 0.782019 0.945336 0.877750
O O9 0.633366 0.827026 0.885149
O O10 0.427697 0.001066 0.554195
O O11 0.756630 0.922993 0.406822
O O12 0.462149 0.981825 0.299842
O O13 0.115899 0.082218 0.720078
O O14 0.008614 0.621874 0.628369
#
# Coordination Sequence:
#
# PCOD9137259 Si02
#       7
#     4   4   4   4   4   4   4
#     4  10  23  41  67 109 140 190 247 315 376 441
#     4  10  22  40  68 103 145 186 251 306 375 445
#     4  10  23  42  69 100 146 186 249 303 376 442
#     4  11  26  47  72 108 152 199 250 313 381 458
#     4  11  25  42  71 103 147 196 250 306 383 450
#     4  11  26  46  73 105 152 196 258 303 381 457
#     4   9  23  40  66 102 142 193 245 308 370 445
#
# _framework density 23.888255999999998
#
# number of rings (size 3 to 8) (size 9 to 14) (size 15 to 20)
#    0.000    1.714    0.000    1.714   10.000    9.143 
#    0.000    0.000    0.000    0.000    0.000    0.000 
#    0.000    0.000    0.000    0.000    0.000    0.000 
#
# Total GULP energy -77992.400108 kJ/mol
# GULP energy per Si atom -5570.885722 kJ/mol
# Density = 2.383388 g / cm^3
# Si number density = 23.888256 Si / 1000 Ang^3
#
#
#
# Elastic Constant Matrix: (Units=GPa)
#
#
# Indices 1 2 3 4 5 6 
#
# 1 93.6667 48.0729 49.2923 0.0000 -14.4978 0.0000
# 2 48.0729 125.1932 25.5022 0.0000 -5.0961 0.0000
# 3 49.2923 25.5022 88.9537 0.0000 -3.3100 0.0000
# 4 0.0000 0.0000 0.0000 24.5909 0.0000 -17.2856
# 5 -14.4978 -5.0961 -3.3100 0.0000 19.9110 0.0000
# 6 0.0000 0.0000 0.0000 -17.2856 0.0000 43.7088
#
#
#
# Elastic Compliance Matrix: (Units=1/GPa)
#
#
# Indices 1 2 3 4 5 6 
#
# 1 0.020047 -0.005360 -0.009137 0.000000 0.011706 0.000000
# 2 -0.005360 0.009979 0.000060 0.000000 -0.001339 0.000000
# 3 -0.009137 0.000060 0.016140 0.000000 -0.003954 0.000000
# 4 0.000000 0.000000 0.000000 0.056323 0.000000 0.022274
# 5 0.011706 -0.001339 -0.003954 0.000000 0.057747 0.000000
# 6 0.000000 0.000000 0.000000 0.022274 0.000000 0.031687
#
#
# Mechanical properties :
#
#
# Convention : Reuss Voigt Hill
#
# Bulk Modulus (GPa) = 57.82878 61.50540 59.66709
# Shear Modulus (GPa) = 22.06893 29.97187 26.02040
#
# Velocity S-wave (km/s) = 3.04277 3.54597 3.30397
# Velocity P-wave (km/s) = 6.05022 6.52444 6.29180
#
# Compressibility (1/GPa) = 0.01729243
#
# Stress axis : x y z
#
# Youngs Moduli (GPa) = 49.88218 100.20719 61.95605
#
# Poissons Ratio (x) = 0.53714 0.56606
# Poissons Ratio (y) = 0.26738 -0.00369
# Poissons Ratio (z) = 0.45575 -0.00596
#
# Static dielectric constant tensor:
#      x y z
#    x 1.932970 0.000000 -0.064200 
#    y 0.000000 1.914930 0.000000 
#    z -0.064200 0.000000 2.032640 
# 
# From -- ./inp_files/13396.got.cif
#   From: 2010.05.17/outbox.cif.g08.bks.cpg/sg9_7_cif.got.tgz:13396.got - 2010.06.03 20:04:27.
