data_PCOD9137758
_publ_section_title
;
Structure prediction by ZEFSAII (Michael W. Deem and Ramdas Pophale) SiO2 
 PCOD9137758
Probable space group: C C
;
_chemical_formula_sum "Si O2"
_cell_formula_units_Z 28
_cell_length_a 6.832051
_cell_length_b 18.732930
_cell_length_c 10.722028
_cell_angle_alpha 90.000000
_cell_angle_beta 68.423594
_cell_angle_gamma 90.000000
_cell_volume 1276.095187
_symmetry_space_group_name_H-M "C C"
_symmetry_group_IT_number 9
_symmetry_cell_setting 'monoclinic'
loop_
_space_group_symop_operation_xyz
x,y,z
x,-y,1/2+z
1/2+x,1/2+y,z
1/2+x,1/2-y,1/2+z
loop_
_atom_site_type_symbol
_atom_site_label
_atom_site_fract_x
_atom_site_fract_y
_atom_site_fract_z
Si Si1 0.609650 0.930272 0.961520
Si Si2 0.960895 0.336796 0.501057
Si Si3 0.431349 0.669518 0.797804
Si Si4 0.996194 0.981161 0.376549
Si Si5 0.717008 0.480714 0.580773
Si Si6 0.443787 0.676440 0.500181
Si Si7 0.925378 0.329460 0.801996
O O1 0.543367 0.890187 0.851281
O O2 0.751453 0.000710 0.917598
O O3 0.759254 0.876147 0.000675
O O4 0.391970 0.959151 0.066362
O O5 0.820025 0.406190 0.514687
O O6 0.870640 0.258111 0.493688
O O7 0.992510 0.336139 0.643167
O O8 0.181285 0.339136 0.377559
O O9 0.533369 0.602400 0.842542
O O10 0.479689 0.666888 0.639595
O O11 0.485892 0.749164 0.831150
O O12 0.074179 0.002054 0.495862
O O13 0.099079 0.025496 0.239464
O O14 0.671499 0.665849 0.380608
#
# Coordination Sequence:
#
# PCOD9137758 Si02
#       7
#     4   4   4   4   4   4   4
#     4  12  24  42  70  96 136 180 212 282 346 384
#     4  10  22  44  67  97 134 175 226 280 329 405
#     4  10  22  44  67  97 134 175 226 280 329 405
#     4  12  27  43  67 101 138 178 231 277 335 409
#     4  12  27  43  67 101 138 178 231 277 335 409
#     4  10  23  44  67  98 136 174 224 279 338 403
#     4  10  23  44  67  98 136 174 224 279 338 403
#
# _framework density 21.941936999999999
#
# number of rings (size 3 to 8) (size 9 to 14) (size 15 to 20)
#    0.000    1.143    1.429    4.286    6.000    2.286 
#    0.000    5.714    0.000    0.000    0.000    0.000 
#    0.000    0.000    0.000    0.000    0.000    0.000 
#
# Total GULP energy -78212.915984 kJ/mol
# GULP energy per Si atom -5586.636856 kJ/mol
# Density = 2.189200 g / cm^3
# Si number density = 21.941937 Si / 1000 Ang^3
#
#
#
# Elastic Constant Matrix: (Units=GPa)
#
#
# Indices 1 2 3 4 5 6 
#
# 1 71.4892 28.1460 12.2759 0.0000 9.6107 0.0000
# 2 28.1460 100.2973 -7.4416 0.0000 11.6756 0.0000
# 3 12.2759 -7.4416 73.5166 0.0000 -2.7866 0.0000
# 4 0.0000 0.0000 0.0000 24.1767 0.0000 12.1734
# 5 9.6107 11.6756 -2.7866 0.0000 19.8557 0.0000
# 6 0.0000 0.0000 0.0000 12.1734 0.0000 27.5203
#
#
#
# Elastic Compliance Matrix: (Units=1/GPa)
#
#
# Indices 1 2 3 4 5 6 
#
# 1 0.017147 -0.004348 -0.003540 0.000000 -0.006240 0.000000
# 2 -0.004348 0.011859 0.001751 0.000000 -0.004623 0.000000
# 3 -0.003540 0.001751 0.014474 0.000000 0.002715 0.000000
# 4 0.000000 0.000000 0.000000 0.053215 0.000000 -0.023539
# 5 -0.006240 -0.004623 0.002715 0.000000 0.056483 0.000000
# 6 0.000000 0.000000 0.000000 -0.023539 0.000000 0.046749
#
#
# Mechanical properties :
#
#
# Convention : Reuss Voigt Hill
#
# Bulk Modulus (GPa) = 32.04563 34.58486 33.31525
# Shear Modulus (GPa) = 22.46174 28.46539 25.46357
#
# Velocity S-wave (km/s) = 3.20299 3.60572 3.41030
# Velocity P-wave (km/s) = 5.32121 5.75597 5.54285
#
# Compressibility (1/GPa) = 0.03120550
#
# Stress axis : x y z
#
# Youngs Moduli (GPa) = 58.32036 84.32692 69.09119
#
# Poissons Ratio (x) = 0.36666 0.24457
# Poissons Ratio (y) = 0.25358 -0.12099
# Poissons Ratio (z) = 0.20644 -0.14767
#
# Static dielectric constant tensor:
#      x y z
#    x 1.774880 0.000000 -0.027750 
#    y 0.000000 1.866510 0.000000 
#    z -0.027750 0.000000 1.781780 
# 
# From -- ./inp_files/13284.got.cif
#   From: 2010.05.17/outbox.cif.g08.bks.cpg/sg9_7_cif.got.tgz:13284.got - 2010.06.03 20:04:27.
