data_PCOD9137941
_publ_section_title
;
Structure prediction by ZEFSAII (Michael W. Deem and Ramdas Pophale) SiO2 
 PCOD9137941
Probable space group: C C
;
_chemical_formula_sum "Si O2"
_cell_formula_units_Z 32
_cell_length_a 5.253377
_cell_length_b 15.242158
_cell_length_c 16.724989
_cell_angle_alpha 90.000000
_cell_angle_beta 110.446748
_cell_angle_gamma 90.000000
_cell_volume 1254.842434
_symmetry_space_group_name_H-M "C C"
_symmetry_group_IT_number 9
_symmetry_cell_setting 'monoclinic'
loop_
_space_group_symop_operation_xyz
x,y,z
x,-y,1/2+z
1/2+x,1/2+y,z
1/2+x,1/2-y,1/2+z
loop_
_atom_site_type_symbol
_atom_site_label
_atom_site_fract_x
_atom_site_fract_y
_atom_site_fract_z
Si Si1 0.379120 0.619128 0.248980
Si Si2 0.479084 0.664649 0.956702
Si Si3 0.587325 0.380632 0.077225
Si Si4 0.963038 0.433003 0.352207
Si Si5 0.630265 0.219797 0.621891
Si Si6 0.595810 0.723230 0.802019
Si Si7 0.160359 0.029416 0.426823
Si Si8 0.833280 0.457131 0.689603
O O1 0.309201 0.710595 0.285039
O O2 0.480943 0.556566 0.331623
O O3 0.619566 0.604919 0.211971
O O4 0.088698 0.592081 0.178492
O O5 0.557232 0.732062 0.893535
O O6 0.602844 0.567420 0.955992
O O7 0.166050 0.640490 0.906673
O O8 0.559281 0.702790 0.051142
O O9 0.311342 0.346249 0.086240
O O10 0.663266 0.475872 0.119020
O O11 0.842031 0.316365 0.121815
O O12 0.609592 0.395644 0.984987
O O13 0.689929 0.377429 0.307151
O O14 0.950594 0.510261 0.417113
O O15 0.987479 0.481569 0.271461
O O16 0.824459 0.230948 0.719826
#
# Coordination Sequence:
#
# PCOD9137941 Si02
#       8
#     4   4   4   4   4   4   4   4
#     4  11  25  43  73 104 140 186 246 290 367 435
#     4  11  25  46  74 106 149 196 240 313 366 446
#     4  12  27  48  71 104 146 193 246 310 367 436
#     4  10  22  45  73  97 147 191 241 296 376 426
#     4  12  29  46  75 108 151 194 252 300 380 436
#     4  11  26  47  72 110 147 197 242 306 364 452
#     4  10  25  43  69 103 141 191 243 304 365 434
#     4  11  23  46  69 102 137 190 236 301 361 435
#
# _framework density 25.50121
#
# number of rings (size 3 to 8) (size 9 to 14) (size 15 to 20)
#    0.000    1.000    2.500    2.250   12.250    1.000 
#    0.000    0.000    0.000    0.000    0.000    0.000 
#    0.000    0.000    0.000    0.000    0.000    0.000 
#
# Total GULP energy -89383.691090 kJ/mol
# GULP energy per Si atom -5586.480693 kJ/mol
# Density = 2.544317 g / cm^3
# Si number density = 25.501210 Si / 1000 Ang^3
#
#
#
# Elastic Constant Matrix: (Units=GPa)
#
#
# Indices 1 2 3 4 5 6 
#
# 1 65.6529 17.5353 22.4595 0.0000 8.6728 0.0000
# 2 17.5353 74.1198 23.9145 0.0000 -3.1247 0.0000
# 3 22.4595 23.9145 109.3157 0.0000 -6.9169 0.0000
# 4 0.0000 0.0000 0.0000 44.4696 0.0000 -0.6222
# 5 8.6728 -3.1247 -6.9169 0.0000 21.9950 0.0000
# 6 0.0000 0.0000 0.0000 -0.6222 0.0000 47.7787
#
#
#
# Elastic Compliance Matrix: (Units=1/GPa)
#
#
# Indices 1 2 3 4 5 6 
#
# 1 0.018618 -0.003622 -0.003602 0.000000 -0.008989 0.000000
# 2 -0.003622 0.015246 -0.002412 0.000000 0.002836 0.000000
# 3 -0.003602 -0.002412 0.010696 0.000000 0.004441 0.000000
# 4 0.000000 0.000000 0.000000 0.022491 0.000000 0.000293
# 5 -0.008989 0.002836 0.004441 0.000000 0.050809 0.000000
# 6 0.000000 0.000000 0.000000 0.000293 0.000000 0.020934
#
#
# Mechanical properties :
#
#
# Convention : Reuss Voigt Hill
#
# Bulk Modulus (GPa) = 39.54018 41.87856 40.70937
# Shear Modulus (GPa) = 30.03089 35.19395 32.61242
#
# Velocity S-wave (km/s) = 3.43538 3.71899 3.57999
# Velocity P-wave (km/s) = 5.59237 5.90754 5.75211
#
# Compressibility (1/GPa) = 0.02529073
#
# Stress axis : x y z
#
# Youngs Moduli (GPa) = 53.71016 65.59014 93.48891
#
# Poissons Ratio (x) = 0.23754 0.33672
# Poissons Ratio (y) = 0.19452 0.22548
# Poissons Ratio (z) = 0.19345 0.15819
#
# Static dielectric constant tensor:
#      x y z
#    x 2.197710 0.000000 -0.010630 
#    y 0.000000 2.025170 0.000000 
#    z -0.010630 0.000000 2.025930 
# 
# From -- ./inp_files/28674.got.cif
#   From: 2010.05.17/outbox.cif.g08.bks.cpg/sg9_15_cif.got.tgz:28674.got - 2010.06.03 20:04:27.
