data_PCOD9137046
_publ_section_title
;
Structure prediction by ZEFSAII (Michael W. Deem and Ramdas Pophale) SiO2 
 PCOD9137046
Probable space group: C C
;
_chemical_formula_sum "Si O2"
_cell_formula_units_Z 32
_cell_length_a 13.999098
_cell_length_b 11.326459
_cell_length_c 17.915749
_cell_angle_alpha 90.000000
_cell_angle_beta 28.590613
_cell_angle_gamma 90.000000
_cell_volume 1359.423250
_symmetry_space_group_name_H-M "C C"
_symmetry_group_IT_number 9
_symmetry_cell_setting 'monoclinic'
loop_
_space_group_symop_operation_xyz
x,y,z
x,-y,1/2+z
1/2+x,1/2+y,z
1/2+x,1/2-y,1/2+z
loop_
_atom_site_type_symbol
_atom_site_label
_atom_site_fract_x
_atom_site_fract_y
_atom_site_fract_z
Si Si1 0.962370 0.008762 0.733160
Si Si2 0.900203 0.620003 0.403199
Si Si3 0.416510 0.234503 0.537585
Si Si4 0.684803 0.205731 0.938872
Si Si5 0.468769 0.917986 0.260223
Si Si6 0.777790 0.591242 0.275728
Si Si7 0.115265 0.776143 0.560393
Si Si8 0.042288 0.922456 0.338307
O O1 0.797124 0.100478 0.817808
O O2 0.182547 0.060493 0.565521
O O3 0.928576 0.024482 0.845154
O O4 0.970737 0.877730 0.694513
O O5 0.991576 0.645994 0.421185
O O6 0.834719 0.732898 0.397244
O O7 0.032221 0.527627 0.266999
O O8 0.534554 0.242773 0.533643
O O9 0.202306 0.177645 0.702704
O O10 0.425608 0.358057 0.486018
O O11 0.645248 0.313052 0.909709
O O12 0.486808 0.154109 0.112042
O O13 0.331817 0.832214 0.403151
O O14 0.615789 0.836105 0.113623
O O15 0.327040 0.982529 0.296890
O O16 0.669991 0.532095 0.280842
#
# Coordination Sequence:
#
# PCOD9137046 Si02
#       8
#     4   4   4   4   4   4   4   4
#     4  10  22  39  65  94 134 169 216 265 331 388
#     4   9  20  39  61  96 126 168 216 276 306 390
#     4  11  20  37  66  92 131 165 221 264 321 377
#     4  11  21  38  66  91 123 175 218 261 327 386
#     4  10  22  38  61  92 132 166 214 263 327 383
#     4  11  23  39  63  92 131 165 220 272 318 384
#     4  11  21  39  62  97 129 174 211 266 327 392
#     4  11  23  41  62  98 134 170 214 281 321 388
#
# _framework density 23.539393
#
# number of rings (size 3 to 8) (size 9 to 14) (size 15 to 20)
#    0.000    1.500    5.000    0.000    1.750    1.000 
#    0.000    3.750    0.000    0.000    0.000    0.000 
#    0.000    0.000    0.000    0.000    0.000    0.000 
#
# Total GULP energy -89382.166705 kJ/mol
# GULP energy per Si atom -5586.385419 kJ/mol
# Density = 2.348582 g / cm^3
# Si number density = 23.539393 Si / 1000 Ang^3
#
#
#
# Elastic Constant Matrix: (Units=GPa)
#
#
# Indices 1 2 3 4 5 6 
#
# 1 59.1537 40.8670 30.2644 -0.0012 15.7688 0.0003
# 2 40.8670 118.2429 63.3829 -0.0056 14.8287 0.0012
# 3 30.2644 63.3829 79.1395 -0.0038 19.9839 0.0005
# 4 -0.0012 -0.0056 -0.0038 69.1993 0.0010 25.2791
# 5 15.7688 14.8287 19.9839 0.0010 21.9702 0.0004
# 6 0.0003 0.0012 0.0005 25.2791 0.0004 30.1171
#
#
#
# Elastic Compliance Matrix: (Units=1/GPa)
#
#
# Indices 1 2 3 4 5 6 
#
# 1 0.025451 -0.006492 -0.001333 0.000000 -0.012672 0.000000
# 2 -0.006492 0.016494 -0.011804 0.000001 0.004264 -0.000001
# 3 -0.001333 -0.011804 0.026412 0.000001 -0.015101 0.000000
# 4 0.000000 0.000001 0.000001 0.020842 -0.000002 -0.017494
# 5 -0.012672 0.004264 -0.015101 -0.000002 0.065469 0.000001
# 6 0.000000 -0.000001 0.000000 -0.017494 0.000001 0.047887
#
#
# Mechanical properties :
#
#
# Convention : Reuss Voigt Hill
#
# Bulk Modulus (GPa) = 34.36615 58.39608 46.38111
# Shear Modulus (GPa) = 19.87974 32.39208 26.13591
#
# Velocity S-wave (km/s) = 2.90923 3.71358 3.33574
# Velocity P-wave (km/s) = 5.09077 6.57641 5.88070
#
# Compressibility (1/GPa) = 0.02909840
#
# Stress axis : x y z
#
# Youngs Moduli (GPa) = 39.29180 60.62986 37.86094
#
# Poissons Ratio (x) = 0.39364 0.05047
# Poissons Ratio (y) = 0.25510 0.44690
# Poissons Ratio (z) = 0.05238 0.71565
#
# Static dielectric constant tensor:
#      x y z
#    x 1.880980 0.000000 0.025790 
#    y 0.000000 1.914000 0.000000 
#    z 0.025790 0.000000 1.932050 
# 
# From -- ./inp_files/30713.got.cif
#   From: 2010.05.17/outbox.cif.g08.bks.cpg/sg9_16_cif.got.tgz:30713.got - 2010.06.03 20:04:27.
