data_PCOD9137131
_publ_section_title
;
Structure prediction by ZEFSAII (Michael W. Deem and Ramdas Pophale) SiO2 
 PCOD9137131
Probable space group: C C
;
_chemical_formula_sum "Si O2"
_cell_formula_units_Z 24
_cell_length_a 17.530650
_cell_length_b 14.585295
_cell_length_c 9.600575
_cell_angle_alpha 90.000000
_cell_angle_beta 155.440601
_cell_angle_gamma 90.000000
_cell_volume 1020.290961
_symmetry_space_group_name_H-M "C C"
_symmetry_group_IT_number 9
_symmetry_cell_setting 'monoclinic'
loop_
_space_group_symop_operation_xyz
x,y,z
x,-y,1/2+z
1/2+x,1/2+y,z
1/2+x,1/2-y,1/2+z
loop_
_atom_site_type_symbol
_atom_site_label
_atom_site_fract_x
_atom_site_fract_y
_atom_site_fract_z
Si Si1 0.587060 0.907851 0.741640
Si Si2 0.088136 0.765043 0.808916
Si Si3 0.189653 0.904313 0.737251
Si Si4 0.128666 0.423536 0.487666
Si Si5 0.721602 0.292044 0.540360
Si Si6 0.690099 0.395106 0.204681
O O1 0.649308 0.925915 0.687500
O O2 0.366897 0.913409 0.399143
O O3 0.681977 0.982672 0.999669
O O4 0.630833 0.804020 0.854529
O O5 0.165888 0.834347 0.823785
O O6 0.197596 0.672568 0.035341
O O7 0.904161 0.732293 0.428245
O O8 0.064108 0.824870 0.909152
O O9 0.115722 0.856367 0.474103
O O10 0.108339 0.006416 0.609568
O O11 0.408550 0.919802 0.098469
O O12 0.756075 0.347125 0.456125
#
# Coordination Sequence:
#
# PCOD9137131 Si02
#       6
#     4   4   4   4   4   4
#     4  11  23  42  63  90 124 165 209 249 306 373
#     4  11  22  42  62  94 124 158 207 259 309 357
#     4  10  22  39  66  90 121 164 209 250 297 376
#     4  10  23  39  66  89 120 166 206 250 304 371
#     4  11  24  40  61  97 126 158 203 260 313 357
#     4  11  22  42  68  88 123 165 210 248 305 370
#
# _framework density 23.5227
#
# number of rings (size 3 to 8) (size 9 to 14) (size 15 to 20)
#    0.000    1.333    3.333    2.000   14.000    0.000 
#    3.000    1.667    0.000    0.000    0.000    0.000 
#    0.000    0.000    0.000    0.000    0.000    0.000 
#
# Total GULP energy -67053.576746 kJ/mol
# GULP energy per Si atom -5587.798062 kJ/mol
# Density = 2.346916 g / cm^3
# Si number density = 23.522700 Si / 1000 Ang^3
#
#
#
# Elastic Constant Matrix: (Units=GPa)
#
#
# Indices 1 2 3 4 5 6 
#
# 1 84.4472 53.6701 46.6349 0.0000 -32.3160 0.0000
# 2 53.6701 185.9990 30.8659 0.0000 -27.4296 0.0000
# 3 46.6349 30.8659 55.2302 0.0000 -32.8010 0.0000
# 4 0.0000 0.0000 0.0000 14.7988 0.0000 8.2937
# 5 -32.3160 -27.4296 -32.8010 0.0000 39.4757 0.0000
# 6 0.0000 0.0000 0.0000 8.2937 0.0000 9.8032
#
#
#
# Elastic Compliance Matrix: (Units=1/GPa)
#
#
# Indices 1 2 3 4 5 6 
#
# 1 0.024968 -0.003869 -0.016540 0.000000 0.004008 0.000000
# 2 -0.003869 0.006674 0.000809 0.000000 0.002143 0.000000
# 3 -0.016540 0.000809 0.047209 0.000000 0.026249 0.000000
# 4 0.000000 0.000000 0.000000 0.128497 0.000000 -0.108710
# 5 0.004008 0.002143 0.026249 0.000000 0.051913 0.000000
# 6 0.000000 0.000000 0.000000 -0.108710 0.000000 0.193978
#
#
# Mechanical properties :
#
#
# Convention : Reuss Voigt Hill
#
# Bulk Modulus (GPa) = 25.21890 65.33536 45.27713
# Shear Modulus (GPa) = 9.88815 25.78257 17.83536
#
# Velocity S-wave (km/s) = 2.05251 3.31429 2.75657
# Velocity P-wave (km/s) = 4.04492 6.51780 5.42417
#
# Compressibility (1/GPa) = 0.03965280
#
# Stress axis : x y z
#
# Youngs Moduli (GPa) = 40.05058 149.82503 21.18257
#
# Poissons Ratio (x) = 0.57964 0.35036
# Poissons Ratio (y) = 0.15495 -0.01715
# Poissons Ratio (z) = 0.66244 -0.12128
#
# Static dielectric constant tensor:
#      x y z
#    x 1.943610 0.000000 0.054490 
#    y 0.000000 2.003820 0.000000 
#    z 0.054490 0.000000 1.915410 
# 
# From -- ./inp_files/4896.got.cif
#   From: 2010.05.17/outbox.cif.g08.bks.cpg/sg9_3_cif.got.tgz:4896.got - 2010.06.03 20:04:27.
