data_PCOD9137761
_publ_section_title
;
Structure prediction by ZEFSAII (Michael W. Deem and Ramdas Pophale) SiO2 
 PCOD9137761
Probable space group: C C
;
_chemical_formula_sum "Si O2"
_cell_formula_units_Z 32
_cell_length_a 17.814303
_cell_length_b 8.467176
_cell_length_c 13.485839
_cell_angle_alpha 90.000000
_cell_angle_beta 137.160277
_cell_angle_gamma 90.000000
_cell_volume 1383.127654
_symmetry_space_group_name_H-M "C C"
_symmetry_group_IT_number 9
_symmetry_cell_setting 'monoclinic'
loop_
_space_group_symop_operation_xyz
x,y,z
x,-y,1/2+z
1/2+x,1/2+y,z
1/2+x,1/2-y,1/2+z
loop_
_atom_site_type_symbol
_atom_site_label
_atom_site_fract_x
_atom_site_fract_y
_atom_site_fract_z
Si Si1 0.494950 0.052980 0.410910
Si Si2 0.682758 0.140631 0.023993
Si Si3 0.840180 0.959594 0.328084
Si Si4 0.155218 0.208296 0.158022
Si Si5 0.662885 0.429548 0.324836
Si Si6 0.258782 0.996565 0.106248
Si Si7 0.264929 0.399173 0.947080
Si Si8 0.971094 0.852173 0.279705
O O1 0.558238 0.156671 0.557607
O O2 0.508382 0.172947 0.331653
O O3 0.562888 0.898378 0.450545
O O4 0.366478 0.009306 0.280435
O O5 0.708033 0.323338 0.055702
O O6 0.765246 0.059547 0.181214
O O7 0.702747 0.049653 0.938155
O O8 0.768775 0.804533 0.285048
O O9 0.947763 0.921758 0.367557
O O10 0.845486 0.050201 0.435798
O O11 0.148317 0.059990 0.225626
O O12 0.177329 0.128550 0.072250
O O13 0.766812 0.473486 0.496334
O O14 0.687386 0.242747 0.330562
O O15 0.552936 0.440793 0.285843
O O16 0.348823 0.344560 0.114096
#
# Coordination Sequence:
#
# PCOD9137761 Si02
#       8
#     4   4   4   4   4   4   4   4
#     4  11  22  47  70  99 146 189 234 304 366 427
#     4  10  23  42  67 100 141 191 238 298 359 435
#     4  10  22  44  67  98 141 186 233 299 358 426
#     4  11  24  43  71 106 142 187 245 302 367 432
#     4  12  24  41  72 108 140 191 246 300 361 443
#     4  12  23  44  71 102 145 196 245 297 370 443
#     4  11  22  42  67 102 146 185 236 298 360 432
#     4  11  22  41  71  97 133 193 233 286 365 424
#
# _framework density 23.135968999999999
#
# number of rings (size 3 to 8) (size 9 to 14) (size 15 to 20)
#    0.000    1.000    5.000    2.250    1.750    2.000 
#    0.000   10.000    0.000    0.000    0.000    0.000 
#    0.000    0.000    0.000    0.000    0.000    0.000 
#
# Total GULP energy -89176.522485 kJ/mol
# GULP energy per Si atom -5573.532655 kJ/mol
# Density = 2.308331 g / cm^3
# Si number density = 23.135969 Si / 1000 Ang^3
#
#
#
# Elastic Constant Matrix: (Units=GPa)
#
#
# Indices 1 2 3 4 5 6 
#
# 1 70.6370 32.8455 26.0931 0.0000 -5.8814 0.0000
# 2 32.8455 127.1512 27.6343 0.0000 2.9228 0.0000
# 3 26.0931 27.6343 76.4721 0.0000 5.2966 0.0000
# 4 0.0000 0.0000 0.0000 25.4330 0.0000 1.0750
# 5 -5.8814 2.9228 5.2966 0.0000 42.5248 0.0000
# 6 0.0000 0.0000 0.0000 1.0750 0.0000 33.8790
#
#
#
# Elastic Compliance Matrix: (Units=1/GPa)
#
#
# Indices 1 2 3 4 5 6 
#
# 1 0.017993 -0.003625 -0.005063 0.000000 0.003368 0.000000
# 2 -0.003625 0.009267 -0.002051 0.000000 -0.000883 0.000000
# 3 -0.005063 -0.002051 0.015720 0.000000 -0.002517 0.000000
# 4 0.000000 0.000000 0.000000 0.039372 0.000000 -0.001249
# 5 0.003368 -0.000883 -0.002517 0.000000 0.024356 0.000000
# 6 0.000000 0.000000 0.000000 -0.001249 0.000000 0.029556
#
#
# Mechanical properties :
#
#
# Convention : Reuss Voigt Hill
#
# Bulk Modulus (GPa) = 46.50603 49.71182 48.10892
# Shear Modulus (GPa) = 30.31986 32.87984 31.59985
#
# Velocity S-wave (km/s) = 3.62402 3.77391 3.69973
# Velocity P-wave (km/s) = 6.13646 6.36580 6.25218
#
# Compressibility (1/GPa) = 0.02150259
#
# Stress axis : x y z
#
# Youngs Moduli (GPa) = 55.57672 107.90906 63.61509
#
# Poissons Ratio (x) = 0.39118 0.32207
# Poissons Ratio (y) = 0.20147 0.13046
# Poissons Ratio (z) = 0.28137 0.22129
#
# Static dielectric constant tensor:
#      x y z
#    x 1.893350 0.000000 0.017400 
#    y 0.000000 1.905620 0.000000 
#    z 0.017400 0.000000 1.955760 
# 
# From -- ./inp_files/26754.got.cif
#   From: 2010.05.17/outbox.cif.g08.bks.cpg/sg9_14_cif.got.tgz:26754.got - 2010.06.03 20:04:27.
