data_PCOD9137372
_publ_section_title
;
Structure prediction by ZEFSAII (Michael W. Deem and Ramdas Pophale) SiO2 
 PCOD9137372
Probable space group: C C
;
_chemical_formula_sum "Si O2"
_cell_formula_units_Z 24
_cell_length_a 5.057506
_cell_length_b 17.748518
_cell_length_c 9.777424
_cell_angle_alpha 90.000000
_cell_angle_beta 87.605263
_cell_angle_gamma 90.000000
_cell_volume 876.886742
_symmetry_space_group_name_H-M "C C"
_symmetry_group_IT_number 9
_symmetry_cell_setting 'monoclinic'
loop_
_space_group_symop_operation_xyz
x,y,z
x,-y,1/2+z
1/2+x,1/2+y,z
1/2+x,1/2-y,1/2+z
loop_
_atom_site_type_symbol
_atom_site_label
_atom_site_fract_x
_atom_site_fract_y
_atom_site_fract_z
Si Si1 0.714070 0.742144 0.802190
Si Si2 0.065120 0.615703 0.894110
Si Si3 0.746749 0.525019 0.432011
Si Si4 0.236581 0.411390 0.093333
Si Si5 0.443689 0.127531 0.192076
Si Si6 0.044512 0.753139 0.569070
O O1 0.965948 0.699919 0.860259
O O2 0.644992 0.829560 0.788184
O O3 0.772753 0.725499 0.643273
O O4 0.499456 0.716849 0.917047
O O5 0.799109 0.562685 0.902237
O O6 0.228909 0.584025 0.760507
O O7 0.121532 0.609456 0.054746
O O8 0.476799 0.548537 0.510739
O O9 0.801845 0.564905 0.285289
O O10 0.973148 0.553429 0.532402
O O11 0.222635 0.321840 0.064603
O O12 0.212214 0.185457 0.149532
#
# Coordination Sequence:
#
# PCOD9137372 Si02
#       6
#     4   4   4   4   4   4
#     4  10  22  44  68 106 145 191 258 307 373 444
#     4  10  26  49  72 117 151 202 259 315 386 459
#     4  12  26  51  77 113 156 206 250 319 389 461
#     4  11  26  48  77 108 156 200 255 314 382 455
#     4  11  24  45  76 103 154 200 258 310 385 448
#     4  10  22  41  68 107 140 197 252 315 365 451
#
# _framework density 27.369557
#
# number of rings (size 3 to 8) (size 9 to 14) (size 15 to 20)
#    0.000    1.333    1.667    2.000    4.667    6.667 
#   15.000    0.000    0.000    0.000    0.000    0.000 
#    0.000    0.000    0.000    0.000    0.000    0.000 
#
# Total GULP energy -66974.784117 kJ/mol
# GULP energy per Si atom -5581.232010 kJ/mol
# Density = 2.730726 g / cm^3
# Si number density = 27.369557 Si / 1000 Ang^3
#
#
#
# Elastic Constant Matrix: (Units=GPa)
#
#
# Indices 1 2 3 4 5 6 
#
# 1 134.7573 17.6281 51.0375 0.0000 -15.8391 0.0000
# 2 17.6281 101.6583 25.9731 0.0000 7.5032 0.0000
# 3 51.0375 25.9731 259.2403 0.0000 -40.7463 0.0000
# 4 0.0000 0.0000 0.0000 39.8138 0.0000 3.5984
# 5 -15.8391 7.5032 -40.7463 0.0000 43.3426 0.0000
# 6 0.0000 0.0000 0.0000 3.5984 0.0000 25.6487
#
#
#
# Elastic Compliance Matrix: (Units=1/GPa)
#
#
# Indices 1 2 3 4 5 6 
#
# 1 0.008284 -0.001299 -0.001161 0.000000 0.002161 0.000000
# 2 -0.001299 0.010684 -0.001384 0.000000 -0.003626 0.000000
# 3 -0.001161 -0.001384 0.004923 0.000000 0.004444 0.000000
# 4 0.000000 0.000000 0.000000 0.025440 0.000000 -0.003569
# 5 0.002161 -0.003626 0.004444 0.000000 0.028667 0.000000
# 6 0.000000 0.000000 0.000000 -0.003569 0.000000 0.039489
#
#
# Mechanical properties :
#
#
# Convention : Reuss Voigt Hill
#
# Bulk Modulus (GPa) = 61.72409 76.10371 68.91390
# Shear Modulus (GPa) = 38.29162 48.49550 43.39356
#
# Velocity S-wave (km/s) = 3.74446 4.21393 3.98611
# Velocity P-wave (km/s) = 6.42617 7.17932 6.81316
#
# Compressibility (1/GPa) = 0.01620113
#
# Stress axis : x y z
#
# Youngs Moduli (GPa) = 120.70759 93.60203 203.12162
#
# Poissons Ratio (x) = 0.12163 0.23586
# Poissons Ratio (y) = 0.15685 0.28121
# Poissons Ratio (z) = 0.14016 0.12959
#
# Static dielectric constant tensor:
#      x y z
#    x 2.131360 0.000000 -0.036640 
#    y 0.000000 2.196670 0.000000 
#    z -0.036640 0.000000 2.247060 
# 
# From -- ./inp_files/3833.got.cif
#   From: 2010.05.17/outbox.cif.g08.bks.cpg/sg9_2_cif.got.tgz:3833.got - 2010.06.03 20:04:27.
