data_PCOD9137488
_publ_section_title
;
Structure prediction by ZEFSAII (Michael W. Deem and Ramdas Pophale) SiO2 
 PCOD9137488
Probable space group: C C
;
_chemical_formula_sum "Si O2"
_cell_formula_units_Z 28
_cell_length_a 13.500978
_cell_length_b 6.873865
_cell_length_c 25.507236
_cell_angle_alpha 90.000000
_cell_angle_beta 28.931287
_cell_angle_gamma 90.000000
_cell_volume 1145.143506
_symmetry_space_group_name_H-M "C C"
_symmetry_group_IT_number 9
_symmetry_cell_setting 'monoclinic'
loop_
_space_group_symop_operation_xyz
x,y,z
x,-y,1/2+z
1/2+x,1/2+y,z
1/2+x,1/2-y,1/2+z
loop_
_atom_site_type_symbol
_atom_site_label
_atom_site_fract_x
_atom_site_fract_y
_atom_site_fract_z
Si Si1 0.090200 0.654476 0.459750
Si Si2 0.959382 0.987412 0.956200
Si Si3 0.386690 0.110104 0.133649
Si Si4 0.839652 0.741660 0.417979
Si Si5 0.512158 0.990873 0.181674
Si Si6 0.809714 0.829057 0.311708
Si Si7 0.464097 0.159457 0.821960
O O1 0.998516 0.856713 0.483881
O O2 0.923483 0.516934 0.564323
O O3 0.207777 0.540928 0.357993
O O4 0.680073 0.265410 0.728975
O O5 0.943328 0.117717 0.911725
O O6 0.128811 0.821765 0.880511
O O7 0.735037 0.905095 0.069520
O O8 0.394828 0.969683 0.180936
O O9 0.767145 0.203433 0.420011
O O10 0.592895 0.243521 0.039661
O O11 0.870503 0.812342 0.344287
O O12 0.930378 0.525107 0.374837
O O13 0.499323 0.228785 0.194243
O O14 0.446139 0.908776 0.268873
#
# Coordination Sequence:
#
# PCOD9137488 Si02
#       7
#     4   4   4   4   4   4   4
#     4  11  24  43  66 102 136 181 230 282 358 418
#     4  11  22  44  67  95 134 181 223 291 348 408
#     4  10  24  43  65 102 135 178 236 287 345 426
#     4   9  21  44  66  97 135 179 231 284 356 408
#     4  10  22  42  67  94 134 175 227 288 343 408
#     4  10  22  44  64  95 139 168 232 288 333 423
#     4  11  23  46  71 101 141 188 231 294 353 423
#
# _framework density 24.451084000000002
#
# number of rings (size 3 to 8) (size 9 to 14) (size 15 to 20)
#    0.000    1.714    2.857    1.714    4.000    3.429 
#    5.143    0.000    0.000    0.000    0.000    0.000 
#    0.000    0.000    0.000    0.000    0.000    0.000 
#
# Total GULP energy -78180.264183 kJ/mol
# GULP energy per Si atom -5584.304584 kJ/mol
# Density = 2.439543 g / cm^3
# Si number density = 24.451084 Si / 1000 Ang^3
#
#
#
# Elastic Constant Matrix: (Units=GPa)
#
#
# Indices 1 2 3 4 5 6 
#
# 1 83.5988 14.4165 14.8563 0.0000 -0.5314 0.0003
# 2 14.4165 77.7269 -5.0483 0.0001 -5.7356 0.0009
# 3 14.8563 -5.0483 57.1354 0.0002 -8.1478 0.0001
# 4 0.0000 0.0001 0.0002 28.1255 -0.0001 5.0643
# 5 -0.5314 -5.7356 -8.1478 -0.0001 41.0482 0.0000
# 6 0.0003 0.0009 0.0001 5.0643 0.0000 32.8486
#
#
#
# Elastic Compliance Matrix: (Units=1/GPa)
#
#
# Indices 1 2 3 4 5 6 
#
# 1 0.013103 -0.002748 -0.003787 0.000000 -0.000966 0.000000
# 2 -0.002748 0.013693 0.002256 0.000000 0.002326 0.000000
# 3 -0.003787 0.002256 0.019270 0.000000 0.004091 0.000000
# 4 0.000000 0.000000 0.000000 0.036570 0.000000 -0.005638
# 5 -0.000966 0.002326 0.004091 0.000000 0.025486 0.000000
# 6 0.000000 0.000000 0.000000 -0.005638 0.000000 0.031312
#
#
# Mechanical properties :
#
#
# Convention : Reuss Voigt Hill
#
# Bulk Modulus (GPa) = 26.66119 29.65668 28.15894
# Shear Modulus (GPa) = 31.15371 33.35358 32.25364
#
# Velocity S-wave (km/s) = 3.57336 3.69737 3.63589
# Velocity P-wave (km/s) = 5.28704 5.51205 5.40072
#
# Compressibility (1/GPa) = 0.03750770
#
# Stress axis : x y z
#
# Youngs Moduli (GPa) = 76.32058 73.02847 51.89455
#
# Poissons Ratio (x) = 0.20065 0.19655
# Poissons Ratio (y) = 0.20969 -0.11707
# Poissons Ratio (z) = 0.28906 -0.16475
#
# Static dielectric constant tensor:
#      x y z
#    x 1.974520 0.000000 0.011400 
#    y 0.000000 1.979800 0.000000 
#    z 0.011400 0.000000 2.003750 
# 
# From -- ./inp_files/37364.got.cif
#   From: 2010.05.17/outbox.cif.g08.bks.cpg/sg9_19_cif.got.tgz:37364.got - 2010.06.03 20:04:27.
