data_PCOD9137112
_publ_section_title
;
Structure prediction by ZEFSAII (Michael W. Deem and Ramdas Pophale) SiO2 
 PCOD9137112
Probable space group: C C
;
_chemical_formula_sum "Si O2"
_cell_formula_units_Z 24
_cell_length_a 5.101473
_cell_length_b 21.619535
_cell_length_c 8.629678
_cell_angle_alpha 90.000000
_cell_angle_beta 92.873151
_cell_angle_gamma 90.000000
_cell_volume 950.583478
_symmetry_space_group_name_H-M "C C"
_symmetry_group_IT_number 9
_symmetry_cell_setting 'monoclinic'
loop_
_space_group_symop_operation_xyz
x,y,z
x,-y,1/2+z
1/2+x,1/2+y,z
1/2+x,1/2-y,1/2+z
loop_
_atom_site_type_symbol
_atom_site_label
_atom_site_fract_x
_atom_site_fract_y
_atom_site_fract_z
Si Si1 0.029010 0.798206 0.156800
Si Si2 0.982695 0.886767 0.679970
Si Si3 0.885705 0.075153 0.508373
Si Si4 0.746942 0.485375 0.206490
Si Si5 0.554467 0.250892 0.809815
Si Si6 0.747009 0.047924 0.907584
O O1 0.326825 0.792299 0.228577
O O2 0.894764 0.863943 0.111100
O O3 0.845083 0.772385 0.285125
O O4 0.013579 0.762527 0.991361
O O5 0.053469 0.816710 0.718247
O O6 0.812278 0.895337 0.520631
O O7 0.210452 0.940525 0.678426
O O8 0.827397 0.905249 0.831510
O O9 0.183436 0.050119 0.544045
O O10 0.728406 0.011375 0.522326
O O11 0.495778 0.465564 0.305393
O O12 0.988856 0.454966 0.299821
#
# Coordination Sequence:
#
# PCOD9137112 Si02
#       6
#     4   4   4   4   4   4
#     4  11  25  44  66  93 128 170 215 263 315 373
#     4   9  22  41  63  90 125 162 203 255 315 372
#     4   9  22  41  63  90 125 162 203 255 315 372
#     4  10  22  39  63  93 123 158 201 253 311 373
#     4  11  25  44  66  93 128 170 215 263 315 373
#     4  10  22  39  63  93 123 158 201 253 311 373
#
# _framework density 25.247648999999999
#
# number of rings (size 3 to 8) (size 9 to 14) (size 15 to 20)
#    0.000    2.000    0.000    1.000    0.000   26.667 
#    0.000    0.000    0.000    0.000    0.000    0.000 
#    0.000    0.000    0.000    0.000    0.000    0.000 
#
# Total GULP energy -67007.601936 kJ/mol
# GULP energy per Si atom -5583.966828 kJ/mol
# Density = 2.519018 g / cm^3
# Si number density = 25.247649 Si / 1000 Ang^3
#
#
#
# Elastic Constant Matrix: (Units=GPa)
#
#
# Indices 1 2 3 4 5 6 
#
# 1 110.4274 -7.1162 30.3771 0.0000 17.7961 0.0000
# 2 -7.1162 55.5562 -6.5807 0.0000 -21.4764 0.0000
# 3 30.3771 -6.5807 120.9997 0.0000 19.8073 0.0000
# 4 0.0000 0.0000 0.0000 40.3781 0.0000 4.6905
# 5 17.7961 -21.4764 19.8073 0.0000 40.1400 0.0000
# 6 0.0000 0.0000 0.0000 4.6905 0.0000 15.8130
#
#
#
# Elastic Compliance Matrix: (Units=1/GPa)
#
#
# Indices 1 2 3 4 5 6 
#
# 1 0.010175 -0.000377 -0.001962 0.000000 -0.003744 0.000000
# 2 -0.000377 0.022782 -0.000750 0.000000 0.012726 0.000000
# 3 -0.001962 -0.000750 0.009399 0.000000 -0.004169 0.000000
# 4 0.000000 0.000000 0.000000 0.025650 0.000000 -0.007608
# 5 -0.003744 0.012726 -0.004169 0.000000 0.035439 0.000000
# 6 0.000000 0.000000 0.000000 -0.007608 0.000000 0.065496
#
#
# Mechanical properties :
#
#
# Convention : Reuss Voigt Hill
#
# Bulk Modulus (GPa) = 27.64003 35.59375 31.61689
# Shear Modulus (GPa) = 26.71273 37.28641 31.99957
#
# Velocity S-wave (km/s) = 3.25626 3.84712 3.56396
# Velocity P-wave (km/s) = 5.01089 5.81913 5.43007
#
# Compressibility (1/GPa) = 0.03617941
#
# Stress axis : x y z
#
# Youngs Moduli (GPa) = 98.28436 43.89360 106.39745
#
# Poissons Ratio (x) = 0.01653 0.20874
# Poissons Ratio (y) = 0.03701 0.07976
# Poissons Ratio (z) = 0.19282 0.03291
#
# Static dielectric constant tensor:
#      x y z
#    x 2.010630 0.000000 -0.041290 
#    y 0.000000 2.051610 0.000000 
#    z -0.041290 0.000000 2.097120 
# 
# From -- ./inp_files/3869.got.cif
#   From: 2010.05.17/outbox.cif.g08.bks.cpg/sg9_2_cif.got.tgz:3869.got - 2010.06.03 20:04:27.
