data_PCOD9137010
_publ_section_title
;
Structure prediction by ZEFSAII (Michael W. Deem and Ramdas Pophale) SiO2 
 PCOD9137010
Probable space group: C C
;
_chemical_formula_sum "Si O2"
_cell_formula_units_Z 28
_cell_length_a 14.720862
_cell_length_b 13.735435
_cell_length_c 9.060672
_cell_angle_alpha 90.000000
_cell_angle_beta 43.122090
_cell_angle_gamma 90.000000
_cell_volume 1252.303748
_symmetry_space_group_name_H-M "C C"
_symmetry_group_IT_number 9
_symmetry_cell_setting 'monoclinic'
loop_
_space_group_symop_operation_xyz
x,y,z
x,-y,1/2+z
1/2+x,1/2+y,z
1/2+x,1/2-y,1/2+z
loop_
_atom_site_type_symbol
_atom_site_label
_atom_site_fract_x
_atom_site_fract_y
_atom_site_fract_z
Si Si1 0.016360 0.002091 0.092620
Si Si2 0.782071 0.886601 0.461063
Si Si3 0.755844 0.695798 0.643930
Si Si4 0.964049 0.213611 0.125657
Si Si5 0.622552 0.991555 0.394956
Si Si6 0.970142 0.618778 0.821253
Si Si7 0.204011 0.979764 0.620002
O O1 0.929134 0.100340 0.189709
O O2 0.153768 0.025269 0.012965
O O3 0.068293 0.968776 0.873011
O O4 0.933955 0.920957 0.274568
O O5 0.776407 0.771632 0.487294
O O6 0.714480 0.928166 0.394038
O O7 0.707103 0.936612 0.688822
O O8 0.857007 0.729513 0.652726
O O9 0.769023 0.584846 0.577088
O O10 0.604941 0.709914 0.876207
O O11 0.986849 0.270292 0.251121
O O12 0.543484 0.920175 0.378951
O O13 0.527474 0.055098 0.614813
O O14 0.814389 0.598836 0.022414
#
# Coordination Sequence:
#
# PCOD9137010 Si02
#       7
#     4   4   4   4   4   4   4
#     4  11  24  44  66  95 135 177 216 273 342 401
#     4  11  21  42  65  98 127 173 220 276 325 398
#     4  11  23  42  71  98 129 185 228 266 337 421
#     4  11  23  42  71  98 129 185 228 266 337 421
#     4  10  22  36  66  94 132 158 224 282 324 368
#     4  11  21  42  65  98 127 173 220 276 325 398
#     4  11  24  44  66  95 135 177 216 273 342 401
#
# _framework density 22.358794
#
# number of rings (size 3 to 8) (size 9 to 14) (size 15 to 20)
#    0.000    1.143    1.429    6.857    4.000    0.000 
#    2.571    2.857    0.000    0.000    0.000    0.000 
#    0.000    0.000    0.000    0.000    0.000    0.000 
#
# Total GULP energy -78349.397768 kJ/mol
# GULP energy per Si atom -5596.385555 kJ/mol
# Density = 2.230790 g / cm^3
# Si number density = 22.358794 Si / 1000 Ang^3
#
#
#
# Elastic Constant Matrix: (Units=GPa)
#
#
# Indices 1 2 3 4 5 6 
#
# 1 91.2050 -11.9162 5.4727 0.0000 9.6364 0.0000
# 2 -11.9162 55.0513 22.8537 0.0000 3.9444 0.0000
# 3 5.4727 22.8537 58.5352 0.0000 5.2888 0.0000
# 4 0.0000 0.0000 0.0000 27.5160 0.0000 3.8778
# 5 9.6364 3.9444 5.2888 0.0000 31.9140 0.0000
# 6 0.0000 0.0000 0.0000 3.8778 0.0000 29.7157
#
#
#
# Elastic Compliance Matrix: (Units=1/GPa)
#
#
# Indices 1 2 3 4 5 6 
#
# 1 0.011990 0.003804 -0.002271 0.000000 -0.003714 0.000000
# 2 0.003804 0.022938 -0.009088 0.000000 -0.002478 0.000000
# 3 -0.002271 -0.009088 0.020995 0.000000 -0.001671 0.000000
# 4 0.000000 0.000000 0.000000 0.037023 0.000000 -0.004831
# 5 -0.003714 -0.002478 -0.001671 0.000000 0.033039 0.000000
# 6 0.000000 0.000000 0.000000 -0.004831 0.000000 0.034283
#
#
# Mechanical properties :
#
#
# Convention : Reuss Voigt Hill
#
# Bulk Modulus (GPa) = 24.50072 26.40133 25.45102
# Shear Modulus (GPa) = 26.45764 30.38791 28.42278
#
# Velocity S-wave (km/s) = 3.44368 3.69060 3.56927
# Velocity P-wave (km/s) = 5.17626 5.47671 5.32860
#
# Compressibility (1/GPa) = 0.04081513
#
# Stress axis : x y z
#
# Youngs Moduli (GPa) = 83.40282 43.59512 47.63048
#
# Poissons Ratio (x) = -0.16584 0.10815
# Poissons Ratio (y) = -0.31727 0.43284
# Poissons Ratio (z) = 0.18937 0.39617
#
# Static dielectric constant tensor:
#      x y z
#    x 1.851380 0.000000 0.006110 
#    y 0.000000 1.819040 0.000000 
#    z 0.006110 0.000000 1.795840 
# 
# From -- ./inp_files/7322.got.cif
#   From: 2010.05.17/outbox.cif.g08.bks.cpg/sg9_4_cif.got.tgz:7322.got - 2010.06.03 20:04:27.
