data_PCOD9137617
_publ_section_title
;
Structure prediction by ZEFSAII (Michael W. Deem and Ramdas Pophale) SiO2 
 PCOD9137617
Probable space group: C C
;
_chemical_formula_sum "Si O2"
_cell_formula_units_Z 20
_cell_length_a 5.088723
_cell_length_b 18.554968
_cell_length_c 8.400701
_cell_angle_alpha 90.000000
_cell_angle_beta 63.799057
_cell_angle_gamma 90.000000
_cell_volume 711.702595
_symmetry_space_group_name_H-M "C C"
_symmetry_group_IT_number 9
_symmetry_cell_setting 'monoclinic'
loop_
_space_group_symop_operation_xyz
x,y,z
x,-y,1/2+z
1/2+x,1/2+y,z
1/2+x,1/2-y,1/2+z
loop_
_atom_site_type_symbol
_atom_site_label
_atom_site_fract_x
_atom_site_fract_y
_atom_site_fract_z
Si Si1 0.121110 0.136848 0.616550
Si Si2 0.290889 0.506313 0.275617
Si Si3 0.755176 0.743885 0.370684
Si Si4 0.226366 0.180188 0.918817
Si Si5 0.896689 0.435644 0.629261
O O1 0.299252 0.161183 0.413213
O O2 0.290252 0.134915 0.739889
O O3 0.901301 0.070533 0.676883
O O4 0.940725 0.212436 0.686566
O O5 0.015588 0.492419 0.462871
O O6 0.585807 0.536273 0.276429
O O7 0.175252 0.558838 0.169715
O O8 0.437817 0.751654 0.375874
O O9 0.899437 0.791398 0.477790
O O10 0.317776 0.134389 0.047110
#
# Coordination Sequence:
#
# PCOD9137617 Si02
#       5
#     4   4   4   4   4
#     4  10  24  45  67 102 140 181 231 293 361 411
#     4  12  25  44  73 101 146 187 236 300 350 433
#     4  10  23  39  74  92 140 183 225 289 355 424
#     4  10  22  43  66  92 140 182 225 289 351 409
#     4  12  24  47  70 101 142 193 235 295 363 411
#
# _framework density 28.101628000000002
#
# number of rings (size 3 to 8) (size 9 to 14) (size 15 to 20)
#    1.200    0.000    2.000    4.800    2.800    0.000 
#   10.800    0.000    0.000    0.000    0.000    0.000 
#    0.000    0.000    0.000    0.000    0.000    0.000 
#
# Total GULP energy -55800.820651 kJ/mol
# GULP energy per Si atom -5580.082065 kJ/mol
# Density = 2.803767 g / cm^3
# Si number density = 28.101628 Si / 1000 Ang^3
#
#
#
# Elastic Constant Matrix: (Units=GPa)
#
#
# Indices 1 2 3 4 5 6 
#
# 1 189.4109 52.7194 34.8235 0.0000 9.2889 0.0000
# 2 52.7194 107.9282 12.9319 0.0000 6.4711 0.0000
# 3 34.8235 12.9319 54.0557 0.0000 15.4634 0.0000
# 4 0.0000 0.0000 0.0000 44.5635 0.0000 -3.4838
# 5 9.2889 6.4711 15.4634 0.0000 29.1983 0.0000
# 6 0.0000 0.0000 0.0000 -3.4838 0.0000 60.6785
#
#
#
# Elastic Compliance Matrix: (Units=1/GPa)
#
#
# Indices 1 2 3 4 5 6 
#
# 1 0.006755 -0.002873 -0.003809 0.000000 0.000505 0.000000
# 2 -0.002873 0.010789 -0.000362 0.000000 -0.001285 0.000000
# 3 -0.003809 -0.000362 0.024361 0.000000 -0.011609 0.000000
# 4 0.000000 0.000000 0.000000 0.022541 0.000000 0.001294
# 5 0.000505 -0.001285 -0.011609 0.000000 0.040521 0.000000
# 6 0.000000 0.000000 0.000000 0.001294 0.000000 0.016555
#
#
# Mechanical properties :
#
#
# Convention : Reuss Voigt Hill
#
# Bulk Modulus (GPa) = 35.95044 61.37163 48.66104
# Shear Modulus (GPa) = 34.51074 43.61607 39.06341
#
# Velocity S-wave (km/s) = 3.50818 3.94392 3.73242
# Velocity P-wave (km/s) = 5.40653 6.52886 5.99402
#
# Compressibility (1/GPa) = 0.02781607
#
# Stress axis : x y z
#
# Youngs Moduli (GPa) = 148.04431 92.68300 41.04973
#
# Poissons Ratio (x) = 0.26632 0.15634
# Poissons Ratio (y) = 0.42539 0.01488
# Poissons Ratio (z) = 0.56383 0.03360
#
# Static dielectric constant tensor:
#      x y z
#    x 1.998200 0.000000 -0.040940 
#    y 0.000000 2.248990 0.000000 
#    z -0.040940 0.000000 2.438040 
# 
# From -- ./inp_files/3758.got.cif
#   From: 2010.05.17/outbox.cif.g08.bks.cpg/sg9_2_cif.got.tgz:3758.got - 2010.06.03 20:04:27.
