data_PCOD9137898
_publ_section_title
;
Structure prediction by ZEFSAII (Michael W. Deem and Ramdas Pophale) SiO2 
 PCOD9137898
Probable space group: C C
;
_chemical_formula_sum "Si O2"
_cell_formula_units_Z 32
_cell_length_a 6.136766
_cell_length_b 12.117649
_cell_length_c 19.836147
_cell_angle_alpha 90.000000
_cell_angle_beta 118.003473
_cell_angle_gamma 90.000000
_cell_volume 1302.375383
_symmetry_space_group_name_H-M "C C"
_symmetry_group_IT_number 9
_symmetry_cell_setting 'monoclinic'
loop_
_space_group_symop_operation_xyz
x,y,z
x,-y,1/2+z
1/2+x,1/2+y,z
1/2+x,1/2-y,1/2+z
loop_
_atom_site_type_symbol
_atom_site_label
_atom_site_fract_x
_atom_site_fract_y
_atom_site_fract_z
Si Si1 0.366200 0.403768 0.026920
Si Si2 0.419759 0.593924 0.382944
Si Si3 0.011107 0.730012 0.247802
Si Si4 0.416320 0.780912 0.995244
Si Si5 0.849189 0.543842 0.128493
Si Si6 0.704409 0.190134 0.097819
Si Si7 0.373226 0.649368 0.861278
Si Si8 0.889880 0.342194 0.230641
O O1 0.577834 0.496254 0.070165
O O2 0.512797 0.290303 0.059879
O O3 0.290490 0.417997 0.937659
O O4 0.120170 0.376581 0.033802
O O5 0.245996 0.657562 0.306026
O O6 0.667459 0.659631 0.434803
O O7 0.477436 0.471878 0.365722
O O8 0.115092 0.835453 0.221847
O O9 0.850893 0.650049 0.178033
O O10 0.901589 0.774347 0.300559
O O11 0.490991 0.703029 0.943937
O O12 0.351547 0.704742 0.049489
O O13 0.947268 0.440960 0.187395
O O14 0.038878 0.586151 0.097689
O O15 0.880033 0.230008 0.184662
O O16 0.075844 0.642240 0.819773
#
# Coordination Sequence:
#
# PCOD9137898 Si02
#       8
#     4   4   4   4   4   4   4   4
#     4  10  23  45  69 107 148 195 251 309 389 463
#     4  11  24  44  68 104 149 184 244 310 376 460
#     4  11  23  44  70 102 147 189 252 316 377 455
#     4  11  24  47  74 106 150 197 252 314 387 462
#     4  10  22  46  76 103 154 195 251 326 383 456
#     4   9  23  45  72 104 148 193 251 320 372 464
#     4  12  25  42  74 105 139 196 243 305 382 460
#     4  10  22  45  69 105 141 189 246 304 380 458
#
# _framework density 24.570488999999998
#
# number of rings (size 3 to 8) (size 9 to 14) (size 15 to 20)
#    0.000    1.500    3.750    0.000    1.750    5.000 
#    6.750    5.000    0.000    0.000    0.000    0.000 
#    0.000    0.000    0.000    0.000    0.000    0.000 
#
# Total GULP energy -89318.386865 kJ/mol
# GULP energy per Si atom -5582.399179 kJ/mol
# Density = 2.451457 g / cm^3
# Si number density = 24.570489 Si / 1000 Ang^3
#
#
#
# Elastic Constant Matrix: (Units=GPa)
#
#
# Indices 1 2 3 4 5 6 
#
# 1 94.6580 54.9581 46.4562 0.0000 -1.8716 0.0000
# 2 54.9581 137.4550 42.1259 0.0000 3.8569 0.0000
# 3 46.4562 42.1259 116.3199 0.0000 0.0038 0.0000
# 4 0.0000 0.0000 0.0000 40.6613 0.0000 -1.7225
# 5 -1.8716 3.8569 0.0038 0.0000 43.0787 0.0000
# 6 0.0000 0.0000 0.0000 -1.7225 0.0000 46.5440
#
#
#
# Elastic Compliance Matrix: (Units=1/GPa)
#
#
# Indices 1 2 3 4 5 6 
#
# 1 0.015629 -0.004913 -0.004463 0.000000 0.001119 0.000000
# 2 -0.004913 0.009751 -0.001569 0.000000 -0.001086 0.000000
# 3 -0.004463 -0.001569 0.010948 0.000000 -0.000054 0.000000
# 4 0.000000 0.000000 0.000000 0.024632 0.000000 0.000912
# 5 0.001119 -0.001086 -0.000054 0.000000 0.023359 0.000000
# 6 0.000000 0.000000 0.000000 0.000912 0.000000 0.021519
#
#
# Mechanical properties :
#
#
# Convention : Reuss Voigt Hill
#
# Bulk Modulus (GPa) = 69.26159 70.61261 69.93710
# Shear Modulus (GPa) = 37.72466 39.71632 38.72049
#
# Velocity S-wave (km/s) = 3.92262 4.02484 3.97406
# Velocity P-wave (km/s) = 6.98327 7.09932 7.04153
#
# Compressibility (1/GPa) = 0.01443802
#
# Stress axis : x y z
#
# Youngs Moduli (GPa) = 63.98381 102.55692 91.34354
#
# Poissons Ratio (x) = 0.50381 0.40765
# Poissons Ratio (y) = 0.31432 0.14334
# Poissons Ratio (z) = 0.28555 0.16094
#
# Static dielectric constant tensor:
#      x y z
#    x 2.084270 0.000000 -0.014540 
#    y 0.000000 1.940870 0.000000 
#    z -0.014540 0.000000 1.957710 
# 
# From -- ./inp_files/32109.got.cif
#   From: 2010.05.17/outbox.cif.g08.bks.cpg/sg9_17_cif.got.tgz:32109.got - 2010.06.03 20:04:27.
