data_PCOD9137764
_publ_section_title
;
Structure prediction by ZEFSAII (Michael W. Deem and Ramdas Pophale) SiO2 
 PCOD9137764
Probable space group: C C
;
_chemical_formula_sum "Si O2"
_cell_formula_units_Z 28
_cell_length_a 5.792716
_cell_length_b 14.514722
_cell_length_c 17.062136
_cell_angle_alpha 90.000000
_cell_angle_beta 61.009025
_cell_angle_gamma 90.000000
_cell_volume 1254.820281
_symmetry_space_group_name_H-M "C C"
_symmetry_group_IT_number 9
_symmetry_cell_setting 'monoclinic'
loop_
_space_group_symop_operation_xyz
x,y,z
x,-y,1/2+z
1/2+x,1/2+y,z
1/2+x,1/2-y,1/2+z
loop_
_atom_site_type_symbol
_atom_site_label
_atom_site_fract_x
_atom_site_fract_y
_atom_site_fract_z
Si Si1 0.024700 0.519980 0.301430
Si Si2 0.682872 0.079849 0.625517
Si Si3 0.000268 0.017325 0.953007
Si Si4 0.378873 0.723644 0.945589
Si Si5 0.845980 0.128732 0.347574
Si Si6 0.818221 0.719860 0.293327
Si Si7 0.188409 0.178088 0.621787
O O1 0.040889 0.447868 0.229702
O O2 0.301372 0.546158 0.293942
O O3 0.817906 0.494914 0.404287
O O4 0.938772 0.618217 0.280723
O O5 0.456992 0.127627 0.607950
O O6 0.958220 0.128562 0.607605
O O7 0.808844 0.993308 0.558443
O O8 0.965184 0.118485 0.923700
O O9 0.918180 0.929627 0.912854
O O10 0.598259 0.804762 0.902608
O O11 0.210757 0.745673 0.895127
O O12 0.264273 0.739369 0.050514
O O13 0.066269 0.199881 0.281641
O O14 0.032915 0.787096 0.223552
#
# Coordination Sequence:
#
# PCOD9137764 Si02
#       7
#     4   4   4   4   4   4   4
#     4  10  24  43  70 104 141 193 238 306 364 445
#     4  12  27  47  72 107 150 189 249 306 366 445
#     4  11  24  45  71 102 143 196 243 305 374 441
#     4  11  24  45  71 102 143 196 243 305 374 441
#     4  10  22  44  68 102 146 180 248 302 362 448
#     4  10  24  43  70 104 141 193 238 306 364 445
#     4  12  27  47  72 107 150 189 249 306 366 445
#
# _framework density 22.313953000000001
#
# number of rings (size 3 to 8) (size 9 to 14) (size 15 to 20)
#    0.000    1.143    1.429    4.286   12.000    0.000 
#    0.000    0.000    0.000    0.000    0.000    0.000 
#    0.000    0.000    0.000    0.000    0.000    0.000 
#
# Total GULP energy -77935.277765 kJ/mol
# GULP energy per Si atom -5566.805555 kJ/mol
# Density = 2.226317 g / cm^3
# Si number density = 22.313953 Si / 1000 Ang^3
#
#
#
# Elastic Constant Matrix: (Units=GPa)
#
#
# Indices 1 2 3 4 5 6 
#
# 1 98.1957 32.5498 21.9840 0.0000 -5.5891 0.0000
# 2 32.5498 98.2836 8.1220 0.0000 -7.2277 0.0000
# 3 21.9840 8.1220 83.3868 0.0000 -5.5618 0.0000
# 4 0.0000 0.0000 0.0000 15.2247 0.0000 1.4617
# 5 -5.5891 -7.2277 -5.5618 0.0000 3.8315 0.0000
# 6 0.0000 0.0000 0.0000 1.4617 0.0000 22.9335
#
#
#
# Elastic Compliance Matrix: (Units=1/GPa)
#
#
# Indices 1 2 3 4 5 6 
#
# 1 0.012265 -0.003255 -0.002361 0.000000 0.008324 0.000000
# 2 -0.003255 0.012688 0.000999 0.000000 0.020636 0.000000
# 3 -0.002361 0.000999 0.013744 0.000000 0.018390 0.000000
# 4 0.000000 0.000000 0.000000 0.066087 0.000000 -0.004212
# 5 0.008324 0.020636 0.018390 0.000000 0.338758 0.000000
# 6 0.000000 0.000000 0.000000 -0.004212 0.000000 0.043873
#
#
# Mechanical properties :
#
#
# Convention : Reuss Voigt Hill
#
# Bulk Modulus (GPa) = 33.94198 45.01975 39.48087
# Shear Modulus (GPa) = 9.87225 22.87863 16.37544
#
# Velocity S-wave (km/s) = 2.10567 3.20551 2.71193
# Velocity P-wave (km/s) = 4.59956 5.82407 5.24765
#
# Compressibility (1/GPa) = 0.02946204
#
# Stress axis : x y z
#
# Youngs Moduli (GPa) = 81.53249 78.81753 72.75803
#
# Poissons Ratio (x) = 0.25653 0.17181
# Poissons Ratio (y) = 0.26536 -0.07266
# Poissons Ratio (z) = 0.19252 -0.07871
#
# Static dielectric constant tensor:
#      x y z
#    x 2.064060 0.000000 0.008850 
#    y 0.000000 1.812410 0.000000 
#    z 0.008850 0.000000 1.823180 
# 
# From -- ./inp_files/21721.got.cif
#   From: 2010.05.17/outbox.cif.g08.bks.cpg/sg9_11_cif.got.tgz:21721.got - 2010.06.03 20:04:27.
