data_PCOD9137767
_publ_section_title
;
Structure prediction by ZEFSAII (Michael W. Deem and Ramdas Pophale) SiO2 
 PCOD9137767
Probable space group: C C
;
_chemical_formula_sum "Si O2"
_cell_formula_units_Z 28
_cell_length_a 5.226764
_cell_length_b 18.249561
_cell_length_c 14.775394
_cell_angle_alpha 90.000000
_cell_angle_beta 61.404860
_cell_angle_gamma 90.000000
_cell_volume 1237.458266
_symmetry_space_group_name_H-M "C C"
_symmetry_group_IT_number 9
_symmetry_cell_setting 'monoclinic'
loop_
_space_group_symop_operation_xyz
x,y,z
x,-y,1/2+z
1/2+x,1/2+y,z
1/2+x,1/2-y,1/2+z
loop_
_atom_site_type_symbol
_atom_site_label
_atom_site_fract_x
_atom_site_fract_y
_atom_site_fract_z
Si Si1 0.348730 0.362957 0.264460
Si Si2 0.449086 0.934693 0.183615
Si Si3 0.196546 0.378902 0.484520
Si Si4 0.351508 0.371780 0.767006
Si Si5 0.985908 0.454596 0.980147
Si Si6 0.929171 0.705155 0.194525
Si Si7 0.444263 0.537395 0.088827
O O1 0.604546 0.421773 0.241635
O O2 0.253021 0.339344 0.380860
O O3 0.466499 0.292026 0.193025
O O4 0.095251 0.394428 0.243696
O O5 0.605841 0.013945 0.160421
O O6 0.535869 0.912627 0.066243
O O7 0.463143 0.403989 0.504931
O O8 0.079847 0.459782 0.474524
O O9 0.014443 0.327689 0.582434
O O10 0.595500 0.319206 0.768049
O O11 0.520955 0.428150 0.671852
O O12 0.158857 0.415640 0.871780
O O13 0.139538 0.328335 0.735163
O O14 0.637730 0.467141 0.030418
#
# Coordination Sequence:
#
# PCOD9137767 Si02
#       7
#     4   4   4   4   4   4   4
#     4  12  26  45  72  99 141 192 232 280 339 435
#     4  11  25  42  67 106 134 171 237 287 340 407
#     4  10  25  41  71 101 137 184 229 288 366 401
#     4  11  25  42  71  97 140 183 227 289 362 402
#     4  11  23  42  73 105 139 176 226 301 356 411
#     4  11  26  48  64 102 145 183 235 285 336 433
#     4  10  22  44  68 106 140 169 234 302 349 417
#
# _framework density 22.627027999999999
#
# number of rings (size 3 to 8) (size 9 to 14) (size 15 to 20)
#    0.000    1.143    2.857    1.714    8.000    2.286 
#    0.000    0.000    0.000    0.000    0.000    0.000 
#    0.000    0.000    0.000    0.000    0.000    0.000 
#
# Total GULP energy -78105.551597 kJ/mol
# GULP energy per Si atom -5578.967971 kJ/mol
# Density = 2.257553 g / cm^3
# Si number density = 22.627028 Si / 1000 Ang^3
#
#
#
# Elastic Constant Matrix: (Units=GPa)
#
#
# Indices 1 2 3 4 5 6 
#
# 1 125.2701 22.1712 30.0572 0.0000 0.8216 0.0000
# 2 22.1712 51.0181 4.2716 0.0000 7.4543 0.0000
# 3 30.0572 4.2716 110.1643 0.0000 23.6518 0.0000
# 4 0.0000 0.0000 0.0000 28.3522 0.0000 5.0348
# 5 0.8216 7.4543 23.6518 0.0000 26.1766 0.0000
# 6 0.0000 0.0000 0.0000 5.0348 0.0000 19.0267
#
#
#
# Elastic Compliance Matrix: (Units=1/GPa)
#
#
# Indices 1 2 3 4 5 6 
#
# 1 0.009527 -0.004439 -0.003268 0.000000 0.003918 0.000000
# 2 -0.004439 0.022549 0.002091 0.000000 -0.008171 0.000000
# 3 -0.003268 0.002091 0.012399 0.000000 -0.011696 0.000000
# 4 0.000000 0.000000 0.000000 0.037010 0.000000 -0.009794
# 5 0.003918 -0.008171 -0.011696 0.000000 0.050974 0.000000
# 6 0.000000 0.000000 0.000000 -0.009794 0.000000 0.055149
#
#
# Mechanical properties :
#
#
# Convention : Reuss Voigt Hill
#
# Bulk Modulus (GPa) = 30.08211 44.38363 37.23287
# Shear Modulus (GPa) = 23.81844 30.04126 26.92985
#
# Velocity S-wave (km/s) = 3.24798 3.64768 3.45362
# Velocity P-wave (km/s) = 5.23350 6.11544 5.69158
#
# Compressibility (1/GPa) = 0.03324235
#
# Stress axis : x y z
#
# Youngs Moduli (GPa) = 104.96558 44.34820 80.65073
#
# Poissons Ratio (x) = 0.19686 0.26360
# Poissons Ratio (y) = 0.46594 -0.16866
# Poissons Ratio (z) = 0.34307 -0.09274
#
# Static dielectric constant tensor:
#      x y z
#    x 1.939960 0.000000 -0.031530 
#    y 0.000000 1.849750 0.000000 
#    z -0.031530 0.000000 1.854630 
# 
# From -- ./inp_files/13125.got.cif
#   From: 2010.05.17/outbox.cif.g08.bks.cpg/sg9_7_cif.got.tgz:13125.got - 2010.06.03 20:04:27.
