data_PCOD9137795
_publ_section_title
;
Structure prediction by ZEFSAII (Michael W. Deem and Ramdas Pophale) SiO2 
 PCOD9137795
Probable space group: C C
;
_chemical_formula_sum "Si O2"
_cell_formula_units_Z 28
_cell_length_a 8.168970
_cell_length_b 24.523279
_cell_length_c 9.884558
_cell_angle_alpha 90.000000
_cell_angle_beta 33.085915
_cell_angle_gamma 90.000000
_cell_volume 1080.968437
_symmetry_space_group_name_H-M "C C"
_symmetry_group_IT_number 9
_symmetry_cell_setting 'monoclinic'
loop_
_space_group_symop_operation_xyz
x,y,z
x,-y,1/2+z
1/2+x,1/2+y,z
1/2+x,1/2-y,1/2+z
loop_
_atom_site_type_symbol
_atom_site_label
_atom_site_fract_x
_atom_site_fract_y
_atom_site_fract_z
Si Si1 0.068010 0.204277 0.494730
Si Si2 0.849805 0.479897 0.393041
Si Si3 0.324282 0.776689 0.427565
Si Si4 0.296077 0.386045 0.000833
Si Si5 0.248502 0.341020 0.467814
Si Si6 0.420592 0.058915 0.113204
Si Si7 0.969262 0.120794 0.105750
O O1 0.505837 0.242948 0.937794
O O2 0.416360 0.185129 0.231167
O O3 0.844346 0.163360 0.569361
O O4 0.976613 0.194825 0.716556
O O5 0.868550 0.534403 0.295767
O O6 0.908494 0.488961 0.511117
O O7 0.563623 0.443029 0.547158
O O8 0.113390 0.438300 0.171260
O O9 0.497572 0.749296 0.183806
O O10 0.249002 0.839755 0.453013
O O11 0.639085 0.406687 0.759247
O O12 0.228711 0.370465 0.892499
O O13 0.376451 0.358247 0.524164
O O14 0.191721 0.398703 0.429866
#
# Coordination Sequence:
#
# PCOD9137795 Si02
#       7
#     4   4   4   4   4   4   4
#     4  11  23  48  75 102 143 197 243 306 368 447
#     4  11  24  43  70 101 149 198 250 302 368 452
#     4  12  25  45  82 103 141 198 248 298 373 462
#     4  10  22  44  69  96 143 197 245 296 370 441
#     4  11  26  47  74 111 151 187 246 321 366 434
#     4  10  25  40  67 104 141 199 250 297 373 441
#     4  11  27  45  73 109 148 192 248 316 374 441
#
# _framework density 25.902698999999998
#
# number of rings (size 3 to 8) (size 9 to 14) (size 15 to 20)
#    0.000    1.143    2.857    1.714    8.000    2.286 
#    0.000    4.286    0.000    0.000    0.000    0.000 
#    0.000    0.000    0.000    0.000    0.000    0.000 
#
# Total GULP energy -78148.398673 kJ/mol
# GULP energy per Si atom -5582.028477 kJ/mol
# Density = 2.584374 g / cm^3
# Si number density = 25.902699 Si / 1000 Ang^3
#
#
#
# Elastic Constant Matrix: (Units=GPa)
#
#
# Indices 1 2 3 4 5 6 
#
# 1 96.9701 14.6584 32.1114 0.0000 20.9956 0.0000
# 2 14.6584 72.9030 -4.0246 0.0000 11.6564 0.0000
# 3 32.1114 -4.0246 105.5520 0.0000 20.0103 0.0000
# 4 0.0000 0.0000 0.0000 44.9318 0.0000 10.8428
# 5 20.9956 11.6564 20.0103 0.0000 42.0846 0.0000
# 6 0.0000 0.0000 0.0000 10.8428 0.0000 35.1003
#
#
#
# Elastic Compliance Matrix: (Units=1/GPa)
#
#
# Indices 1 2 3 4 5 6 
#
# 1 0.012560 -0.002019 -0.003095 0.000000 -0.004235 0.000000
# 2 -0.002019 0.014876 0.001947 0.000000 -0.004039 0.000000
# 3 -0.003095 0.001947 0.011320 0.000000 -0.004377 0.000000
# 4 0.000000 0.000000 0.000000 0.024049 0.000000 -0.007429
# 5 -0.004235 -0.004039 -0.004377 0.000000 0.029075 0.000000
# 6 0.000000 0.000000 0.000000 -0.007429 0.000000 0.030785
#
#
# Mechanical properties :
#
#
# Convention : Reuss Voigt Hill
#
# Bulk Modulus (GPa) = 30.84382 40.10173 35.47278
# Shear Modulus (GPa) = 35.76431 39.93533 37.84982
#
# Velocity S-wave (km/s) = 3.71983 3.93076 3.82675
# Velocity P-wave (km/s) = 5.51207 6.00970 5.76626
#
# Compressibility (1/GPa) = 0.03242140
#
# Stress axis : x y z
#
# Youngs Moduli (GPa) = 79.62090 67.22201 88.34150
#
# Poissons Ratio (x) = 0.13572 0.27342
# Poissons Ratio (y) = 0.16076 -0.17201
# Poissons Ratio (z) = 0.24643 -0.13089
#
# Static dielectric constant tensor:
#      x y z
#    x 2.032880 0.000000 -0.039020 
#    y 0.000000 2.097040 0.000000 
#    z -0.039020 0.000000 2.281100 
# 
# From -- ./inp_files/6348.got.cif
#   From: 2010.05.17/outbox.cif.g08.bks.cpg/sg9_4_cif.got.tgz:6348.got - 2010.06.03 20:04:27.
