data_PCOD9137671
_publ_section_title
;
Structure prediction by ZEFSAII (Michael W. Deem and Ramdas Pophale) SiO2 
 PCOD9137671
Probable space group: C C
;
_chemical_formula_sum "Si O2"
_cell_formula_units_Z 32
_cell_length_a 13.427847
_cell_length_b 6.664734
_cell_length_c 17.044260
_cell_angle_alpha 90.000000
_cell_angle_beta 73.782632
_cell_angle_gamma 90.000000
_cell_volume 1464.647653
_symmetry_space_group_name_H-M "C C"
_symmetry_group_IT_number 9
_symmetry_cell_setting 'monoclinic'
loop_
_space_group_symop_operation_xyz
x,y,z
x,-y,1/2+z
1/2+x,1/2+y,z
1/2+x,1/2-y,1/2+z
loop_
_atom_site_type_symbol
_atom_site_label
_atom_site_fract_x
_atom_site_fract_y
_atom_site_fract_z
Si Si1 0.514250 0.090789 0.883820
Si Si2 0.819038 0.559944 0.516916
Si Si3 0.273263 0.693924 0.640157
Si Si4 0.605971 0.119891 0.227140
Si Si5 0.449658 0.619790 0.086753
Si Si6 0.716553 0.467374 0.269616
Si Si7 0.124640 0.094718 0.455888
Si Si8 0.442878 0.170206 0.741195
O O1 0.562331 0.205997 0.945781
O O2 0.480165 0.236760 0.819137
O O3 0.409427 0.984039 0.933877
O O4 0.596824 0.950257 0.820959
O O5 0.783020 0.354893 0.567704
O O6 0.873853 0.712456 0.565326
O O7 0.718413 0.640917 0.494186
O O8 0.185102 0.521192 0.662053
O O9 0.380905 0.575898 0.616919
O O10 0.249919 0.826478 0.721721
O O11 0.643566 0.345596 0.225296
O O12 0.492024 0.054355 0.223255
O O13 0.488186 0.700806 0.161374
O O14 0.544782 0.562560 0.010698
O O15 0.667841 0.510464 0.364435
O O16 0.820275 0.336718 0.259572
#
# Coordination Sequence:
#
# PCOD9137671 Si02
#       8
#     4   4   4   4   4   4   4   4
#     4  10  23  47  69 106 142 182 251 294 356 442
#     4  12  25  48  69 103 148 185 242 302 358 434
#     4  12  23  45  68 101 143 183 243 292 360 437
#     4  10  22  43  69  99 136 189 233 292 359 426
#     4  12  26  49  72 109 146 193 242 305 365 431
#     4  12  22  46  73  98 143 189 237 297 365 435
#     4  12  25  46  74 104 142 196 233 302 367 421
#     4  10  22  46  68 104 144 181 243 302 350 434
#
# _framework density 21.848258999999999
#
# number of rings (size 3 to 8) (size 9 to 14) (size 15 to 20)
#    0.750    0.000    6.250    1.500    0.000    0.000 
#   22.500    0.000    0.000    0.000    0.000    0.000 
#    0.000    0.000    0.000    0.000    0.000    0.000 
#
# Total GULP energy -89354.418462 kJ/mol
# GULP energy per Si atom -5584.651154 kJ/mol
# Density = 2.179853 g / cm^3
# Si number density = 21.848259 Si / 1000 Ang^3
#
#
#
# Elastic Constant Matrix: (Units=GPa)
#
#
# Indices 1 2 3 4 5 6 
#
# 1 90.9954 20.2324 22.8866 0.0000 3.0126 0.0000
# 2 20.2324 51.9598 25.0731 0.0000 8.0980 0.0000
# 3 22.8866 25.0731 100.9394 0.0000 -14.7748 0.0000
# 4 0.0000 0.0000 0.0000 25.2865 0.0000 3.1373
# 5 3.0126 8.0980 -14.7748 0.0000 40.7939 0.0000
# 6 0.0000 0.0000 0.0000 3.1373 0.0000 30.8995
#
#
#
# Elastic Compliance Matrix: (Units=1/GPa)
#
#
# Indices 1 2 3 4 5 6 
#
# 1 0.012348 -0.003694 -0.002015 0.000000 -0.000908 0.000000
# 2 -0.003694 0.024832 -0.006349 0.000000 -0.006956 0.000000
# 3 -0.002015 -0.006349 0.012827 0.000000 0.006055 0.000000
# 4 0.000000 0.000000 0.000000 0.040051 0.000000 -0.004067
# 5 -0.000908 -0.006956 0.006055 0.000000 0.028154 0.000000
# 6 0.000000 0.000000 0.000000 -0.004067 0.000000 0.032776
#
#
# Mechanical properties :
#
#
# Convention : Reuss Voigt Hill
#
# Bulk Modulus (GPa) = 38.62364 42.25319 40.43841
# Shear Modulus (GPa) = 27.21320 31.10947 29.16133
#
# Velocity S-wave (km/s) = 3.53307 3.77754 3.65735
# Velocity P-wave (km/s) = 5.86174 6.19740 6.03190
#
# Compressibility (1/GPa) = 0.02589088
#
# Stress axis : x y z
#
# Youngs Moduli (GPa) = 80.98588 40.27100 77.95998
#
# Poissons Ratio (x) = 0.14877 0.15709
# Poissons Ratio (y) = 0.29917 0.49495
# Poissons Ratio (z) = 0.16319 0.25567
#
# Static dielectric constant tensor:
#      x y z
#    x 1.787670 0.000000 -0.007380 
#    y 0.000000 1.809910 0.000000 
#    z -0.007380 0.000000 1.793610 
# 
# From -- ./inp_files/30372.got.cif
#   From: 2010.05.17/outbox.cif.g08.bks.cpg/sg9_16_cif.got.tgz:30372.got - 2010.06.03 20:04:27.
