data_PCOD9137943
_publ_section_title
;
Structure prediction by ZEFSAII (Michael W. Deem and Ramdas Pophale) SiO2 
 PCOD9137943
Probable space group: C C
;
_chemical_formula_sum "Si O2"
_cell_formula_units_Z 24
_cell_length_a 9.263007
_cell_length_b 10.423136
_cell_length_c 12.064755
_cell_angle_alpha 90.000000
_cell_angle_beta 47.700537
_cell_angle_gamma 90.000000
_cell_volume 861.564446
_symmetry_space_group_name_H-M "C C"
_symmetry_group_IT_number 9
_symmetry_cell_setting 'monoclinic'
loop_
_space_group_symop_operation_xyz
x,y,z
x,-y,1/2+z
1/2+x,1/2+y,z
1/2+x,1/2-y,1/2+z
loop_
_atom_site_type_symbol
_atom_site_label
_atom_site_fract_x
_atom_site_fract_y
_atom_site_fract_z
Si Si1 0.523240 0.984778 0.115810
Si Si2 0.930112 0.650745 0.384754
Si Si3 0.896265 0.088955 0.540222
Si Si4 0.146534 0.071862 0.053943
Si Si5 0.820809 0.241526 0.302791
Si Si6 0.181238 0.319448 0.375345
O O1 0.739952 0.934065 0.027034
O O2 0.387908 0.859340 0.187380
O O3 0.756974 0.439439 0.024719
O O4 0.790165 0.678778 0.931403
O O5 0.505399 0.461398 0.523153
O O6 0.980593 0.572486 0.245783
O O7 0.840974 0.784223 0.386840
O O8 0.780885 0.137050 0.710369
O O9 0.064385 0.188120 0.424568
O O10 0.999238 0.859110 0.713140
O O11 0.624160 0.176986 0.356003
O O12 0.536012 0.923541 0.503571
#
# Coordination Sequence:
#
# PCOD9137943 Si02
#       6
#     4   4   4   4   4   4
#     4  11  24  45  72 110 146 191 257 307 374 452
#     4  10  22  45  74 102 150 195 249 309 370 452
#     4  11  24  47  74 106 154 197 256 309 375 456
#     4  10  24  43  72 109 146 195 255 305 374 450
#     4  11  24  43  75 108 148 195 248 312 374 448
#     4  11  24  47  75 107 148 205 249 314 381 442
#
# _framework density 27.856303
#
# number of rings (size 3 to 8) (size 9 to 14) (size 15 to 20)
#    0.000    1.333    3.333    1.000    2.333    2.667 
#    0.000    0.000    0.000    0.000    0.000    0.000 
#    0.000    0.000    0.000    0.000    0.000    0.000 
#
# Total GULP energy -67357.546765 kJ/mol
# GULP energy per Si atom -5613.128897 kJ/mol
# Density = 2.779290 g / cm^3
# Si number density = 27.856303 Si / 1000 Ang^3
#
#
#
# Elastic Constant Matrix: (Units=GPa)
#
#
# Indices 1 2 3 4 5 6 
#
# 1 116.7403 21.0490 28.6323 0.0000 6.2618 0.0000
# 2 21.0490 120.8577 38.9299 0.0000 2.3078 0.0000
# 3 28.6323 38.9299 139.5288 0.0000 -6.9471 0.0000
# 4 0.0000 0.0000 0.0000 66.3941 0.0000 -15.6136
# 5 6.2618 2.3078 -6.9471 0.0000 31.1042 0.0000
# 6 0.0000 0.0000 0.0000 -15.6136 0.0000 59.9886
#
#
#
# Elastic Compliance Matrix: (Units=1/GPa)
#
#
# Indices 1 2 3 4 5 6 
#
# 1 0.009291 -0.001019 -0.001731 0.000000 -0.002182 0.000000
# 2 -0.001019 0.009252 -0.002423 0.000000 -0.001022 0.000000
# 3 -0.001731 -0.002423 0.008317 0.000000 0.002386 0.000000
# 4 0.000000 0.000000 0.000000 0.016044 0.000000 0.004176
# 5 -0.002182 -0.001022 0.002386 0.000000 0.033198 0.000000
# 6 0.000000 0.000000 0.000000 0.004176 0.000000 0.017757
#
#
# Mechanical properties :
#
#
# Convention : Reuss Voigt Hill
#
# Bulk Modulus (GPa) = 60.55491 61.59438 61.07465
# Shear Modulus (GPa) = 45.57509 50.73175 48.15342
#
# Velocity S-wave (km/s) = 4.04923 4.27218 4.16220
# Velocity P-wave (km/s) = 6.60661 6.81871 6.71349
#
# Compressibility (1/GPa) = 0.01651394
#
# Stress axis : x y z
#
# Youngs Moduli (GPa) = 107.62742 108.08816 120.23497
#
# Poissons Ratio (x) = 0.11014 0.20812
# Poissons Ratio (y) = 0.10967 0.29134
# Poissons Ratio (z) = 0.18630 0.26191
#
# Static dielectric constant tensor:
#      x y z
#    x 2.202930 0.000000 0.016860 
#    y 0.000000 2.173930 0.000000 
#    z 0.016860 0.000000 2.196950 
# 
# From -- ./inp_files/15911.got.cif
#   From: 2010.05.17/outbox.cif.g08.bks.cpg/sg9_8_cif.got.tgz:15911.got - 2010.06.03 20:04:27.
