data_PCOD9137422
_publ_section_title
;
Structure prediction by ZEFSAII (Michael W. Deem and Ramdas Pophale) SiO2 
 PCOD9137422
Probable space group: C C
;
_chemical_formula_sum "Si O2"
_cell_formula_units_Z 24
_cell_length_a 11.275176
_cell_length_b 15.619191
_cell_length_c 5.409634
_cell_angle_alpha 90.000000
_cell_angle_beta 71.748453
_cell_angle_gamma 90.000000
_cell_volume 904.756934
_symmetry_space_group_name_H-M "C C"
_symmetry_group_IT_number 9
_symmetry_cell_setting 'monoclinic'
loop_
_space_group_symop_operation_xyz
x,y,z
x,-y,1/2+z
1/2+x,1/2+y,z
1/2+x,1/2-y,1/2+z
loop_
_atom_site_type_symbol
_atom_site_label
_atom_site_fract_x
_atom_site_fract_y
_atom_site_fract_z
Si Si1 0.886440 0.773102 0.736630
Si Si2 0.517488 0.147337 0.969576
Si Si3 0.735000 0.416311 0.690080
Si Si4 0.911726 0.044245 0.096007
Si Si5 0.161533 0.612357 0.391296
Si Si6 0.229998 0.120437 0.681328
O O1 0.675053 0.623548 0.987002
O O2 0.928308 0.854010 0.546714
O O3 0.756992 0.813252 0.925070
O O4 0.841721 0.689159 0.617679
O O5 0.594554 0.141120 0.176736
O O6 0.379587 0.111085 0.109384
O O7 0.482472 0.239991 0.877184
O O8 0.575564 0.097954 0.688986
O O9 0.665088 0.373024 0.964052
O O10 0.752733 0.518081 0.657466
O O11 0.761043 0.960097 0.741830
O O12 0.959650 0.007865 0.328081
#
# Coordination Sequence:
#
# PCOD9137422 Si02
#       6
#     4   4   4   4   4   4
#     4   9  23  39  60  88 122 163 198 250 302 360
#     4  11  20  40  59  92 120 161 194 243 310 361
#     4   9  18  30  51  82 113 146 184 226 285 365
#     4  10  22  42  58  88 121 160 202 258 298 356
#     4  10  24  37  60  91 121 159 198 250 297 369
#     4   9  17  34  50  81 113 153 178 225 290 359
#
# _framework density 26.526463
#
# number of rings (size 3 to 8) (size 9 to 14) (size 15 to 20)
#    1.000    1.333    0.000    3.000    0.000    8.000 
#   27.000    0.000    0.000    0.000   39.000    0.000 
#    0.000    0.000    0.000    0.000    0.000    0.000 
#
# Total GULP energy -66811.080066 kJ/mol
# GULP energy per Si atom -5567.590006 kJ/mol
# Density = 2.646609 g / cm^3
# Si number density = 26.526463 Si / 1000 Ang^3
#
#
#
# Elastic Constant Matrix: (Units=GPa)
#
#
# Indices 1 2 3 4 5 6 
#
# 1 85.9041 34.2516 35.1241 0.0000 -3.4180 0.0000
# 2 34.2516 104.8951 42.6073 0.0000 17.9853 0.0000
# 3 35.1241 42.6073 185.1022 0.0000 40.1760 0.0000
# 4 0.0000 0.0000 0.0000 15.7050 0.0000 10.7925
# 5 -3.4180 17.9853 40.1760 0.0000 44.6764 0.0000
# 6 0.0000 0.0000 0.0000 10.7925 0.0000 33.6313
#
#
#
# Elastic Compliance Matrix: (Units=1/GPa)
#
#
# Indices 1 2 3 4 5 6 
#
# 1 0.014949 -0.004639 -0.003010 0.000000 0.005718 0.000000
# 2 -0.004639 0.012196 -0.000975 0.000000 -0.004388 0.000000
# 3 -0.003010 -0.000975 0.007657 0.000000 -0.006724 0.000000
# 4 0.000000 0.000000 0.000000 0.081688 0.000000 -0.026214
# 5 0.005718 -0.004388 -0.006724 0.000000 0.030634 0.000000
# 6 0.000000 0.000000 0.000000 -0.026214 0.000000 0.038146
#
#
# Mechanical properties :
#
#
# Convention : Reuss Voigt Hill
#
# Bulk Modulus (GPa) = 56.96236 66.65193 61.80714
# Shear Modulus (GPa) = 23.99580 36.39711 30.19645
#
# Velocity S-wave (km/s) = 3.01092 3.70821 3.37761
# Velocity P-wave (km/s) = 5.79723 6.59663 6.20981
#
# Compressibility (1/GPa) = 0.01755545
#
# Stress axis : x y z
#
# Youngs Moduli (GPa) = 66.89539 81.99104 130.59449
#
# Poissons Ratio (x) = 0.38036 0.39306
# Poissons Ratio (y) = 0.31033 0.12728
# Poissons Ratio (z) = 0.20134 0.07991
#
# Static dielectric constant tensor:
#      x y z
#    x 2.131480 0.000000 0.015340 
#    y 0.000000 2.072010 0.000000 
#    z 0.015340 0.000000 2.298950 
# 
# From -- ./inp_files/1624.got.cif
#   From: 2010.05.17/outbox.cif.g08.bks.cpg/sg9_1_cif.got.tgz:1624.got - 2010.06.03 20:04:27.
