data_PCOD9137760
_publ_section_title
;
Structure prediction by ZEFSAII (Michael W. Deem and Ramdas Pophale) SiO2 
 PCOD9137760
Probable space group: C C
;
_chemical_formula_sum "Si O2"
_cell_formula_units_Z 32
_cell_length_a 9.941291
_cell_length_b 30.673791
_cell_length_c 5.274386
_cell_angle_alpha 90.000000
_cell_angle_beta 63.892315
_cell_angle_gamma 90.000000
_cell_volume 1444.253011
_symmetry_space_group_name_H-M "C C"
_symmetry_group_IT_number 9
_symmetry_cell_setting 'monoclinic'
loop_
_space_group_symop_operation_xyz
x,y,z
x,-y,1/2+z
1/2+x,1/2+y,z
1/2+x,1/2-y,1/2+z
loop_
_atom_site_type_symbol
_atom_site_label
_atom_site_fract_x
_atom_site_fract_y
_atom_site_fract_z
Si Si1 0.024880 0.025536 0.466770
Si Si2 0.600660 0.814516 0.026878
Si Si3 0.581060 0.735745 0.360831
Si Si4 0.883184 0.118221 0.705982
Si Si5 0.885916 0.473436 0.664823
Si Si6 0.373876 0.795831 0.831260
Si Si7 0.538233 0.119330 0.959934
Si Si8 0.916882 0.827985 0.652582
O O1 0.205240 0.030283 0.317635
O O2 0.951488 0.070989 0.602369
O O3 0.982876 0.991043 0.721515
O O4 0.646172 0.781993 0.213760
O O5 0.566436 0.863109 0.150688
O O6 0.443114 0.797162 0.052472
O O7 0.747595 0.811310 0.731770
O O8 0.445285 0.752864 0.643437
O O9 0.700071 0.708376 0.421122
O O10 0.529340 0.708948 0.156968
O O11 0.898728 0.143908 0.427158
O O12 0.707233 0.114673 0.921063
O O13 0.961615 0.143293 0.874480
O O14 0.929964 0.505231 0.396449
O O15 0.954632 0.425978 0.560356
O O16 0.443144 0.840783 0.659823
#
# Coordination Sequence:
#
# PCOD9137760 Si02
#       8
#     4   4   4   4   4   4   4   4
#     4  10  22  44  67  98 133 174 220 277 342 412
#     4  10  23  42  65  92 141 175 229 287 333 399
#     4  11  25  40  63  97 130 185 230 278 341 399
#     4  11  24  43  69  97 135 174 224 284 335 408
#     4  10  24  43  68  97 139 176 221 278 340 414
#     4  11  24  42  65  95 137 179 233 284 335 408
#     4  10  24  42  65 101 133 178 229 282 341 402
#     4  11  24  44  64  99 134 177 224 282 337 396
#
# _framework density 22.156783000000001
#
# number of rings (size 3 to 8) (size 9 to 14) (size 15 to 20)
#    0.000    1.500    2.500    0.750    7.000    1.000 
#    0.000    0.000    0.000    0.000    0.000    0.000 
#    0.000    0.000    0.000    0.000    0.000    0.000 
#
# Total GULP energy -89357.888671 kJ/mol
# GULP energy per Si atom -5584.868042 kJ/mol
# Density = 2.210635 g / cm^3
# Si number density = 22.156783 Si / 1000 Ang^3
#
#
#
# Elastic Constant Matrix: (Units=GPa)
#
#
# Indices 1 2 3 4 5 6 
#
# 1 83.1672 54.3027 35.8453 0.0000 7.6909 0.0000
# 2 54.3027 135.7690 47.6847 0.0000 -8.0644 0.0000
# 3 35.8453 47.6847 86.6940 0.0000 10.0746 0.0000
# 4 0.0000 0.0000 0.0000 38.4409 0.0000 -6.3336
# 5 7.6909 -8.0644 10.0746 0.0000 25.1834 0.0000
# 6 0.0000 0.0000 0.0000 -6.3336 0.0000 31.5847
#
#
#
# Elastic Compliance Matrix: (Units=1/GPa)
#
#
# Indices 1 2 3 4 5 6 
#
# 1 0.018286 -0.006570 -0.003203 0.000000 -0.006407 0.000000
# 2 -0.006570 0.012180 -0.004897 0.000000 0.007866 0.000000
# 3 -0.003203 -0.004897 0.016383 0.000000 -0.007144 0.000000
# 4 0.000000 0.000000 0.000000 0.026903 0.000000 0.005395
# 5 -0.006407 0.007866 -0.007144 0.000000 0.047042 0.000000
# 6 0.000000 0.000000 0.000000 0.005395 0.000000 0.032743
#
#
# Mechanical properties :
#
#
# Convention : Reuss Voigt Hill
#
# Bulk Modulus (GPa) = 57.10955 64.58839 60.84897
# Shear Modulus (GPa) = 26.49519 30.22831 28.36175
#
# Velocity S-wave (km/s) = 3.46179 3.69764 3.58166
# Velocity P-wave (km/s) = 6.46605 6.88796 6.68034
#
# Compressibility (1/GPa) = 0.01751021
#
# Stress axis : x y z
#
# Youngs Moduli (GPa) = 54.68558 82.09981 61.03886
#
# Poissons Ratio (x) = 0.53936 0.19550
# Poissons Ratio (y) = 0.35926 0.29893
# Poissons Ratio (z) = 0.17515 0.40207
#
# Static dielectric constant tensor:
#      x y z
#    x 1.853240 0.000000 0.020910 
#    y 0.000000 1.780930 0.000000 
#    z 0.020910 0.000000 1.895070 
# 
# From -- ./inp_files/1391.got.cif
#   From: 2010.05.17/outbox.cif.g08.bks.cpg/sg9_1_cif.got.tgz:1391.got - 2010.06.03 20:04:27.
