data_PCOD9137309
_publ_section_title
;
Structure prediction by ZEFSAII (Michael W. Deem and Ramdas Pophale) SiO2 
 PCOD9137309
Probable space group: C C
;
_chemical_formula_sum "Si O2"
_cell_formula_units_Z 32
_cell_length_a 6.758232
_cell_length_b 15.975523
_cell_length_c 13.228725
_cell_angle_alpha 90.000000
_cell_angle_beta 102.951559
_cell_angle_gamma 90.000000
_cell_volume 1391.921388
_symmetry_space_group_name_H-M "C C"
_symmetry_group_IT_number 9
_symmetry_cell_setting 'monoclinic'
loop_
_space_group_symop_operation_xyz
x,y,z
x,-y,1/2+z
1/2+x,1/2+y,z
1/2+x,1/2-y,1/2+z
loop_
_atom_site_type_symbol
_atom_site_label
_atom_site_fract_x
_atom_site_fract_y
_atom_site_fract_z
Si Si1 0.492260 0.481548 0.147680
Si Si2 0.414959 0.675868 0.113117
Si Si3 0.046190 0.169924 0.913088
Si Si4 0.784723 0.983702 0.316579
Si Si5 0.820819 0.280815 0.725052
Si Si6 0.061835 0.108600 0.442997
Si Si7 0.853879 0.462181 0.816126
Si Si8 0.968463 0.281135 0.524655
O O1 0.475592 0.578959 0.119293
O O2 0.301486 0.462119 0.199440
O O3 0.687254 0.478343 0.244003
O O4 0.525832 0.430598 0.049888
O O5 0.573717 0.720530 0.207603
O O6 0.174232 0.678696 0.091083
O O7 0.469037 0.709888 0.008520
O O8 0.930657 0.082291 0.888047
O O9 0.958140 0.226887 0.814523
O O10 0.290385 0.165292 0.950577
O O11 0.564572 0.989017 0.339813
O O12 0.886879 0.073938 0.348493
O O13 0.877587 0.378358 0.750120
O O14 0.867346 0.250589 0.617447
O O15 0.265031 0.074181 0.411486
O O16 0.035945 0.206649 0.458430
#
# Coordination Sequence:
#
# PCOD9137309 Si02
#       8
#     4   4   4   4   4   4   4   4
#     4  10  22  42  63  96 138 170 239 283 358 427
#     4  10  22  41  63  95 133 180 223 290 354 423
#     4  11  23  41  64  98 134 181 235 284 353 432
#     4  11  23  41  65  96 136 183 226 294 358 423
#     4  10  22  42  65  97 138 178 236 294 356 437
#     4  11  23  42  64 101 136 178 237 292 353 430
#     4  10  23  41  66  96 139 185 228 299 365 423
#     4  11  24  40  70  97 136 185 234 296 359 427
#
# _framework density 22.989806000000002
#
# number of rings (size 3 to 8) (size 9 to 14) (size 15 to 20)
#    0.000    1.500    1.250    3.000    0.000    8.000 
#    0.000    0.000    0.000    0.000    0.000    0.000 
#    0.000    0.000    0.000    0.000    0.000    0.000 
#
# Total GULP energy -89296.387043 kJ/mol
# GULP energy per Si atom -5581.024190 kJ/mol
# Density = 2.293748 g / cm^3
# Si number density = 22.989806 Si / 1000 Ang^3
#
#
#
# Elastic Constant Matrix: (Units=GPa)
#
#
# Indices 1 2 3 4 5 6 
#
# 1 175.1188 34.3720 52.4123 0.0000 17.1056 0.0000
# 2 34.3720 33.1844 6.5386 0.0000 13.2333 0.0000
# 3 52.4123 6.5386 101.1827 0.0000 -6.4537 0.0000
# 4 0.0000 0.0000 0.0000 27.8181 0.0000 -6.0002
# 5 17.1056 13.2333 -6.4537 0.0000 53.2474 0.0000
# 6 0.0000 0.0000 0.0000 -6.0002 0.0000 22.9578
#
#
#
# Elastic Compliance Matrix: (Units=1/GPa)
#
#
# Indices 1 2 3 4 5 6 
#
# 1 0.008514 -0.007485 -0.004013 0.000000 -0.001361 0.000000
# 2 -0.007485 0.040785 0.000754 0.000000 -0.007640 0.000000
# 3 -0.004013 0.000754 0.012077 0.000000 0.002566 0.000000
# 4 0.000000 0.000000 0.000000 0.038095 0.000000 0.009957
# 5 -0.001361 -0.007640 0.002566 0.000000 0.021427 0.000000
# 6 0.000000 0.000000 0.000000 0.009957 0.000000 0.046160
#
#
# Mechanical properties :
#
#
# Convention : Reuss Voigt Hill
#
# Bulk Modulus (GPa) = 25.07003 55.12578 40.09790
# Shear Modulus (GPa) = 24.77179 35.21552 29.99366
#
# Velocity S-wave (km/s) = 3.28611 3.91805 3.61591
# Velocity P-wave (km/s) = 5.03255 6.67073 5.90869
#
# Compressibility (1/GPa) = 0.03988827
#
# Stress axis : x y z
#
# Youngs Moduli (GPa) = 117.45952 24.51860 82.80328
#
# Poissons Ratio (x) = 0.18351 0.33230
# Poissons Ratio (y) = 0.87915 -0.06244
# Poissons Ratio (z) = 0.47138 -0.01849
#
# Static dielectric constant tensor:
#      x y z
#    x 1.935210 0.000000 -0.008450 
#    y 0.000000 1.910560 0.000000 
#    z -0.008450 0.000000 1.896260 
# 
# From -- ./inp_files/21997.got.cif
#   From: 2010.05.17/outbox.cif.g08.bks.cpg/sg9_11_cif.got.tgz:21997.got - 2010.06.03 20:04:27.
