data_PCOD9137031
_publ_section_title
;
Structure prediction by ZEFSAII (Michael W. Deem and Ramdas Pophale) SiO2 
 PCOD9137031
Probable space group: C C
;
_chemical_formula_sum "Si O2"
_cell_formula_units_Z 32
_cell_length_a 18.912250
_cell_length_b 5.307911
_cell_length_c 18.229382
_cell_angle_alpha 90.000000
_cell_angle_beta 126.136878
_cell_angle_gamma 90.000000
_cell_volume 1477.885291
_symmetry_space_group_name_H-M "C C"
_symmetry_group_IT_number 9
_symmetry_cell_setting 'monoclinic'
loop_
_space_group_symop_operation_xyz
x,y,z
x,-y,1/2+z
1/2+x,1/2+y,z
1/2+x,1/2-y,1/2+z
loop_
_atom_site_type_symbol
_atom_site_label
_atom_site_fract_x
_atom_site_fract_y
_atom_site_fract_z
Si Si1 0.879720 0.003607 0.252470
Si Si2 0.604079 0.321622 0.137915
Si Si3 0.704027 0.830347 0.216768
Si Si4 0.092399 0.473992 0.767834
Si Si5 0.638685 0.061893 0.464040
Si Si6 0.545684 0.441736 0.955862
Si Si7 0.341997 0.304286 0.085674
Si Si8 0.404990 0.798245 0.130144
O O1 0.863302 0.234613 0.185347
O O2 0.801310 0.904153 0.254318
O O3 0.891752 0.794378 0.195717
O O4 0.961338 0.066408 0.352743
O O5 0.673858 0.549757 0.178267
O O6 0.577900 0.267618 0.205870
O O7 0.646258 0.050591 0.142886
O O8 0.532026 0.384825 0.033419
O O9 0.676009 0.882355 0.283690
O O10 0.111682 0.409167 0.862434
O O11 0.006711 0.644408 0.703703
O O12 0.612273 0.777343 0.469536
O O13 0.585668 0.280388 0.472849
O O14 0.740971 0.127143 0.535597
O O15 0.386333 0.542683 0.074745
O O16 0.358014 0.032134 0.063432
#
# Coordination Sequence:
#
# PCOD9137031 Si02
#       8
#     4   4   4   4   4   4   4   4
#     4  10  23  39  67  97 130 167 225 279 333 395
#     4  10  24  42  66  93 135 178 219 269 351 406
#     4  10  24  41  67  87 138 178 214 273 349 408
#     4  10  25  44  67  96 135 181 219 280 354 404
#     4  12  24  41  70  98 133 171 235 274 340 408
#     4  12  24  40  70 101 128 175 231 282 329 415
#     4  10  22  37  64  94 130 163 219 272 330 391
#     4  10  22  40  65  94 131 169 218 277 334 393
#
# _framework density 21.652560000000001
#
# number of rings (size 3 to 8) (size 9 to 14) (size 15 to 20)
#    1.500    0.000    1.250    3.750    7.000    0.000 
#    2.250    0.000    0.000    0.000    0.000    0.000 
#    0.000    0.000    0.000    0.000    0.000    0.000 
#
# Total GULP energy -89152.140449 kJ/mol
# GULP energy per Si atom -5572.008778 kJ/mol
# Density = 2.160328 g / cm^3
# Si number density = 21.652560 Si / 1000 Ang^3
#
#
#
# Elastic Constant Matrix: (Units=GPa)
#
#
# Indices 1 2 3 4 5 6 
#
# 1 65.3231 23.2429 -0.4421 -0.0004 2.3790 -0.0006
# 2 23.2429 145.8695 7.0410 -0.0021 7.3589 -0.0031
# 3 -0.4421 7.0410 59.3482 -0.0007 -1.0874 -0.0016
# 4 -0.0004 -0.0021 -0.0007 17.4648 0.0001 4.0637
# 5 2.3790 7.3589 -1.0874 0.0001 25.0269 0.0002
# 6 -0.0006 -0.0031 -0.0016 4.0637 0.0002 28.1772
#
#
#
# Elastic Compliance Matrix: (Units=1/GPa)
#
#
# Indices 1 2 3 4 5 6 
#
# 1 0.016254 -0.002571 0.000412 0.000000 -0.000771 0.000000
# 2 -0.002571 0.007410 -0.000934 0.000001 -0.001975 0.000001
# 3 0.000412 -0.000934 0.016981 0.000000 0.000973 0.000001
# 4 0.000000 0.000001 0.000000 0.059246 0.000000 -0.008544
# 5 -0.000771 -0.001975 0.000973 0.000000 0.040653 0.000000
# 6 0.000000 0.000001 0.000001 -0.008544 0.000000 0.036722
#
#
# Mechanical properties :
#
#
# Convention : Reuss Voigt Hill
#
# Bulk Modulus (GPa) = 29.02027 36.69162 32.85595
# Shear Modulus (GPa) = 25.64893 30.18039 27.91466
#
# Velocity S-wave (km/s) = 3.44549 3.73748 3.59445
# Velocity P-wave (km/s) = 5.40928 5.96719 5.69507
#
# Compressibility (1/GPa) = 0.03445867
#
# Stress axis : x y z
#
# Youngs Moduli (GPa) = 61.52269 134.95584 58.88774
#
# Poissons Ratio (x) = 0.34696 -0.02426
# Poissons Ratio (y) = 0.15817 0.05503
# Poissons Ratio (z) = -0.02534 0.12611
#
# Static dielectric constant tensor:
#      x y z
#    x 1.817080 0.000000 -0.019650 
#    y 0.000000 1.848210 0.000000 
#    z -0.019650 0.000000 1.776690 
# 
# From -- ./inp_files/34234.got.cif
#   From: 2010.05.17/outbox.cif.g08.bks.cpg/sg9_18_cif.got.tgz:34234.got - 2010.06.03 20:04:27.
