data_PCOD9137078
_publ_section_title
;
Structure prediction by ZEFSAII (Michael W. Deem and Ramdas Pophale) SiO2 
 PCOD9137078
Probable space group: C C
;
_chemical_formula_sum "Si O2"
_cell_formula_units_Z 28
_cell_length_a 8.309129
_cell_length_b 17.873325
_cell_length_c 10.197002
_cell_angle_alpha 90.000000
_cell_angle_beta 133.396959
_cell_angle_gamma 90.000000
_cell_volume 1100.361556
_symmetry_space_group_name_H-M "C C"
_symmetry_group_IT_number 9
_symmetry_cell_setting 'monoclinic'
loop_
_space_group_symop_operation_xyz
x,y,z
x,-y,1/2+z
1/2+x,1/2+y,z
1/2+x,1/2-y,1/2+z
loop_
_atom_site_type_symbol
_atom_site_label
_atom_site_fract_x
_atom_site_fract_y
_atom_site_fract_z
Si Si1 0.291020 0.129435 0.814090
Si Si2 0.638588 0.868056 0.144302
Si Si3 0.954366 0.483767 0.221660
Si Si4 0.986383 0.132599 0.194935
Si Si5 0.846192 0.035690 0.552531
Si Si6 0.786218 0.723351 0.555102
Si Si7 0.653059 0.378579 0.516197
O O1 0.443980 0.058931 0.856065
O O2 0.303662 0.194777 0.714464
O O3 0.284056 0.154265 0.963005
O O4 0.055527 0.088325 0.658099
O O5 0.462729 0.917812 0.124143
O O6 0.513431 0.790636 0.097484
O O7 0.890789 0.869748 0.339213
O O8 0.669091 0.911292 0.027006
O O9 0.200621 0.517600 0.343853
O O10 0.752891 0.537612 0.077700
O O11 0.095645 0.174714 0.379144
O O12 0.162924 0.141869 0.174356
O O13 0.924384 0.044264 0.158295
O O14 0.772720 0.186141 0.047659
#
# Coordination Sequence:
#
# PCOD9137078 Si02
#       7
#     4   4   4   4   4   4   4
#     4  10  24  42  68 105 144 176 233 298 343 422
#     4  10  22  38  67  97 139 176 227 282 345 416
#     4  11  19  36  66 106 135 174 220 293 337 405
#     4  12  25  45  72  97 138 192 231 291 349 429
#     4  11  23  39  70 102 134 177 239 283 346 409
#     4  11  27  48  69  99 146 186 236 286 367 411
#     4  11  22  42  70 104 142 181 234 287 355 414
#
# _framework density 25.446185
#
# number of rings (size 3 to 8) (size 9 to 14) (size 15 to 20)
#    0.000    1.143    2.857    2.571   12.000    0.000 
#    0.000    4.286    0.000    0.000    0.000    0.000 
#    0.000    0.000    0.000    0.000    0.000    0.000 
#
# Total GULP energy -78016.286327 kJ/mol
# GULP energy per Si atom -5572.591881 kJ/mol
# Density = 2.538827 g / cm^3
# Si number density = 25.446185 Si / 1000 Ang^3
#
#
#
# Elastic Constant Matrix: (Units=GPa)
#
#
# Indices 1 2 3 4 5 6 
#
# 1 89.0315 28.8789 7.9245 0.0000 -15.6744 0.0000
# 2 28.8789 102.2733 7.7789 0.0000 10.6342 0.0000
# 3 7.9245 7.7789 71.3528 0.0000 10.4220 0.0000
# 4 0.0000 0.0000 0.0000 28.1309 0.0000 13.6992
# 5 -15.6744 10.6342 10.4220 0.0000 55.4326 0.0000
# 6 0.0000 0.0000 0.0000 13.6992 0.0000 20.2245
#
#
#
# Elastic Compliance Matrix: (Units=1/GPa)
#
#
# Indices 1 2 3 4 5 6 
#
# 1 0.013647 -0.004239 -0.001785 0.000000 0.005008 0.000000
# 2 -0.004239 0.011341 -0.000281 0.000000 -0.003321 0.000000
# 3 -0.001785 -0.000281 0.014714 0.000000 -0.003217 0.000000
# 4 0.000000 0.000000 0.000000 0.053046 0.000000 -0.035931
# 5 0.005008 -0.003321 -0.003217 0.000000 0.020698 0.000000
# 6 0.000000 0.000000 0.000000 -0.035931 0.000000 0.073783
#
#
# Mechanical properties :
#
#
# Convention : Reuss Voigt Hill
#
# Bulk Modulus (GPa) = 36.90857 39.09137 37.99997
# Shear Modulus (GPa) = 23.93854 35.29595 29.61724
#
# Velocity S-wave (km/s) = 3.07050 3.72840 3.41532
# Velocity P-wave (km/s) = 5.20640 5.82497 5.52435
#
# Compressibility (1/GPa) = 0.02709398
#
# Stress axis : x y z
#
# Youngs Moduli (GPa) = 73.27438 88.17365 67.96425
#
# Poissons Ratio (x) = 0.37373 0.12132
# Poissons Ratio (y) = 0.31058 0.01907
# Poissons Ratio (z) = 0.13080 0.02474
#
# Static dielectric constant tensor:
#      x y z
#    x 2.081250 0.000000 -0.041570 
#    y 0.000000 2.292060 0.000000 
#    z -0.041570 0.000000 2.079650 
# 
# From -- ./inp_files/15139.got.cif
#   From: 2010.05.17/outbox.cif.g08.bks.cpg/sg9_8_cif.got.tgz:15139.got - 2010.06.03 20:04:27.
