data_PCOD9137011
_publ_section_title
;
Structure prediction by ZEFSAII (Michael W. Deem and Ramdas Pophale) SiO2 
 PCOD9137011
Probable space group: C C
;
_chemical_formula_sum "Si O2"
_cell_formula_units_Z 20
_cell_length_a 9.612129
_cell_length_b 19.068894
_cell_length_c 9.912153
_cell_angle_alpha 90.000000
_cell_angle_beta 29.523480
_cell_angle_gamma 90.000000
_cell_volume 895.295365
_symmetry_space_group_name_H-M "C C"
_symmetry_group_IT_number 9
_symmetry_cell_setting 'monoclinic'
loop_
_space_group_symop_operation_xyz
x,y,z
x,-y,1/2+z
1/2+x,1/2+y,z
1/2+x,1/2-y,1/2+z
loop_
_atom_site_type_symbol
_atom_site_label
_atom_site_fract_x
_atom_site_fract_y
_atom_site_fract_z
Si Si1 0.323850 0.792404 0.515900
Si Si2 0.380977 0.506568 0.138245
Si Si3 0.106882 0.849392 0.428681
Si Si4 0.411391 0.912998 0.636533
Si Si5 0.528003 0.874324 0.826918
O O1 0.547959 0.730158 0.329915
O O2 0.247954 0.803195 0.423380
O O3 0.440908 0.862212 0.484384
O O4 0.541614 0.575665 0.057318
O O5 0.185994 0.537196 0.902610
O O6 0.623494 0.457765 0.872429
O O7 0.157336 0.546546 0.230163
O O8 0.800164 0.826371 0.631894
O O9 0.302466 0.863684 0.135019
O O10 0.410634 0.868945 0.776106
#
# Coordination Sequence:
#
# PCOD9137011 Si02
#       5
#     4   4   4   4   4
#     4  12  28  48  66  96 137 194 230 264 327 401
#     4  10  22  36  67 104 130 165 212 281 360 378
#     4  10  22  42  67  92 136 165 233 271 327 408
#     4  12  24  40  69  96 143 168 220 283 334 406
#     4  10  22  40  63 104 126 164 219 273 350 391
#
# _framework density 22.338996999999999
#
# number of rings (size 3 to 8) (size 9 to 14) (size 15 to 20)
#    1.200    0.000    2.000    3.600    5.600    0.000 
#    0.000    6.000    0.000    0.000    0.000    0.000 
#    0.000    0.000    0.000    0.000    0.000    0.000 
#
# Total GULP energy -55800.767754 kJ/mol
# GULP energy per Si atom -5580.076775 kJ/mol
# Density = 2.228815 g / cm^3
# Si number density = 22.338997 Si / 1000 Ang^3
#
#
#
# Elastic Constant Matrix: (Units=GPa)
#
#
# Indices 1 2 3 4 5 6 
#
# 1 60.7280 -0.6014 21.5187 -0.0020 7.6558 0.0003
# 2 -0.6014 24.1519 7.8735 -0.0006 -5.7933 -0.0004
# 3 21.5187 7.8735 130.7839 -0.0030 -9.3512 0.0000
# 4 -0.0020 -0.0006 -0.0030 17.7978 0.0017 -4.7884
# 5 7.6558 -5.7933 -9.3512 0.0017 19.4425 0.0000
# 6 0.0003 -0.0004 0.0000 -4.7884 0.0000 13.9190
#
#
#
# Elastic Compliance Matrix: (Units=1/GPa)
#
#
# Indices 1 2 3 4 5 6 
#
# 1 0.018988 -0.000568 -0.003766 0.000003 -0.009458 0.000000
# 2 -0.000568 0.045020 -0.001700 0.000000 0.012821 0.000001
# 3 -0.003766 -0.001700 0.008739 0.000001 0.005179 0.000000
# 4 0.000003 0.000000 0.000001 0.061918 -0.000006 0.021301
# 5 -0.009458 0.012821 0.005179 -0.000006 0.061469 -0.000001
# 6 0.000000 0.000001 0.000000 0.021301 -0.000001 0.079172
#
#
# Mechanical properties :
#
#
# Convention : Reuss Voigt Hill
#
# Bulk Modulus (GPa) = 16.48046 30.36059 23.42052
# Shear Modulus (GPa) = 16.25484 22.69006 19.47245
#
# Velocity S-wave (km/s) = 2.70041 3.19049 2.95562
# Velocity P-wave (km/s) = 4.13720 5.21465 4.70686
#
# Compressibility (1/GPa) = 0.06067793
#
# Stress axis : x y z
#
# Youngs Moduli (GPa) = 52.66455 22.21233 114.43509
#
# Poissons Ratio (x) = 0.01262 0.43099
# Poissons Ratio (y) = 0.02991 0.19456
# Poissons Ratio (z) = 0.19835 0.03776
#
# Static dielectric constant tensor:
#      x y z
#    x 1.792510 0.000000 -0.022830 
#    y 0.000000 1.825180 0.000000 
#    z -0.022830 0.000000 1.790580 
# 
# From -- ./inp_files/6136.got.cif
#   From: 2010.05.17/outbox.cif.g08.bks.cpg/sg9_4_cif.got.tgz:6136.got - 2010.06.03 20:04:27.
