data_PCOD9137076
_publ_section_title
;
Structure prediction by ZEFSAII (Michael W. Deem and Ramdas Pophale) SiO2 
 PCOD9137076
Probable space group: C C
;
_chemical_formula_sum "Si O2"
_cell_formula_units_Z 32
_cell_length_a 12.254524
_cell_length_b 8.438397
_cell_length_c 13.961716
_cell_angle_alpha 90.000000
_cell_angle_beta 61.458857
_cell_angle_gamma 90.000000
_cell_volume 1268.306548
_symmetry_space_group_name_H-M "C C"
_symmetry_group_IT_number 9
_symmetry_cell_setting 'monoclinic'
loop_
_space_group_symop_operation_xyz
x,y,z
x,-y,1/2+z
1/2+x,1/2+y,z
1/2+x,1/2-y,1/2+z
loop_
_atom_site_type_symbol
_atom_site_label
_atom_site_fract_x
_atom_site_fract_y
_atom_site_fract_z
Si Si1 0.371090 0.542531 0.202230
Si Si2 0.899915 0.967077 0.908308
Si Si3 0.406474 0.831001 0.683435
Si Si4 0.993121 0.765125 0.483119
Si Si5 0.346106 0.957249 0.902773
Si Si6 0.259200 0.809203 0.572223
Si Si7 0.629318 0.048269 0.985903
Si Si8 0.112000 0.603676 0.781929
O O1 0.410465 0.584581 0.293728
O O2 0.412065 0.358986 0.174725
O O3 0.222653 0.529151 0.241847
O O4 0.433589 0.659207 0.101947
O O5 0.006802 0.080304 0.906728
O O6 0.770299 0.063319 0.957700
O O7 0.856082 0.821443 0.991778
O O8 0.328288 0.871481 0.810048
O O9 0.333679 0.901034 0.623477
O O10 0.543406 0.897572 0.609177
O O11 0.897613 0.658605 0.462492
O O12 0.097052 0.636211 0.472067
O O13 0.471695 0.053923 0.824043
O O14 0.240319 0.068950 0.992732
O O15 0.156041 0.720700 0.679027
O O16 0.608830 0.148514 0.897007
#
# Coordination Sequence:
#
# PCOD9137076 Si02
#       8
#     4   4   4   4   4   4   4   4
#     4  10  22  38  67  93 135 179 220 291 349 424
#     4  11  22  42  67  93 135 187 220 283 366 407
#     4  11  20  38  65  98 131 176 226 285 355 417
#     4  11  21  41  66  98 134 178 240 281 350 429
#     4  11  23  39  70  98 135 187 229 290 358 429
#     4  11  22  40  68  96 134 187 223 290 355 423
#     4  10  23  40  69  94 135 181 232 283 345 431
#     4   9  19  40  64  92 131 179 226 273 356 414
#
# _framework density 25.230492000000002
#
# number of rings (size 3 to 8) (size 9 to 14) (size 15 to 20)
#    0.000    1.500    6.250    0.750    1.750    0.000 
#    0.000    1.250   22.000    0.000    0.000    0.000 
#    0.000    0.000    0.000    0.000    0.000    0.000 
#
# Total GULP energy -89296.465155 kJ/mol
# GULP energy per Si atom -5581.029072 kJ/mol
# Density = 2.517307 g / cm^3
# Si number density = 25.230492 Si / 1000 Ang^3
#
#
#
# Elastic Constant Matrix: (Units=GPa)
#
#
# Indices 1 2 3 4 5 6 
#
# 1 43.1622 9.6673 15.7972 0.0000 -11.5253 0.0000
# 2 9.6673 80.9119 63.5890 0.0000 -8.8890 0.0000
# 3 15.7972 63.5890 198.4237 0.0000 22.8232 0.0000
# 4 0.0000 0.0000 0.0000 55.1954 0.0000 -6.3479
# 5 -11.5253 -8.8890 22.8232 0.0000 33.8756 0.0000
# 6 0.0000 0.0000 0.0000 -6.3479 0.0000 38.4960
#
#
#
# Elastic Compliance Matrix: (Units=1/GPa)
#
#
# Indices 1 2 3 4 5 6 
#
# 1 0.027697 0.001229 -0.004032 0.000000 0.012462 0.000000
# 2 0.001229 0.019237 -0.007470 0.000000 0.010499 0.000000
# 3 -0.004032 -0.007470 0.008822 0.000000 -0.009276 0.000000
# 4 0.000000 0.000000 0.000000 0.018468 0.000000 0.003045
# 5 0.012462 0.010499 -0.009276 0.000000 0.042764 0.000000
# 6 0.000000 0.000000 0.000000 0.003045 0.000000 0.026479
#
#
# Mechanical properties :
#
#
# Convention : Reuss Voigt Hill
#
# Bulk Modulus (GPa) = 28.40288 55.62276 42.01282
# Shear Modulus (GPa) = 28.44976 41.07633 34.76305
#
# Velocity S-wave (km/s) = 3.36161 4.03928 3.71593
# Velocity P-wave (km/s) = 5.13313 6.62179 5.92440
#
# Compressibility (1/GPa) = 0.03520770
#
# Stress axis : x y z
#
# Youngs Moduli (GPa) = 36.10541 51.98441 113.35787
#
# Poissons Ratio (x) = -0.06388 0.45709
# Poissons Ratio (y) = -0.04437 0.84680
# Poissons Ratio (z) = 0.14559 0.38833
#
# Static dielectric constant tensor:
#      x y z
#    x 2.041860 0.000000 0.050230 
#    y 0.000000 2.089160 0.000000 
#    z 0.050230 0.000000 2.003780 
# 
# From -- ./inp_files/25499.got.cif
#   From: 2010.05.17/outbox.cif.g08.bks.cpg/sg9_13_cif.got.tgz:25499.got - 2010.06.03 20:04:27.
