data_PCOD9137316
_publ_section_title
;
Structure prediction by ZEFSAII (Michael W. Deem and Ramdas Pophale) SiO2 
 PCOD9137316
Probable space group: C C
;
_chemical_formula_sum "Si O2"
_cell_formula_units_Z 24
_cell_length_a 5.527969
_cell_length_b 26.188518
_cell_length_c 8.590125
_cell_angle_alpha 90.000000
_cell_angle_beta 118.514045
_cell_angle_gamma 90.000000
_cell_volume 1092.739622
_symmetry_space_group_name_H-M "C C"
_symmetry_group_IT_number 9
_symmetry_cell_setting 'monoclinic'
loop_
_space_group_symop_operation_xyz
x,y,z
x,-y,1/2+z
1/2+x,1/2+y,z
1/2+x,1/2-y,1/2+z
loop_
_atom_site_type_symbol
_atom_site_label
_atom_site_fract_x
_atom_site_fract_y
_atom_site_fract_z
Si Si1 0.968800 0.675964 0.796980
Si Si2 0.951952 0.221476 0.784909
Si Si3 0.479769 0.179039 0.450682
Si Si4 0.963423 0.484687 0.633770
Si Si5 0.683655 0.928812 0.970959
Si Si6 0.746854 0.429741 0.291812
O O1 0.766177 0.705015 0.852948
O O2 0.961898 0.615758 0.830819
O O3 0.282976 0.695389 0.876612
O O4 0.850886 0.683448 0.584047
O O5 0.784686 0.200117 0.585961
O O6 0.889212 0.281203 0.792560
O O7 0.482838 0.119840 0.407655
O O8 0.187092 0.452218 0.799197
O O9 0.094240 0.524765 0.554611
O O10 0.765069 0.447686 0.475061
O O11 0.804972 0.520168 0.706993
O O12 0.961199 0.909584 0.136912
#
# Coordination Sequence:
#
# PCOD9137316 Si02
#       6
#     4   4   4   4   4   4
#     4  10  22  41  64  90 129 177 207 282 328 395
#     4  10  23  38  66  88 127 168 220 266 333 392
#     4  10  23  41  63  93 129 174 217 277 332 400
#     4  10  23  37  65  97 129 175 226 273 339 399
#     4  11  21  42  64  96 131 176 221 278 336 401
#     4  11  20  41  64  92 135 172 223 278 336 399
#
# _framework density 21.963146999999999
#
# number of rings (size 3 to 8) (size 9 to 14) (size 15 to 20)
#    1.000    0.667    3.333    1.000    2.333    1.333 
#    0.000    0.000    0.000    0.000    0.000    0.000 
#    0.000    0.000    0.000    0.000    0.000    0.000 
#
# Total GULP energy -66818.304810 kJ/mol
# GULP energy per Si atom -5568.192067 kJ/mol
# Density = 2.191316 g / cm^3
# Si number density = 21.963147 Si / 1000 Ang^3
#
#
#
# Elastic Constant Matrix: (Units=GPa)
#
#
# Indices 1 2 3 4 5 6 
#
# 1 83.0885 28.4533 12.2743 0.0000 -14.2903 0.0000
# 2 28.4533 123.1963 48.8852 0.0000 -14.4125 0.0000
# 3 12.2743 48.8852 80.3046 0.0000 -10.7942 0.0000
# 4 0.0000 0.0000 0.0000 31.3358 0.0000 -14.5709
# 5 -14.2903 -14.4125 -10.7942 0.0000 19.7294 0.0000
# 6 0.0000 0.0000 0.0000 -14.5709 0.0000 29.4213
#
#
#
# Elastic Compliance Matrix: (Units=1/GPa)
#
#
# Indices 1 2 3 4 5 6 
#
# 1 0.014330 -0.002475 0.000506 0.000000 0.008848 0.000000
# 2 -0.002475 0.011530 -0.006206 0.000000 0.003235 0.000000
# 3 0.000506 -0.006206 0.016830 0.000000 0.005041 0.000000
# 4 0.000000 0.000000 0.000000 0.041460 0.000000 0.020533
# 5 0.008848 0.003235 0.005041 0.000000 0.062216 0.000000
# 6 0.000000 0.000000 0.000000 0.020533 0.000000 0.044158
#
#
# Mechanical properties :
#
#
# Convention : Reuss Voigt Hill
#
# Bulk Modulus (GPa) = 37.96475 51.75721 44.86098
# Shear Modulus (GPa) = 23.18533 29.22907 26.20720
#
# Velocity S-wave (km/s) = 3.25260 3.65200 3.45807
# Velocity P-wave (km/s) = 5.60616 6.43424 6.03442
#
# Compressibility (1/GPa) = 0.02634023
#
# Stress axis : x y z
#
# Youngs Moduli (GPa) = 69.78355 86.73329 59.41595
#
# Poissons Ratio (x) = 0.21469 -0.03005
# Poissons Ratio (y) = 0.17273 0.36871
# Poissons Ratio (z) = -0.03530 0.53822
#
# Static dielectric constant tensor:
#      x y z
#    x 1.856980 0.000000 0.035260 
#    y 0.000000 1.802070 0.000000 
#    z 0.035260 0.000000 1.844350 
# 
# From -- ./inp_files/3898.got.cif
#   From: 2010.05.17/outbox.cif.g08.bks.cpg/sg9_2_cif.got.tgz:3898.got - 2010.06.03 20:04:27.
