data_PCOD9137138
_publ_section_title
;
Structure prediction by ZEFSAII (Michael W. Deem and Ramdas Pophale) SiO2 
 PCOD9137138
Probable space group: C C
;
_chemical_formula_sum "Si O2"
_cell_formula_units_Z 28
_cell_length_a 7.664226
_cell_length_b 17.781338
_cell_length_c 9.244900
_cell_angle_alpha 90.000000
_cell_angle_beta 105.020048
_cell_angle_gamma 90.000000
_cell_volume 1216.852643
_symmetry_space_group_name_H-M "C C"
_symmetry_group_IT_number 9
_symmetry_cell_setting 'monoclinic'
loop_
_space_group_symop_operation_xyz
x,y,z
x,-y,1/2+z
1/2+x,1/2+y,z
1/2+x,1/2-y,1/2+z
loop_
_atom_site_type_symbol
_atom_site_label
_atom_site_fract_x
_atom_site_fract_y
_atom_site_fract_z
Si Si1 0.674280 0.756371 0.309680
Si Si2 0.764707 0.303280 0.141016
Si Si3 0.179098 0.500378 0.952064
Si Si4 0.721946 0.611367 0.154979
Si Si5 0.423030 0.530853 0.251795
Si Si6 0.499320 0.641367 0.816213
Si Si7 0.432885 0.040445 0.642896
O O1 0.689830 0.736729 0.482231
O O2 0.464062 0.769612 0.221884
O O3 0.771373 0.690022 0.237741
O O4 0.801469 0.826313 0.301151
O O5 0.621332 0.305632 0.240670
O O6 0.793733 0.392163 0.116865
O O7 0.325127 0.458162 0.883447
O O8 0.054813 0.544475 0.812859
O O9 0.284244 0.549489 0.092881
O O10 0.050682 0.450065 0.023806
O O11 0.601853 0.575161 0.256732
O O12 0.855252 0.544674 0.132930
O O13 0.603648 0.630825 0.989405
O O14 0.470675 0.442808 0.249943
#
# Coordination Sequence:
#
# PCOD9137138 Si02
#       7
#     4   4   4   4   4   4   4
#     4  12  29  52  73 113 155 206 250 307 391 459
#     4  12  28  50  79 107 155 201 254 311 382 452
#     4  10  22  39  67 111 140 182 238 316 374 432
#     4  12  26  47  76 109 147 196 258 310 382 445
#     4  11  23  44  72 107 146 191 246 313 377 436
#     4  12  27  51  75 108 157 200 248 322 374 459
#     4  11  23  45  74 107 142 190 254 319 364 445
#
# _framework density 23.010179999999998
#
# number of rings (size 3 to 8) (size 9 to 14) (size 15 to 20)
#    0.000    0.571    4.286    3.429    6.000    0.000 
#    7.714    0.000    0.000    0.000    0.000    0.000 
#    0.000    0.000    0.000    0.000    0.000    0.000 
#
# Total GULP energy -78303.240719 kJ/mol
# GULP energy per Si atom -5593.088623 kJ/mol
# Density = 2.295781 g / cm^3
# Si number density = 23.010180 Si / 1000 Ang^3
#
#
#
# Elastic Constant Matrix: (Units=GPa)
#
#
# Indices 1 2 3 4 5 6 
#
# 1 94.8980 19.2258 51.1518 0.0000 -14.1718 0.0000
# 2 19.2258 77.1401 22.0381 0.0000 5.3582 0.0000
# 3 51.1518 22.0381 142.7396 0.0000 -7.0946 0.0000
# 4 0.0000 0.0000 0.0000 14.7642 0.0000 -1.8956
# 5 -14.1718 5.3582 -7.0946 0.0000 44.6184 0.0000
# 6 0.0000 0.0000 0.0000 -1.8956 0.0000 27.2601
#
#
#
# Elastic Compliance Matrix: (Units=1/GPa)
#
#
# Indices 1 2 3 4 5 6 
#
# 1 0.014048 -0.002513 -0.004445 0.000000 0.004057 0.000000
# 2 -0.002513 0.014187 -0.001425 0.000000 -0.002729 0.000000
# 3 -0.004445 -0.001425 0.008827 0.000000 0.000163 0.000000
# 4 0.000000 0.000000 0.000000 0.068342 0.000000 0.004752
# 5 0.004057 -0.002729 0.000163 0.000000 0.024055 0.000000
# 6 0.000000 0.000000 0.000000 0.004752 0.000000 0.037014
#
#
# Mechanical properties :
#
#
# Convention : Reuss Voigt Hill
#
# Bulk Modulus (GPa) = 49.27287 55.51214 52.39251
# Shear Modulus (GPa) = 26.31528 32.15267 29.23397
#
# Velocity S-wave (km/s) = 3.38544 3.74213 3.56825
# Velocity P-wave (km/s) = 6.06148 6.54590 6.30834
#
# Compressibility (1/GPa) = 0.02029514
#
# Stress axis : x y z
#
# Youngs Moduli (GPa) = 71.18208 70.48932 113.29268
#
# Poissons Ratio (x) = 0.17717 0.50355
# Poissons Ratio (y) = 0.17891 0.16147
# Poissons Ratio (z) = 0.31638 0.10047
#
# Static dielectric constant tensor:
#      x y z
#    x 1.889950 0.000000 0.016330 
#    y 0.000000 1.875620 0.000000 
#    z 0.016330 0.000000 1.843550 
# 
# From -- ./inp_files/5364.got.cif
#   From: 2010.05.17/outbox.cif.g08.bks.cpg/sg9_3_cif.got.tgz:5364.got - 2010.06.03 20:04:27.
