data_PCOD9137818
_publ_section_title
;
Structure prediction by ZEFSAII (Michael W. Deem and Ramdas Pophale) SiO2 
 PCOD9137818
Probable space group: C C
;
_chemical_formula_sum "Si O2"
_cell_formula_units_Z 32
_cell_length_a 11.277523
_cell_length_b 14.339351
_cell_length_c 13.734257
_cell_angle_alpha 90.000000
_cell_angle_beta 138.734971
_cell_angle_gamma 90.000000
_cell_volume 1464.844433
_symmetry_space_group_name_H-M "C C"
_symmetry_group_IT_number 9
_symmetry_cell_setting 'monoclinic'
loop_
_space_group_symop_operation_xyz
x,y,z
x,-y,1/2+z
1/2+x,1/2+y,z
1/2+x,1/2-y,1/2+z
loop_
_atom_site_type_symbol
_atom_site_label
_atom_site_fract_x
_atom_site_fract_y
_atom_site_fract_z
Si Si1 0.619310 0.823843 0.251060
Si Si2 0.656861 0.649920 0.900996
Si Si3 0.715600 0.269686 0.995665
Si Si4 0.504154 0.546018 0.331113
Si Si5 0.704849 0.036110 0.294322
Si Si6 0.251501 0.280508 0.133106
Si Si7 0.997128 0.361461 0.498557
Si Si8 0.664355 0.025483 0.498375
O O1 0.730904 0.803799 0.417088
O O2 0.644200 0.930518 0.235746
O O3 0.691882 0.762235 0.206645
O O4 0.412017 0.804017 0.145563
O O5 0.640998 0.539110 0.905547
O O6 0.458968 0.688865 0.757430
O O7 0.718062 0.697689 0.038470
O O8 0.796986 0.669415 0.901512
O O9 0.601709 0.355866 0.882441
O O10 0.610510 0.220168 0.018239
O O11 0.405248 0.544614 0.374879
O O12 0.343892 0.523225 0.155422
O O13 0.586452 0.105617 0.155671
O O14 0.686014 0.044706 0.397719
O O15 0.142550 0.372314 0.030919
O O16 0.011810 0.451565 0.436075
#
# Coordination Sequence:
#
# PCOD9137818 Si02
#       8
#     4   4   4   4   4   4   4   4
#     4  12  23  45  74 100 137 186 241 288 350 416
#     4  11  25  45  68 101 143 180 229 290 351 420
#     4  12  27  43  74 105 140 189 234 293 350 422
#     4  10  24  46  67 103 141 179 238 284 349 422
#     4  11  22  45  71 100 145 183 229 293 350 414
#     4  11  25  45  70 103 137 182 234 288 352 414
#     4  11  24  45  68 101 147 176 236 282 355 424
#     4  10  22  44  70  99 142 185 223 294 351 408
#
# _framework density 21.845323
#
# number of rings (size 3 to 8) (size 9 to 14) (size 15 to 20)
#    0.000    1.000    5.000    3.000    3.500    2.000 
#    2.250    0.000    0.000    0.000    0.000    0.000 
#    0.000    0.000    0.000    0.000    0.000    0.000 
#
# Total GULP energy -89500.864571 kJ/mol
# GULP energy per Si atom -5593.804036 kJ/mol
# Density = 2.179560 g / cm^3
# Si number density = 21.845323 Si / 1000 Ang^3
#
#
#
# Elastic Constant Matrix: (Units=GPa)
#
#
# Indices 1 2 3 4 5 6 
#
# 1 79.4700 3.2672 2.6076 0.0000 -4.5423 0.0000
# 2 3.2672 80.5400 13.3259 0.0000 -0.4651 0.0000
# 3 2.6076 13.3259 23.6348 0.0000 -16.0961 0.0000
# 4 0.0000 0.0000 0.0000 21.5030 0.0000 -1.4818
# 5 -4.5423 -0.4651 -16.0961 0.0000 46.6129 0.0000
# 6 0.0000 0.0000 0.0000 -1.4818 0.0000 32.3282
#
#
#
# Elastic Compliance Matrix: (Units=1/GPa)
#
#
# Indices 1 2 3 4 5 6 
#
# 1 0.012677 -0.000440 -0.000408 0.000000 0.001090 0.000000
# 2 -0.000440 0.014110 -0.010251 0.000000 -0.003442 0.000000
# 3 -0.000408 -0.010251 0.062810 0.000000 0.021547 0.000000
# 4 0.000000 0.000000 0.000000 0.046653 0.000000 0.002138
# 5 0.001090 -0.003442 0.021547 0.000000 0.028966 0.000000
# 6 0.000000 0.000000 0.000000 0.002138 0.000000 0.031031
#
#
# Mechanical properties :
#
#
# Convention : Reuss Voigt Hill
#
# Bulk Modulus (GPa) = 14.83726 24.67178 19.75452
# Shear Modulus (GPa) = 20.75451 31.05175 25.90313
#
# Velocity S-wave (km/s) = 3.08566 3.77429 3.44721
# Velocity P-wave (km/s) = 4.41608 5.50563 4.99068
#
# Compressibility (1/GPa) = 0.06739790
#
# Stress axis : x y z
#
# Youngs Moduli (GPa) = 78.88201 70.87007 15.92110
#
# Poissons Ratio (x) = 0.03122 0.00649
# Poissons Ratio (y) = 0.03475 0.16321
# Poissons Ratio (z) = 0.03218 0.72651
#
# Static dielectric constant tensor:
#      x y z
#    x 1.805960 0.000000 -0.001970 
#    y 0.000000 1.796340 0.000000 
#    z -0.001970 0.000000 1.815190 
# 
# From -- ./inp_files/24866.got.cif
#   From: 2010.05.17/outbox.cif.g08.bks.cpg/sg9_13_cif.got.tgz:24866.got - 2010.06.03 20:04:27.
