data_PCOD9137490
_publ_section_title
;
Structure prediction by ZEFSAII (Michael W. Deem and Ramdas Pophale) SiO2 
 PCOD9137490
Probable space group: C C
;
_chemical_formula_sum "Si O2"
_cell_formula_units_Z 28
_cell_length_a 12.148011
_cell_length_b 8.060182
_cell_length_c 20.242178
_cell_angle_alpha 90.000000
_cell_angle_beta 33.674534
_cell_angle_gamma 90.000000
_cell_volume 1098.977798
_symmetry_space_group_name_H-M "C C"
_symmetry_group_IT_number 9
_symmetry_cell_setting 'monoclinic'
loop_
_space_group_symop_operation_xyz
x,y,z
x,-y,1/2+z
1/2+x,1/2+y,z
1/2+x,1/2-y,1/2+z
loop_
_atom_site_type_symbol
_atom_site_label
_atom_site_fract_x
_atom_site_fract_y
_atom_site_fract_z
Si Si1 0.684190 0.580887 0.394480
Si Si2 0.052716 0.361080 0.546528
Si Si3 0.932613 0.156237 0.397232
Si Si4 0.741988 0.073918 0.720797
Si Si5 0.188153 0.036272 0.663484
Si Si6 0.084970 0.877572 0.576184
Si Si7 0.133753 0.591362 0.145772
O O1 0.672178 0.768314 0.429086
O O2 0.531158 0.569410 0.411234
O O3 0.638733 0.463920 0.479451
O O4 0.901697 0.545033 0.259375
O O5 0.901978 0.219549 0.649569
O O6 0.900597 0.493001 0.590935
O O7 0.193051 0.389625 0.539657
O O8 0.700331 0.203884 0.514809
O O9 0.038587 0.341052 0.344284
O O10 0.018989 0.057814 0.291064
O O11 0.720766 0.040161 0.653572
O O12 0.846221 0.911566 0.700418
O O13 0.172346 0.962348 0.597962
O O14 0.160262 0.232029 0.668779
#
# Coordination Sequence:
#
# PCOD9137490 Si02
#       7
#     4   4   4   4   4   4   4
#     4  11  20  41  70  91 129 182 219 262 339 401
#     4  10  22  43  65  90 132 180 210 270 339 390
#     4  11  22  42  71  99 134 187 218 273 342 397
#     4  10  22  42  67  94 135 169 220 277 329 394
#     4  11  22  43  67  98 135 171 224 277 333 397
#     4  11  22  44  70  99 136 178 223 279 336 398
#     4  12  22  43  64  99 131 169 224 278 330 393
#
# _framework density 25.47822
#
# number of rings (size 3 to 8) (size 9 to 14) (size 15 to 20)
#    0.000    1.143    8.571    0.000    0.000    0.000 
#   15.429    0.000    0.000    0.000    0.000    0.000 
#    0.000    0.000    0.000    0.000    0.000    0.000 
#
# Total GULP energy -78252.557223 kJ/mol
# GULP energy per Si atom -5589.468373 kJ/mol
# Density = 2.542023 g / cm^3
# Si number density = 25.478220 Si / 1000 Ang^3
#
#
#
# Elastic Constant Matrix: (Units=GPa)
#
#
# Indices 1 2 3 4 5 6 
#
# 1 200.8285 43.2145 13.0746 0.0000 10.8609 0.0000
# 2 43.2145 85.4400 3.3182 0.0000 0.4753 0.0000
# 3 13.0746 3.3182 48.2471 0.0000 9.6270 0.0000
# 4 0.0000 0.0000 0.0000 27.0083 0.0000 -3.4893
# 5 10.8609 0.4753 9.6270 0.0000 48.5208 0.0000
# 6 0.0000 0.0000 0.0000 -3.4893 0.0000 47.6420
#
#
#
# Elastic Compliance Matrix: (Units=1/GPa)
#
#
# Indices 1 2 3 4 5 6 
#
# 1 0.005722 -0.002844 -0.001150 0.000000 -0.001025 0.000000
# 2 -0.002844 0.013149 -0.000245 0.000000 0.000556 0.000000
# 3 -0.001150 -0.000245 0.021869 0.000000 -0.004079 0.000000
# 4 0.000000 0.000000 0.000000 0.037379 0.000000 0.002738
# 5 -0.001025 0.000556 -0.004079 0.000000 0.021643 0.000000
# 6 0.000000 0.000000 0.000000 0.002738 0.000000 0.021190
#
#
# Mechanical properties :
#
#
# Convention : Reuss Voigt Hill
#
# Bulk Modulus (GPa) = 30.99619 50.41446 40.70532
# Shear Modulus (GPa) = 35.66752 42.96144 39.31448
#
# Velocity S-wave (km/s) = 3.74561 4.11079 3.93244
# Velocity P-wave (km/s) = 5.55863 6.50859 6.05227
#
# Compressibility (1/GPa) = 0.03226203
#
# Stress axis : x y z
#
# Youngs Moduli (GPa) = 174.77770 76.05286 45.72644
#
# Poissons Ratio (x) = 0.21626 0.05261
# Poissons Ratio (y) = 0.49698 0.01119
# Poissons Ratio (z) = 0.20108 0.01861
#
# Static dielectric constant tensor:
#      x y z
#    x 1.978460 0.000000 -0.058020 
#    y 0.000000 2.066080 0.000000 
#    z -0.058020 0.000000 2.079090 
# 
# From -- ./inp_files/24048.got.cif
#   From: 2010.05.17/outbox.cif.g08.bks.cpg/sg9_13_cif.got.tgz:24048.got - 2010.06.03 20:04:27.
