data_PCOD9137012
_publ_section_title
;
Structure prediction by ZEFSAII (Michael W. Deem and Ramdas Pophale) SiO2 
 PCOD9137012
Probable space group: C C
;
_chemical_formula_sum "Si O2"
_cell_formula_units_Z 28
_cell_length_a 22.195526
_cell_length_b 5.032873
_cell_length_c 19.780893
_cell_angle_alpha 90.000000
_cell_angle_beta 153.803901
_cell_angle_gamma 90.000000
_cell_volume 975.446994
_symmetry_space_group_name_H-M "C C"
_symmetry_group_IT_number 9
_symmetry_cell_setting 'monoclinic'
loop_
_space_group_symop_operation_xyz
x,y,z
x,-y,1/2+z
1/2+x,1/2+y,z
1/2+x,1/2-y,1/2+z
loop_
_atom_site_type_symbol
_atom_site_label
_atom_site_fract_x
_atom_site_fract_y
_atom_site_fract_z
Si Si1 0.872370 0.802319 0.765820
Si Si2 0.008154 0.839967 0.662879
Si Si3 0.185559 0.804655 0.560362
Si Si4 0.819369 0.287289 0.355569
Si Si5 0.131719 0.289214 0.148570
Si Si6 0.790291 0.549602 0.966047
Si Si7 0.503423 0.013528 0.280522
O O1 0.747454 0.594778 0.629851
O O2 0.916092 0.764130 0.888516
O O3 0.972709 0.701428 0.808481
O O4 0.807928 0.090939 0.690242
O O5 0.027807 0.764119 0.604082
O O6 0.065511 0.636417 0.778771
O O7 0.849734 0.754458 0.517567
O O8 0.128062 0.060955 0.793518
O O9 0.089081 0.749026 0.528432
O O10 0.097016 0.735290 0.406737
O O11 0.751313 0.573144 0.278003
O O12 0.862826 0.283640 0.477845
O O13 0.700847 0.072082 0.228067
O O14 0.861948 0.631892 0.107881
#
# Coordination Sequence:
#
# PCOD9137012 Si02
#       7
#     4   4   4   4   4   4   4
#     4  10  22  41  64  93 129 169 215 266 321 379
#     4   9  20  39  64  98 126 172 211 266 320 380
#     4  10  22  41  64  93 129 169 215 266 321 379
#     4   9  19  39  64  90 125 164 212 264 313 374
#     4   9  19  39  64  90 125 164 212 264 313 374
#     4   9  20  39  64  98 126 172 211 266 320 380
#     4  10  22  36  68  92 136 168 214 264 322 394
#
# _framework density 28.704785000000001
#
# number of rings (size 3 to 8) (size 9 to 14) (size 15 to 20)
#    0.857    1.714    0.000    0.857    2.000    2.286 
#    0.000   11.429    3.143    0.000    0.000    0.000 
#    0.000    0.000    0.000    0.000    0.000    0.000 
#
# Total GULP energy -78339.968200 kJ/mol
# GULP energy per Si atom -5595.712014 kJ/mol
# Density = 2.863945 g / cm^3
# Si number density = 28.704785 Si / 1000 Ang^3
#
#
#
# Elastic Constant Matrix: (Units=GPa)
#
#
# Indices 1 2 3 4 5 6 
#
# 1 154.7246 24.4922 44.3241 0.0008 -17.6199 -0.0003
# 2 24.4922 86.3603 26.5370 0.0037 11.6569 0.0023
# 3 44.3241 26.5370 109.4157 0.0001 11.4610 0.0009
# 4 0.0008 0.0037 0.0001 27.6802 -0.0004 4.7984
# 5 -17.6199 11.6569 11.4610 -0.0004 50.3718 -0.0005
# 6 -0.0003 0.0023 0.0009 4.7984 -0.0005 51.2459
#
#
#
# Elastic Compliance Matrix: (Units=1/GPa)
#
#
# Indices 1 2 3 4 5 6 
#
# 1 0.008153 -0.001849 -0.003276 0.000000 0.004025 0.000000
# 2 -0.001849 0.013187 -0.002112 -0.000002 -0.003218 0.000000
# 3 -0.003276 -0.002112 0.011317 0.000000 -0.003232 0.000000
# 4 0.000000 -0.000002 0.000000 0.036723 0.000001 -0.003439
# 5 0.004025 -0.003218 -0.003232 0.000001 0.022740 0.000000
# 6 0.000000 0.000000 0.000000 -0.003439 0.000000 0.019836
#
#
# Mechanical properties :
#
#
# Convention : Reuss Voigt Hill
#
# Bulk Modulus (GPa) = 54.99583 60.13416 57.56500
# Shear Modulus (GPa) = 37.73843 42.86938 40.30391
#
# Velocity S-wave (km/s) = 3.62982 3.86872 3.75118
# Velocity P-wave (km/s) = 6.06368 6.39927 6.23373
#
# Compressibility (1/GPa) = 0.01818320
#
# Stress axis : x y z
#
# Youngs Moduli (GPa) = 122.66149 75.83147 88.36004
#
# Poissons Ratio (x) = 0.14020 0.28945
# Poissons Ratio (y) = 0.22677 0.18665
# Poissons Ratio (z) = 0.40181 0.16018
#
# Static dielectric constant tensor:
#      x y z
#    x 2.335920 0.000000 0.033430 
#    y 0.000000 2.242360 0.000000 
#    z 0.033430 0.000000 2.255990 
# 
# From -- ./inp_files/20509.got.cif
#   From: 2010.05.17/outbox.cif.g08.bks.cpg/sg9_11_cif.got.tgz:20509.got - 2010.06.03 20:04:27.
