data_PCOD9137786
_publ_section_title
;
Structure prediction by ZEFSAII (Michael W. Deem and Ramdas Pophale) SiO2 
 PCOD9137786
Probable space group: C C
;
_chemical_formula_sum "Si O2"
_cell_formula_units_Z 24
_cell_length_a 5.084607
_cell_length_b 17.169112
_cell_length_c 11.355021
_cell_angle_alpha 90.000000
_cell_angle_beta 66.244259
_cell_angle_gamma 90.000000
_cell_volume 907.283317
_symmetry_space_group_name_H-M "C C"
_symmetry_group_IT_number 9
_symmetry_cell_setting 'monoclinic'
loop_
_space_group_symop_operation_xyz
x,y,z
x,-y,1/2+z
1/2+x,1/2+y,z
1/2+x,1/2-y,1/2+z
loop_
_atom_site_type_symbol
_atom_site_label
_atom_site_fract_x
_atom_site_fract_y
_atom_site_fract_z
Si Si1 0.542720 0.518494 0.582280
Si Si2 0.007903 0.019578 0.844196
Si Si3 0.866867 0.271630 0.185505
Si Si4 0.208910 0.822545 0.976188
Si Si5 0.211133 0.322669 0.342976
Si Si6 0.214124 0.603654 0.264067
O O1 0.680194 0.519707 0.688745
O O2 0.668573 0.481807 0.439715
O O3 0.507993 0.609294 0.561069
O O4 0.270960 0.463114 0.657782
O O5 0.791156 0.092784 0.877248
O O6 0.820102 0.940866 0.862377
O O7 0.526116 0.287506 0.258902
O O8 0.904624 0.179212 0.198578
O O9 0.016449 0.318238 0.262989
O O10 0.927260 0.298960 0.042215
O O11 0.079941 0.740811 0.957475
O O12 0.396402 0.864973 0.841813
#
# Coordination Sequence:
#
# PCOD9137786 Si02
#       6
#     4   4   4   4   4   4
#     4  10  22  44  69 102 151 186 253 301 376 439
#     4  10  22  44  70 102 150 188 246 307 375 440
#     4  11  23  45  70 106 145 194 245 307 369 447
#     4  11  23  44  74 105 152 195 252 311 378 444
#     4  11  25  42  74 105 143 195 246 302 377 441
#     4   9  23  41  69 106 141 192 248 300 375 439
#
# _framework density 26.452598999999999
#
# number of rings (size 3 to 8) (size 9 to 14) (size 15 to 20)
#    1.000    0.667    1.667    2.000    2.333    4.000 
#    3.000    1.667    0.000    0.000    0.000    0.000 
#    0.000    0.000    0.000    0.000    0.000    0.000 
#
# Total GULP energy -66964.001586 kJ/mol
# GULP energy per Si atom -5580.333466 kJ/mol
# Density = 2.639239 g / cm^3
# Si number density = 26.452599 Si / 1000 Ang^3
#
#
#
# Elastic Constant Matrix: (Units=GPa)
#
#
# Indices 1 2 3 4 5 6 
#
# 1 69.8118 17.1435 38.4659 0.0000 15.3333 0.0000
# 2 17.1435 184.2361 59.4625 0.0000 2.2047 0.0000
# 3 38.4659 59.4625 147.0989 0.0000 43.1273 0.0000
# 4 0.0000 0.0000 0.0000 59.7805 0.0000 -3.3985
# 5 15.3333 2.2047 43.1273 0.0000 38.9784 0.0000
# 6 0.0000 0.0000 0.0000 -3.3985 0.0000 29.3254
#
#
#
# Elastic Compliance Matrix: (Units=1/GPa)
#
#
# Indices 1 2 3 4 5 6 
#
# 1 0.016942 -0.000441 -0.003412 0.000000 -0.002864 0.000000
# 2 -0.000441 0.006617 -0.003701 0.000000 0.003894 0.000000
# 3 -0.003412 -0.003701 0.012924 0.000000 -0.012748 0.000000
# 4 0.000000 0.000000 0.000000 0.016839 0.000000 0.001951
# 5 -0.002864 0.003894 -0.012748 0.000000 0.040667 0.000000
# 6 0.000000 0.000000 0.000000 0.001951 0.000000 0.034326
#
#
# Mechanical properties :
#
#
# Convention : Reuss Voigt Hill
#
# Bulk Modulus (GPa) = 46.78592 70.14341 58.46467
# Shear Modulus (GPa) = 33.21200 44.68852 38.95026
#
# Velocity S-wave (km/s) = 3.54719 4.11467 3.84142
# Velocity P-wave (km/s) = 5.87383 7.01058 6.46723
#
# Compressibility (1/GPa) = 0.02137395
#
# Stress axis : x y z
#
# Youngs Moduli (GPa) = 59.02597 151.13007 77.37418
#
# Poissons Ratio (x) = 0.06663 0.26402
# Poissons Ratio (y) = 0.02602 0.28638
# Poissons Ratio (z) = 0.20141 0.55937
#
# Static dielectric constant tensor:
#      x y z
#    x 2.033190 0.000000 -0.019820 
#    y 0.000000 2.079670 0.000000 
#    z -0.019820 0.000000 2.220410 
# 
# From -- ./inp_files/13058.got.cif
#   From: 2010.05.17/outbox.cif.g08.bks.cpg/sg9_7_cif.got.tgz:13058.got - 2010.06.03 20:04:27.
