data_PCOD9137550
_publ_section_title
;
Structure prediction by ZEFSAII (Michael W. Deem and Ramdas Pophale) SiO2 
 PCOD9137550
Probable space group: C C
;
_chemical_formula_sum "Si O2"
_cell_formula_units_Z 32
_cell_length_a 11.352438
_cell_length_b 9.847642
_cell_length_c 13.917857
_cell_angle_alpha 90.000000
_cell_angle_beta 66.244689
_cell_angle_gamma 90.000000
_cell_volume 1424.114650
_symmetry_space_group_name_H-M "C C"
_symmetry_group_IT_number 9
_symmetry_cell_setting 'monoclinic'
loop_
_space_group_symop_operation_xyz
x,y,z
x,-y,1/2+z
1/2+x,1/2+y,z
1/2+x,1/2-y,1/2+z
loop_
_atom_site_type_symbol
_atom_site_label
_atom_site_fract_x
_atom_site_fract_y
_atom_site_fract_z
Si Si1 0.367710 0.403131 0.125000
Si Si2 0.756217 0.588626 0.577345
Si Si3 0.290623 0.129255 0.782972
Si Si4 0.970144 0.444614 0.848273
Si Si5 0.578040 0.391817 0.512094
Si Si6 0.150879 0.601985 0.552096
Si Si7 0.261623 0.438190 0.820076
Si Si8 0.044492 0.684931 0.134850
O O1 0.445389 0.526435 0.049920
O O2 0.230374 0.378811 0.123065
O O3 0.348872 0.450697 0.241006
O O4 0.451255 0.267983 0.096137
O O5 0.786183 0.563677 0.679230
O O6 0.878290 0.594067 0.466682
O O7 0.663345 0.473467 0.562674
O O8 0.675270 0.728417 0.598386
O O9 0.301688 0.290806 0.767523
O O10 0.402897 0.069325 0.813745
O O11 0.158896 0.104975 0.886434
O O12 0.113753 0.468080 0.839176
O O13 0.984982 0.330996 0.760691
O O14 0.573002 0.235844 0.547774
O O15 0.257971 0.576947 0.434901
O O16 0.071693 0.464928 0.588218
#
# Coordination Sequence:
#
# PCOD9137550 Si02
#       8
#     4   4   4   4   4   4   4   4
#     4  11  25  45  67 103 138 175 229 281 343 410
#     4  10  22  44  69  99 140 180 227 286 342 403
#     4  10  22  42  70  98 135 183 226 279 341 404
#     4  11  24  41  68 102 134 178 231 277 340 411
#     4   9  24  44  68 100 135 178 230 277 343 406
#     4  11  25  45  68  99 139 177 228 283 333 406
#     4  11  25  43  66 105 135 181 233 276 347 405
#     4  11  25  44  68 102 136 180 230 281 347 407
#
# _framework density 22.470101
#
# number of rings (size 3 to 8) (size 9 to 14) (size 15 to 20)
#    0.000    1.500    2.500    0.000    7.000    7.000 
#    0.000    0.000    0.000    0.000    0.000    0.000 
#    0.000    0.000    0.000    0.000    0.000    0.000 
#
# Total GULP energy -89517.091764 kJ/mol
# GULP energy per Si atom -5594.818235 kJ/mol
# Density = 2.241896 g / cm^3
# Si number density = 22.470101 Si / 1000 Ang^3
#
#
#
# Elastic Constant Matrix: (Units=GPa)
#
#
# Indices 1 2 3 4 5 6 
#
# 1 63.2083 56.1660 12.4392 0.0000 -10.7743 0.0000
# 2 56.1660 116.6869 42.7310 0.0000 -5.8207 0.0000
# 3 12.4392 42.7310 107.9982 0.0000 6.6035 0.0000
# 4 0.0000 0.0000 0.0000 30.4707 0.0000 -7.2089
# 5 -10.7743 -5.8207 6.6035 0.0000 30.7702 0.0000
# 6 0.0000 0.0000 0.0000 -7.2089 0.0000 14.5878
#
#
#
# Elastic Compliance Matrix: (Units=1/GPa)
#
#
# Indices 1 2 3 4 5 6 
#
# 1 0.029667 -0.014627 0.001930 0.000000 0.007207 0.000000
# 2 -0.014627 0.017475 -0.005186 0.000000 -0.000703 0.000000
# 3 0.001930 -0.005186 0.011256 0.000000 -0.002721 0.000000
# 4 0.000000 0.000000 0.000000 0.037163 0.000000 0.018365
# 5 0.007207 -0.000703 -0.002721 0.000000 0.035473 0.000000
# 6 0.000000 0.000000 0.000000 0.018365 0.000000 0.077626
#
#
# Mechanical properties :
#
#
# Convention : Reuss Voigt Hill
#
# Bulk Modulus (GPa) = 44.18972 56.72954 50.45963
# Shear Modulus (GPa) = 19.84364 26.93622 23.38993
#
# Velocity S-wave (km/s) = 2.97495 3.46607 3.22985
# Velocity P-wave (km/s) = 5.61330 6.42803 6.03443
#
# Compressibility (1/GPa) = 0.02262970
#
# Stress axis : x y z
#
# Youngs Moduli (GPa) = 33.70792 57.22586 88.84477
#
# Poissons Ratio (x) = 0.83703 -0.17144
# Poissons Ratio (y) = 0.49304 0.46078
# Poissons Ratio (z) = -0.06505 0.29679
#
# Static dielectric constant tensor:
#      x y z
#    x 1.834810 0.000000 -0.005870 
#    y 0.000000 1.798380 0.000000 
#    z -0.005870 0.000000 1.848800 
# 
# From -- ./inp_files/24206.got.cif
#   From: 2010.05.17/outbox.cif.g08.bks.cpg/sg9_13_cif.got.tgz:24206.got - 2010.06.03 20:04:27.
