data_PCOD9137294
_publ_section_title
;
Structure prediction by ZEFSAII (Michael W. Deem and Ramdas Pophale) SiO2 
 PCOD9137294
Probable space group: C C
;
_chemical_formula_sum "Si O2"
_cell_formula_units_Z 32
_cell_length_a 10.231019
_cell_length_b 24.727518
_cell_length_c 8.801379
_cell_angle_alpha 90.000000
_cell_angle_beta 43.370632
_cell_angle_gamma 90.000000
_cell_volume 1529.067563
_symmetry_space_group_name_H-M "C C"
_symmetry_group_IT_number 9
_symmetry_cell_setting 'monoclinic'
loop_
_space_group_symop_operation_xyz
x,y,z
x,-y,1/2+z
1/2+x,1/2+y,z
1/2+x,1/2-y,1/2+z
loop_
_atom_site_type_symbol
_atom_site_label
_atom_site_fract_x
_atom_site_fract_y
_atom_site_fract_z
Si Si1 0.766750 0.443230 0.382080
Si Si2 0.541318 0.846881 0.130227
Si Si3 0.161925 0.744448 0.053143
Si Si4 0.091100 0.846881 0.904115
Si Si5 0.967685 0.862310 0.671186
Si Si6 0.865669 0.443230 0.652261
Si Si7 0.664732 0.137690 0.863156
Si Si8 0.470493 0.744448 0.981199
O O1 0.554034 0.419731 0.549499
O O2 0.816210 0.448564 0.517170
O O3 0.816210 0.500000 0.267170
O O4 0.893338 0.393628 0.213065
O O5 0.555511 0.843273 0.301380
O O6 0.747922 0.865464 0.899453
O O7 0.493510 0.790916 0.088910
O O8 0.423657 0.748063 0.833606
O O9 0.140595 0.683866 0.008342
O O10 0.138908 0.790916 0.945433
O O11 0.076906 0.843273 0.732963
O O12 0.239079 0.893628 0.821277
O O13 0.884495 0.865464 0.134889
O O14 0.991822 0.816134 0.526000
O O15 0.078384 0.419730 0.484843
O O16 0.708761 0.751937 0.700737
#
# Coordination Sequence:
#
# PCOD9137294 Si02
#       8
#     4   4   4   4   4   4   4   4
#     4  10  23  42  63  89 118 159 209 256 304 361
#     4  10  22  41  63  86 124 167 203 245 301 376
#     4  12  22  36  58  94 131 156 198 254 308 358
#     4  10  22  41  63  86 124 167 203 245 301 376
#     4  10  22  41  62  87 122 167 207 241 304 374
#     4  10  23  42  63  89 118 159 209 256 304 361
#     4  10  22  41  62  87 122 167 207 241 304 374
#     4  12  22  36  58  94 131 156 198 254 308 358
#
# _framework density 20.927786999999999
#
# number of rings (size 3 to 8) (size 9 to 14) (size 15 to 20)
#    0.000    1.500    2.500    2.250    0.000    4.000 
#    0.000    0.000    0.000    0.000    0.000    0.000 
#    0.000    0.000    0.000    0.000    0.000    0.000 
#
# Total GULP energy -89293.288166 kJ/mol
# GULP energy per Si atom -5580.830510 kJ/mol
# Density = 2.088015 g / cm^3
# Si number density = 20.927787 Si / 1000 Ang^3
#
#
#
# Elastic Constant Matrix: (Units=GPa)
#
#
# Indices 1 2 3 4 5 6 
#
# 1 62.5606 31.3302 29.1129 0.0000 -18.8925 0.0000
# 2 31.3302 106.3461 26.1635 0.0000 11.1796 0.0000
# 3 29.1129 26.1635 83.1820 0.0000 1.2874 0.0000
# 4 0.0000 0.0000 0.0000 50.3521 0.0000 3.0680
# 5 -18.8925 11.1796 1.2874 0.0000 34.0190 0.0000
# 6 0.0000 0.0000 0.0000 3.0680 0.0000 22.7946
#
#
#
# Elastic Compliance Matrix: (Units=1/GPa)
#
#
# Indices 1 2 3 4 5 6 
#
# 1 0.030388 -0.009082 -0.008091 0.000000 0.020167 0.000000
# 2 -0.009082 0.013274 -0.000851 0.000000 -0.009374 0.000000
# 3 -0.008091 -0.000851 0.015196 0.000000 -0.004789 0.000000
# 4 0.000000 0.000000 0.000000 0.020024 0.000000 -0.002695
# 5 0.020167 -0.009374 -0.004789 0.000000 0.043857 0.000000
# 6 0.000000 0.000000 0.000000 -0.002695 0.000000 0.044233
#
#
# Mechanical properties :
#
#
# Convention : Reuss Voigt Hill
#
# Bulk Modulus (GPa) = 43.84325 47.25576 45.54950
# Shear Modulus (GPa) = 23.73914 32.46529 28.10222
#
# Velocity S-wave (km/s) = 3.37164 3.94293 3.66842
# Velocity P-wave (km/s) = 6.01270 6.58470 6.30519
#
# Compressibility (1/GPa) = 0.02280853
#
# Stress axis : x y z
#
# Youngs Moduli (GPa) = 32.90769 75.33695 65.80891
#
# Poissons Ratio (x) = 0.68421 0.53246
# Poissons Ratio (y) = 0.29887 0.05603
# Poissons Ratio (z) = 0.26626 0.06414
#
# Static dielectric constant tensor:
#      x y z
#    x 1.888930 0.000000 -0.293470 
#    y 0.000000 1.648260 0.000000 
#    z -0.293470 0.000000 2.250550 
# 
# From -- ./inp_files/18534.got.cif
#   From: 2010.05.17/outbox.cif.g08.bks.cpg/sg9_10_cif.got.tgz:18534.got - 2010.06.03 20:04:27.
