data_PCOD9137451
_publ_section_title
;
Structure prediction by ZEFSAII (Michael W. Deem and Ramdas Pophale) SiO2 
 PCOD9137451
Probable space group: C C
;
_chemical_formula_sum "Si O2"
_cell_formula_units_Z 32
_cell_length_a 11.715213
_cell_length_b 8.807958
_cell_length_c 29.302248
_cell_angle_alpha 90.000000
_cell_angle_beta 148.464004
_cell_angle_gamma 90.000000
_cell_volume 1581.453382
_symmetry_space_group_name_H-M "C C"
_symmetry_group_IT_number 9
_symmetry_cell_setting 'monoclinic'
loop_
_space_group_symop_operation_xyz
x,y,z
x,-y,1/2+z
1/2+x,1/2+y,z
1/2+x,1/2-y,1/2+z
loop_
_atom_site_type_symbol
_atom_site_label
_atom_site_fract_x
_atom_site_fract_y
_atom_site_fract_z
Si Si1 0.260890 0.607788 0.752800
Si Si2 0.019565 0.067625 0.182474
Si Si3 0.525893 0.982538 0.020669
Si Si4 0.053895 0.127894 0.018872
Si Si5 0.172252 0.626790 0.824533
Si Si6 0.449321 0.894812 0.586481
Si Si7 0.658754 0.505239 0.326543
Si Si8 0.672868 0.579206 0.644303
O O1 0.144324 0.772789 0.717526
O O2 0.285244 0.576490 0.815293
O O3 0.479610 0.581241 0.797022
O O4 0.091770 0.499614 0.668674
O O5 0.124025 0.974629 0.260793
O O6 0.045752 0.990651 0.143088
O O7 0.760213 0.064858 0.102757
O O8 0.549359 0.801312 0.034280
O O9 0.389995 0.028648 0.018603
O O10 0.393700 0.021690 0.929674
O O11 0.231711 0.139319 0.039600
O O12 0.118039 0.007957 0.079220
O O13 0.824256 0.081611 0.918259
O O14 0.138354 0.809819 0.818869
O O15 0.929722 0.562129 0.740750
O O16 0.594328 0.751723 0.620851
#
# Coordination Sequence:
#
# PCOD9137451 Si02
#       8
#     4   4   4   4   4   4   4   4
#     4  11  20  42  70  92 128 177 215 270 334 389
#     4  11  24  40  66  99 134 172 219 270 330 397
#     4  11  23  44  67  98 133 174 221 271 330 393
#     4  11  25  44  66  96 136 173 221 278 325 386
#     4  10  22  42  65  96 129 172 223 267 326 396
#     4  12  22  42  70  92 131 174 219 271 337 384
#     4  10  22  42  69  92 128 175 219 270 325 391
#     4  12  24  42  65  97 135 175 219 275 327 394
#
# _framework density 20.234551
#
# number of rings (size 3 to 8) (size 9 to 14) (size 15 to 20)
#    0.000    1.000    5.000    2.250    0.000    1.000 
#    4.500    0.000    0.000    0.000    0.000    0.000 
#    0.000    0.000    0.000    0.000    0.000    0.000 
#
# Total GULP energy -89220.068009 kJ/mol
# GULP energy per Si atom -5576.254251 kJ/mol
# Density = 2.018850 g / cm^3
# Si number density = 20.234551 Si / 1000 Ang^3
#
#
#
# Elastic Constant Matrix: (Units=GPa)
#
#
# Indices 1 2 3 4 5 6 
#
# 1 145.3948 49.7986 19.7247 0.0000 -23.6216 0.0000
# 2 49.7986 56.4349 21.6710 0.0000 -5.3079 0.0000
# 3 19.7247 21.6710 99.2286 0.0000 -3.2226 0.0000
# 4 0.0000 0.0000 0.0000 21.6664 0.0000 -4.5609
# 5 -23.6216 -5.3079 -3.2226 0.0000 23.7240 0.0000
# 6 0.0000 0.0000 0.0000 -4.5609 0.0000 34.0666
#
#
#
# Elastic Compliance Matrix: (Units=1/GPa)
#
#
# Indices 1 2 3 4 5 6 
#
# 1 0.011627 -0.009386 0.000047 0.000000 0.009483 0.000000
# 2 -0.009386 0.027260 -0.004212 0.000000 -0.003818 0.000000
# 3 0.000047 -0.004212 0.011008 0.000000 0.000599 0.000000
# 4 0.000000 0.000000 0.000000 0.047493 0.000000 0.006358
# 5 0.009483 -0.003818 0.000599 0.000000 0.050821 0.000000
# 6 0.000000 0.000000 0.000000 0.006358 0.000000 0.030206
#
#
# Mechanical properties :
#
#
# Convention : Reuss Voigt Hill
#
# Bulk Modulus (GPa) = 43.87355 53.71632 48.79494
# Shear Modulus (GPa) = 23.46183 29.88234 26.67208
#
# Velocity S-wave (km/s) = 3.40883 3.84708 3.63457
# Velocity P-wave (km/s) = 6.10107 6.80719 6.46378
#
# Compressibility (1/GPa) = 0.02279278
#
# Stress axis : x y z
#
# Youngs Moduli (GPa) = 86.00840 36.68432 90.84495
#
# Poissons Ratio (x) = 0.34430 -0.00423
# Poissons Ratio (y) = 0.80723 0.38261
# Poissons Ratio (z) = -0.00400 0.15450
#
# Static dielectric constant tensor:
#      x y z
#    x 1.707550 0.000000 0.010160 
#    y 0.000000 1.754270 0.000000 
#    z 0.010160 0.000000 1.733450 
# 
# From -- ./inp_files/24205.got.cif
#   From: 2010.05.17/outbox.cif.g08.bks.cpg/sg9_13_cif.got.tgz:24205.got - 2010.06.03 20:04:27.
