data_PCOD9137896
_publ_section_title
;
Structure prediction by ZEFSAII (Michael W. Deem and Ramdas Pophale) SiO2 
 PCOD9137896
Probable space group: C C
;
_chemical_formula_sum "Si O2"
_cell_formula_units_Z 28
_cell_length_a 14.157837
_cell_length_b 5.339908
_cell_length_c 13.969108
_cell_angle_alpha 90.000000
_cell_angle_beta 93.410415
_cell_angle_gamma 90.000000
_cell_volume 1054.215880
_symmetry_space_group_name_H-M "C C"
_symmetry_group_IT_number 9
_symmetry_cell_setting 'monoclinic'
loop_
_space_group_symop_operation_xyz
x,y,z
x,-y,1/2+z
1/2+x,1/2+y,z
1/2+x,1/2-y,1/2+z
loop_
_atom_site_type_symbol
_atom_site_label
_atom_site_fract_x
_atom_site_fract_y
_atom_site_fract_z
Si Si1 0.383200 0.090673 0.871120
Si Si2 0.706586 0.511492 0.613242
Si Si3 0.714584 0.159332 0.449342
Si Si4 0.036869 0.857546 0.988097
Si Si5 0.860354 0.866443 0.559988
Si Si6 0.614080 0.397986 0.299117
Si Si7 0.906343 0.902511 0.249935
O O1 0.282898 0.118586 0.915688
O O2 0.392034 0.335237 0.804181
O O3 0.387662 0.836327 0.813659
O O4 0.465853 0.131923 0.955332
O O5 0.680778 0.265692 0.549156
O O6 0.624911 0.695896 0.563240
O O7 0.687189 0.501013 0.725098
O O8 0.812374 0.617508 0.600643
O O9 0.787186 0.940010 0.472814
O O10 0.644985 0.140760 0.355058
O O11 0.964898 0.073663 0.024487
O O12 0.084987 0.941651 0.890864
O O13 0.852496 0.064027 0.647361
O O14 0.517231 0.375847 0.235329
#
# Coordination Sequence:
#
# PCOD9137896 Si02
#       7
#     4   4   4   4   4   4   4
#     4  10  24  45  74 105 144 193 243 309 379 452
#     4  11  23  45  70 105 147 196 255 317 382 464
#     4  10  25  42  70 103 143 189 249 308 373 458
#     4   9  22  47  68 108 146 200 250 321 383 464
#     4  11  24  43  71 106 146 196 256 314 387 462
#     4  10  22  45  69 101 148 191 251 309 387 452
#     4  11  24  45  74 104 146 195 246 304 385 454
#
# _framework density 26.560023999999999
#
# number of rings (size 3 to 8) (size 9 to 14) (size 15 to 20)
#    0.000    1.714    1.429    0.857   12.000    0.000 
#    5.143    0.000    0.000    0.000    0.000    0.000 
#    0.000    0.000    0.000    0.000    0.000    0.000 
#
# Total GULP energy -78186.499868 kJ/mol
# GULP energy per Si atom -5584.749991 kJ/mol
# Density = 2.649957 g / cm^3
# Si number density = 26.560024 Si / 1000 Ang^3
#
#
#
# Elastic Constant Matrix: (Units=GPa)
#
#
# Indices 1 2 3 4 5 6 
#
# 1 116.4704 27.6739 38.6805 0.0000 -13.6746 0.0000
# 2 27.6739 119.7429 29.5796 0.0000 -13.9262 0.0000
# 3 38.6805 29.5796 131.0756 0.0000 -12.7313 0.0000
# 4 0.0000 0.0000 0.0000 28.3467 0.0000 -3.1236
# 5 -13.6746 -13.9262 -12.7313 0.0000 61.3097 0.0000
# 6 0.0000 0.0000 0.0000 -3.1236 0.0000 23.4463
#
#
#
# Elastic Compliance Matrix: (Units=1/GPa)
#
#
# Indices 1 2 3 4 5 6 
#
# 1 0.009923 -0.001530 -0.002451 0.000000 0.001357 0.000000
# 2 -0.001530 0.009242 -0.001494 0.000000 0.001448 0.000000
# 3 -0.002451 -0.001494 0.008781 0.000000 0.000937 0.000000
# 4 0.000000 0.000000 0.000000 0.035803 0.000000 0.004770
# 5 0.001357 0.001448 0.000937 0.000000 0.017137 0.000000
# 6 0.000000 0.000000 0.000000 0.004770 0.000000 0.043286
#
#
# Mechanical properties :
#
#
# Convention : Reuss Voigt Hill
#
# Bulk Modulus (GPa) = 58.83677 62.12853 60.48265
# Shear Modulus (GPa) = 35.51488 40.71087 38.11288
#
# Velocity S-wave (km/s) = 3.66068 3.91933 3.79221
# Velocity P-wave (km/s) = 6.32992 6.62752 6.48043
#
# Compressibility (1/GPa) = 0.01699617
#
# Stress axis : x y z
#
# Youngs Moduli (GPa) = 100.77872 108.19992 113.88723
#
# Poissons Ratio (x) = 0.16554 0.27916
# Poissons Ratio (y) = 0.15419 0.17009
# Poissons Ratio (z) = 0.24703 0.16160
#
# Static dielectric constant tensor:
#      x y z
#    x 2.156390 0.000000 0.045030 
#    y 0.000000 2.149930 0.000000 
#    z 0.045030 0.000000 2.125230 
# 
# From -- ./inp_files/25229.got.cif
#   From: 2010.05.17/outbox.cif.g08.bks.cpg/sg9_13_cif.got.tgz:25229.got - 2010.06.03 20:04:27.
