data_PCOD9137676
_publ_section_title
;
Structure prediction by ZEFSAII (Michael W. Deem and Ramdas Pophale) SiO2 
 PCOD9137676
Probable space group: C C
;
_chemical_formula_sum "Si O2"
_cell_formula_units_Z 24
_cell_length_a 22.700097
_cell_length_b 4.664565
_cell_length_c 22.584311
_cell_angle_alpha 90.000000
_cell_angle_beta 20.606640
_cell_angle_gamma 90.000000
_cell_volume 841.640901
_symmetry_space_group_name_H-M "C C"
_symmetry_group_IT_number 9
_symmetry_cell_setting 'monoclinic'
loop_
_space_group_symop_operation_xyz
x,y,z
x,-y,1/2+z
1/2+x,1/2+y,z
1/2+x,1/2-y,1/2+z
loop_
_atom_site_type_symbol
_atom_site_label
_atom_site_fract_x
_atom_site_fract_y
_atom_site_fract_z
Si Si1 0.595140 0.983514 0.764390
Si Si2 0.910969 0.923365 0.530216
Si Si3 0.795857 0.393322 0.894369
Si Si4 0.718011 0.569615 0.809800
Si Si5 0.552211 0.514808 0.219333
Si Si6 0.535330 0.994459 0.073133
O O1 0.514953 0.223847 0.798022
O O2 0.771357 0.093523 0.625076
O O3 0.637291 0.723289 0.680977
O O4 0.484615 0.829073 0.918880
O O5 0.806840 0.787405 0.681502
O O6 0.072064 0.074623 0.408170
O O7 0.928228 0.581312 0.732739
O O8 0.899887 0.153895 0.832029
O O9 0.686702 0.578298 0.041858
O O10 0.666810 0.224977 0.972944
O O11 0.878135 0.391894 0.681916
O O12 0.629006 0.755284 0.945974
#
# Coordination Sequence:
#
# PCOD9137676 Si02
#       6
#     4   4   4   4   4   4
#     4  11  24  46  71 106 151 200 252 318 383 457
#     4   9  21  43  69 105 148 195 253 315 385 457
#     4  10  25  44  68 112 154 203 259 318 385 461
#     4   9  20  44  73 104 143 193 250 314 383 458
#     4  11  26  46  73 109 152 202 258 315 382 457
#     4  10  22  43  70 100 148 195 250 316 384 454
#
# _framework density 28.515725
#
# number of rings (size 3 to 8) (size 9 to 14) (size 15 to 20)
#    0.000    2.000    0.000    1.000    0.000   16.000 
#    0.000   30.000    0.000    0.000    0.000    0.000 
#    0.000    0.000    0.000    0.000    0.000    0.000 
#
# Total GULP energy -67250.020572 kJ/mol
# GULP energy per Si atom -5604.168381 kJ/mol
# Density = 2.845082 g / cm^3
# Si number density = 28.515725 Si / 1000 Ang^3
#
#
#
# Elastic Constant Matrix: (Units=GPa)
#
#
# Indices 1 2 3 4 5 6 
#
# 1 182.3512 71.9298 112.7927 -0.0605 -34.4770 -0.0841
# 2 71.9298 62.5111 55.1309 -0.0618 12.1766 -0.0705
# 3 112.7927 55.1309 206.6040 -0.0389 17.9224 0.0576
# 4 -0.0605 -0.0618 -0.0389 15.1646 0.0896 45.0826
# 5 -34.4770 12.1766 17.9224 0.0896 105.0596 0.0631
# 6 -0.0841 -0.0705 0.0576 45.0826 0.0631 14.2760
#
#
#
# Elastic Compliance Matrix: (Units=1/GPa)
#
#
# Indices 1 2 3 4 5 6 
#
# 1 0.016943 -0.016127 -0.005675 0.000010 0.008397 -0.000024
# 2 -0.016127 0.036504 -0.000112 0.000029 -0.009504 0.000038
# 3 -0.005675 -0.000112 0.008251 -0.000021 -0.003257 0.000013
# 4 0.000010 0.000029 -0.000021 -0.007861 -0.000005 0.024826
# 5 0.008397 -0.009504 -0.003257 -0.000005 0.013931 -0.000031
# 6 -0.000024 0.000038 0.000013 0.024826 -0.000031 -0.008351
#
#
# Mechanical properties :
#
#
# Convention : Reuss Voigt Hill
#
# Bulk Modulus (GPa) = 55.95937 103.46367 79.71152
# Shear Modulus (GPa) = 45.78644 41.00758 43.39701
#
# Velocity S-wave (km/s) = 4.01141 3.79630 3.90534
# Velocity P-wave (km/s) = 6.41263 7.45504 6.95340
#
# Compressibility (1/GPa) = 0.01787011
#
# Stress axis : x y z
#
# Youngs Moduli (GPa) = 59.02048 27.39405 121.19947
#
# Poissons Ratio (x) = 0.44178 0.68781
# Poissons Ratio (y) = 0.95182 0.01360
# Poissons Ratio (z) = 0.33494 0.00307
#
# Static dielectric constant tensor:
#      x y z
#    x 2.298880 -0.000060 0.010690 
#    y -0.000060 2.126420 0.000130 
#    z 0.010690 0.000130 2.129230 
# 
# From -- ./inp_files/36037.got.cif
#   From: 2010.05.17/outbox.cif.g08.bks.cpg/sg9_19_cif.got.tgz:36037.got - 2010.06.03 20:04:27.
