data_PCOD9137394
_publ_section_title
;
Structure prediction by ZEFSAII (Michael W. Deem and Ramdas Pophale) SiO2 
 PCOD9137394
Probable space group: C C
;
_chemical_formula_sum "Si O2"
_cell_formula_units_Z 32
_cell_length_a 5.253929
_cell_length_b 23.334383
_cell_length_c 10.305412
_cell_angle_alpha 90.000000
_cell_angle_beta 104.402640
_cell_angle_gamma 90.000000
_cell_volume 1223.707598
_symmetry_space_group_name_H-M "C C"
_symmetry_group_IT_number 9
_symmetry_cell_setting 'monoclinic'
loop_
_space_group_symop_operation_xyz
x,y,z
x,-y,1/2+z
1/2+x,1/2+y,z
1/2+x,1/2-y,1/2+z
loop_
_atom_site_type_symbol
_atom_site_label
_atom_site_fract_x
_atom_site_fract_y
_atom_site_fract_z
Si Si1 0.082970 0.901005 0.005920
Si Si2 0.345928 0.199755 0.427953
Si Si3 0.617785 0.348866 0.283378
Si Si4 0.899808 0.242900 0.197249
Si Si5 0.654870 0.140582 0.263217
Si Si6 0.494714 0.008515 0.215474
Si Si7 0.920181 0.987695 0.570791
Si Si8 0.170319 0.604365 0.896277
O O1 0.079609 0.892410 0.158658
O O2 0.020119 0.967331 0.974180
O O3 0.329144 0.865347 0.985819
O O4 0.862456 0.865392 0.905975
O O5 0.480117 0.234360 0.563780
O O6 0.447113 0.183258 0.298687
O O7 0.094918 0.236380 0.345998
O O8 0.685529 0.289297 0.220967
O O9 0.351385 0.354671 0.330897
O O10 0.886692 0.368148 0.390836
O O11 0.782908 0.178949 0.167153
O O12 0.570479 0.075548 0.232455
O O13 0.181289 0.011504 0.190591
O O14 0.646542 0.991864 0.100250
O O15 0.594274 0.957075 0.318606
O O16 0.870325 0.922753 0.524485
#
# Coordination Sequence:
#
# PCOD9137394 Si02
#       8
#     4   4   4   4   4   4   4   4
#     4  10  22  41  70 103 138 190 249 294 382 457
#     4  10  25  45  78 105 151 203 256 326 380 469
#     4  11  25  44  72 102 145 185 254 300 371 457
#     4  10  26  48  71 113 144 204 260 316 391 455
#     4  11  26  46  75 107 150 200 256 321 387 465
#     4  12  26  44  70 107 148 187 249 311 384 457
#     4  12  26  42  68 105 149 193 238 311 386 457
#     4  12  24  44  68 106 141 194 240 311 377 453
#
# _framework density 26.150037999999999
#
# number of rings (size 3 to 8) (size 9 to 14) (size 15 to 20)
#    0.000    1.000    3.750    0.750   10.500    5.000 
#    0.000    0.000    0.000    0.000    0.000    0.000 
#    0.000    0.000    0.000    0.000    0.000    0.000 
#
# Total GULP energy -89144.817913 kJ/mol
# GULP energy per Si atom -5571.551120 kJ/mol
# Density = 2.609052 g / cm^3
# Si number density = 26.150038 Si / 1000 Ang^3
#
#
#
# Elastic Constant Matrix: (Units=GPa)
#
#
# Indices 1 2 3 4 5 6 
#
# 1 58.3022 40.3447 20.8406 0.0000 -6.4572 0.0000
# 2 40.3447 158.6303 29.9014 0.0000 11.6297 0.0000
# 3 20.8406 29.9014 44.9983 0.0000 -0.2476 0.0000
# 4 0.0000 0.0000 0.0000 33.1269 0.0000 7.3461
# 5 -6.4572 11.6297 -0.2476 0.0000 25.4453 0.0000
# 6 0.0000 0.0000 0.0000 7.3461 0.0000 35.4809
#
#
#
# Elastic Compliance Matrix: (Units=1/GPa)
#
#
# Indices 1 2 3 4 5 6 
#
# 1 0.024650 -0.005444 -0.007751 0.000000 0.008668 0.000000
# 2 -0.005444 0.008704 -0.003293 0.000000 -0.005392 0.000000
# 3 -0.007751 -0.003293 0.028000 0.000000 -0.000190 0.000000
# 4 0.000000 0.000000 0.000000 0.031640 0.000000 -0.006551
# 5 0.008668 -0.005392 -0.000190 0.000000 0.043962 0.000000
# 6 0.000000 0.000000 0.000000 -0.006551 0.000000 0.029541
#
#
# Mechanical properties :
#
#
# Convention : Reuss Voigt Hill
#
# Bulk Modulus (GPa) = 35.23733 49.34490 42.29112
# Shear Modulus (GPa) = 23.93137 30.20022 27.06579
#
# Velocity S-wave (km/s) = 3.02844 3.40204 3.22066
# Velocity P-wave (km/s) = 5.07276 5.86027 5.48068
#
# Compressibility (1/GPa) = 0.02837899
#
# Stress axis : x y z
#
# Youngs Moduli (GPa) = 40.56852 114.88494 35.71439
#
# Poissons Ratio (x) = 0.62538 0.27683
# Poissons Ratio (y) = 0.22084 0.11759
# Poissons Ratio (z) = 0.31446 0.37827
#
# Static dielectric constant tensor:
#      x y z
#    x 2.383330 0.000000 0.025670 
#    y 0.000000 2.064180 0.000000 
#    z 0.025670 0.000000 2.192490 
# 
# From -- ./inp_files/13463.got.cif
#   From: 2010.05.17/outbox.cif.g08.bks.cpg/sg9_7_cif.got.tgz:13463.got - 2010.06.03 20:04:27.
