data_PCOD9137068
_publ_section_title
;
Structure prediction by ZEFSAII (Michael W. Deem and Ramdas Pophale) SiO2 
 PCOD9137068
Probable space group: C C
;
_chemical_formula_sum "Si O2"
_cell_formula_units_Z 32
_cell_length_a 13.683882
_cell_length_b 9.056490
_cell_length_c 18.409323
_cell_angle_alpha 90.000000
_cell_angle_beta 36.740653
_cell_angle_gamma 90.000000
_cell_volume 1364.737154
_symmetry_space_group_name_H-M "C C"
_symmetry_group_IT_number 9
_symmetry_cell_setting 'monoclinic'
loop_
_space_group_symop_operation_xyz
x,y,z
x,-y,1/2+z
1/2+x,1/2+y,z
1/2+x,1/2-y,1/2+z
loop_
_atom_site_type_symbol
_atom_site_label
_atom_site_fract_x
_atom_site_fract_y
_atom_site_fract_z
Si Si1 0.536960 0.953151 0.292310
Si Si2 0.144665 0.644211 0.581915
Si Si3 0.239149 0.119015 0.414071
Si Si4 0.159396 0.700416 0.306146
Si Si5 0.324392 0.429659 0.378660
Si Si6 0.001302 0.539664 0.974708
Si Si7 0.308485 0.989759 0.722729
Si Si8 0.002238 0.951524 0.644407
O O1 0.638562 0.867231 0.172221
O O2 0.510951 0.890777 0.388818
O O3 0.362373 0.988187 0.362150
O O4 0.622722 0.112463 0.254282
O O5 0.292012 0.555637 0.456959
O O6 0.982113 0.560106 0.647028
O O7 0.124681 0.814010 0.574101
O O8 0.312243 0.261658 0.411618
O O9 0.064336 0.070895 0.549281
O O10 0.251145 0.121812 0.319535
O O11 0.182330 0.874126 0.291761
O O12 0.330040 0.626728 0.229868
O O13 0.021285 0.636275 0.443503
O O14 0.476457 0.468644 0.237085
O O15 0.164828 0.424722 0.421175
O O16 0.852106 0.570222 0.116975
#
# Coordination Sequence:
#
# PCOD9137068 Si02
#       8
#     4   4   4   4   4   4   4   4
#     4   9  20  39  62  88 126 162 200 272 311 350
#     4   9  20  37  64  89 118 161 212 257 308 364
#     4  11  24  36  63  95 126 158 212 261 317 368
#     4   8  18  36  62  85 117 161 207 251 301 362
#     4  10  22  40  62  88 128 165 205 259 315 377
#     4   8  18  37  59  80 118 163 195 250 309 358
#     4   9  18  33  60  88 117 160 211 242 298 384
#     4  10  22  38  66  89 118 168 218 244 307 393
#
# _framework density 23.447738000000001
#
# number of rings (size 3 to 8) (size 9 to 14) (size 15 to 20)
#    0.750    2.000    0.000    0.000   15.750    1.000 
#    0.000    2.500    0.000    0.000    0.000    0.000 
#    0.000    0.000    0.000    0.000    0.000    0.000 
#
# Total GULP energy -89160.762441 kJ/mol
# GULP energy per Si atom -5572.547653 kJ/mol
# Density = 2.339437 g / cm^3
# Si number density = 23.447738 Si / 1000 Ang^3
#
#
#
# Elastic Constant Matrix: (Units=GPa)
#
#
# Indices 1 2 3 4 5 6 
#
# 1 43.9224 -2.4008 16.2145 0.0000 21.4147 0.0000
# 2 -2.4008 80.9452 51.6801 0.0000 6.6981 0.0000
# 3 16.2145 51.6801 142.9098 0.0000 42.5355 0.0000
# 4 0.0000 0.0000 0.0000 20.5381 0.0000 4.6563
# 5 21.4147 6.6981 42.5355 0.0000 27.9075 0.0000
# 6 0.0000 0.0000 0.0000 4.6563 0.0000 20.7374
#
#
#
# Elastic Compliance Matrix: (Units=1/GPa)
#
#
# Indices 1 2 3 4 5 6 
#
# 1 0.041649 -0.000860 0.009218 0.000000 -0.045803 0.000000
# 2 -0.000860 0.017467 -0.009458 0.000000 0.010883 0.000000
# 3 0.009218 -0.009458 0.019770 0.000000 -0.034937 0.000000
# 4 0.000000 0.000000 0.000000 0.051302 0.000000 -0.011519
# 5 -0.045803 0.010883 -0.034937 0.000000 0.121616 0.000000
# 6 0.000000 0.000000 0.000000 -0.011519 0.000000 0.050808
#
#
# Mechanical properties :
#
#
# Convention : Reuss Voigt Hill
#
# Bulk Modulus (GPa) = 13.04021 44.30723 28.67372
# Shear Modulus (GPa) = 15.13437 27.32217 21.22827
#
# Velocity S-wave (km/s) = 2.54333 3.41726 3.01216
# Velocity P-wave (km/s) = 3.76805 5.87430 4.93485
#
# Compressibility (1/GPa) = 0.07668586
#
# Stress axis : x y z
#
# Youngs Moduli (GPa) = 24.01026 57.25224 50.58072
#
# Poissons Ratio (x) = 0.04924 -0.46626
# Poissons Ratio (y) = 0.02065 0.47840
# Poissons Ratio (z) = -0.22133 0.54150
#
# Static dielectric constant tensor:
#      x y z
#    x 1.943760 0.000000 0.002840 
#    y 0.000000 1.983310 0.000000 
#    z 0.002840 0.000000 1.900120 
# 
# From -- ./inp_files/34031.got.cif
#   From: 2010.05.17/outbox.cif.g08.bks.cpg/sg9_18_cif.got.tgz:34031.got - 2010.06.03 20:04:27.
