data_PCOD9137374
_publ_section_title
;
Structure prediction by ZEFSAII (Michael W. Deem and Ramdas Pophale) SiO2 
 PCOD9137374
Probable space group: C C
;
_chemical_formula_sum "Si O2"
_cell_formula_units_Z 24
_cell_length_a 9.168602
_cell_length_b 24.363627
_cell_length_c 5.214254
_cell_angle_alpha 90.000000
_cell_angle_beta 71.254977
_cell_angle_gamma 90.000000
_cell_volume 1102.980882
_symmetry_space_group_name_H-M "C C"
_symmetry_group_IT_number 9
_symmetry_cell_setting 'monoclinic'
loop_
_space_group_symop_operation_xyz
x,y,z
x,-y,1/2+z
1/2+x,1/2+y,z
1/2+x,1/2-y,1/2+z
loop_
_atom_site_type_symbol
_atom_site_label
_atom_site_fract_x
_atom_site_fract_y
_atom_site_fract_z
Si Si1 0.280050 0.818564 0.311840
Si Si2 0.008667 0.030664 0.640810
Si Si3 0.842967 0.569494 0.526433
Si Si4 0.488749 0.098845 0.940210
Si Si5 0.424380 0.295163 0.572562
Si Si6 0.329117 0.359423 0.126982
O O1 0.378027 0.847552 0.481569
O O2 0.370574 0.766618 0.153025
O O3 0.108590 0.801704 0.485954
O O4 0.276069 0.868632 0.111797
O O5 0.193929 0.034442 0.542807
O O6 0.941332 0.088805 0.596955
O O7 0.959755 0.013161 0.953412
O O8 0.925442 0.559058 0.751411
O O9 0.964653 0.572748 0.229517
O O10 0.658243 0.118346 0.775397
O O11 0.371350 0.315754 0.323734
O O12 0.348897 0.332702 0.836986
#
# Coordination Sequence:
#
# PCOD9137374 Si02
#       6
#     4   4   4   4   4   4
#     4  10  25  40  66 101 130 188 222 265 335 414
#     4  12  25  46  73  97 129 181 236 283 349 396
#     4  10  22  44  64  98 131 171 225 282 319 409
#     4  10  22  41  68  91 142 163 221 270 340 393
#     4  12  25  39  68  95 144 175 229 266 338 403
#     4  12  25  44  65 100 136 178 215 298 329 401
#
# _framework density 21.759215999999999
#
# number of rings (size 3 to 8) (size 9 to 14) (size 15 to 20)
#    1.000    0.000    1.667    5.000    4.667    0.000 
#    0.000    5.000    0.000    0.000    0.000    0.000 
#    0.000    0.000    0.000    0.000    0.000    0.000 
#
# Total GULP energy -67082.012488 kJ/mol
# GULP energy per Si atom -5590.167707 kJ/mol
# Density = 2.170969 g / cm^3
# Si number density = 21.759216 Si / 1000 Ang^3
#
#
#
# Elastic Constant Matrix: (Units=GPa)
#
#
# Indices 1 2 3 4 5 6 
#
# 1 63.9043 -9.8335 0.0627 0.0000 -24.2344 0.0000
# 2 -9.8335 62.6062 -6.0756 0.0000 4.7239 0.0000
# 3 0.0627 -6.0756 87.9147 0.0000 -8.1835 0.0000
# 4 0.0000 0.0000 0.0000 16.1158 0.0000 -3.2422
# 5 -24.2344 4.7239 -8.1835 0.0000 29.9871 0.0000
# 6 0.0000 0.0000 0.0000 -3.2422 0.0000 4.5327
#
#
#
# Elastic Compliance Matrix: (Units=1/GPa)
#
#
# Indices 1 2 3 4 5 6 
#
# 1 0.023171 0.002401 0.001906 0.000000 0.018868 0.000000
# 2 0.002401 0.016484 0.001104 0.000000 -0.000355 0.000000
# 3 0.001906 0.001104 0.011879 0.000000 0.004608 0.000000
# 4 0.000000 0.000000 0.000000 0.072481 0.000000 0.051845
# 5 0.018868 -0.000355 0.004608 0.000000 0.049910 0.000000
# 6 0.000000 0.000000 0.000000 0.051845 0.000000 0.257701
#
#
# Mechanical properties :
#
#
# Convention : Reuss Voigt Hill
#
# Bulk Modulus (GPa) = 16.03710 20.30360 18.17035
# Shear Modulus (GPa) = 11.32276 25.47856 18.40066
#
# Velocity S-wave (km/s) = 2.28363 3.42560 2.91116
# Velocity P-wave (km/s) = 3.78676 4.99976 4.43493
#
# Compressibility (1/GPa) = 0.06235542
#
# Stress axis : x y z
#
# Youngs Moduli (GPa) = 43.15689 60.66525 84.18546
#
# Poissons Ratio (x) = -0.14564 -0.16043
# Poissons Ratio (y) = -0.10361 -0.09297
# Poissons Ratio (z) = -0.08224 -0.06700
#
# Static dielectric constant tensor:
#      x y z
#    x 1.760000 0.000000 0.018600 
#    y 0.000000 1.808060 0.000000 
#    z 0.018600 0.000000 1.769070 
# 
# From -- ./inp_files/822.got.cif
#   From: 2010.05.17/outbox.cif.g08.bks.cpg/sg9_1_cif.got.tgz:822.got - 2010.06.03 20:04:27.
