data_PCOD9137733
_publ_section_title
;
Structure prediction by ZEFSAII (Michael W. Deem and Ramdas Pophale) SiO2 
 PCOD9137733
Probable space group: C C
;
_chemical_formula_sum "Si O2"
_cell_formula_units_Z 28
_cell_length_a 22.585571
_cell_length_b 7.219122
_cell_length_c 12.896016
_cell_angle_alpha 90.000000
_cell_angle_beta 144.778235
_cell_angle_gamma 90.000000
_cell_volume 1212.699263
_symmetry_space_group_name_H-M "C C"
_symmetry_group_IT_number 9
_symmetry_cell_setting 'monoclinic'
loop_
_space_group_symop_operation_xyz
x,y,z
x,-y,1/2+z
1/2+x,1/2+y,z
1/2+x,1/2-y,1/2+z
loop_
_atom_site_type_symbol
_atom_site_label
_atom_site_fract_x
_atom_site_fract_y
_atom_site_fract_z
Si Si1 0.927760 0.706381 0.657790
Si Si2 0.585056 0.151217 0.594422
Si Si3 0.645677 0.146836 0.045258
Si Si4 0.862432 0.862317 0.781727
Si Si5 0.650324 0.411184 0.503319
Si Si6 0.537967 0.538610 0.158619
Si Si7 0.867244 0.529731 0.374458
O O1 0.877468 0.778355 0.689799
O O2 0.960241 0.878453 0.632562
O O3 0.860738 0.585154 0.484967
O O4 0.034172 0.601810 0.836966
O O5 0.597369 0.272856 0.507924
O O6 0.612978 0.297703 0.725023
O O7 0.471305 0.096007 0.468663
O O8 0.643432 0.959317 0.652644
O O9 0.745849 0.069770 0.129667
O O10 0.643208 0.372626 0.034878
O O11 0.865700 0.689587 0.864704
O O12 0.963112 0.976877 0.958734
O O13 0.603998 0.398752 0.321900
O O14 0.771830 0.381312 0.678839
#
# Coordination Sequence:
#
# PCOD9137733 Si02
#       7
#     4   4   4   4   4   4   4
#     4  10  22  44  65 102 144 178 234 288 342 419
#     4  11  23  43  71  96 142 180 240 277 348 421
#     4  10  23  44  67 100 137 184 227 290 345 411
#     4  11  23  45  71 103 147 176 237 293 347 419
#     4  10  24  46  66 104 142 176 241 281 355 413
#     4  10  23  42  69 101 140 190 222 290 348 412
#     4  10  24  42  73 100 138 192 227 289 353 411
#
# _framework density 23.088989000000002
#
# number of rings (size 3 to 8) (size 9 to 14) (size 15 to 20)
#    0.000    1.714    1.429    1.714    6.000    4.571 
#    0.000    1.429    0.000    0.000    0.000    0.000 
#    0.000    0.000    0.000    0.000    0.000    0.000 
#
# Total GULP energy -78085.271932 kJ/mol
# GULP energy per Si atom -5577.519424 kJ/mol
# Density = 2.303644 g / cm^3
# Si number density = 23.088989 Si / 1000 Ang^3
#
#
#
# Elastic Constant Matrix: (Units=GPa)
#
#
# Indices 1 2 3 4 5 6 
#
# 1 124.1874 10.7235 41.4520 0.0000 0.2471 0.0000
# 2 10.7235 53.2002 -5.4017 0.0000 0.1185 0.0000
# 3 41.4520 -5.4017 35.8084 0.0000 9.0753 0.0000
# 4 0.0000 0.0000 0.0000 16.0706 0.0000 -13.2197
# 5 0.2471 0.1185 9.0753 0.0000 27.5109 0.0000
# 6 0.0000 0.0000 0.0000 -13.2197 0.0000 41.6707
#
#
#
# Elastic Compliance Matrix: (Units=1/GPa)
#
#
# Indices 1 2 3 4 5 6 
#
# 1 0.015125 -0.005085 -0.019911 0.000000 0.006454 0.000000
# 2 -0.005085 0.020831 0.009864 0.000000 -0.003298 0.000000
# 3 -0.019911 0.009864 0.057212 0.000000 -0.018737 0.000000
# 4 0.000000 0.000000 0.000000 0.084198 0.000000 0.026711
# 5 0.006454 -0.003298 -0.018737 0.000000 0.042486 0.000000
# 6 0.000000 0.000000 0.000000 0.026711 0.000000 0.032472
#
#
# Mechanical properties :
#
#
# Convention : Reuss Voigt Hill
#
# Bulk Modulus (GPa) = 15.89714 34.08261 24.98987
# Shear Modulus (GPa) = 16.47149 28.14527 22.30838
#
# Velocity S-wave (km/s) = 2.67384 3.49519 3.11173
# Velocity P-wave (km/s) = 4.05372 5.57512 4.87415
#
# Compressibility (1/GPa) = 0.06290440
#
# Stress axis : x y z
#
# Youngs Moduli (GPa) = 66.11741 48.00598 17.47879
#
# Poissons Ratio (x) = 0.24410 0.34802
# Poissons Ratio (y) = 0.33619 -0.17241
# Poissons Ratio (z) = 1.31647 -0.47354
#
# Static dielectric constant tensor:
#      x y z
#    x 1.850520 0.000000 0.024960 
#    y 0.000000 1.970280 0.000000 
#    z 0.024960 0.000000 1.971410 
# 
# From -- ./inp_files/20128.got.cif
#   From: 2010.05.17/outbox.cif.g08.bks.cpg/sg9_11_cif.got.tgz:20128.got - 2010.06.03 20:04:27.
