data_PCOD9137859
_publ_section_title
;
Structure prediction by ZEFSAII (Michael W. Deem and Ramdas Pophale) SiO2 
 PCOD9137859
Probable space group: C C
;
_chemical_formula_sum "Si O2"
_cell_formula_units_Z 28
_cell_length_a 7.384989
_cell_length_b 13.363358
_cell_length_c 19.582283
_cell_angle_alpha 90.000000
_cell_angle_beta 147.039125
_cell_angle_gamma 90.000000
_cell_volume 1051.430414
_symmetry_space_group_name_H-M "C C"
_symmetry_group_IT_number 9
_symmetry_cell_setting 'monoclinic'
loop_
_space_group_symop_operation_xyz
x,y,z
x,-y,1/2+z
1/2+x,1/2+y,z
1/2+x,1/2-y,1/2+z
loop_
_atom_site_type_symbol
_atom_site_label
_atom_site_fract_x
_atom_site_fract_y
_atom_site_fract_z
Si Si1 0.877030 0.423905 0.097470
Si Si2 0.727110 0.250428 0.639590
Si Si3 0.322362 0.276234 0.902323
Si Si4 0.989628 0.976969 0.595177
Si Si5 0.891892 0.730002 0.392920
Si Si6 0.216146 0.089932 0.946544
Si Si7 0.703206 0.534080 0.317575
O O1 0.743919 0.458361 0.128802
O O2 0.115189 0.328418 0.162071
O O3 0.556387 0.367328 0.963414
O O4 0.915286 0.520506 0.061391
O O5 0.575009 0.360597 0.603858
O O6 0.603411 0.211620 0.527992
O O7 0.123444 0.250134 0.771680
O O8 0.058275 0.310444 0.875589
O O9 0.437799 0.176126 0.978988
O O10 0.603701 0.006639 0.455599
O O11 0.080989 0.994298 0.703629
O O12 0.928640 0.848722 0.395743
O O13 0.603334 0.649529 0.302867
O O14 0.056234 0.027135 0.834957
#
# Coordination Sequence:
#
# PCOD9137859 Si02
#       7
#     4   4   4   4   4   4   4
#     4  12  24  43  73 100 137 191 239 278 372 419
#     4  12  24  43  71 101 143 180 235 300 352 420
#     4  10  24  46  61 102 143 175 233 298 343 424
#     4  12  24  46  69 105 142 188 238 295 350 432
#     4  10  22  45  64  98 143 175 229 299 346 415
#     4  10  23  44  67 100 134 191 233 284 357 423
#     4  12  25  45  71 100 146 188 239 292 356 421
#
# _framework density 26.630385
#
# number of rings (size 3 to 8) (size 9 to 14) (size 15 to 20)
#    0.857    0.000    5.714    0.857    2.000    3.429 
#    2.571    1.429    0.000    0.000    0.000    0.000 
#    0.000    0.000    0.000    0.000    0.000    0.000 
#
# Total GULP energy -78112.251338 kJ/mol
# GULP energy per Si atom -5579.446524 kJ/mol
# Density = 2.656977 g / cm^3
# Si number density = 26.630385 Si / 1000 Ang^3
#
#
#
# Elastic Constant Matrix: (Units=GPa)
#
#
# Indices 1 2 3 4 5 6 
#
# 1 84.4679 43.7290 40.2391 0.0001 -27.7029 -0.0002
# 2 43.7290 171.7664 30.8510 0.0001 0.7752 0.0001
# 3 40.2391 30.8510 137.1786 0.0041 -33.6437 0.0005
# 4 0.0001 0.0001 0.0041 48.2619 0.0009 -4.0957
# 5 -27.7029 0.7752 -33.6437 0.0009 37.0559 -0.0005
# 6 -0.0002 0.0001 0.0005 -4.0957 -0.0005 29.6265
#
#
#
# Elastic Compliance Matrix: (Units=1/GPa)
#
#
# Indices 1 2 3 4 5 6 
#
# 1 0.019287 -0.004732 -0.001329 0.000000 0.013312 0.000000
# 2 -0.004732 0.007318 -0.001496 0.000000 -0.005049 0.000000
# 3 -0.001329 -0.001496 0.010009 -0.000001 0.008125 0.000000
# 4 0.000000 0.000000 -0.000001 0.020966 -0.000001 0.002898
# 5 0.013312 -0.005049 0.008125 -0.000001 0.044421 0.000001
# 6 0.000000 0.000000 0.000000 0.002898 0.000001 0.034154
#
#
# Mechanical properties :
#
#
# Convention : Reuss Voigt Hill
#
# Bulk Modulus (GPa) = 46.50939 69.22790 57.86864
# Shear Modulus (GPa) = 31.55872 41.56176 36.56024
#
# Velocity S-wave (km/s) = 3.44621 3.95484 3.70925
# Velocity P-wave (km/s) = 5.77389 6.84884 6.33421
#
# Compressibility (1/GPa) = 0.02150103
#
# Stress axis : x y z
#
# Youngs Moduli (GPa) = 51.84786 136.65013 99.91315
#
# Poissons Ratio (x) = 0.64658 0.13275
# Poissons Ratio (y) = 0.24533 0.14948
# Poissons Ratio (z) = 0.06889 0.20444
#
# Static dielectric constant tensor:
#      x y z
#    x 2.174430 0.000000 0.180870 
#    y 0.000000 2.196540 0.000000 
#    z 0.180870 0.000000 2.224120 
# 
# From -- ./inp_files/32759.got.cif
#   From: 2010.05.17/outbox.cif.g08.bks.cpg/sg9_17_cif.got.tgz:32759.got - 2010.06.03 20:04:27.
