data_PCOD9137672
_publ_section_title
;
Structure prediction by ZEFSAII (Michael W. Deem and Ramdas Pophale) SiO2 
 PCOD9137672
Probable space group: C C
;
_chemical_formula_sum "Si O2"
_cell_formula_units_Z 32
_cell_length_a 8.466661
_cell_length_b 11.508884
_cell_length_c 14.565050
_cell_angle_alpha 90.000000
_cell_angle_beta 71.987476
_cell_angle_gamma 90.000000
_cell_volume 1349.686280
_symmetry_space_group_name_H-M "C C"
_symmetry_group_IT_number 9
_symmetry_cell_setting 'monoclinic'
loop_
_space_group_symop_operation_xyz
x,y,z
x,-y,1/2+z
1/2+x,1/2+y,z
1/2+x,1/2-y,1/2+z
loop_
_atom_site_type_symbol
_atom_site_label
_atom_site_fract_x
_atom_site_fract_y
_atom_site_fract_z
Si Si1 0.485360 0.373974 0.655980
Si Si2 0.882753 0.298403 0.859023
Si Si3 0.530850 0.953658 0.354438
Si Si4 0.550353 0.227384 0.010445
Si Si5 0.821040 0.951839 0.040360
Si Si6 0.817167 0.618176 0.171809
Si Si7 0.894462 0.953216 0.325768
Si Si8 0.447879 0.117013 0.671150
O O1 0.408676 0.457015 0.593499
O O2 0.680013 0.339805 0.624395
O O3 0.478490 0.443812 0.754052
O O4 0.400161 0.249239 0.663536
O O5 0.738659 0.264872 0.957034
O O6 0.792925 0.341439 0.781057
O O7 0.973615 0.174988 0.822576
O O8 0.988719 0.409679 0.872444
O O9 0.499807 0.872306 0.446673
O O10 0.725072 0.935293 0.299451
O O11 0.440544 0.905480 0.281526
O O12 0.437525 0.339645 0.019960
O O13 0.498649 0.171267 0.116033
O O14 0.632758 0.917941 0.101702
O O15 0.834560 0.003709 0.935795
O O16 0.827013 0.480688 0.154284
#
# Coordination Sequence:
#
# PCOD9137672 Si02
#       8
#     4   4   4   4   4   4   4   4
#     4  12  25  46  70 103 143 182 229 289 346 408
#     4  10  23  43  71 100 138 182 230 283 353 406
#     4  10  22  43  69  99 138 184 227 289 344 404
#     4  11  23  42  67  96 140 180 227 281 342 409
#     4  12  25  42  69 101 138 183 231 279 351 409
#     4  11  24  45  70 101 136 184 231 287 345 411
#     4  11  23  43  68 102 141 180 231 289 339 414
#     4  11  23  46  68 100 138 179 230 283 346 407
#
# _framework density 23.709215
#
# number of rings (size 3 to 8) (size 9 to 14) (size 15 to 20)
#    0.000    1.000    2.500    5.250    1.750    3.000 
#    4.500    0.000    0.000    0.000    0.000    0.000 
#    0.000    0.000    0.000    0.000    0.000    0.000 
#
# Total GULP energy -89402.623266 kJ/mol
# GULP energy per Si atom -5587.663954 kJ/mol
# Density = 2.365525 g / cm^3
# Si number density = 23.709215 Si / 1000 Ang^3
#
#
#
# Elastic Constant Matrix: (Units=GPa)
#
#
# Indices 1 2 3 4 5 6 
#
# 1 25.4692 12.1836 3.9044 0.0000 -0.6404 0.0000
# 2 12.1836 201.8645 22.1896 0.0000 1.9604 0.0000
# 3 3.9044 22.1896 67.7780 0.0000 -0.9526 0.0000
# 4 0.0000 0.0000 0.0000 35.6108 0.0000 -0.6742
# 5 -0.6404 1.9604 -0.9526 0.0000 26.4717 0.0000
# 6 0.0000 0.0000 0.0000 -0.6742 0.0000 41.4865
#
#
#
# Elastic Compliance Matrix: (Units=1/GPa)
#
#
# Indices 1 2 3 4 5 6 
#
# 1 0.040627 -0.002290 -0.001575 0.000000 0.001096 0.000000
# 2 -0.002290 0.005273 -0.001601 0.000000 -0.000504 0.000000
# 3 -0.001575 -0.001601 0.015378 0.000000 0.000634 0.000000
# 4 0.000000 0.000000 0.000000 0.028090 0.000000 0.000457
# 5 0.001096 -0.000504 0.000634 0.000000 0.037863 0.000000
# 6 0.000000 0.000000 0.000000 0.000457 0.000000 0.024112
#
#
# Mechanical properties :
#
#
# Convention : Reuss Voigt Hill
#
# Bulk Modulus (GPa) = 19.86278 41.29635 30.57956
# Shear Modulus (GPa) = 27.92399 37.83607 32.88003
#
# Velocity S-wave (km/s) = 3.43559 3.99913 3.72802
# Velocity P-wave (km/s) = 4.91259 6.22733 5.60862
#
# Compressibility (1/GPa) = 0.05034543
#
# Stress axis : x y z
#
# Youngs Moduli (GPa) = 24.61394 189.64777 65.02791
#
# Poissons Ratio (x) = 0.43421 0.10245
# Poissons Ratio (y) = 0.05635 0.10414
# Poissons Ratio (z) = 0.03878 0.30372
#
# Static dielectric constant tensor:
#      x y z
#    x 1.939480 0.000000 -0.073760 
#    y 0.000000 1.922080 0.000000 
#    z -0.073760 0.000000 1.948870 
# 
# From -- ./inp_files/22697.got.cif
#   From: 2010.05.17/outbox.cif.g08.bks.cpg/sg9_12_cif.got.tgz:22697.got - 2010.06.03 20:04:27.
