data_PCOD9137322
_publ_section_title
;
Structure prediction by ZEFSAII (Michael W. Deem and Ramdas Pophale) SiO2 
 PCOD9137322
Probable space group: C C
;
_chemical_formula_sum "Si O2"
_cell_formula_units_Z 32
_cell_length_a 10.331756
_cell_length_b 27.618480
_cell_length_c 7.397191
_cell_angle_alpha 90.000000
_cell_angle_beta 138.474055
_cell_angle_gamma 90.000000
_cell_volume 1399.353701
_symmetry_space_group_name_H-M "C C"
_symmetry_group_IT_number 9
_symmetry_cell_setting 'monoclinic'
loop_
_space_group_symop_operation_xyz
x,y,z
x,-y,1/2+z
1/2+x,1/2+y,z
1/2+x,1/2-y,1/2+z
loop_
_atom_site_type_symbol
_atom_site_label
_atom_site_fract_x
_atom_site_fract_y
_atom_site_fract_z
Si Si1 0.150200 0.212264 0.475690
Si Si2 0.234555 0.677715 0.153711
Si Si3 0.917542 0.902732 0.301557
Si Si4 0.649660 0.565411 0.733434
Si Si5 0.706331 0.543910 0.384164
Si Si6 0.049657 0.611611 0.652427
Si Si7 0.709762 0.318139 0.649980
Si Si8 0.898090 0.338807 0.508933
O O1 0.163594 0.267044 0.552106
O O2 0.160070 0.214898 0.268510
O O3 0.324136 0.180026 0.737198
O O4 0.964331 0.184653 0.364282
O O5 0.167137 0.639434 0.931693
O O6 0.131038 0.661871 0.232768
O O7 0.953382 0.921422 0.136529
O O8 0.015933 0.849676 0.415493
O O9 0.704372 0.903665 0.162467
O O10 0.060546 0.935143 0.579441
O O11 0.626234 0.560272 0.495101
O O12 0.803736 0.608368 0.937123
O O13 0.718860 0.513609 0.878823
O O14 0.920168 0.567201 0.587275
O O15 0.887570 0.647833 0.402680
O O16 0.798816 0.302527 0.550685
#
# Coordination Sequence:
#
# PCOD9137322 Si02
#       8
#     4   4   4   4   4   4   4   4
#     4  12  23  46  67  96 136 177 219 276 331 400
#     4  12  23  43  71  97 136 176 221 274 338 400
#     4  10  22  41  64  94 126 172 220 270 331 395
#     4  11  22  42  68  92 133 177 219 277 332 388
#     4  11  22  44  65  91 137 173 219 280 332 392
#     4  11  22  44  68  99 132 175 221 275 340 396
#     4  10  22  42  67  92 134 170 219 272 325 393
#     4  11  24  44  66 101 132 176 222 272 335 396
#
# _framework density 22.867699000000002
#
# number of rings (size 3 to 8) (size 9 to 14) (size 15 to 20)
#    0.000    1.000    6.250    0.750    0.000    2.000 
#    6.750    1.250    0.000    0.000    0.000    0.000 
#    0.000    0.000    0.000    0.000    0.000    0.000 
#
# Total GULP energy -89437.747704 kJ/mol
# GULP energy per Si atom -5589.859232 kJ/mol
# Density = 2.281565 g / cm^3
# Si number density = 22.867699 Si / 1000 Ang^3
#
#
#
# Elastic Constant Matrix: (Units=GPa)
#
#
# Indices 1 2 3 4 5 6 
#
# 1 188.3333 23.2638 24.9036 0.0000 5.2680 0.0000
# 2 23.2638 71.2549 4.5364 0.0000 13.3612 0.0000
# 3 24.9036 4.5364 45.9121 0.0000 12.8081 0.0000
# 4 0.0000 0.0000 0.0000 414.9816 0.0000 -312.2045
# 5 5.2680 13.3612 12.8081 0.0000 44.6637 0.0000
# 6 0.0000 0.0000 0.0000 -312.2045 0.0000 264.7023
#
#
#
# Elastic Compliance Matrix: (Units=1/GPa)
#
#
# Indices 1 2 3 4 5 6 
#
# 1 0.005952 -0.001885 -0.003265 0.000000 0.000798 0.000000
# 2 -0.001885 0.015468 0.000786 0.000000 -0.004630 0.000000
# 3 -0.003265 0.000786 0.025470 0.000000 -0.007154 0.000000
# 4 0.000000 0.000000 0.000000 0.021390 0.000000 0.025229
# 5 0.000798 -0.004630 -0.007154 0.000000 0.025732 0.000000
# 6 0.000000 0.000000 0.000000 0.025229 0.000000 0.033534
#
#
# Mechanical properties :
#
#
# Convention : Reuss Voigt Hill
#
# Bulk Modulus (GPa) = 26.20450 45.65643 35.93047
# Shear Modulus (GPa) = 33.55832 161.72261 97.64047
#
# Velocity S-wave (km/s) = 3.83495 8.41870 6.54146
# Velocity P-wave (km/s) = 5.57613 10.70085 8.53233
#
# Compressibility (1/GPa) = 0.03816138
#
# Stress axis : x y z
#
# Youngs Moduli (GPa) = 168.01134 64.65064 39.26228
#
# Poissons Ratio (x) = 0.12187 0.12819
# Poissons Ratio (y) = 0.31671 -0.03086
# Poissons Ratio (z) = 0.54853 -0.05081
#
# Static dielectric constant tensor:
#      x y z
#    x 1.921350 0.000000 -0.028880 
#    y 0.000000 1.800220 0.000000 
#    z -0.028880 0.000000 1.870190 
# 
# From -- ./inp_files/6399.got.cif
#   From: 2010.05.17/outbox.cif.g08.bks.cpg/sg9_4_cif.got.tgz:6399.got - 2010.06.03 20:04:27.
