data_PCOD9137117
_publ_section_title
;
Structure prediction by ZEFSAII (Michael W. Deem and Ramdas Pophale) SiO2 
 PCOD9137117
Probable space group: C C
;
_chemical_formula_sum "Si O2"
_cell_formula_units_Z 24
_cell_length_a 12.475554
_cell_length_b 8.063474
_cell_length_c 10.304332
_cell_angle_alpha 90.000000
_cell_angle_beta 88.686691
_cell_angle_gamma 90.000000
_cell_volume 1036.305432
_symmetry_space_group_name_H-M "C C"
_symmetry_group_IT_number 9
_symmetry_cell_setting 'monoclinic'
loop_
_space_group_symop_operation_xyz
x,y,z
x,-y,1/2+z
1/2+x,1/2+y,z
1/2+x,1/2-y,1/2+z
loop_
_atom_site_type_symbol
_atom_site_label
_atom_site_fract_x
_atom_site_fract_y
_atom_site_fract_z
Si Si1 0.792480 0.332200 0.591910
Si Si2 0.169597 0.304671 0.332908
Si Si3 0.253583 0.217263 0.590154
Si Si4 0.771447 0.866965 0.847316
Si Si5 0.520546 0.674933 0.661694
Si Si6 0.001551 0.026774 0.410363
O O1 0.714563 0.232168 0.689641
O O2 0.778490 0.526317 0.617405
O O3 0.760551 0.288829 0.444193
O O4 0.913296 0.273214 0.626042
O O5 0.256909 0.238954 0.436272
O O6 0.173509 0.502834 0.353235
O O7 0.063698 0.194832 0.361753
O O8 0.309172 0.323310 0.700308
O O9 0.130119 0.266576 0.625053
O O10 0.874883 0.955029 0.904622
O O11 0.527100 0.517391 0.562152
O O12 0.529158 0.616417 0.808898
#
# Coordination Sequence:
#
# PCOD9137117 Si02
#       6
#     4   4   4   4   4   4
#     4  11  22  40  65  94 131 172 218 269 328 388
#     4  11  22  40  65  94 131 172 218 269 328 388
#     4  11  24  41  65  95 131 171 221 273 329 390
#     4  11  24  41  65  95 131 171 221 273 329 390
#     4  10  22  39  64  94 129 169 216 264 328 389
#     4  10  22  39  64  94 129 169 216 264 328 389
#
# _framework density 23.159193999999999
#
# number of rings (size 3 to 8) (size 9 to 14) (size 15 to 20)
#    0.000    1.333    3.333    2.000    4.667    1.333 
#    0.000    3.333    0.000    0.000    0.000    0.000 
#    0.000    0.000    0.000    0.000    0.000    0.000 
#
# Total GULP energy -66917.867564 kJ/mol
# GULP energy per Si atom -5576.488964 kJ/mol
# Density = 2.310648 g / cm^3
# Si number density = 23.159194 Si / 1000 Ang^3
#
#
#
# Elastic Constant Matrix: (Units=GPa)
#
#
# Indices 1 2 3 4 5 6 
#
# 1 73.0883 16.7124 -8.5524 0.0000 -1.4864 0.0000
# 2 16.7124 85.1985 -2.1861 0.0000 7.8737 0.0000
# 3 -8.5524 -2.1861 82.6653 0.0000 11.6570 0.0000
# 4 0.0000 0.0000 0.0000 28.0590 0.0000 -3.0924
# 5 -1.4864 7.8737 11.6570 0.0000 31.2978 0.0000
# 6 0.0000 0.0000 0.0000 -3.0924 0.0000 28.3081
#
#
#
# Elastic Compliance Matrix: (Units=1/GPa)
#
#
# Indices 1 2 3 4 5 6 
#
# 1 0.014516 -0.002901 0.001293 0.000000 0.000938 0.000000
# 2 -0.002901 0.012645 0.000530 0.000000 -0.003516 0.000000
# 3 0.001293 0.000530 0.012934 0.000000 -0.004889 0.000000
# 4 0.000000 0.000000 0.000000 0.036074 0.000000 0.003941
# 5 0.000938 -0.003516 -0.004889 0.000000 0.034701 0.000000
# 6 0.000000 0.000000 0.000000 0.003941 0.000000 0.035756
#
#
# Mechanical properties :
#
#
# Convention : Reuss Voigt Hill
#
# Bulk Modulus (GPa) = 26.35804 28.09998 27.22901
# Shear Modulus (GPa) = 30.97357 33.19820 32.08588
#
# Velocity S-wave (km/s) = 3.66104 3.79024 3.72620
# Velocity P-wave (km/s) = 5.41082 5.59592 5.50414
#
# Compressibility (1/GPa) = 0.03793909
#
# Stress axis : x y z
#
# Youngs Moduli (GPa) = 68.89066 79.08324 77.31426
#
# Poissons Ratio (x) = 0.22941 -0.09995
# Poissons Ratio (y) = 0.19984 -0.04099
# Poissons Ratio (z) = -0.08906 -0.04193
#
# Static dielectric constant tensor:
#      x y z
#    x 1.856720 0.000000 0.014930 
#    y 0.000000 1.892730 0.000000 
#    z 0.014930 0.000000 2.008880 
# 
# From -- ./inp_files/6748.got.cif
#   From: 2010.05.17/outbox.cif.g08.bks.cpg/sg9_4_cif.got.tgz:6748.got - 2010.06.03 20:04:27.
