data_PCOD9137093
_publ_section_title
;
Structure prediction by ZEFSAII (Michael W. Deem and Ramdas Pophale) SiO2 
 PCOD9137093
Probable space group: C C
;
_chemical_formula_sum "Si O2"
_cell_formula_units_Z 32
_cell_length_a 8.994847
_cell_length_b 19.754864
_cell_length_c 10.385756
_cell_angle_alpha 90.000000
_cell_angle_beta 47.876312
_cell_angle_gamma 90.000000
_cell_volume 1368.779208
_symmetry_space_group_name_H-M "C C"
_symmetry_group_IT_number 9
_symmetry_cell_setting 'monoclinic'
loop_
_space_group_symop_operation_xyz
x,y,z
x,-y,1/2+z
1/2+x,1/2+y,z
1/2+x,1/2-y,1/2+z
loop_
_atom_site_type_symbol
_atom_site_label
_atom_site_fract_x
_atom_site_fract_y
_atom_site_fract_z
Si Si1 0.742730 0.395362 0.198380
Si Si2 0.604336 0.978278 0.841285
Si Si3 0.752527 0.159015 0.184047
Si Si4 0.419102 0.407982 0.185357
Si Si5 0.673395 0.783944 0.259247
Si Si6 0.778947 0.478757 0.824930
Si Si7 0.929297 0.659330 0.139085
Si Si8 0.528780 0.227841 0.552171
O O1 0.537766 0.383623 0.241261
O O2 0.691845 0.449937 0.333804
O O3 0.845192 0.324834 0.165777
O O4 0.926447 0.439852 0.023506
O O5 0.759935 0.919513 0.714243
O O6 0.479971 0.997855 0.786573
O O7 0.734894 0.040528 0.818264
O O8 0.597329 0.164692 0.154370
O O9 0.670169 0.194858 0.362343
O O10 0.954398 0.199885 0.044660
O O11 0.338648 0.343110 0.157113
O O12 0.598886 0.444789 0.007584
O O13 0.760089 0.714920 0.268837
O O14 0.514783 0.816227 0.451721
O O15 0.607838 0.768738 0.151822
O O16 0.845080 0.417505 0.690361
#
# Coordination Sequence:
#
# PCOD9137093 Si02
#       8
#     4   4   4   4   4   4   4   4
#     4  10  22  39  60  87 122 162 208 256 306 373
#     4   9  21  40  59  87 122 159 205 259 310 365
#     4  10  22  41  63  86 120 161 202 251 307 367
#     4  11  23  39  62  89 122 167 210 253 314 373
#     4  12  24  39  63  92 126 164 206 259 314 366
#     4  10  22  39  61  89 121 159 210 262 306 367
#     4  11  23  41  64  90 124 163 209 257 308 371
#     4  11  23  40  62  90 125 159 202 257 307 362
#
# _framework density 23.378498
#
# number of rings (size 3 to 8) (size 9 to 14) (size 15 to 20)
#    0.000    1.500    0.000    5.250    0.000    8.000 
#    0.000    0.000    0.000    0.000    0.000    0.000 
#    0.000    0.000    0.000    0.000    0.000    0.000 
#
# Total GULP energy -89369.563509 kJ/mol
# GULP energy per Si atom -5585.597719 kJ/mol
# Density = 2.332529 g / cm^3
# Si number density = 23.378498 Si / 1000 Ang^3
#
#
#
# Elastic Constant Matrix: (Units=GPa)
#
#
# Indices 1 2 3 4 5 6 
#
# 1 97.3062 46.4106 7.0231 0.0000 -11.2503 0.0000
# 2 46.4106 78.3368 -4.9602 0.0000 -14.7572 0.0000
# 3 7.0231 -4.9602 87.0693 0.0000 -10.1412 0.0000
# 4 0.0000 0.0000 0.0000 122.4837 0.0000 -122.1064
# 5 -11.2503 -14.7572 -10.1412 0.0000 31.2309 0.0000
# 6 0.0000 0.0000 0.0000 -122.1064 0.0000 189.7249
#
#
#
# Elastic Compliance Matrix: (Units=1/GPa)
#
#
# Indices 1 2 3 4 5 6 
#
# 1 0.014575 -0.008610 -0.001589 0.000000 0.000666 0.000000
# 2 -0.008610 0.019326 0.002596 0.000000 0.006873 0.000000
# 3 -0.001589 0.002596 0.012303 0.000000 0.004649 0.000000
# 4 0.000000 0.000000 0.000000 0.022781 0.000000 0.014662
# 5 0.000666 0.006873 0.004649 0.000000 0.037017 0.000000
# 6 0.000000 0.000000 0.000000 0.014662 0.000000 0.014707
#
#
# Mechanical properties :
#
#
# Convention : Reuss Voigt Hill
#
# Bulk Modulus (GPa) = 32.26025 39.96216 36.11120
# Shear Modulus (GPa) = 34.18888 82.97049 58.57968
#
# Velocity S-wave (km/s) = 3.82829 5.96382 5.01114
# Velocity P-wave (km/s) = 5.77669 8.03452 6.99727
#
# Compressibility (1/GPa) = 0.03099790
#
# Stress axis : x y z
#
# Youngs Moduli (GPa) = 68.60990 51.74478 81.28334
#
# Poissons Ratio (x) = 0.44553 0.12912
# Poissons Ratio (y) = 0.59074 -0.21101
# Poissons Ratio (z) = 0.10899 -0.13433
#
# Static dielectric constant tensor:
#      x y z
#    x 1.871630 0.000000 0.029440 
#    y 0.000000 1.738210 0.000000 
#    z 0.029440 0.000000 2.028150 
# 
# From -- ./inp_files/5735.got.cif
#   From: 2010.05.17/outbox.cif.g08.bks.cpg/sg9_3_cif.got.tgz:5735.got - 2010.06.03 20:04:27.
