data_PCOD9137536
_publ_section_title
;
Structure prediction by ZEFSAII (Michael W. Deem and Ramdas Pophale) SiO2 
 PCOD9137536
Probable space group: C C
;
_chemical_formula_sum "Si O2"
_cell_formula_units_Z 28
_cell_length_a 5.111336
_cell_length_b 18.282829
_cell_length_c 15.122683
_cell_angle_alpha 90.000000
_cell_angle_beta 72.989145
_cell_angle_gamma 90.000000
_cell_volume 1351.381062
_symmetry_space_group_name_H-M "C C"
_symmetry_group_IT_number 9
_symmetry_cell_setting 'monoclinic'
loop_
_space_group_symop_operation_xyz
x,y,z
x,-y,1/2+z
1/2+x,1/2+y,z
1/2+x,1/2-y,1/2+z
loop_
_atom_site_type_symbol
_atom_site_label
_atom_site_fract_x
_atom_site_fract_y
_atom_site_fract_z
Si Si1 0.298460 0.990288 0.720840
Si Si2 0.814095 0.341990 0.397835
Si Si3 0.695080 0.528674 0.032722
Si Si4 0.894098 0.825521 0.935880
Si Si5 0.920534 0.111121 0.788904
Si Si6 0.263005 0.406800 0.116646
Si Si7 0.458729 0.089131 0.380407
O O1 0.268045 0.954661 0.627563
O O2 0.433519 0.943741 0.784701
O O3 0.483631 0.061174 0.681696
O O4 0.017740 0.026266 0.784743
O O5 0.669294 0.396951 0.480980
O O6 0.862823 0.260114 0.425049
O O7 0.624932 0.343192 0.329615
O O8 0.113079 0.375889 0.350833
O O9 0.426462 0.477943 0.065402
O O10 0.902704 0.475207 0.958253
O O11 0.739275 0.869763 0.873817
O O12 0.205179 0.853746 0.913853
O O13 0.740083 0.850356 0.040225
O O14 0.923721 0.127027 0.683878
#
# Coordination Sequence:
#
# PCOD9137536 Si02
#       7
#     4   4   4   4   4   4   4
#     4  11  22  40  72 104 127 171 236 279 327 383
#     4  12  25  45  66  97 137 178 216 271 340 405
#     4  10  23  38  71 100 124 173 225 276 325 394
#     4  11  26  45  64  97 140 175 213 270 348 391
#     4  11  23  41  70  95 128 177 223 269 329 394
#     4  10  22  42  70 100 128 171 222 279 324 393
#     4  11  23  43  69  93 134 175 221 276 323 400
#
# _framework density 20.719546000000001
#
# number of rings (size 3 to 8) (size 9 to 14) (size 15 to 20)
#    0.000    1.143    4.286    0.857    8.000    0.000 
#    5.143    0.000    0.000    0.000    0.000    0.000 
#    0.000    0.000    0.000    0.000    0.000    0.000 
#
# Total GULP energy -78227.510107 kJ/mol
# GULP energy per Si atom -5587.679293 kJ/mol
# Density = 2.067239 g / cm^3
# Si number density = 20.719546 Si / 1000 Ang^3
#
#
#
# Elastic Constant Matrix: (Units=GPa)
#
#
# Indices 1 2 3 4 5 6 
#
# 1 85.3278 21.7122 28.3293 0.0000 9.0247 0.0000
# 2 21.7122 101.7289 65.1424 0.0000 14.4642 0.0000
# 3 28.3293 65.1424 102.4753 0.0000 19.4230 0.0000
# 4 0.0000 0.0000 0.0000 17.5287 0.0000 6.0554
# 5 9.0247 14.4642 19.4230 0.0000 36.0309 0.0000
# 6 0.0000 0.0000 0.0000 6.0554 0.0000 25.0768
#
#
#
# Elastic Compliance Matrix: (Units=1/GPa)
#
#
# Indices 1 2 3 4 5 6 
#
# 1 0.013007 -0.000749 -0.002850 0.000000 -0.001421 0.000000
# 2 -0.000749 0.016660 -0.010193 0.000000 -0.001006 0.000000
# 3 -0.002850 -0.010193 0.017949 0.000000 -0.004870 0.000000
# 4 0.000000 0.000000 0.000000 0.062241 0.000000 -0.015030
# 5 -0.001421 -0.001006 -0.004870 0.000000 0.031139 0.000000
# 6 0.000000 0.000000 0.000000 -0.015030 0.000000 0.043507
#
#
# Mechanical properties :
#
#
# Convention : Reuss Voigt Hill
#
# Bulk Modulus (GPa) = 49.92167 57.76663 53.84415
# Shear Modulus (GPa) = 22.85571 27.35048 25.10309
#
# Velocity S-wave (km/s) = 3.32490 3.63717 3.48453
# Velocity P-wave (km/s) = 6.23588 6.75125 6.49868
#
# Compressibility (1/GPa) = 0.02003138
#
# Stress axis : x y z
#
# Youngs Moduli (GPa) = 76.88368 60.02438 55.71343
#
# Poissons Ratio (x) = 0.04494 0.15881
# Poissons Ratio (y) = 0.05757 0.56788
# Poissons Ratio (z) = 0.21915 0.61182
#
# Static dielectric constant tensor:
#      x y z
#    x 1.795480 0.000000 0.002950 
#    y 0.000000 1.700880 0.000000 
#    z 0.002950 0.000000 1.759840 
# 
# From -- ./inp_files/21757.got.cif
#   From: 2010.05.17/outbox.cif.g08.bks.cpg/sg9_11_cif.got.tgz:21757.got - 2010.06.03 20:04:27.
