data_PCOD9137526
_publ_section_title
;
Structure prediction by ZEFSAII (Michael W. Deem and Ramdas Pophale) SiO2 
 PCOD9137526
Probable space group: C C
;
_chemical_formula_sum "Si O2"
_cell_formula_units_Z 32
_cell_length_a 11.575560
_cell_length_b 22.260031
_cell_length_c 8.464369
_cell_angle_alpha 90.000000
_cell_angle_beta 42.576733
_cell_angle_gamma 90.000000
_cell_volume 1475.637184
_symmetry_space_group_name_H-M "C C"
_symmetry_group_IT_number 9
_symmetry_cell_setting 'monoclinic'
loop_
_space_group_symop_operation_xyz
x,y,z
x,-y,1/2+z
1/2+x,1/2+y,z
1/2+x,1/2-y,1/2+z
loop_
_atom_site_type_symbol
_atom_site_label
_atom_site_fract_x
_atom_site_fract_y
_atom_site_fract_z
Si Si1 0.137680 0.613273 0.105200
Si Si2 0.946172 0.936189 0.501797
Si Si3 0.855241 0.819788 0.151082
Si Si4 0.819594 0.650605 0.929603
Si Si5 0.581221 0.248537 0.747796
Si Si6 0.493680 0.946811 0.443574
Si Si7 0.364253 0.436181 0.952500
Si Si8 0.327770 0.920162 0.104007
O O1 0.279753 0.590684 0.084788
O O2 0.084467 0.565636 0.021111
O O3 0.959378 0.620770 0.374009
O O4 0.233805 0.667563 0.920266
O O5 0.928256 0.929342 0.708841
O O6 0.129984 0.913782 0.254745
O O7 0.940954 0.005107 0.455111
O O8 0.739714 0.793190 0.127672
O O9 0.912649 0.883560 0.025406
O O10 0.004522 0.771074 0.994320
O O11 0.830852 0.603483 0.778780
O O12 0.958123 0.704012 0.779138
O O13 0.646486 0.689763 0.104737
O O14 0.868978 0.609664 0.031806
O O15 0.397737 0.010756 0.528552
O O16 0.657172 0.942486 0.162045
#
# Coordination Sequence:
#
# PCOD9137526 Si02
#       8
#     4   4   4   4   4   4   4   4
#     4  11  24  44  65  97 143 181 225 289 366 423
#     4  12  27  41  67 104 140 188 227 282 361 441
#     4  10  22  42  69  94 129 180 230 298 342 417
#     4  11  23  46  71 108 135 195 249 300 363 427
#     4  10  22  42  75  98 132 184 256 296 344 429
#     4  11  23  43  71 100 147 185 230 303 366 433
#     4  11  22  42  65  98 139 183 229 283 357 421
#     4  12  27  42  69 107 147 182 236 301 367 439
#
# _framework density 21.685549000000002
#
# number of rings (size 3 to 8) (size 9 to 14) (size 15 to 20)
#    0.000    1.000    3.750    3.750    5.250    1.000 
#    0.000    1.250    0.000    0.000    0.000    0.000 
#    0.000    0.000    0.000    0.000    0.000    0.000 
#
# Total GULP energy -89213.615974 kJ/mol
# GULP energy per Si atom -5575.850998 kJ/mol
# Density = 2.163619 g / cm^3
# Si number density = 21.685549 Si / 1000 Ang^3
#
#
#
# Elastic Constant Matrix: (Units=GPa)
#
#
# Indices 1 2 3 4 5 6 
#
# 1 47.7182 15.5170 25.6433 0.0000 1.0734 0.0000
# 2 15.5170 68.9039 18.5834 0.0000 -11.0989 0.0000
# 3 25.6433 18.5834 94.2815 0.0000 -15.0796 0.0000
# 4 0.0000 0.0000 0.0000 26.7528 0.0000 -9.5302
# 5 1.0734 -11.0989 -15.0796 0.0000 22.3166 0.0000
# 6 0.0000 0.0000 0.0000 -9.5302 0.0000 9.6872
#
#
#
# Elastic Compliance Matrix: (Units=1/GPa)
#
#
# Indices 1 2 3 4 5 6 
#
# 1 0.027141 -0.005512 -0.007784 0.000000 -0.009307 0.000000
# 2 -0.005512 0.017268 -0.000548 0.000000 0.008483 0.000000
# 3 -0.007784 -0.000548 0.014405 0.000000 0.009836 0.000000
# 4 0.000000 0.000000 0.000000 0.057547 0.000000 0.056615
# 5 -0.009307 0.008483 0.009836 0.000000 0.056122 0.000000
# 6 0.000000 0.000000 0.000000 0.056615 0.000000 0.158926
#
#
# Mechanical properties :
#
#
# Convention : Reuss Voigt Hill
#
# Bulk Modulus (GPa) = 32.12646 36.71012 34.41829
# Shear Modulus (GPa) = 13.53281 21.82866 17.68073
#
# Velocity S-wave (km/s) = 2.50080 3.17614 2.85848
# Velocity P-wave (km/s) = 4.81514 5.51503 5.17693
#
# Compressibility (1/GPa) = 0.03112699
#
# Stress axis : x y z
#
# Youngs Moduli (GPa) = 36.84439 57.90922 69.42135
#
# Poissons Ratio (x) = 0.31919 0.54039
# Poissons Ratio (y) = 0.20308 0.03802
# Poissons Ratio (z) = 0.28680 0.03172
#
# Static dielectric constant tensor:
#      x y z
#    x 1.799200 0.000000 -0.055030 
#    y 0.000000 1.794230 0.000000 
#    z -0.055030 0.000000 1.908660 
# 
# From -- ./inp_files/8572.got.cif
#   From: 2010.05.17/outbox.cif.g08.bks.cpg/sg9_5_cif.got.tgz:8572.got - 2010.06.03 20:04:27.
