data_PCOD9137231
_publ_section_title
;
Structure prediction by ZEFSAII (Michael W. Deem and Ramdas Pophale) SiO2 
 PCOD9137231
Probable space group: C C
;
_chemical_formula_sum "Si O2"
_cell_formula_units_Z 32
_cell_length_a 5.105222
_cell_length_b 30.469606
_cell_length_c 8.899548
_cell_angle_alpha 90.000000
_cell_angle_beta 120.227849
_cell_angle_gamma 90.000000
_cell_volume 1196.129894
_symmetry_space_group_name_H-M "C C"
_symmetry_group_IT_number 9
_symmetry_cell_setting 'monoclinic'
loop_
_space_group_symop_operation_xyz
x,y,z
x,-y,1/2+z
1/2+x,1/2+y,z
1/2+x,1/2-y,1/2+z
loop_
_atom_site_type_symbol
_atom_site_label
_atom_site_fract_x
_atom_site_fract_y
_atom_site_fract_z
Si Si1 0.731460 0.746769 0.922900
Si Si2 0.418153 0.038484 0.925844
Si Si3 0.112165 0.009235 0.115233
Si Si4 0.332657 0.092094 0.354948
Si Si5 0.388680 0.818999 0.675245
Si Si6 0.247300 0.372016 0.219748
Si Si7 0.720784 0.684965 0.675028
Si Si8 0.235338 0.620351 0.079610
O O1 0.458133 0.777474 0.798217
O O2 0.873260 0.720359 0.826375
O O3 0.638781 0.705949 0.002339
O O4 0.969441 0.784136 0.031857
O O5 0.185872 0.012567 0.962664
O O6 0.450389 0.087714 0.992820
O O7 0.757739 0.019096 0.032267
O O8 0.254958 0.035249 0.719263
O O9 0.320104 0.047156 0.255218
O O10 0.367612 0.136985 0.265830
O O11 0.577359 0.092491 0.560191
O O12 0.968649 0.099140 0.268684
O O13 0.643545 0.833515 0.625954
O O14 0.974205 0.336662 0.147404
O O15 0.532837 0.352320 0.212155
O O16 0.312574 0.381174 0.419307
#
# Coordination Sequence:
#
# PCOD9137231 Si02
#       8
#     4   4   4   4   4   4   4   4
#     4  10  22  40  66  92 138 182 236 298 354 422
#     4  11  25  47  74 110 149 192 238 299 370 441
#     4  11  25  47  74 110 149 192 238 299 370 441
#     4  11  25  45  73 100 146 189 240 298 364 432
#     4  11  20  46  61  98 136 190 236 297 358 418
#     4  12  26  44  71 102 135 180 247 289 360 426
#     4  11  24  44  60 100 129 178 233 296 352 420
#     4  11  25  45  73 100 146 189 240 298 364 432
#
# _framework density 26.752946999999999
#
# number of rings (size 3 to 8) (size 9 to 14) (size 15 to 20)
#    0.000    1.000    3.750    2.250    1.750    1.000 
#   11.250    0.000    0.000    0.000    0.000    0.000 
#    0.000    0.000    0.000    0.000    0.000    0.000 
#
# Total GULP energy -89187.083521 kJ/mol
# GULP energy per Si atom -5574.192720 kJ/mol
# Density = 2.669206 g / cm^3
# Si number density = 26.752947 Si / 1000 Ang^3
#
#
#
# Elastic Constant Matrix: (Units=GPa)
#
#
# Indices 1 2 3 4 5 6 
#
# 1 89.0394 27.5003 11.7364 0.0000 3.5146 0.0000
# 2 27.5003 58.3201 20.0435 0.0000 1.5141 0.0000
# 3 11.7364 20.0435 81.7331 0.0000 9.8201 0.0000
# 4 0.0000 0.0000 0.0000 49.0152 0.0000 -7.1335
# 5 3.5146 1.5141 9.8201 0.0000 29.5372 0.0000
# 6 0.0000 0.0000 0.0000 -7.1335 0.0000 33.9020
#
#
#
# Elastic Compliance Matrix: (Units=1/GPa)
#
#
# Indices 1 2 3 4 5 6 
#
# 1 0.013196 -0.006104 -0.000257 0.000000 -0.001172 0.000000
# 2 -0.006104 0.021558 -0.004546 0.000000 0.001133 0.000000
# 3 -0.000257 -0.004546 0.013911 0.000000 -0.004361 0.000000
# 4 0.000000 0.000000 0.000000 0.021046 0.000000 0.004428
# 5 -0.001172 0.001133 -0.004361 0.000000 0.035387 0.000000
# 6 0.000000 0.000000 0.000000 0.004428 0.000000 0.030429
#
#
# Mechanical properties :
#
#
# Convention : Reuss Voigt Hill
#
# Bulk Modulus (GPa) = 37.24347 38.62812 37.93580
# Shear Modulus (GPa) = 30.06762 33.81171 31.93967
#
# Velocity S-wave (km/s) = 3.35610 3.55892 3.45900
# Velocity P-wave (km/s) = 5.38232 5.59983 5.49215
#
# Compressibility (1/GPa) = 0.02685034
#
# Stress axis : x y z
#
# Youngs Moduli (GPa) = 75.77865 46.38645 71.88669
#
# Poissons Ratio (x) = 0.28313 0.01850
# Poissons Ratio (y) = 0.46253 0.32682
# Poissons Ratio (z) = 0.01950 0.21089
#
# Static dielectric constant tensor:
#      x y z
#    x 2.132150 0.000000 -0.020730 
#    y 0.000000 2.365740 0.000000 
#    z -0.020730 0.000000 2.262320 
# 
# From -- ./inp_files/4547.got.cif
#   From: 2010.05.17/outbox.cif.g08.bks.cpg/sg9_3_cif.got.tgz:4547.got - 2010.06.03 20:04:27.
