data_PCOD9137984
_publ_section_title
;
Structure prediction by ZEFSAII (Michael W. Deem and Ramdas Pophale) SiO2 
 PCOD9137984
Probable space group: C C
;
_chemical_formula_sum "Si O2"
_cell_formula_units_Z 32
_cell_length_a 12.442882
_cell_length_b 8.287644
_cell_length_c 30.210452
_cell_angle_alpha 90.000000
_cell_angle_beta 152.331975
_cell_angle_gamma 90.000000
_cell_volume 1446.614267
_symmetry_space_group_name_H-M "C C"
_symmetry_group_IT_number 9
_symmetry_cell_setting 'monoclinic'
loop_
_space_group_symop_operation_xyz
x,y,z
x,-y,1/2+z
1/2+x,1/2+y,z
1/2+x,1/2-y,1/2+z
loop_
_atom_site_type_symbol
_atom_site_label
_atom_site_fract_x
_atom_site_fract_y
_atom_site_fract_z
Si Si1 0.475630 0.234032 0.232350
Si Si2 0.768146 0.988419 0.378537
Si Si3 0.313401 0.220817 0.711959
Si Si4 0.593321 0.578897 0.246481
Si Si5 0.019022 0.754770 0.625029
Si Si6 0.892200 0.024743 0.518731
Si Si7 0.544212 0.241100 0.433639
Si Si8 0.945743 0.401189 0.632176
O O1 0.544150 0.390948 0.229973
O O2 0.248285 0.264315 0.178412
O O3 0.440917 0.095136 0.183109
O O4 0.683650 0.167511 0.337796
O O5 0.538955 0.883055 0.306562
O O6 0.899853 0.908084 0.384775
O O7 0.920523 0.979974 0.478110
O O8 0.392549 0.335634 0.701090
O O9 0.117716 0.102405 0.622524
O O10 0.190873 0.329030 0.704569
O O11 0.592114 0.654336 0.197062
O O12 0.831985 0.616195 0.359713
O O13 0.921420 0.578854 0.602133
O O14 0.848281 0.868514 0.533796
O O15 0.692035 0.161204 0.448335
O O16 0.746257 0.277596 0.542780
#
# Coordination Sequence:
#
# PCOD9137984 Si02
#       8
#     4   4   4   4   4   4   4   4
#     4  12  25  45  74 102 138 193 232 288 356 420
#     4  11  24  44  71 101 144 179 239 288 352 421
#     4  10  22  46  70 102 144 190 228 298 346 424
#     4  11  24  46  71 102 146 184 243 289 356 419
#     4  12  25  45  74 102 138 193 232 288 356 420
#     4  11  24  44  71 101 144 179 239 288 352 421
#     4  10  24  42  64 104 136 178 232 292 340 416
#     4  11  24  46  71 102 146 184 243 289 356 419
#
# _framework density 22.120615000000001
#
# number of rings (size 3 to 8) (size 9 to 14) (size 15 to 20)
#    0.000    1.000    2.500    4.500    3.500    1.000 
#    4.500    3.750    0.000    0.000    0.000    0.000 
#    0.000    0.000    0.000    0.000    0.000    0.000 
#
# Total GULP energy -89299.408463 kJ/mol
# GULP energy per Si atom -5581.213029 kJ/mol
# Density = 2.207027 g / cm^3
# Si number density = 22.120615 Si / 1000 Ang^3
#
#
#
# Elastic Constant Matrix: (Units=GPa)
#
#
# Indices 1 2 3 4 5 6 
#
# 1 117.2932 41.9193 19.7709 0.0000 -2.9351 0.0000
# 2 41.9193 85.8401 20.4366 0.0000 -12.5760 0.0000
# 3 19.7709 20.4366 57.1984 -0.0002 0.9275 0.0000
# 4 0.0000 0.0000 -0.0002 26.9571 0.0000 2.6724
# 5 -2.9351 -12.5760 0.9275 0.0000 30.6939 0.0000
# 6 0.0000 0.0000 0.0000 2.6724 0.0000 43.1705
#
#
#
# Elastic Compliance Matrix: (Units=1/GPa)
#
#
# Indices 1 2 3 4 5 6 
#
# 1 0.010551 -0.004833 -0.001906 0.000000 -0.000914 0.000000
# 2 -0.004833 0.015892 -0.004108 0.000000 0.006173 0.000000
# 3 -0.001906 -0.004108 0.019649 0.000000 -0.002459 0.000000
# 4 0.000000 0.000000 0.000000 0.037325 0.000000 -0.002311
# 5 -0.000914 0.006173 -0.002459 0.000000 0.035096 0.000000
# 6 0.000000 0.000000 0.000000 -0.002311 0.000000 0.023307
#
#
# Mechanical properties :
#
#
# Convention : Reuss Voigt Hill
#
# Bulk Modulus (GPa) = 40.98310 47.17615 44.07963
# Shear Modulus (GPa) = 29.12975 32.04463 30.58719
#
# Velocity S-wave (km/s) = 3.63279 3.81022 3.72256
# Velocity P-wave (km/s) = 6.01362 6.38201 6.20055
#
# Compressibility (1/GPa) = 0.02440030
#
# Stress axis : x y z
#
# Youngs Moduli (GPa) = 94.77639 62.92486 50.89266
#
# Poissons Ratio (x) = 0.30410 0.09698
# Poissons Ratio (y) = 0.45803 0.20905
# Poissons Ratio (z) = 0.18060 0.25848
#
# Static dielectric constant tensor:
#      x y z
#    x 1.788270 0.000000 0.029070 
#    y 0.000000 1.851250 0.000000 
#    z 0.029070 0.000000 1.819410 
# 
# From -- ./inp_files/24220.got.cif
#   From: 2010.05.17/outbox.cif.g08.bks.cpg/sg9_13_cif.got.tgz:24220.got - 2010.06.03 20:04:27.
