data_PCOD9137660
_publ_section_title
;
Structure prediction by ZEFSAII (Michael W. Deem and Ramdas Pophale) SiO2 
 PCOD9137660
Probable space group: C C
;
_chemical_formula_sum "Si O2"
_cell_formula_units_Z 32
_cell_length_a 5.792185
_cell_length_b 19.217928
_cell_length_c 15.451411
_cell_angle_alpha 90.000000
_cell_angle_beta 128.491304
_cell_angle_gamma 90.000000
_cell_volume 1346.213446
_symmetry_space_group_name_H-M "C C"
_symmetry_group_IT_number 9
_symmetry_cell_setting 'monoclinic'
loop_
_space_group_symop_operation_xyz
x,y,z
x,-y,1/2+z
1/2+x,1/2+y,z
1/2+x,1/2-y,1/2+z
loop_
_atom_site_type_symbol
_atom_site_label
_atom_site_fract_x
_atom_site_fract_y
_atom_site_fract_z
Si Si1 0.766960 0.064445 0.650050
Si Si2 0.099860 0.936127 0.789991
Si Si3 0.968142 0.198945 0.787129
Si Si4 0.963427 0.805327 0.869542
Si Si5 0.728760 0.083795 0.443389
Si Si6 0.708195 0.504769 0.001892
Si Si7 0.330695 0.835006 0.537746
Si Si8 0.425642 0.726801 0.087125
O O1 0.946037 0.121258 0.744342
O O2 0.723766 0.094433 0.544191
O O3 0.436123 0.046668 0.603882
O O4 0.921235 0.989083 0.689509
O O5 0.414952 0.919498 0.824033
O O6 0.978755 0.862591 0.796797
O O7 0.172941 0.979344 0.894840
O O8 0.637533 0.228735 0.699822
O O9 0.210753 0.247737 0.796391
O O10 0.096472 0.193079 0.912605
O O11 0.886476 0.852612 0.934726
O O12 0.264936 0.770121 0.972492
O O13 0.890600 0.010400 0.467201
O O14 0.826309 0.581772 0.032596
O O15 0.648691 0.807183 0.575121
O O16 0.174959 0.817681 0.593469
#
# Coordination Sequence:
#
# PCOD9137660 Si02
#       8
#     4   4   4   4   4   4   4   4
#     4  11  24  43  72 105 137 192 249 304 377 447
#     4  10  22  43  69 101 139 188 243 302 370 443
#     4  11  25  47  74 108 144 208 245 308 383 462
#     4  10  25  46  68 105 151 193 245 310 376 452
#     4  10  23  43  71  96 146 187 241 308 376 435
#     4  10  23  45  65 102 146 185 240 313 366 439
#     4  11  27  48  74 110 156 191 256 313 370 451
#     4  11  27  47  73 109 151 198 249 312 372 451
#
# _framework density 23.770375999999999
#
# number of rings (size 3 to 8) (size 9 to 14) (size 15 to 20)
#    0.000    1.500    1.250    2.250   12.250    5.000 
#    6.750    0.000    0.000    0.000    0.000    0.000 
#    0.000    0.000    0.000    0.000    0.000    0.000 
#
# Total GULP energy -89343.453582 kJ/mol
# GULP energy per Si atom -5583.965849 kJ/mol
# Density = 2.371627 g / cm^3
# Si number density = 23.770376 Si / 1000 Ang^3
#
#
#
# Elastic Constant Matrix: (Units=GPa)
#
#
# Indices 1 2 3 4 5 6 
#
# 1 100.7780 54.1890 34.5769 0.0000 18.2465 0.0000
# 2 54.1890 143.8693 42.9731 0.0000 18.2562 0.0000
# 3 34.5769 42.9731 106.5871 0.0000 16.7300 0.0000
# 4 0.0000 0.0000 0.0000 48.6201 0.0000 4.5147
# 5 18.2465 18.2562 16.7300 0.0000 21.6976 0.0000
# 6 0.0000 0.0000 0.0000 4.5147 0.0000 7.8760
#
#
#
# Elastic Compliance Matrix: (Units=1/GPa)
#
#
# Indices 1 2 3 4 5 6 
#
# 1 0.013868 -0.003770 -0.001873 0.000000 -0.007046 0.000000
# 2 -0.003770 0.009386 -0.002070 0.000000 -0.003131 0.000000
# 3 -0.001873 -0.002070 0.011722 0.000000 -0.005722 0.000000
# 4 0.000000 0.000000 0.000000 0.021724 0.000000 -0.012452
# 5 -0.007046 -0.003131 -0.005722 0.000000 0.059060 0.000000
# 6 0.000000 0.000000 0.000000 -0.012452 0.000000 0.134106
#
#
# Mechanical properties :
#
#
# Convention : Reuss Voigt Hill
#
# Bulk Modulus (GPa) = 51.14747 68.30138 59.72443
# Shear Modulus (GPa) = 18.39525 30.27178 24.33351
#
# Velocity S-wave (km/s) = 2.78487 3.57250 3.20299
# Velocity P-wave (km/s) = 5.64843 6.76854 6.23370
#
# Compressibility (1/GPa) = 0.01955131
#
# Stress axis : x y z
#
# Youngs Moduli (GPa) = 72.10668 106.53796 85.30830
#
# Poissons Ratio (x) = 0.40165 0.15978
# Poissons Ratio (y) = 0.27184 0.17657
# Poissons Ratio (z) = 0.13505 0.22052
#
# Static dielectric constant tensor:
#      x y z
#    x 1.984260 0.000000 0.024170 
#    y 0.000000 1.935550 0.000000 
#    z 0.024170 0.000000 1.913350 
# 
# From -- ./inp_files/13374.got.cif
#   From: 2010.05.17/outbox.cif.g08.bks.cpg/sg9_7_cif.got.tgz:13374.got - 2010.06.03 20:04:27.
