data_PCOD9137620
_publ_section_title
;
Structure prediction by ZEFSAII (Michael W. Deem and Ramdas Pophale) SiO2 
 PCOD9137620
Probable space group: C C
;
_chemical_formula_sum "Si O2"
_cell_formula_units_Z 32
_cell_length_a 19.123622
_cell_length_b 8.959245
_cell_length_c 14.480854
_cell_angle_alpha 90.000000
_cell_angle_beta 143.586733
_cell_angle_gamma 90.000000
_cell_volume 1472.765049
_symmetry_space_group_name_H-M "C C"
_symmetry_group_IT_number 9
_symmetry_cell_setting 'monoclinic'
loop_
_space_group_symop_operation_xyz
x,y,z
x,-y,1/2+z
1/2+x,1/2+y,z
1/2+x,1/2-y,1/2+z
loop_
_atom_site_type_symbol
_atom_site_label
_atom_site_fract_x
_atom_site_fract_y
_atom_site_fract_z
Si Si1 0.807270 0.814327 0.297980
Si Si2 0.205505 0.724527 0.002373
Si Si3 0.691818 0.587436 0.304374
Si Si4 0.318184 0.179787 0.010776
Si Si5 0.469118 0.244296 0.868175
Si Si6 0.177605 0.383709 0.976134
Si Si7 0.446167 0.425361 0.031214
Si Si8 0.947733 0.603434 0.332649
O O1 0.712677 0.704116 0.244067
O O2 0.912368 0.702554 0.381845
O O3 0.845167 0.950781 0.403148
O O4 0.771168 0.876866 0.159359
O O5 0.214847 0.822904 0.921926
O O6 0.171679 0.554930 0.940599
O O7 0.091162 0.777892 0.941415
O O8 0.338036 0.725249 0.186216
O O9 0.782873 0.448031 0.401232
O O10 0.562780 0.518542 0.175720
O O11 0.206789 0.279037 0.922051
O O12 0.407591 0.301949 0.064805
O O13 0.356215 0.107168 0.149301
O O14 0.471687 0.066101 0.886434
O O15 0.471416 0.336905 0.964032
O O16 0.061301 0.331667 0.903518
#
# Coordination Sequence:
#
# PCOD9137620 Si02
#       8
#     4   4   4   4   4   4   4   4
#     4  11  24  42  68  96 144 171 240 283 363 416
#     4  11  25  46  72 101 142 187 238 291 360 432
#     4  12  27  42  69 105 137 185 235 299 356 423
#     4  11  24  42  68  96 144 171 240 283 363 416
#     4  11  25  46  72 101 142 187 238 291 360 432
#     4  10  22  43  66  96 131 186 226 280 350 429
#     4  12  27  42  69 105 137 185 235 299 356 423
#     4  10  22  43  66  96 131 186 226 280 350 429
#
# _framework density 21.727837999999998
#
# number of rings (size 3 to 8) (size 9 to 14) (size 15 to 20)
#    0.000    1.000    2.500    3.000    7.000    1.000 
#    0.000    6.250    0.000    0.000    0.000    0.000 
#    0.000    0.000    0.000    0.000    0.000    0.000 
#
# Total GULP energy -89306.796162 kJ/mol
# GULP energy per Si atom -5581.674760 kJ/mol
# Density = 2.167838 g / cm^3
# Si number density = 21.727838 Si / 1000 Ang^3
#
#
#
# Elastic Constant Matrix: (Units=GPa)
#
#
# Indices 1 2 3 4 5 6 
#
# 1 67.4059 20.7892 -17.3300 0.0000 15.1204 0.0000
# 2 20.7892 82.5677 -6.7195 0.0000 -11.1889 0.0000
# 3 -17.3300 -6.7195 26.3520 0.0000 1.1380 0.0000
# 4 0.0000 0.0000 0.0000 25.8258 0.0000 1.4967
# 5 15.1204 -11.1889 1.1380 0.0000 29.9749 0.0000
# 6 0.0000 0.0000 0.0000 1.4967 0.0000 37.9072
#
#
#
# Elastic Compliance Matrix: (Units=1/GPa)
#
#
# Indices 1 2 3 4 5 6 
#
# 1 0.024264 -0.006990 0.014840 0.000000 -0.015412 0.000000
# 2 -0.006990 0.015020 -0.001163 0.000000 0.009177 0.000000
# 3 0.014840 -0.001163 0.047831 0.000000 -0.009736 0.000000
# 4 0.000000 0.000000 0.000000 0.038810 0.000000 -0.001532
# 5 -0.015412 0.009177 -0.009736 0.000000 0.044931 0.000000
# 6 0.000000 0.000000 0.000000 -0.001532 0.000000 0.026441
#
#
# Mechanical properties :
#
#
# Convention : Reuss Voigt Hill
#
# Bulk Modulus (GPa) = 9.95139 18.86722 14.40930
# Shear Modulus (GPa) = 22.99703 30.71397 26.85550
#
# Velocity S-wave (km/s) = 3.25686 3.76384 3.51949
# Velocity P-wave (km/s) = 4.32814 5.25270 4.81267
#
# Compressibility (1/GPa) = 0.10048850
#
# Stress axis : x y z
#
# Youngs Moduli (GPa) = 41.21333 66.57711 20.90694
#
# Poissons Ratio (x) = 0.46538 -0.31026
# Poissons Ratio (y) = 0.28809 0.02432
# Poissons Ratio (z) = -0.61161 0.07745
#
# Static dielectric constant tensor:
#      x y z
#    x 1.785010 0.000000 0.036820 
#    y 0.000000 1.781760 0.000000 
#    z 0.036820 0.000000 1.892180 
# 
# From -- ./inp_files/20015.got.cif
#   From: 2010.05.17/outbox.cif.g08.bks.cpg/sg9_11_cif.got.tgz:20015.got - 2010.06.03 20:04:27.
