data_PCOD9137154
_publ_section_title
;
Structure prediction by ZEFSAII (Michael W. Deem and Ramdas Pophale) SiO2 
 PCOD9137154
Probable space group: C C
;
_chemical_formula_sum "Si O2"
_cell_formula_units_Z 28
_cell_length_a 5.550218
_cell_length_b 19.086352
_cell_length_c 14.608582
_cell_angle_alpha 90.000000
_cell_angle_beta 50.206034
_cell_angle_gamma 90.000000
_cell_volume 1189.051473
_symmetry_space_group_name_H-M "C C"
_symmetry_group_IT_number 9
_symmetry_cell_setting 'monoclinic'
loop_
_space_group_symop_operation_xyz
x,y,z
x,-y,1/2+z
1/2+x,1/2+y,z
1/2+x,1/2-y,1/2+z
loop_
_atom_site_type_symbol
_atom_site_label
_atom_site_fract_x
_atom_site_fract_y
_atom_site_fract_z
Si Si1 0.719330 0.524919 0.965250
Si Si2 0.211441 0.719405 0.420775
Si Si3 0.692667 0.640147 0.837097
Si Si4 0.302961 0.312640 0.089129
Si Si5 0.621290 0.064054 0.022387
Si Si6 0.411744 0.117927 0.371926
Si Si7 0.925417 0.304519 0.689538
O O1 0.797457 0.601144 0.904750
O O2 0.900327 0.465048 0.864515
O O3 0.344473 0.521961 0.039094
O O4 0.852758 0.522697 0.034860
O O5 0.077204 0.782637 0.392483
O O6 0.186028 0.736338 0.533967
O O7 0.571113 0.713533 0.303558
O O8 0.076558 0.644912 0.423444
O O9 0.995363 0.648863 0.701131
O O10 0.390402 0.593162 0.885806
O O11 0.492719 0.268117 0.119744
O O12 0.550463 0.362223 0.978968
O O13 0.474055 0.131306 0.108196
O O14 0.554812 0.162766 0.253268
#
# Coordination Sequence:
#
# PCOD9137154 Si02
#       7
#     4   4   4   4   4   4   4
#     4  10  25  44  68 101 140 183 231 278 353 418
#     4  10  22  39  70 102 137 172 236 290 348 406
#     4   9  22  41  67  98 136 181 230 282 352 411
#     4  10  22  42  67 103 131 179 229 291 345 411
#     4  10  23  44  69  96 139 181 231 273 347 417
#     4  11  25  42  66 102 141 178 231 295 342 421
#     4  10  23  42  71  98 138 178 234 283 355 406
#
# _framework density 23.548179000000001
#
# number of rings (size 3 to 8) (size 9 to 14) (size 15 to 20)
#    0.857    1.143    0.000    1.714    6.000    8.000 
#    0.000    0.000    0.000    0.000    0.000    0.000 
#    0.000    0.000    0.000    0.000    0.000    0.000 
#
# Total GULP energy -77958.120074 kJ/mol
# GULP energy per Si atom -5568.437148 kJ/mol
# Density = 2.349458 g / cm^3
# Si number density = 23.548179 Si / 1000 Ang^3
#
#
#
# Elastic Constant Matrix: (Units=GPa)
#
#
# Indices 1 2 3 4 5 6 
#
# 1 95.9527 3.5787 4.8061 0.0000 13.5236 0.0000
# 2 3.5787 66.4139 0.2827 0.0000 11.1175 0.0000
# 3 4.8061 0.2827 76.2019 0.0000 3.5229 0.0000
# 4 0.0000 0.0000 0.0000 17.8931 0.0000 2.0167
# 5 13.5236 11.1175 3.5229 0.0000 12.9973 0.0000
# 6 0.0000 0.0000 0.0000 2.0167 0.0000 15.6681
#
#
#
# Elastic Compliance Matrix: (Units=1/GPa)
#
#
# Indices 1 2 3 4 5 6 
#
# 1 0.012384 0.001733 -0.000125 0.000000 -0.014333 0.000000
# 2 0.001733 0.017846 0.000621 0.000000 -0.017236 0.000000
# 3 -0.000125 0.000621 0.013314 0.000000 -0.004010 0.000000
# 4 0.000000 0.000000 0.000000 0.056710 0.000000 -0.007300
# 5 -0.014333 -0.017236 -0.004010 0.000000 0.107683 0.000000
# 6 0.000000 0.000000 0.000000 -0.007300 0.000000 0.064763
#
#
# Mechanical properties :
#
#
# Convention : Reuss Voigt Hill
#
# Bulk Modulus (GPa) = 20.83237 28.43373 24.63305
# Shear Modulus (GPa) = 17.59056 24.63843 21.11450
#
# Velocity S-wave (km/s) = 2.73610 3.23816 2.99766
# Velocity P-wave (km/s) = 4.34138 5.10704 4.73970
#
# Compressibility (1/GPa) = 0.04800222
#
# Stress axis : x y z
#
# Youngs Moduli (GPa) = 80.75219 56.03375 75.10886
#
# Poissons Ratio (x) = -0.09708 0.00938
# Poissons Ratio (y) = -0.13991 -0.04667
# Poissons Ratio (z) = 0.01008 -0.03482
#
# Static dielectric constant tensor:
#      x y z
#    x 1.973090 0.000000 0.019510 
#    y 0.000000 1.895730 0.000000 
#    z 0.019510 0.000000 1.891180 
# 
# From -- ./inp_files/13182.got.cif
#   From: 2010.05.17/outbox.cif.g08.bks.cpg/sg9_7_cif.got.tgz:13182.got - 2010.06.03 20:04:27.
