data_PCOD9137612
_publ_section_title
;
Structure prediction by ZEFSAII (Michael W. Deem and Ramdas Pophale) SiO2 
 PCOD9137612
Probable space group: C C
;
_chemical_formula_sum "Si O2"
_cell_formula_units_Z 32
_cell_length_a 12.066793
_cell_length_b 7.444688
_cell_length_c 30.883218
_cell_angle_alpha 90.000000
_cell_angle_beta 151.206032
_cell_angle_gamma 90.000000
_cell_volume 1336.296309
_symmetry_space_group_name_H-M "C C"
_symmetry_group_IT_number 9
_symmetry_cell_setting 'monoclinic'
loop_
_space_group_symop_operation_xyz
x,y,z
x,-y,1/2+z
1/2+x,1/2+y,z
1/2+x,1/2-y,1/2+z
loop_
_atom_site_type_symbol
_atom_site_label
_atom_site_fract_x
_atom_site_fract_y
_atom_site_fract_z
Si Si1 0.951930 0.873919 0.591350
Si Si2 0.755578 0.415187 0.776717
Si Si3 0.400901 0.949786 0.577711
Si Si4 0.354344 0.707955 0.191770
Si Si5 0.073211 0.403832 0.519519
Si Si6 0.089317 0.183390 0.044823
Si Si7 0.577948 0.817137 0.348036
Si Si8 0.096303 0.910350 0.387803
O O1 0.940552 0.660596 0.592062
O O2 0.692213 0.933022 0.514000
O O3 0.103294 0.949310 0.681873
O O4 0.058485 0.907004 0.581085
O O5 0.574946 0.416071 0.754292
O O6 0.954931 0.560453 0.841446
O O7 0.879888 0.221553 0.814942
O O8 0.643380 0.863638 0.648122
O O9 0.300909 0.876905 0.588310
O O10 0.214665 0.913112 0.475840
O O11 0.227863 0.729576 0.101980
O O12 0.474739 0.848534 0.264918
O O13 0.091586 0.598848 0.549151
O O14 0.809451 0.344506 0.430418
O O15 0.848282 0.145002 0.938748
O O16 0.545311 0.610573 0.352800
#
# Coordination Sequence:
#
# PCOD9137612 Si02
#       8
#     4   4   4   4   4   4   4   4
#     4  11  23  44  66 105 135 184 238 277 355 420
#     4  11  26  44  71 106 141 183 239 287 359 418
#     4  11  23  44  72  96 143 188 233 287 348 413
#     4  10  22  43  66 102 141 175 233 293 336 413
#     4   9  22  43  69  98 142 178 227 294 344 409
#     4  11  24  45  70 102 138 184 236 284 347 424
#     4  11  24  44  71 103 142 185 229 290 359 408
#     4  10  22  47  69 104 144 181 233 298 342 417
#
# _framework density 23.946781999999999
#
# number of rings (size 3 to 8) (size 9 to 14) (size 15 to 20)
#    0.000    1.500    3.750    1.500    5.250    5.000 
#    0.000    5.000    0.000    0.000    0.000    0.000 
#    0.000    0.000    0.000    0.000    0.000    0.000 
#
# Total GULP energy -89391.028115 kJ/mol
# GULP energy per Si atom -5586.939257 kJ/mol
# Density = 2.389228 g / cm^3
# Si number density = 23.946782 Si / 1000 Ang^3
#
#
#
# Elastic Constant Matrix: (Units=GPa)
#
#
# Indices 1 2 3 4 5 6 
#
# 1 203.2411 19.5593 37.9812 0.0005 22.1145 -0.0002
# 2 19.5593 49.9065 0.2393 0.0011 11.1331 -0.0002
# 3 37.9812 0.2393 56.3815 0.0012 11.1435 -0.0004
# 4 0.0005 0.0011 0.0012 17.6048 -0.0005 6.9028
# 5 22.1145 11.1331 11.1435 -0.0005 41.6568 0.0003
# 6 -0.0002 -0.0002 -0.0004 6.9028 0.0003 31.8356
#
#
#
# Elastic Compliance Matrix: (Units=1/GPa)
#
#
# Indices 1 2 3 4 5 6 
#
# 1 0.005979 -0.001954 -0.003691 0.000000 -0.001665 0.000000
# 2 -0.001954 0.022011 0.002302 -0.000002 -0.005461 0.000001
# 3 -0.003691 0.002302 0.021061 -0.000002 -0.004290 0.000001
# 4 0.000000 -0.000002 -0.000002 0.062080 0.000002 -0.013461
# 5 -0.001665 -0.005461 -0.004290 0.000002 0.027496 -0.000001
# 6 0.000000 0.000001 0.000001 -0.013461 -0.000001 0.034330
#
#
# Mechanical properties :
#
#
# Convention : Reuss Voigt Hill
#
# Bulk Modulus (GPa) = 23.60415 47.23207 35.41811
# Shear Modulus (GPa) = 25.80460 35.00273 30.40366
#
# Velocity S-wave (km/s) = 3.28621 3.82735 3.56706
# Velocity P-wave (km/s) = 4.92720 6.26882 5.63805
#
# Compressibility (1/GPa) = 0.04236544
#
# Stress axis : x y z
#
# Youngs Moduli (GPa) = 167.24799 45.43267 47.48213
#
# Poissons Ratio (x) = 0.08879 0.17523
# Poissons Ratio (y) = 0.32685 -0.10932
# Poissons Ratio (z) = 0.61723 -0.10460
#
# Static dielectric constant tensor:
#      x y z
#    x 1.955970 0.000000 -0.006580 
#    y 0.000000 1.932360 0.000000 
#    z -0.006580 0.000000 1.914900 
# 
# From -- ./inp_files/35320.got.cif
#   From: 2010.05.17/outbox.cif.g08.bks.cpg/sg9_18_cif.got.tgz:35320.got - 2010.06.03 20:04:27.
