data_PCOD9137888
_publ_section_title
;
Structure prediction by ZEFSAII (Michael W. Deem and Ramdas Pophale) SiO2 
 PCOD9137888
Probable space group: C C
;
_chemical_formula_sum "Si O2"
_cell_formula_units_Z 32
_cell_length_a 6.787229
_cell_length_b 24.220726
_cell_length_c 9.247556
_cell_angle_alpha 90.000000
_cell_angle_beta 70.254705
_cell_angle_gamma 90.000000
_cell_volume 1430.837399
_symmetry_space_group_name_H-M "C C"
_symmetry_group_IT_number 9
_symmetry_cell_setting 'monoclinic'
loop_
_space_group_symop_operation_xyz
x,y,z
x,-y,1/2+z
1/2+x,1/2+y,z
1/2+x,1/2-y,1/2+z
loop_
_atom_site_type_symbol
_atom_site_label
_atom_site_fract_x
_atom_site_fract_y
_atom_site_fract_z
Si Si1 0.733780 0.406514 0.515900
Si Si2 0.985780 0.354575 0.233312
Si Si3 0.048441 0.749868 0.892660
Si Si4 0.935102 0.681529 0.183328
Si Si5 0.888556 0.472178 0.890689
Si Si6 0.640122 0.033923 0.607971
Si Si7 0.681410 0.824674 0.909089
Si Si8 0.488297 0.425261 0.848112
O O1 0.763186 0.370262 0.362287
O O2 0.874956 0.369069 0.591158
O O3 0.806148 0.466657 0.447437
O O4 0.534781 0.420970 0.665610
O O5 0.125755 0.410602 0.207461
O O6 0.095305 0.306193 0.295238
O O7 0.992837 0.331389 0.069290
O O8 0.222645 0.794559 0.807809
O O9 0.818157 0.769824 0.897387
O O10 0.030428 0.730830 0.062291
O O11 0.094630 0.666963 0.270816
O O12 0.066178 0.483315 0.725240
O O13 0.710361 0.433307 0.870818
O O14 0.971405 0.453110 0.024280
O O15 0.848864 0.027419 0.461056
O O16 0.848920 0.871694 0.909950
#
# Coordination Sequence:
#
# PCOD9137888 Si02
#       8
#     4   4   4   4   4   4   4   4
#     4  10  22  45  68  96 136 180 228 283 347 412
#     4   9  22  42  64  94 139 176 225 287 339 403
#     4  11  22  44  66 101 142 180 232 287 344 415
#     4  11  25  42  71 101 141 187 229 287 346 414
#     4  11  23  44  67  97 137 182 224 297 344 409
#     4  10  24  40  68  97 137 178 231 284 344 418
#     4  11  24  42  70 101 135 187 231 288 348 411
#     4  11  24  41  68  97 135 178 230 281 348 406
#
# _framework density 22.364525
#
# number of rings (size 3 to 8) (size 9 to 14) (size 15 to 20)
#    0.000    1.500    3.750    0.000    7.000    0.000 
#    0.000    0.000   11.000    0.000    0.000    0.000 
#    0.000    0.000    0.000    0.000    0.000    0.000 
#
# Total GULP energy -89121.964774 kJ/mol
# GULP energy per Si atom -5570.122798 kJ/mol
# Density = 2.231362 g / cm^3
# Si number density = 22.364525 Si / 1000 Ang^3
#
#
#
# Elastic Constant Matrix: (Units=GPa)
#
#
# Indices 1 2 3 4 5 6 
#
# 1 44.0755 33.9047 26.3745 0.0000 11.1534 0.0000
# 2 33.9047 76.1256 24.0493 0.0000 7.1982 0.0000
# 3 26.3745 24.0493 134.1598 0.0000 -7.4391 0.0000
# 4 0.0000 0.0000 0.0000 34.0270 0.0000 -3.8293
# 5 11.1534 7.1982 -7.4391 0.0000 26.7444 0.0000
# 6 0.0000 0.0000 0.0000 -3.8293 0.0000 9.4412
#
#
#
# Elastic Compliance Matrix: (Units=1/GPa)
#
#
# Indices 1 2 3 4 5 6 
#
# 1 0.042141 -0.015312 -0.006384 0.000000 -0.015229 0.000000
# 2 -0.015312 0.020046 -0.000537 0.000000 0.000841 0.000000
# 3 -0.006384 -0.000537 0.009101 0.000000 0.005338 0.000000
# 4 0.000000 0.000000 0.000000 0.030794 0.000000 0.012490
# 5 -0.015229 0.000841 0.005338 0.000000 0.045001 0.000000
# 6 0.000000 0.000000 0.000000 0.012490 0.000000 0.110984
#
#
# Mechanical properties :
#
#
# Convention : Reuss Voigt Hill
#
# Bulk Modulus (GPa) = 37.28205 47.00199 42.14202
# Shear Modulus (GPa) = 16.05280 25.37802 20.71541
#
# Velocity S-wave (km/s) = 2.68205 3.37225 3.04676
# Velocity P-wave (km/s) = 5.12811 6.01870 5.59116
#
# Compressibility (1/GPa) = 0.02682256
#
# Stress axis : x y z
#
# Youngs Moduli (GPa) = 23.72998 49.88598 109.87735
#
# Poissons Ratio (x) = 0.76384 0.70147
# Poissons Ratio (y) = 0.36335 0.05896
# Poissons Ratio (z) = 0.15150 0.02677
#
# Static dielectric constant tensor:
#      x y z
#    x 1.830400 0.000000 -0.063920 
#    y 0.000000 1.906800 0.000000 
#    z -0.063920 0.000000 1.901810 
# 
# From -- ./inp_files/6026.got.cif
#   From: 2010.05.17/outbox.cif.g08.bks.cpg/sg9_4_cif.got.tgz:6026.got - 2010.06.03 20:04:27.
