data_PCOD9137167
_publ_section_title
;
Structure prediction by ZEFSAII (Michael W. Deem and Ramdas Pophale) SiO2 
 PCOD9137167
Probable space group: C C
;
_chemical_formula_sum "Si O2"
_cell_formula_units_Z 32
_cell_length_a 6.660689
_cell_length_b 30.042752
_cell_length_c 8.413804
_cell_angle_alpha 90.000000
_cell_angle_beta 129.000814
_cell_angle_gamma 90.000000
_cell_volume 1308.425073
_symmetry_space_group_name_H-M "C C"
_symmetry_group_IT_number 9
_symmetry_cell_setting 'monoclinic'
loop_
_space_group_symop_operation_xyz
x,y,z
x,-y,1/2+z
1/2+x,1/2+y,z
1/2+x,1/2-y,1/2+z
loop_
_atom_site_type_symbol
_atom_site_label
_atom_site_fract_x
_atom_site_fract_y
_atom_site_fract_z
Si Si1 0.027940 0.242547 0.827840
Si Si2 0.259218 0.318922 0.728340
Si Si3 0.295805 0.181816 0.749700
Si Si4 0.536265 0.471040 0.910636
Si Si5 0.073481 0.412222 0.710771
Si Si6 0.033577 0.934558 0.550162
Si Si7 0.961025 0.587831 0.782963
Si Si8 0.027982 0.241936 0.151461
O O1 0.200124 0.280574 0.825268
O O2 0.065412 0.196163 0.751661
O O3 0.820249 0.239792 0.881946
O O4 0.235524 0.239486 0.096973
O O5 0.241062 0.367018 0.798088
O O6 0.491177 0.304537 0.728046
O O7 0.028388 0.319341 0.488821
O O8 0.308482 0.133774 0.676921
O O9 0.354655 0.220425 0.654223
O O10 0.272007 0.451301 0.856594
O O11 0.524213 0.455082 0.722615
O O12 0.542884 0.523658 0.935676
O O13 0.793354 0.450519 0.117975
O O14 0.981454 0.419398 0.482724
O O15 0.804783 0.408726 0.671253
O O16 0.763005 0.909461 0.382975
#
# Coordination Sequence:
#
# PCOD9137167 Si02
#       8
#     4   4   4   4   4   4   4   4
#     4  11  22  37  61  90 122 177 218 271 330 383
#     4  10  22  40  61  90 134 170 225 274 327 399
#     4  10  22  40  60  93 131 172 226 271 330 399
#     4  11  24  44  69 104 134 172 223 278 342 415
#     4  10  24  43  67 101 136 180 221 283 337 403
#     4  11  24  44  72  99 136 178 220 276 351 409
#     4  10  24  43  67 101 138 178 221 284 334 406
#     4  11  22  37  61  88 125 175 218 273 327 386
#
# _framework density 24.456883999999999
#
# number of rings (size 3 to 8) (size 9 to 14) (size 15 to 20)
#    0.000    1.500    2.500    1.500    0.000   12.000 
#    0.000    0.000    0.000    0.000    0.000    0.000 
#    0.000    0.000    0.000    0.000    0.000    0.000 
#
# Total GULP energy -89339.400228 kJ/mol
# GULP energy per Si atom -5583.712514 kJ/mol
# Density = 2.440122 g / cm^3
# Si number density = 24.456884 Si / 1000 Ang^3
#
#
#
# Elastic Constant Matrix: (Units=GPa)
#
#
# Indices 1 2 3 4 5 6 
#
# 1 159.4219 48.2182 40.2281 0.0000 21.9347 0.0000
# 2 48.2182 98.9102 10.2518 0.0000 -3.6117 0.0000
# 3 40.2281 10.2518 124.1810 0.0000 15.7745 0.0000
# 4 0.0000 0.0000 0.0000 22.1453 0.0000 5.8133
# 5 21.9347 -3.6117 15.7745 0.0000 41.4290 0.0000
# 6 0.0000 0.0000 0.0000 5.8133 0.0000 26.9516
#
#
#
# Elastic Compliance Matrix: (Units=1/GPa)
#
#
# Indices 1 2 3 4 5 6 
#
# 1 0.008580 -0.004138 -0.001907 0.000000 -0.004177 0.000000
# 2 -0.004138 0.012257 -0.000090 0.000000 0.003293 0.000000
# 3 -0.001907 -0.000090 0.008985 0.000000 -0.002419 0.000000
# 4 0.000000 0.000000 0.000000 0.047867 0.000000 -0.010325
# 5 -0.004177 0.003293 -0.002419 0.000000 0.027558 0.000000
# 6 0.000000 0.000000 0.000000 -0.010325 0.000000 0.039331
#
#
# Mechanical properties :
#
#
# Convention : Reuss Voigt Hill
#
# Bulk Modulus (GPa) = 56.97103 64.43436 60.70270
# Shear Modulus (GPa) = 30.73188 37.02619 33.87904
#
# Velocity S-wave (km/s) = 3.54866 3.89516 3.72594
# Velocity P-wave (km/s) = 6.33528 6.82883 6.58668
#
# Compressibility (1/GPa) = 0.01755278
#
# Stress axis : x y z
#
# Youngs Moduli (GPa) = 116.54815 81.58721 111.29219
#
# Poissons Ratio (x) = 0.33758 0.21227
# Poissons Ratio (y) = 0.48223 0.01000
# Poissons Ratio (z) = 0.22229 0.00733
#
# Static dielectric constant tensor:
#      x y z
#    x 1.933280 0.000000 0.046100 
#    y 0.000000 1.932190 0.000000 
#    z 0.046100 0.000000 2.057030 
# 
# From -- ./inp_files/4544.got.cif
#   From: 2010.05.17/outbox.cif.g08.bks.cpg/sg9_3_cif.got.tgz:4544.got - 2010.06.03 20:04:27.
