data_PCOD9137391
_publ_section_title
;
Structure prediction by ZEFSAII (Michael W. Deem and Ramdas Pophale) SiO2 
 PCOD9137391
Probable space group: C C
;
_chemical_formula_sum "Si O2"
_cell_formula_units_Z 24
_cell_length_a 18.293067
_cell_length_b 5.364772
_cell_length_c 12.947698
_cell_angle_alpha 90.000000
_cell_angle_beta 42.877036
_cell_angle_gamma 90.000000
_cell_volume 864.593627
_symmetry_space_group_name_H-M "C C"
_symmetry_group_IT_number 9
_symmetry_cell_setting 'monoclinic'
loop_
_space_group_symop_operation_xyz
x,y,z
x,-y,1/2+z
1/2+x,1/2+y,z
1/2+x,1/2-y,1/2+z
loop_
_atom_site_type_symbol
_atom_site_label
_atom_site_fract_x
_atom_site_fract_y
_atom_site_fract_z
Si Si1 0.102820 0.356023 0.013260
Si Si2 0.839491 0.902050 0.810667
Si Si3 0.535048 0.787663 0.314004
Si Si4 0.408500 0.705976 0.002748
Si Si5 0.891241 0.399100 0.736407
Si Si6 0.717189 0.514199 0.242901
O O1 0.013301 0.556136 0.074842
O O2 0.059649 0.259142 0.167010
O O3 0.216711 0.471920 0.922731
O O4 0.134066 0.145053 0.898874
O O5 0.895047 0.838066 0.642548
O O6 0.846666 0.628563 0.850463
O O7 0.808210 0.375973 0.726557
O O8 0.451801 0.565707 0.426754
O O9 0.489084 0.066135 0.386352
O O10 0.647647 0.716770 0.254265
O O11 0.287676 0.811895 0.105523
O O12 0.392639 0.646610 0.798651
#
# Coordination Sequence:
#
# PCOD9137391 Si02
#       6
#     4   4   4   4   4   4
#     4  10  25  47  75 108 147 197 252 308 374 449
#     4  10  23  43  70 100 139 192 241 295 367 442
#     4  12  26  46  72 109 149 194 250 313 372 444
#     4  10  24  44  71 107 148 190 243 308 373 440
#     4  10  22  41  70 102 136 187 243 296 359 438
#     4  10  24  47  72 102 145 196 243 300 373 447
#
# _framework density 27.758707000000001
#
# number of rings (size 3 to 8) (size 9 to 14) (size 15 to 20)
#    0.000    2.000    0.000    4.000    0.000   18.667 
#    0.000    5.000    0.000    0.000    0.000    0.000 
#    0.000    0.000    0.000    0.000    0.000    0.000 
#
# Total GULP energy -67119.711280 kJ/mol
# GULP energy per Si atom -5593.309273 kJ/mol
# Density = 2.769553 g / cm^3
# Si number density = 27.758707 Si / 1000 Ang^3
#
#
#
# Elastic Constant Matrix: (Units=GPa)
#
#
# Indices 1 2 3 4 5 6 
#
# 1 117.1981 43.7284 28.5673 -0.0075 -24.0794 0.0011
# 2 43.7284 221.1917 67.9783 -0.0109 -16.5113 0.0029
# 3 28.5673 67.9783 154.2528 -0.0150 -11.8783 0.0102
# 4 -0.0075 -0.0109 -0.0150 60.7049 0.0117 -8.0086
# 5 -24.0794 -16.5113 -11.8783 0.0117 59.3976 -0.0036
# 6 0.0011 0.0029 0.0102 -8.0086 -0.0036 32.2280
#
#
#
# Elastic Compliance Matrix: (Units=1/GPa)
#
#
# Indices 1 2 3 4 5 6 
#
# 1 0.010011 -0.001425 -0.000959 0.000000 0.003470 0.000000
# 2 -0.001425 0.005492 -0.002116 0.000000 0.000526 0.000000
# 3 -0.000959 -0.002116 0.007635 0.000001 0.000550 -0.000002
# 4 0.000000 0.000000 0.000001 0.017031 -0.000003 0.004232
# 5 0.003470 0.000526 0.000550 -0.000003 0.018499 0.000001
# 6 0.000000 0.000000 -0.000002 0.004232 0.000001 0.032081
#
#
# Mechanical properties :
#
#
# Convention : Reuss Voigt Hill
#
# Bulk Modulus (GPa) = 70.72819 85.91007 78.31913
# Shear Modulus (GPa) = 47.86407 53.95735 50.91071
#
# Velocity S-wave (km/s) = 4.15696 4.41364 4.28722
# Velocity P-wave (km/s) = 6.96961 7.54915 7.26516
#
# Compressibility (1/GPa) = 0.01413863
#
# Stress axis : x y z
#
# Youngs Moduli (GPa) = 99.88878 182.07284 130.97169
#
# Poissons Ratio (x) = 0.25954 0.12555
# Poissons Ratio (y) = 0.14239 0.27713
# Poissons Ratio (z) = 0.09575 0.38526
#
# Static dielectric constant tensor:
#      x y z
#    x 2.368710 -0.000010 0.042300 
#    y -0.000010 2.327390 0.000020 
#    z 0.042300 0.000020 2.161830 
# 
# From -- ./inp_files/27100.got.cif
#   From: 2010.05.17/outbox.cif.g08.bks.cpg/sg9_14_cif.got.tgz:27100.got - 2010.06.03 20:04:27.
