data_PCOD9137996
_publ_section_title
;
Structure prediction by ZEFSAII (Michael W. Deem and Ramdas Pophale) SiO2 
 PCOD9137996
Probable space group: C C
;
_chemical_formula_sum "Si O2"
_cell_formula_units_Z 32
_cell_length_a 11.565578
_cell_length_b 10.826409
_cell_length_c 12.147873
_cell_angle_alpha 90.000000
_cell_angle_beta 103.118698
_cell_angle_gamma 90.000000
_cell_volume 1481.382637
_symmetry_space_group_name_H-M "C C"
_symmetry_group_IT_number 9
_symmetry_cell_setting 'monoclinic'
loop_
_space_group_symop_operation_xyz
x,y,z
x,-y,1/2+z
1/2+x,1/2+y,z
1/2+x,1/2-y,1/2+z
loop_
_atom_site_type_symbol
_atom_site_label
_atom_site_fract_x
_atom_site_fract_y
_atom_site_fract_z
Si Si1 0.983950 0.511727 0.734880
Si Si2 0.434135 0.597898 0.950260
Si Si3 0.854240 0.414622 0.517355
Si Si4 0.034094 0.232956 0.763743
Si Si5 0.152463 0.865564 0.649575
Si Si6 0.674603 0.801192 0.368487
Si Si7 0.991421 0.812206 0.996572
Si Si8 0.246355 0.085471 0.790192
O O1 0.961179 0.487573 0.599229
O O2 0.864329 0.582474 0.743318
O O3 0.993777 0.371908 0.781845
O O4 0.092981 0.584891 0.809054
O O5 0.475257 0.641730 0.838379
O O6 0.301390 0.648839 0.936715
O O7 0.529552 0.653280 0.058270
O O8 0.446398 0.449324 0.960895
O O9 0.761850 0.365987 0.587839
O O10 0.901122 0.300464 0.455138
O O11 0.778886 0.486492 0.410051
O O12 0.175292 0.209884 0.800300
O O13 0.003039 0.206680 0.630373
O O14 0.180587 0.776906 0.756922
O O15 0.154010 0.001746 0.702173
O O16 0.606513 0.724413 0.449259
#
# Coordination Sequence:
#
# PCOD9137996 Si02
#       8
#     4   4   4   4   4   4   4   4
#     4  10  25  42  68 105 138 179 241 292 356 427
#     4  12  26  46  74 101 149 187 236 307 358 432
#     4  10  22  46  71  96 138 190 235 292 356 438
#     4  11  24  47  70 101 140 193 237 288 366 428
#     4  11  25  45  70 106 136 187 242 291 363 435
#     4  12  27  45  68 114 145 181 242 302 362 434
#     4  11  25  48  70 105 142 188 241 297 361 427
#     4  11  20  43  73  94 134 191 236 283 352 433
#
# _framework density 21.601438999999999
#
# number of rings (size 3 to 8) (size 9 to 14) (size 15 to 20)
#    0.000    1.000    3.750    3.000    1.750    3.000 
#    9.000    0.000    0.000    0.000    0.000    0.000 
#    0.000    0.000    0.000    0.000    0.000    0.000 
#
# Total GULP energy -89259.867643 kJ/mol
# GULP energy per Si atom -5578.741728 kJ/mol
# Density = 2.155227 g / cm^3
# Si number density = 21.601439 Si / 1000 Ang^3
#
#
#
# Elastic Constant Matrix: (Units=GPa)
#
#
# Indices 1 2 3 4 5 6 
#
# 1 121.1785 23.0135 19.1785 0.0000 16.9079 0.0000
# 2 23.0135 61.3485 0.1794 0.0000 -3.4273 0.0000
# 3 19.1785 0.1794 80.5796 0.0000 6.7857 0.0000
# 4 0.0000 0.0000 0.0000 29.9422 0.0000 3.0843
# 5 16.9079 -3.4273 6.7857 0.0000 43.3705 0.0000
# 6 0.0000 0.0000 0.0000 3.0843 0.0000 32.9357
#
#
#
# Elastic Compliance Matrix: (Units=1/GPa)
#
#
# Indices 1 2 3 4 5 6 
#
# 1 0.009846 -0.003902 -0.002012 0.000000 -0.003832 0.000000
# 2 -0.003902 0.017921 0.000650 0.000000 0.002836 0.000000
# 3 -0.002012 0.000650 0.012988 0.000000 -0.001196 0.000000
# 4 0.000000 0.000000 0.000000 0.033723 0.000000 -0.003158
# 5 -0.003832 0.002836 -0.001196 0.000000 0.024962 0.000000
# 6 0.000000 0.000000 0.000000 -0.003158 0.000000 0.030658
#
#
# Mechanical properties :
#
#
# Convention : Reuss Voigt Hill
#
# Bulk Modulus (GPa) = 33.08272 38.64991 35.86632
# Shear Modulus (GPa) = 33.17799 35.96536 34.57167
#
# Velocity S-wave (km/s) = 3.92333 4.08481 4.00488
# Velocity P-wave (km/s) = 5.98929 6.33867 6.16645
#
# Compressibility (1/GPa) = 0.03022726
#
# Stress axis : x y z
#
# Youngs Moduli (GPa) = 101.55938 55.80187 76.99241
#
# Poissons Ratio (x) = 0.21773 0.15492
# Poissons Ratio (y) = 0.39627 -0.05004
# Poissons Ratio (z) = 0.20435 -0.03627
#
# Static dielectric constant tensor:
#      x y z
#    x 1.837400 0.000000 0.065880 
#    y 0.000000 1.845800 0.000000 
#    z 0.065880 0.000000 1.884220 
# 
# From -- ./inp_files/16157.got.cif
#   From: 2010.05.17/outbox.cif.g08.bks.cpg/sg9_9_cif.got.tgz:16157.got - 2010.06.03 20:04:27.
