data_PCOD9137337
_publ_section_title
;
Structure prediction by ZEFSAII (Michael W. Deem and Ramdas Pophale) SiO2 
 PCOD9137337
Probable space group: C C
;
_chemical_formula_sum "Si O2"
_cell_formula_units_Z 32
_cell_length_a 7.809755
_cell_length_b 29.869093
_cell_length_c 5.566624
_cell_angle_alpha 90.000000
_cell_angle_beta 99.415892
_cell_angle_gamma 90.000000
_cell_volume 1281.032743
_symmetry_space_group_name_H-M "C C"
_symmetry_group_IT_number 9
_symmetry_cell_setting 'monoclinic'
loop_
_space_group_symop_operation_xyz
x,y,z
x,-y,1/2+z
1/2+x,1/2+y,z
1/2+x,1/2-y,1/2+z
loop_
_atom_site_type_symbol
_atom_site_label
_atom_site_fract_x
_atom_site_fract_y
_atom_site_fract_z
Si Si1 0.114450 0.125534 0.090610
Si Si2 0.747904 0.979084 0.475891
Si Si3 0.315811 0.802948 0.938916
Si Si4 0.988311 0.760759 0.098340
Si Si5 0.729214 0.887444 0.706893
Si Si6 0.671534 0.476392 0.585854
Si Si7 0.035617 0.670239 0.876177
Si Si8 0.856292 0.149061 0.657164
O O1 0.212100 0.169189 0.211288
O O2 0.205831 0.077104 0.114639
O O3 0.936381 0.121792 0.203785
O O4 0.039947 0.134489 0.805487
O O5 0.691601 0.929693 0.535708
O O6 0.959569 0.979996 0.526979
O O7 0.690389 0.992817 0.197247
O O8 0.431112 0.763947 0.833931
O O9 0.177832 0.780517 0.089504
O O10 0.419105 0.839573 0.121213
O O11 0.868231 0.803806 0.019387
O O12 0.985696 0.720675 0.912657
O O13 0.559563 0.856422 0.627071
O O14 0.755622 0.889972 0.998312
O O15 0.730348 0.498079 0.344172
O O16 0.234582 0.663806 0.847128
#
# Coordination Sequence:
#
# PCOD9137337 Si02
#       8
#     4   4   4   4   4   4   4   4
#     4  10  24  40  66 103 136 187 230 298 356 423
#     4   9  19  33  61 100 140 180 231 294 358 428
#     4  12  28  45  70 101 140 187 244 292 355 427
#     4  12  27  44  68  98 136 190 233 295 352 418
#     4  10  22  41  66 100 139 184 232 293 357 419
#     4   9  19  35  64 100 141 179 232 296 362 430
#     4  11  27  43  69  95 136 186 232 293 346 426
#     4  11  24  43  66  97 142 181 236 287 356 421
#
# _framework density 24.979845999999998
#
# number of rings (size 3 to 8) (size 9 to 14) (size 15 to 20)
#    0.000    1.500    2.500    0.750   17.500    0.000 
#    0.000    0.000    0.000    1.500    0.000    0.000 
#    0.000    0.000    0.000    0.000    0.000    0.125 
#
# Total GULP energy -89158.789930 kJ/mol
# GULP energy per Si atom -5572.424371 kJ/mol
# Density = 2.492299 g / cm^3
# Si number density = 24.979846 Si / 1000 Ang^3
#
#
#
# Elastic Constant Matrix: (Units=GPa)
#
#
# Indices 1 2 3 4 5 6 
#
# 1 68.0235 26.2991 13.1284 0.0000 -10.2702 0.0000
# 2 26.2991 92.8502 47.7704 0.0000 1.8720 0.0000
# 3 13.1284 47.7704 111.3357 0.0000 12.4069 0.0000
# 4 0.0000 0.0000 0.0000 31.0430 0.0000 -13.7249
# 5 -10.2702 1.8720 12.4069 0.0000 32.5161 0.0000
# 6 0.0000 0.0000 0.0000 -13.7249 0.0000 16.0194
#
#
#
# Elastic Compliance Matrix: (Units=1/GPa)
#
#
# Indices 1 2 3 4 5 6 
#
# 1 0.017592 -0.004734 -0.000724 0.000000 0.006105 0.000000
# 2 -0.004734 0.015168 -0.005939 0.000000 -0.000102 0.000000
# 3 -0.000724 -0.005939 0.012118 0.000000 -0.004510 0.000000
# 4 0.000000 0.000000 0.000000 0.051856 0.000000 0.044429
# 5 0.006105 -0.000102 -0.004510 0.000000 0.034409 0.000000
# 6 0.000000 0.000000 0.000000 0.044429 0.000000 0.100489
#
#
# Mechanical properties :
#
#
# Convention : Reuss Voigt Hill
#
# Bulk Modulus (GPa) = 45.27649 49.62280 47.44965
# Shear Modulus (GPa) = 19.09946 28.24982 23.67464
#
# Velocity S-wave (km/s) = 2.76813 3.36654 3.08189
# Velocity P-wave (km/s) = 5.32741 5.91775 5.63032
#
# Compressibility (1/GPa) = 0.02208652
#
# Stress axis : x y z
#
# Youngs Moduli (GPa) = 56.84279 65.92746 82.52289
#
# Poissons Ratio (x) = 0.31208 0.05973
# Poissons Ratio (y) = 0.26907 0.49007
# Poissons Ratio (z) = 0.04114 0.39151
#
# Static dielectric constant tensor:
#      x y z
#    x 2.002240 0.000000 -0.096280 
#    y 0.000000 2.105100 0.000000 
#    z -0.096280 0.000000 2.263340 
# 
# From -- ./inp_files/1415.got.cif
#   From: 2010.05.17/outbox.cif.g08.bks.cpg/sg9_1_cif.got.tgz:1415.got - 2010.06.03 20:04:27.
