data_PCOD9137934
_publ_section_title
;
Structure prediction by ZEFSAII (Michael W. Deem and Ramdas Pophale) SiO2 
 PCOD9137934
Probable space group: C C
;
_chemical_formula_sum "Si O2"
_cell_formula_units_Z 32
_cell_length_a 5.344035
_cell_length_b 17.439375
_cell_length_c 13.740263
_cell_angle_alpha 90.000000
_cell_angle_beta 97.796725
_cell_angle_gamma 90.000000
_cell_volume 1268.708326
_symmetry_space_group_name_H-M "C C"
_symmetry_group_IT_number 9
_symmetry_cell_setting 'monoclinic'
loop_
_space_group_symop_operation_xyz
x,y,z
x,-y,1/2+z
1/2+x,1/2+y,z
1/2+x,1/2-y,1/2+z
loop_
_atom_site_type_symbol
_atom_site_label
_atom_site_fract_x
_atom_site_fract_y
_atom_site_fract_z
Si Si1 0.998280 0.196774 0.563780
Si Si2 0.640898 0.094447 0.780044
Si Si3 0.021982 0.476415 0.623780
Si Si4 0.814386 0.173259 0.165612
Si Si5 0.692254 0.439351 0.381059
Si Si6 0.494555 0.480173 0.043217
Si Si7 0.576816 0.292565 0.485778
Si Si8 0.150225 0.766127 0.847186
O O1 0.719958 0.230919 0.558511
O O2 0.159330 0.246895 0.648120
O O3 0.015780 0.107105 0.576923
O O4 0.051146 0.214670 0.451151
O O5 0.446137 0.046904 0.836893
O O6 0.582515 0.181523 0.803769
O O7 0.938888 0.081895 0.809555
O O8 0.575390 0.058720 0.674316
O O9 0.138230 0.400138 0.678278
O O10 0.211982 0.487422 0.541142
O O11 0.718656 0.472568 0.608486
O O12 0.895659 0.168029 0.055788
O O13 0.034555 0.179555 0.257985
O O14 0.599085 0.510699 0.439702
O O15 0.734134 0.363615 0.451042
O O16 0.445335 0.246638 0.390343
#
# Coordination Sequence:
#
# PCOD9137934 Si02
#       8
#     4   4   4   4   4   4   4   4
#     4  11  25  45  72 105 147 197 251 319 378 453
#     4  11  24  44  71 101 144 184 241 303 373 439
#     4  12  27  48  71 107 145 196 247 309 379 452
#     4  11  25  46  72 105 150 196 257 313 380 460
#     4  11  22  46  71  98 139 190 235 299 374 449
#     4  12  27  45  74 102 144 191 248 301 382 454
#     4  10  22  45  73 101 145 202 246 315 384 451
#     4  10  24  43  70 107 142 192 251 313 380 450
#
# _framework density 25.222501999999999
#
# number of rings (size 3 to 8) (size 9 to 14) (size 15 to 20)
#    0.000    1.000    2.500    3.000    8.750    1.000 
#    0.000    0.000    0.000    0.000    0.000    0.000 
#    0.000    0.000    0.000    0.000    0.000    0.000 
#
# Total GULP energy -89252.753376 kJ/mol
# GULP energy per Si atom -5578.297086 kJ/mol
# Density = 2.516509 g / cm^3
# Si number density = 25.222502 Si / 1000 Ang^3
#
#
#
# Elastic Constant Matrix: (Units=GPa)
#
#
# Indices 1 2 3 4 5 6 
#
# 1 77.9348 34.8254 33.5293 0.0000 -1.4170 0.0000
# 2 34.8254 67.9721 0.0400 0.0000 9.6185 0.0000
# 3 33.5293 0.0400 79.6399 0.0000 11.9568 0.0000
# 4 0.0000 0.0000 0.0000 38.8918 0.0000 4.6930
# 5 -1.4170 9.6185 11.9568 0.0000 34.1037 0.0000
# 6 0.0000 0.0000 0.0000 4.6930 0.0000 30.0088
#
#
#
# Elastic Compliance Matrix: (Units=1/GPa)
#
#
# Indices 1 2 3 4 5 6 
#
# 1 0.023916 -0.013490 -0.011382 0.000000 0.008789 0.000000
# 2 -0.013490 0.022968 0.007098 0.000000 -0.009527 0.000000
# 3 -0.011382 0.007098 0.018701 0.000000 -0.009031 0.000000
# 4 0.000000 0.000000 0.000000 0.026207 0.000000 -0.004098
# 5 0.008789 -0.009527 -0.009031 0.000000 0.035541 0.000000
# 6 0.000000 0.000000 0.000000 -0.004098 0.000000 0.033964
#
#
# Mechanical properties :
#
#
# Convention : Reuss Voigt Hill
#
# Bulk Modulus (GPa) = 33.29215 40.25958 36.77587
# Shear Modulus (GPa) = 24.17146 31.07767 27.62457
#
# Velocity S-wave (km/s) = 3.09905 3.51399 3.31302
# Velocity P-wave (km/s) = 5.10230 5.69742 5.40806
#
# Compressibility (1/GPa) = 0.03003711
#
# Stress axis : x y z
#
# Youngs Moduli (GPa) = 41.81339 43.53965 53.47411
#
# Poissons Ratio (x) = 0.58736 0.60862
# Poissons Ratio (y) = 0.56407 -0.37958
# Poissons Ratio (z) = 0.47590 -0.30906
#
# Static dielectric constant tensor:
#      x y z
#    x 2.112970 0.000000 0.012120 
#    y 0.000000 1.974220 0.000000 
#    z 0.012120 0.000000 2.070240 
# 
# From -- ./inp_files/22096.got.cif
#   From: 2010.05.17/outbox.cif.g08.bks.cpg/sg9_12_cif.got.tgz:22096.got - 2010.06.03 20:04:27.
