data_PCOD9137726
_publ_section_title
;
Structure prediction by ZEFSAII (Michael W. Deem and Ramdas Pophale) SiO2 
 PCOD9137726
Probable space group: C C
;
_chemical_formula_sum "Si O2"
_cell_formula_units_Z 32
_cell_length_a 26.526710
_cell_length_b 5.270363
_cell_length_c 11.532995
_cell_angle_alpha 90.000000
_cell_angle_beta 53.134425
_cell_angle_gamma 90.000000
_cell_volume 1289.972882
_symmetry_space_group_name_H-M "C C"
_symmetry_group_IT_number 9
_symmetry_cell_setting 'monoclinic'
loop_
_space_group_symop_operation_xyz
x,y,z
x,-y,1/2+z
1/2+x,1/2+y,z
1/2+x,1/2-y,1/2+z
loop_
_atom_site_type_symbol
_atom_site_label
_atom_site_fract_x
_atom_site_fract_y
_atom_site_fract_z
Si Si1 0.125000 0.545642 0.731160
Si Si2 0.904844 0.566282 0.707511
Si Si3 0.435129 0.421139 0.292821
Si Si4 0.182531 0.096761 0.974747
Si Si5 0.742136 0.138724 0.189695
Si Si6 0.069232 0.116893 0.483918
Si Si7 0.010383 0.257951 0.893051
Si Si8 0.293545 0.124891 0.198947
O O1 0.157784 0.787727 0.627148
O O2 0.186057 0.378051 0.674712
O O3 0.095834 0.624874 0.894943
O O4 0.061961 0.436356 0.755079
O O5 0.902757 0.341382 0.803470
O O6 0.854788 0.476361 0.680364
O O7 0.969614 0.590062 0.544338
O O8 0.901244 0.833395 0.783525
O O9 0.457770 0.402055 0.394515
O O10 0.502717 0.394377 0.137463
O O11 0.208972 0.330462 0.861269
O O12 0.121934 0.990153 0.994214
O O13 0.238891 0.899079 0.873427
O O14 0.776918 0.405915 0.129255
O O15 0.787553 0.895882 0.143784
O O16 0.056704 0.936695 0.391420
#
# Coordination Sequence:
#
# PCOD9137726 Si02
#       8
#     4   4   4   4   4   4   4   4
#     4  12  22  40  67 100 135 170 220 269 349 397
#     4  11  25  48  64  96 133 177 226 277 317 396
#     4  11  26  41  69  97 134 172 224 268 333 389
#     4  10  24  39  67  99 134 173 213 275 338 399
#     4  10  22  44  64 100 127 169 218 273 330 391
#     4  11  22  43  65 100 136 167 213 282 330 407
#     4  11  25  40  67  99 131 178 217 274 338 394
#     4  10  22  47  67  87 138 174 217 280 323 381
#
# _framework density 24.806723000000002
#
# number of rings (size 3 to 8) (size 9 to 14) (size 15 to 20)
#    0.750    0.500    3.750    1.500    7.000    1.000 
#    4.500    0.000    0.000    0.000    0.000    0.000 
#    0.000    0.000    0.000    0.000    0.000    0.000 
#
# Total GULP energy -89274.240679 kJ/mol
# GULP energy per Si atom -5579.640042 kJ/mol
# Density = 2.475026 g / cm^3
# Si number density = 24.806723 Si / 1000 Ang^3
#
#
#
# Elastic Constant Matrix: (Units=GPa)
#
#
# Indices 1 2 3 4 5 6 
#
# 1 54.9037 12.6677 -9.2376 0.0000 0.9111 0.0000
# 2 12.6677 121.5650 -2.0399 -0.0001 -0.5905 0.0000
# 3 -9.2376 -2.0399 47.4731 0.0000 -13.2716 0.0000
# 4 0.0000 -0.0001 0.0000 -9.8607 0.0000 -6.1244
# 5 0.9111 -0.5905 -13.2716 0.0000 18.8478 0.0000
# 6 0.0000 0.0000 0.0000 -6.1244 0.0000 8.9741
#
#
#
# Elastic Compliance Matrix: (Units=1/GPa)
#
#
# Indices 1 2 3 4 5 6 
#
# 1 0.019340 -0.001935 0.004236 0.000000 0.001987 0.000000
# 2 -0.001935 0.008432 0.000107 0.000000 0.000433 0.000000
# 3 0.004236 0.000107 0.027189 0.000000 0.018944 0.000000
# 4 0.000000 0.000000 0.000000 -0.071223 0.000000 -0.048606
# 5 0.001987 0.000433 0.018944 0.000000 0.066313 0.000000
# 6 0.000000 0.000000 0.000000 -0.048606 0.000000 0.078260
#
#
# Mechanical properties :
#
#
# Convention : Reuss Voigt Hill
#
# Bulk Modulus (GPa) = 16.72901 25.19133 20.96017
# Shear Modulus (GPa) = 34.86265 18.42901 26.64583
#
# Velocity S-wave (km/s) = 3.75289 2.72858 3.28096
# Velocity P-wave (km/s) = 5.05345 4.48375 4.77710
#
# Compressibility (1/GPa) = 0.05977642
#
# Stress axis : x y z
#
# Youngs Moduli (GPa) = 51.70701 118.60225 36.77920
#
# Poissons Ratio (x) = 0.22944 -0.15578
# Poissons Ratio (y) = 0.10003 -0.00393
# Poissons Ratio (z) = -0.21901 -0.01268
#
# Static dielectric constant tensor:
#      x y z
#    x 2.037930 0.000000 0.020470 
#    y 0.000000 2.096930 0.000000 
#    z 0.020470 0.000000 1.993770 
# 
# From -- ./inp_files/20664.got.cif
#   From: 2010.05.17/outbox.cif.g08.bks.cpg/sg9_11_cif.got.tgz:20664.got - 2010.06.03 20:04:27.
