data_PCOD9137292
_publ_section_title
;
Structure prediction by ZEFSAII (Michael W. Deem and Ramdas Pophale) SiO2 
 PCOD9137292
Probable space group: C C
;
_chemical_formula_sum "Si O2"
_cell_formula_units_Z 32
_cell_length_a 7.061017
_cell_length_b 7.551949
_cell_length_c 27.187938
_cell_angle_alpha 90.000000
_cell_angle_beta 115.840580
_cell_angle_gamma 90.000000
_cell_volume 1304.818338
_symmetry_space_group_name_H-M "C C"
_symmetry_group_IT_number 9
_symmetry_cell_setting 'monoclinic'
loop_
_space_group_symop_operation_xyz
x,y,z
x,-y,1/2+z
1/2+x,1/2+y,z
1/2+x,1/2-y,1/2+z
loop_
_atom_site_type_symbol
_atom_site_label
_atom_site_fract_x
_atom_site_fract_y
_atom_site_fract_z
Si Si1 0.172110 0.985559 0.250000
Si Si2 0.916770 0.993071 0.968541
Si Si3 0.488958 0.764469 0.169493
Si Si4 0.084414 0.909340 0.592209
Si Si5 0.101514 0.656224 0.781848
Si Si6 0.035446 0.969327 0.375472
Si Si7 0.527526 0.749761 0.652517
Si Si8 0.486937 0.829490 0.416461
O O1 0.408087 0.930152 0.288429
O O2 0.085152 0.128265 0.278924
O O3 0.048404 0.822220 0.211376
O O4 0.163795 0.115332 0.201828
O O5 0.665985 0.024131 0.939158
O O6 0.005168 0.087107 0.929399
O O7 0.977421 0.788395 0.965574
O O8 0.009097 0.073454 0.028242
O O9 0.496148 0.762076 0.111827
O O10 0.559850 0.900695 0.219723
O O11 0.262553 0.693003 0.162715
O O12 0.337328 0.884723 0.622655
O O13 0.997673 0.083054 0.611261
O O14 0.328772 0.596963 0.824473
O O15 0.044658 0.818884 0.882735
O O16 0.252779 0.895218 0.380523
#
# Coordination Sequence:
#
# PCOD9137292 Si02
#       8
#     4   4   4   4   4   4   4   4
#     4   8  17  35  63  90 127 166 205 260 308 382
#     4  10  27  43  67  96 127 171 212 270 318 385
#     4   8  20  37  63  91 132 160 215 251 321 368
#     4  11  24  39  66  91 131 164 218 256 325 371
#     4   9  16  38  64  92 128 166 214 255 324 368
#     4  10  23  40  70  93 131 166 217 266 318 384
#     4  10  22  41  60  97 121 175 203 269 307 391
#     4  10  25  43  67  92 129 164 218 261 329 371
#
# _framework density 24.524486
#
# number of rings (size 3 to 8) (size 9 to 14) (size 15 to 20)
#    1.500    1.000    0.000    0.750    5.250    2.000 
#    0.000    3.750    0.000    0.000    0.000    0.000 
#    0.000    0.000    0.000    0.000    0.000    0.000 
#
# Total GULP energy -89173.417210 kJ/mol
# GULP energy per Si atom -5573.338576 kJ/mol
# Density = 2.446867 g / cm^3
# Si number density = 24.524486 Si / 1000 Ang^3
#
#
#
# Elastic Constant Matrix: (Units=GPa)
#
#
# Indices 1 2 3 4 5 6 
#
# 1 83.0544 12.7958 22.1410 0.0000 -2.7946 0.0000
# 2 12.7958 60.7043 -5.2617 0.0000 -4.9210 0.0000
# 3 22.1410 -5.2617 86.4408 0.0000 -2.5799 0.0000
# 4 0.0000 0.0000 0.0000 22.1683 0.0000 5.6152
# 5 -2.7946 -4.9210 -2.5799 0.0000 29.8105 0.0000
# 6 0.0000 0.0000 0.0000 5.6152 0.0000 40.5719
#
#
#
# Elastic Compliance Matrix: (Units=1/GPa)
#
#
# Indices 1 2 3 4 5 6 
#
# 1 0.013506 -0.003127 -0.003637 0.000000 0.000435 0.000000
# 2 -0.003127 0.017526 0.001950 0.000000 0.002769 0.000000
# 3 -0.003637 0.001950 0.012651 0.000000 0.001076 0.000000
# 4 0.000000 0.000000 0.000000 0.046748 0.000000 -0.006470
# 5 0.000435 0.002769 0.001076 0.000000 0.034136 0.000000
# 6 0.000000 0.000000 0.000000 -0.006470 0.000000 0.025543
#
#
# Mechanical properties :
#
#
# Convention : Reuss Voigt Hill
#
# Bulk Modulus (GPa) = 29.36309 32.17221 30.76765
# Shear Modulus (GPa) = 29.22448 31.87845 30.55147
#
# Velocity S-wave (km/s) = 3.45577 3.60927 3.53335
# Velocity P-wave (km/s) = 5.28413 5.52413 5.40546
#
# Compressibility (1/GPa) = 0.03405636
#
# Stress axis : x y z
#
# Youngs Moduli (GPa) = 74.03997 57.05835 79.04521
#
# Poissons Ratio (x) = 0.17842 0.28747
# Poissons Ratio (y) = 0.23152 -0.15417
# Poissons Ratio (z) = 0.26927 -0.11129
#
# Static dielectric constant tensor:
#      x y z
#    x 1.952040 0.000000 -0.098290 
#    y 0.000000 2.063890 0.000000 
#    z -0.098290 0.000000 2.087590 
# 
# From -- ./inp_files/34792.got.cif
#   From: 2010.05.17/outbox.cif.g08.bks.cpg/sg9_18_cif.got.tgz:34792.got - 2010.06.03 20:04:27.
