data_PCOD9137164
_publ_section_title
;
Structure prediction by ZEFSAII (Michael W. Deem and Ramdas Pophale) SiO2 
 PCOD9137164
Probable space group: C C
;
_chemical_formula_sum "Si O2"
_cell_formula_units_Z 28
_cell_length_a 11.392444
_cell_length_b 9.193592
_cell_length_c 24.926450
_cell_angle_alpha 90.000000
_cell_angle_beta 31.434437
_cell_angle_gamma 90.000000
_cell_volume 1361.556462
_symmetry_space_group_name_H-M "C C"
_symmetry_group_IT_number 9
_symmetry_cell_setting 'monoclinic'
loop_
_space_group_symop_operation_xyz
x,y,z
x,-y,1/2+z
1/2+x,1/2+y,z
1/2+x,1/2-y,1/2+z
loop_
_atom_site_type_symbol
_atom_site_label
_atom_site_fract_x
_atom_site_fract_y
_atom_site_fract_z
Si Si1 0.013730 0.692732 0.927540
Si Si2 0.630628 0.871740 0.492240
Si Si3 0.511780 0.030339 0.148513
Si Si4 0.407790 0.402083 0.051829
Si Si5 0.628033 0.349275 0.262934
Si Si6 0.017928 0.112563 0.099067
Si Si7 0.476251 0.645253 0.699876
O O1 0.051826 0.581807 0.963347
O O2 0.206195 0.659457 0.810892
O O3 0.043807 0.848885 0.945924
O O4 0.761865 0.685174 0.005695
O O5 0.605949 0.979537 0.550944
O O6 0.459580 0.736837 0.569246
O O7 0.888169 0.819938 0.384602
O O8 0.553282 0.194849 0.151292
O O9 0.653102 0.926726 0.132723
O O10 0.254603 0.981468 0.243176
O O11 0.485744 0.541674 0.053272
O O12 0.573413 0.382509 0.221788
O O13 0.808630 0.218213 0.193251
O O14 0.026953 0.983976 0.139501
#
# Coordination Sequence:
#
# PCOD9137164 Si02
#       7
#     4   4   4   4   4   4   4
#     4   9  22  42  59  88 125 154 201 258 295 357
#     4   9  22  42  59  88 125 154 201 258 295 357
#     4  12  22  41  64  89 122 167 197 254 308 359
#     4  10  22  40  60  88 126 158 198 258 292 360
#     4  11  24  38  64  91 120 159 208 248 306 365
#     4  12  22  41  64  89 122 167 197 254 308 359
#     4  11  24  38  64  91 120 159 208 248 306 365
#
# _framework density 20.564700999999999
#
# number of rings (size 3 to 8) (size 9 to 14) (size 15 to 20)
#    0.857    0.571    4.286    0.857    4.000    0.000 
#    0.000    0.000    0.000    0.000    0.000    0.000 
#    0.000    0.000    0.000    0.000    0.000    0.000 
#
# Total GULP energy -77983.934430 kJ/mol
# GULP energy per Si atom -5570.281031 kJ/mol
# Density = 2.051789 g / cm^3
# Si number density = 20.564701 Si / 1000 Ang^3
#
#
#
# Elastic Constant Matrix: (Units=GPa)
#
#
# Indices 1 2 3 4 5 6 
#
# 1 103.8733 29.3955 35.1128 0.0001 -26.7924 0.0002
# 2 29.3955 50.8108 12.4980 0.0001 -10.0830 0.0000
# 3 35.1128 12.4980 73.8756 0.0005 -21.7647 0.0014
# 4 0.0001 0.0001 0.0005 18.3892 0.0005 -4.7692
# 5 -26.7924 -10.0830 -21.7647 0.0005 33.4786 0.0001
# 6 0.0002 0.0000 0.0014 -4.7692 0.0001 23.8277
#
#
#
# Elastic Compliance Matrix: (Units=1/GPa)
#
#
# Indices 1 2 3 4 5 6 
#
# 1 0.014477 -0.006003 -0.003692 0.000000 0.007378 0.000000
# 2 -0.006003 0.023684 -0.000578 0.000000 0.001953 0.000000
# 3 -0.003692 -0.000578 0.017894 -0.000001 0.008505 -0.000001
# 4 0.000000 0.000000 -0.000001 0.057357 -0.000002 0.011480
# 5 0.007378 0.001953 0.008505 -0.000002 0.041891 -0.000001
# 6 0.000000 0.000000 -0.000001 0.011480 -0.000001 0.044266
#
#
# Mechanical properties :
#
#
# Convention : Reuss Voigt Hill
#
# Bulk Modulus (GPa) = 28.16194 42.50805 35.33500
# Shear Modulus (GPa) = 21.55628 25.24266 23.39947
#
# Velocity S-wave (km/s) = 3.24113 3.50734 3.37686
# Velocity P-wave (km/s) = 5.26599 6.09238 5.69420
#
# Compressibility (1/GPa) = 0.03550891
#
# Stress axis : x y z
#
# Youngs Moduli (GPa) = 69.07606 42.22325 55.88375
#
# Poissons Ratio (x) = 0.25347 0.20630
# Poissons Ratio (y) = 0.41468 0.03230
# Poissons Ratio (z) = 0.25500 0.02441
#
# Static dielectric constant tensor:
#      x y z
#    x 1.752220 0.000000 0.006330 
#    y 0.000000 1.783520 0.000000 
#    z 0.006330 0.000000 1.707650 
# 
# From -- ./inp_files/15955.got.cif
#   From: 2010.05.17/outbox.cif.g08.bks.cpg/sg9_8_cif.got.tgz:15955.got - 2010.06.03 20:04:27.
