data_PCOD9137349
_publ_section_title
;
Structure prediction by ZEFSAII (Michael W. Deem and Ramdas Pophale) SiO2 
 PCOD9137349
Probable space group: C C
;
_chemical_formula_sum "Si O2"
_cell_formula_units_Z 28
_cell_length_a 7.968764
_cell_length_b 11.809251
_cell_length_c 18.467685
_cell_angle_alpha 90.000000
_cell_angle_beta 139.434150
_cell_angle_gamma 90.000000
_cell_volume 1130.196413
_symmetry_space_group_name_H-M "C C"
_symmetry_group_IT_number 9
_symmetry_cell_setting 'monoclinic'
loop_
_space_group_symop_operation_xyz
x,y,z
x,-y,1/2+z
1/2+x,1/2+y,z
1/2+x,1/2-y,1/2+z
loop_
_atom_site_type_symbol
_atom_site_label
_atom_site_fract_x
_atom_site_fract_y
_atom_site_fract_z
Si Si1 0.034250 0.538150 0.845030
Si Si2 0.738560 0.167537 0.038719
Si Si3 0.026043 0.613052 0.119575
Si Si4 0.660119 0.861715 0.156662
Si Si5 0.880808 0.139157 0.430691
Si Si6 0.012573 0.148705 0.644409
Si Si7 0.462635 0.592936 0.885669
O O1 0.197976 0.565011 0.970661
O O2 0.090904 0.407425 0.843776
O O3 0.196630 0.616563 0.841633
O O4 0.737003 0.565623 0.744608
O O5 0.484414 0.242415 0.938738
O O6 0.711005 0.124058 0.110847
O O7 0.976296 0.253478 0.106404
O O8 0.037772 0.481546 0.144274
O O9 0.097233 0.721149 0.190600
O O10 0.728667 0.640495 0.002552
O O11 0.914805 0.862405 0.290039
O O12 0.751621 0.869346 0.103972
O O13 0.992982 0.137247 0.550557
O O14 0.988326 0.042111 0.410724
#
# Coordination Sequence:
#
# PCOD9137349 Si02
#       7
#     4   4   4   4   4   4   4
#     4  10  22  41  66  94 129 166 218 267 320 394
#     4  11  22  43  67  95 130 170 215 271 326 387
#     4  11  24  42  66  94 130 169 219 269 328 391
#     4  12  24  42  66  97 131 174 218 272 326 397
#     4   9  22  42  65  91 131 171 209 277 318 386
#     4  11  24  42  67  97 127 176 223 259 339 388
#     4  10  22  42  65  92 134 168 214 273 333 375
#
# _framework density 24.774455
#
# number of rings (size 3 to 8) (size 9 to 14) (size 15 to 20)
#    0.857    0.571    1.429    4.286    2.000    0.000 
#    0.000    8.571    0.000    0.000    0.000    0.000 
#    0.000    0.000    0.000    0.000    0.000    0.000 
#
# Total GULP energy -78066.547399 kJ/mol
# GULP energy per Si atom -5576.181957 kJ/mol
# Density = 2.471807 g / cm^3
# Si number density = 24.774455 Si / 1000 Ang^3
#
#
#
# Elastic Constant Matrix: (Units=GPa)
#
#
# Indices 1 2 3 4 5 6 
#
# 1 81.8116 11.4741 11.2041 0.0000 3.2143 0.0000
# 2 11.4741 92.0657 -5.0681 0.0000 6.0929 0.0000
# 3 11.2041 -5.0681 63.8440 0.0000 5.9359 0.0000
# 4 0.0000 0.0000 0.0000 33.8990 0.0000 1.1860
# 5 3.2143 6.0929 5.9359 0.0000 39.9441 0.0000
# 6 0.0000 0.0000 0.0000 1.1860 0.0000 36.0294
#
#
#
# Elastic Compliance Matrix: (Units=1/GPa)
#
#
# Indices 1 2 3 4 5 6 
#
# 1 0.012798 -0.001696 -0.002341 0.000000 -0.000423 0.000000
# 2 -0.001696 0.011266 0.001358 0.000000 -0.001784 0.000000
# 3 -0.002341 0.001358 0.016410 0.000000 -0.002457 0.000000
# 4 0.000000 0.000000 0.000000 0.029533 0.000000 -0.000972
# 5 -0.000423 -0.001784 -0.002457 0.000000 0.025706 0.000000
# 6 0.000000 0.000000 0.000000 -0.000972 0.000000 0.027787
#
#
# Mechanical properties :
#
#
# Convention : Reuss Voigt Hill
#
# Bulk Modulus (GPa) = 28.47722 30.32684 29.40203
# Shear Modulus (GPa) = 35.57059 36.64857 36.10958
#
# Velocity S-wave (km/s) = 3.79328 3.85032 3.82191
# Velocity P-wave (km/s) = 5.54119 5.65990 5.60086
#
# Compressibility (1/GPa) = 0.03511579
#
# Stress axis : x y z
#
# Youngs Moduli (GPa) = 78.13525 88.76297 60.93726
#
# Poissons Ratio (x) = 0.15053 0.14267
# Poissons Ratio (y) = 0.13251 -0.08274
# Poissons Ratio (z) = 0.18294 -0.12052
#
# Static dielectric constant tensor:
#      x y z
#    x 1.956020 0.000000 -0.023030 
#    y 0.000000 1.977090 0.000000 
#    z -0.023030 0.000000 1.981380 
# 
# From -- ./inp_files/22555.got.cif
#   From: 2010.05.17/outbox.cif.g08.bks.cpg/sg9_12_cif.got.tgz:22555.got - 2010.06.03 20:04:27.
