data_PCOD9137955
_publ_section_title
;
Structure prediction by ZEFSAII (Michael W. Deem and Ramdas Pophale) SiO2 
 PCOD9137955
Probable space group: C C
;
_chemical_formula_sum "Si O2"
_cell_formula_units_Z 32
_cell_length_a 24.495571
_cell_length_b 10.809005
_cell_length_c 11.593978
_cell_angle_alpha 90.000000
_cell_angle_beta 26.557578
_cell_angle_gamma 90.000000
_cell_volume 1372.484489
_symmetry_space_group_name_H-M "C C"
_symmetry_group_IT_number 9
_symmetry_cell_setting 'monoclinic'
loop_
_space_group_symop_operation_xyz
x,y,z
x,-y,1/2+z
1/2+x,1/2+y,z
1/2+x,1/2-y,1/2+z
loop_
_atom_site_type_symbol
_atom_site_label
_atom_site_fract_x
_atom_site_fract_y
_atom_site_fract_z
Si Si1 0.768640 0.704338 0.818580
Si Si2 0.202237 0.291139 0.346715
Si Si3 0.038059 0.642204 0.375687
Si Si4 0.877270 0.847448 0.198208
Si Si5 0.196648 0.574418 0.613656
Si Si6 0.092915 0.972606 0.105986
Si Si7 0.235443 0.191380 0.624337
Si Si8 0.559968 0.497399 0.420173
O O1 0.787314 0.731399 0.647913
O O2 0.896541 0.671770 0.636103
O O3 0.712032 0.823796 0.985758
O O4 0.680943 0.584897 0.976407
O O5 0.103440 0.343069 0.626595
O O6 0.334138 0.327416 0.150720
O O7 0.200667 0.354231 0.226484
O O8 0.169855 0.145791 0.416560
O O9 0.072010 0.503294 0.345908
O O10 0.111490 0.732339 0.325950
O O11 0.829553 0.727335 0.350704
O O12 0.802097 0.967463 0.392063
O O13 0.015367 0.866595 0.973441
O O14 0.026362 0.939434 0.354532
O O15 0.016657 0.016268 0.136903
O O16 0.196248 0.050228 0.682720
#
# Coordination Sequence:
#
# PCOD9137955 Si02
#       8
#     4   4   4   4   4   4   4   4
#     4  11  24  45  70  95 143 187 219 294 357 405
#     4  10  22  46  63  98 138 168 235 290 338 431
#     4  10  23  44  70  98 135 183 227 286 359 409
#     4  10  23  37  73  96 130 182 225 282 361 409
#     4  10  23  41  68 104 134 174 235 291 333 437
#     4  11  24  44  65  99 142 174 237 292 341 429
#     4   9  21  42  64 101 131 174 235 283 334 432
#     4  11  22  41  65  99 133 180 227 286 351 412
#
# _framework density 23.315380000000001
#
# number of rings (size 3 to 8) (size 9 to 14) (size 15 to 20)
#    0.000    2.000    2.500    1.500   10.500    0.000 
#   11.250    0.000    0.000    0.000    0.000    0.000 
#    0.000    0.000    0.000    0.000    0.000    0.000 
#
# Total GULP energy -89109.139643 kJ/mol
# GULP energy per Si atom -5569.321228 kJ/mol
# Density = 2.326231 g / cm^3
# Si number density = 23.315380 Si / 1000 Ang^3
#
#
#
# Elastic Constant Matrix: (Units=GPa)
#
#
# Indices 1 2 3 4 5 6 
#
# 1 134.6550 35.7865 18.8671 0.0000 12.4618 0.0000
# 2 35.7865 85.4223 21.2866 0.0000 -6.5460 0.0000
# 3 18.8671 21.2866 25.2653 0.0000 -7.9844 0.0000
# 4 0.0000 0.0000 0.0000 27.7942 0.0000 6.5978
# 5 12.4618 -6.5460 -7.9844 0.0000 41.3138 0.0000
# 6 0.0000 0.0000 0.0000 6.5978 0.0000 26.7489
#
#
#
# Elastic Compliance Matrix: (Units=1/GPa)
#
#
# Indices 1 2 3 4 5 6 
#
# 1 0.009434 -0.002768 -0.006124 0.000000 -0.004468 0.000000
# 2 -0.002768 0.015630 -0.010709 0.000000 0.001242 0.000000
# 3 -0.006124 -0.010709 0.056685 0.000000 0.011106 0.000000
# 4 0.000000 0.000000 0.000000 0.038216 0.000000 -0.009426
# 5 -0.004468 0.001242 0.011106 0.000000 0.027896 0.000000
# 6 0.000000 0.000000 0.000000 -0.009426 0.000000 0.039710
#
#
# Mechanical properties :
#
#
# Convention : Reuss Voigt Hill
#
# Bulk Modulus (GPa) = 23.50384 44.13590 33.81987
# Shear Modulus (GPa) = 20.75068 30.46488 25.60778
#
# Velocity S-wave (km/s) = 2.98652 3.61867 3.31769
# Velocity P-wave (km/s) = 4.68990 6.03579 5.40490
#
# Compressibility (1/GPa) = 0.04254624
#
# Stress axis : x y z
#
# Youngs Moduli (GPa) = 106.00312 63.97916 17.64120
#
# Poissons Ratio (x) = 0.17712 0.10804
# Poissons Ratio (y) = 0.29346 0.18892
# Poissons Ratio (z) = 0.64918 0.68515
#
# Static dielectric constant tensor:
#      x y z
#    x 1.930570 0.000000 -0.002750 
#    y 0.000000 1.926590 0.000000 
#    z -0.002750 0.000000 1.975470 
# 
# From -- ./inp_files/16464.got.cif
#   From: 2010.05.17/outbox.cif.g08.bks.cpg/sg9_9_cif.got.tgz:16464.got - 2010.06.03 20:04:27.
