data_PCOD9137649
_publ_section_title
;
Structure prediction by ZEFSAII (Michael W. Deem and Ramdas Pophale) SiO2 
 PCOD9137649
Probable space group: C C
;
_chemical_formula_sum "Si O2"
_cell_formula_units_Z 32
_cell_length_a 12.095598
_cell_length_b 8.700345
_cell_length_c 17.548453
_cell_angle_alpha 90.000000
_cell_angle_beta 122.069630
_cell_angle_gamma 90.000000
_cell_volume 1564.922719
_symmetry_space_group_name_H-M "C C"
_symmetry_group_IT_number 9
_symmetry_cell_setting 'monoclinic'
loop_
_space_group_symop_operation_xyz
x,y,z
x,-y,1/2+z
1/2+x,1/2+y,z
1/2+x,1/2-y,1/2+z
loop_
_atom_site_type_symbol
_atom_site_label
_atom_site_fract_x
_atom_site_fract_y
_atom_site_fract_z
Si Si1 0.813340 0.331471 0.651670
Si Si2 0.434700 0.441916 0.271369
Si Si3 0.408106 0.130768 0.018694
Si Si4 0.213929 0.927176 0.856118
Si Si5 0.354581 0.635991 0.375037
Si Si6 0.649992 0.923398 0.143485
Si Si7 0.350364 0.077503 0.770499
Si Si8 0.641645 0.090512 0.823882
O O1 0.915826 0.237907 0.744481
O O2 0.871831 0.313840 0.589555
O O3 0.677899 0.241202 0.614926
O O4 0.801338 0.508283 0.672589
O O5 0.566708 0.512971 0.287650
O O6 0.428596 0.500588 0.356535
O O7 0.294461 0.499412 0.186958
O O8 0.534022 0.022112 0.067861
O O9 0.429306 0.267431 0.966120
O O10 0.284590 0.032205 0.944134
O O11 0.208960 0.748596 0.873544
O O12 0.297951 0.953943 0.811439
O O13 0.311978 0.761340 0.295314
O O14 0.230758 0.557336 0.369010
O O15 0.626394 0.902225 0.225722
O O16 0.504905 0.083841 0.816093
#
# Coordination Sequence:
#
# PCOD9137649 Si02
#       8
#     4   4   4   4   4   4   4   4
#     4  10  22  43  68  95 138 178 223 288 344 403
#     4   9  21  44  67  95 135 186 234 262 334 436
#     4  11  24  40  67 107 141 170 225 297 352 387
#     4  11  23  43  68 102 136 175 235 276 343 412
#     4  10  23  40  66 102 134 174 232 277 345 401
#     4   9  21  43  67  94 139 173 224 275 343 402
#     4  11  21  37  74  94 127 187 230 267 339 417
#     4  11  21  44  69  95 138 181 233 276 326 428
#
# _framework density 20.448294000000001
#
# number of rings (size 3 to 8) (size 9 to 14) (size 15 to 20)
#    0.750    1.000    3.750    0.000    3.500    2.000 
#    4.500    7.500    0.000    0.000    0.000    0.000 
#    0.000    0.000    0.000    0.000    0.000    0.000 
#
# Total GULP energy -89091.861404 kJ/mol
# GULP energy per Si atom -5568.241338 kJ/mol
# Density = 2.040175 g / cm^3
# Si number density = 20.448294 Si / 1000 Ang^3
#
#
#
# Elastic Constant Matrix: (Units=GPa)
#
#
# Indices 1 2 3 4 5 6 
#
# 1 110.3048 36.0528 19.5033 0.0000 9.5449 0.0000
# 2 36.0528 60.7342 23.3393 0.0000 -1.6390 0.0000
# 3 19.5033 23.3393 43.1533 0.0000 -8.7587 0.0000
# 4 0.0000 0.0000 0.0000 11.9443 0.0000 -12.0001
# 5 9.5449 -1.6390 -8.7587 0.0000 21.2661 0.0000
# 6 0.0000 0.0000 0.0000 -12.0001 0.0000 26.4191
#
#
#
# Elastic Compliance Matrix: (Units=1/GPa)
#
#
# Indices 1 2 3 4 5 6 
#
# 1 0.012395 -0.006080 -0.003861 0.000000 -0.007622 0.000000
# 2 -0.006080 0.023983 -0.010142 0.000000 0.000400 0.000000
# 3 -0.003861 -0.010142 0.033387 0.000000 0.014702 0.000000
# 4 0.000000 0.000000 0.000000 0.153998 0.000000 0.069949
# 5 -0.007622 0.000400 0.014702 0.000000 0.056530 0.000000
# 6 0.000000 0.000000 0.000000 0.069949 0.000000 0.069624
#
#
# Mechanical properties :
#
#
# Convention : Reuss Voigt Hill
#
# Bulk Modulus (GPa) = 33.78380 41.33146 37.55763
# Shear Modulus (GPa) = 12.50160 20.94568 16.72364
#
# Velocity S-wave (km/s) = 2.47528 3.20398 2.86291
# Velocity P-wave (km/s) = 4.97261 5.82614 5.41621
#
# Compressibility (1/GPa) = 0.02959999
#
# Stress axis : x y z
#
# Youngs Moduli (GPa) = 80.67622 41.69700 29.95159
#
# Poissons Ratio (x) = 0.25352 0.11563
# Poissons Ratio (y) = 0.49052 0.30376
# Poissons Ratio (z) = 0.31147 0.42288
#
# Static dielectric constant tensor:
#      x y z
#    x 1.740140 0.000000 -0.009020 
#    y 0.000000 1.786880 0.000000 
#    z -0.009020 0.000000 1.747530 
# 
# From -- ./inp_files/29920.got.cif
#   From: 2010.05.17/outbox.cif.g08.bks.cpg/sg9_15_cif.got.tgz:29920.got - 2010.06.03 20:04:27.
