data_PCOD9137974
_publ_section_title
;
Structure prediction by ZEFSAII (Michael W. Deem and Ramdas Pophale) SiO2 
 PCOD9137974
Probable space group: C C
;
_chemical_formula_sum "Si O2"
_cell_formula_units_Z 28
_cell_length_a 23.730725
_cell_length_b 10.606693
_cell_length_c 9.666705
_cell_angle_alpha 90.000000
_cell_angle_beta 152.920772
_cell_angle_gamma 90.000000
_cell_volume 1107.625248
_symmetry_space_group_name_H-M "C C"
_symmetry_group_IT_number 9
_symmetry_cell_setting 'monoclinic'
loop_
_space_group_symop_operation_xyz
x,y,z
x,-y,1/2+z
1/2+x,1/2+y,z
1/2+x,1/2-y,1/2+z
loop_
_atom_site_type_symbol
_atom_site_label
_atom_site_fract_x
_atom_site_fract_y
_atom_site_fract_z
Si Si1 0.526250 0.106004 0.309240
Si Si2 0.769162 0.498575 0.815283
Si Si3 0.176844 0.484403 0.399129
Si Si4 0.131567 0.256054 0.489782
Si Si5 0.916635 0.719288 0.725289
Si Si6 0.900173 0.877645 0.440827
Si Si7 0.522800 0.371086 0.213521
O O1 0.605931 0.063818 0.612502
O O2 0.514890 0.254993 0.298103
O O3 0.593093 0.072502 0.312739
O O4 0.394725 0.037086 0.013472
O O5 0.709062 0.636092 0.714805
O O6 0.663683 0.420681 0.502809
O O7 0.827256 0.400563 0.055945
O O8 0.200441 0.362390 0.551519
O O9 0.293668 0.569816 0.611810
O O10 0.046853 0.309396 0.430029
O O11 0.019491 0.198413 0.148952
O O12 0.847226 0.797468 0.452240
O O13 0.953799 0.814033 0.928223
O O14 0.956234 0.005816 0.625210
#
# Coordination Sequence:
#
# PCOD9137974 Si02
#       7
#     4   4   4   4   4   4   4
#     4  12  27  44  72 109 143 193 241 298 362 435
#     4  11  23  48  68 105 144 188 241 301 363 434
#     4  12  25  47  70 106 147 187 243 299 360 436
#     4   9  23  47  67 102 138 190 232 299 356 424
#     4  10  22  46  68 105 144 183 248 289 365 427
#     4   9  23  44  67 104 142 187 238 299 356 430
#     4  11  25  42  74 107 140 198 237 303 360 432
#
# _framework density 25.279306999999999
#
# number of rings (size 3 to 8) (size 9 to 14) (size 15 to 20)
#    0.857    0.571    1.429    2.571    4.000    4.571 
#    5.143    0.000    0.000    0.000    0.000    0.000 
#    0.000    0.000    0.000    0.000    0.000    0.000 
#
# Total GULP energy -78131.443965 kJ/mol
# GULP energy per Si atom -5580.817426 kJ/mol
# Density = 2.522177 g / cm^3
# Si number density = 25.279307 Si / 1000 Ang^3
#
#
#
# Elastic Constant Matrix: (Units=GPa)
#
#
# Indices 1 2 3 4 5 6 
#
# 1 45.5092 0.5526 21.0096 0.0000 -12.1911 0.0000
# 2 0.5526 105.0444 15.7844 0.0000 3.6655 0.0000
# 3 21.0096 15.7844 97.6008 0.0000 13.9609 0.0000
# 4 0.0000 0.0000 0.0000 48.6632 0.0000 16.6709
# 5 -12.1911 3.6655 13.9609 0.0000 34.9593 0.0000
# 6 0.0000 0.0000 0.0000 16.6709 0.0000 31.4478
#
#
#
# Elastic Compliance Matrix: (Units=1/GPa)
#
#
# Indices 1 2 3 4 5 6 
#
# 1 0.029469 0.000632 -0.008385 0.000000 0.013559 0.000000
# 2 0.000632 0.009776 -0.001699 0.000000 -0.000126 0.000000
# 3 -0.008385 -0.001699 0.013489 0.000000 -0.008133 0.000000
# 4 0.000000 0.000000 0.000000 0.025109 0.000000 -0.013311
# 5 0.013559 -0.000126 -0.008133 0.000000 0.036594 0.000000
# 6 0.000000 0.000000 0.000000 -0.013311 0.000000 0.038855
#
#
# Mechanical properties :
#
#
# Convention : Reuss Voigt Hill
#
# Bulk Modulus (GPa) = 29.56001 35.87195 32.71598
# Shear Modulus (GPa) = 27.25185 37.06790 32.15987
#
# Velocity S-wave (km/s) = 3.28690 3.83343 3.57064
# Velocity P-wave (km/s) = 5.11113 5.81503 5.47441
#
# Compressibility (1/GPa) = 0.03382948
#
# Stress axis : x y z
#
# Youngs Moduli (GPa) = 33.93378 102.28958 74.13502
#
# Poissons Ratio (x) = -0.06463 0.62164
# Poissons Ratio (y) = -0.02144 0.12595
# Poissons Ratio (z) = 0.28454 0.17379
#
# Static dielectric constant tensor:
#      x y z
#    x 1.943520 0.000000 0.006400 
#    y 0.000000 2.042080 0.000000 
#    z 0.006400 0.000000 2.096070 
# 
# From -- ./inp_files/21511.got.cif
#   From: 2010.05.17/outbox.cif.g08.bks.cpg/sg9_11_cif.got.tgz:21511.got - 2010.06.03 20:04:27.
