data_PCOD9137397
_publ_section_title
;
Structure prediction by ZEFSAII (Michael W. Deem and Ramdas Pophale) SiO2 
 PCOD9137397
Probable space group: C C
;
_chemical_formula_sum "Si O2"
_cell_formula_units_Z 32
_cell_length_a 11.462179
_cell_length_b 13.621793
_cell_length_c 17.655765
_cell_angle_alpha 90.000000
_cell_angle_beta 30.238129
_cell_angle_gamma 90.000000
_cell_volume 1388.255501
_symmetry_space_group_name_H-M "C C"
_symmetry_group_IT_number 9
_symmetry_cell_setting 'monoclinic'
loop_
_space_group_symop_operation_xyz
x,y,z
x,-y,1/2+z
1/2+x,1/2+y,z
1/2+x,1/2-y,1/2+z
loop_
_atom_site_type_symbol
_atom_site_label
_atom_site_fract_x
_atom_site_fract_y
_atom_site_fract_z
Si Si1 0.589250 0.040328 0.627860
Si Si2 0.219072 0.344768 0.203505
Si Si3 0.585977 0.503990 0.569659
Si Si4 0.392950 0.537688 0.839066
Si Si5 0.713757 0.647078 0.774309
Si Si6 0.599118 0.202765 0.932742
Si Si7 0.472068 0.139522 0.282685
Si Si8 0.960132 0.196997 0.064990
O O1 0.615408 0.113475 0.684057
O O2 0.326566 0.049295 0.746487
O O3 0.789613 0.044028 0.452736
O O4 0.605778 0.929020 0.648557
O O5 0.383981 0.431927 0.142850
O O6 0.066782 0.314884 0.361297
O O7 0.377273 0.251871 0.094288
O O8 0.535019 0.500387 0.687227
O O9 0.814754 0.566186 0.421127
O O10 0.571763 0.395336 0.544054
O O11 0.554652 0.611326 0.795636
O O12 0.179050 0.601231 0.925799
O O13 0.949121 0.703823 0.618679
O O14 0.574916 0.702592 0.918220
O O15 0.810493 0.279710 0.832600
O O16 0.681710 0.183065 0.213397
#
# Coordination Sequence:
#
# PCOD9137397 Si02
#       8
#     4   4   4   4   4   4   4   4
#     4  12  25  45  64  95 143 179 216 278 343 407
#     4  10  22  42  66  95 129 170 220 269 339 389
#     4  10  23  42  69  99 129 174 223 276 334 401
#     4  11  24  44  69 103 130 173 234 276 334 405
#     4  12  28  43  68 103 137 180 227 280 348 399
#     4  10  22  41  70  99 124 168 227 278 321 402
#     4  11  21  42  72  92 134 174 220 277 334 396
#     4  12  25  45  68 100 138 176 227 282 337 405
#
# _framework density 23.050512000000001
#
# number of rings (size 3 to 8) (size 9 to 14) (size 15 to 20)
#    0.000    1.000    5.000    0.750    5.250    1.000 
#    0.000    0.000    0.000    0.000    0.000    0.000 
#    0.000    0.000    0.000    0.000    0.000    0.000 
#
# Total GULP energy -89445.641198 kJ/mol
# GULP energy per Si atom -5590.352575 kJ/mol
# Density = 2.299805 g / cm^3
# Si number density = 23.050512 Si / 1000 Ang^3
#
#
#
# Elastic Constant Matrix: (Units=GPa)
#
#
# Indices 1 2 3 4 5 6 
#
# 1 89.1812 14.2575 49.4149 -0.0025 32.8965 0.0008
# 2 14.2575 47.8732 14.9355 -0.0033 12.5603 0.0023
# 3 49.4149 14.9355 98.9003 -0.0114 34.7672 0.0052
# 4 -0.0025 -0.0033 -0.0114 39.1872 0.0040 -0.7859
# 5 32.8965 12.5603 34.7672 0.0040 41.7922 -0.0012
# 6 0.0008 0.0023 0.0052 -0.7859 -0.0012 14.5518
#
#
#
# Elastic Compliance Matrix: (Units=1/GPa)
#
#
# Indices 1 2 3 4 5 6 
#
# 1 0.017812 -0.001202 -0.005535 0.000000 -0.009055 0.000001
# 2 -0.001202 0.022907 -0.001090 0.000002 -0.005031 -0.000003
# 3 -0.005535 -0.001090 0.016104 0.000005 -0.008713 -0.000006
# 4 0.000000 0.000002 0.000005 0.025546 -0.000007 0.001380
# 5 -0.009055 -0.005031 -0.008713 -0.000007 0.039816 0.000007
# 6 0.000001 -0.000003 -0.000006 0.001380 0.000007 0.068794
#
#
# Mechanical properties :
#
#
# Convention : Reuss Voigt Hill
#
# Bulk Modulus (GPa) = 24.29032 43.68561 33.98796
# Shear Modulus (GPa) = 22.69045 29.59603 26.14324
#
# Velocity S-wave (km/s) = 3.14089 3.58713 3.37140
# Velocity P-wave (km/s) = 4.86973 6.01248 5.47103
#
# Compressibility (1/GPa) = 0.04116866
#
# Stress axis : x y z
#
# Youngs Moduli (GPa) = 56.14052 43.65547 62.09551
#
# Poissons Ratio (x) = 0.05249 0.34371
# Poissons Ratio (y) = 0.06750 0.06767
# Poissons Ratio (z) = 0.31075 0.04758
#
# Static dielectric constant tensor:
#      x y z
#    x 1.852020 0.000000 0.005970 
#    y 0.000000 1.856220 0.000000 
#    z 0.005970 0.000000 1.860890 
# 
# From -- ./inp_files/7386.got.cif
#   From: 2010.05.17/outbox.cif.g08.bks.cpg/sg9_4_cif.got.tgz:7386.got - 2010.06.03 20:04:27.
