data_PCOD9137421
_publ_section_title
;
Structure prediction by ZEFSAII (Michael W. Deem and Ramdas Pophale) SiO2 
 PCOD9137421
Probable space group: C C
;
_chemical_formula_sum "Si O2"
_cell_formula_units_Z 24
_cell_length_a 18.759222
_cell_length_b 4.655843
_cell_length_c 22.705292
_cell_angle_alpha 90.000000
_cell_angle_beta 156.233733
_cell_angle_gamma 90.000000
_cell_volume 799.194226
_symmetry_space_group_name_H-M "C C"
_symmetry_group_IT_number 9
_symmetry_cell_setting 'monoclinic'
loop_
_space_group_symop_operation_xyz
x,y,z
x,-y,1/2+z
1/2+x,1/2+y,z
1/2+x,1/2-y,1/2+z
loop_
_atom_site_type_symbol
_atom_site_label
_atom_site_fract_x
_atom_site_fract_y
_atom_site_fract_z
Si Si1 0.660170 0.035904 0.349670
Si Si2 0.286144 0.199123 0.730421
Si Si3 0.196210 0.025257 0.294379
Si Si4 0.008950 0.401727 0.603906
Si Si5 0.668186 0.751833 0.519890
Si Si6 0.457523 0.375602 0.283976
O O1 0.603121 0.217273 0.247791
O O2 0.910212 0.479071 0.463927
O O3 0.526925 0.099910 0.301753
O O4 0.679272 0.709282 0.346216
O O5 0.191699 0.087161 0.600169
O O6 0.334671 0.529022 0.747715
O O7 0.177921 0.190848 0.708456
O O8 0.483515 0.074010 0.884622
O O9 0.346355 0.686003 0.500372
O O10 0.096393 0.286101 0.184213
O O11 0.635522 0.537589 0.441542
O O12 0.835127 0.958646 0.643169
#
# Coordination Sequence:
#
# PCOD9137421 Si02
#       6
#     4   4   4   4   4   4
#     4  10  24  43  70 105 155 209 253 311 383 469
#     4   8  14  34  67 113 151 201 254 320 397 451
#     4  10  25  43  75 105 156 201 255 317 384 466
#     4  10  22  41  77 112 160 193 260 316 397 460
#     4   6  15  28  67 105 150 201 245 322 375 457
#     4   8  16  37  66 106 158 197 269 300 394 459
#
# _framework density 30.030249000000001
#
# number of rings (size 3 to 8) (size 9 to 14) (size 15 to 20)
#    3.000    0.000    0.000    1.000    2.333    0.000 
#    6.000    0.000    7.333    0.000    4.333    0.000 
#    0.000    0.000    0.000    0.000    0.000    0.000 
#
# Total GULP energy -66844.265163 kJ/mol
# GULP energy per Si atom -5570.355430 kJ/mol
# Density = 2.996190 g / cm^3
# Si number density = 30.030249 Si / 1000 Ang^3
#
#
#
# Elastic Constant Matrix: (Units=GPa)
#
#
# Indices 1 2 3 4 5 6 
#
# 1 214.4840 58.5980 33.0259 0.0007 1.1778 -0.0013
# 2 58.5980 241.1674 55.2875 -0.0009 -2.1999 0.0441
# 3 33.0259 55.2875 250.8862 0.0046 -31.1441 0.0031
# 4 0.0007 -0.0009 0.0046 47.5797 -0.0003 -0.6871
# 5 1.1778 -2.1999 -31.1441 -0.0003 44.0739 -0.0024
# 6 -0.0013 0.0441 0.0031 -0.6871 -0.0024 37.0285
#
#
#
# Elastic Compliance Matrix: (Units=1/GPa)
#
#
# Indices 1 2 3 4 5 6 
#
# 1 0.005046 -0.001120 -0.000483 0.000000 -0.000532 0.000002
# 2 -0.001120 0.004626 -0.000920 0.000000 -0.000390 -0.000005
# 3 -0.000483 -0.000920 0.004657 0.000000 0.003258 0.000001
# 4 0.000000 0.000000 0.000000 0.021023 0.000000 0.000390
# 5 -0.000532 -0.000390 0.003258 0.000000 0.024986 0.000002
# 6 0.000002 -0.000005 0.000001 0.000390 0.000002 0.027013
#
#
# Mechanical properties :
#
#
# Convention : Reuss Voigt Hill
#
# Bulk Modulus (GPa) = 107.74922 111.15115 109.45019
# Shear Modulus (GPa) = 52.36032 63.04482 57.70257
#
# Velocity S-wave (km/s) = 4.18016 4.58687 4.38823
# Velocity P-wave (km/s) = 7.69782 8.07130 7.88677
#
# Compressibility (1/GPa) = 0.00928081
#
# Stress axis : x y z
#
# Youngs Moduli (GPa) = 198.18803 216.16604 214.74364
#
# Poissons Ratio (x) = 0.24211 0.10382
# Poissons Ratio (y) = 0.22197 0.19764
# Poissons Ratio (z) = 0.09582 0.19895
#
# Static dielectric constant tensor:
#      x y z
#    x 2.288180 0.000000 -0.143690 
#    y 0.000000 2.443870 0.000010 
#    z -0.143690 0.000010 2.474390 
# 
# From -- ./inp_files/11904.got.cif
#   From: 2010.05.17/outbox.cif.g08.bks.cpg/sg9_6_cif.got.tgz:11904.got - 2010.06.03 20:04:27.
