data_PCOD9137756
_publ_section_title
;
Structure prediction by ZEFSAII (Michael W. Deem and Ramdas Pophale) SiO2 
 PCOD9137756
Probable space group: C C
;
_chemical_formula_sum "Si O2"
_cell_formula_units_Z 32
_cell_length_a 12.068937
_cell_length_b 14.465408
_cell_length_c 16.216403
_cell_angle_alpha 90.000000
_cell_angle_beta 152.293904
_cell_angle_gamma 90.000000
_cell_volume 1316.278053
_symmetry_space_group_name_H-M "C C"
_symmetry_group_IT_number 9
_symmetry_cell_setting 'monoclinic'
loop_
_space_group_symop_operation_xyz
x,y,z
x,-y,1/2+z
1/2+x,1/2+y,z
1/2+x,1/2-y,1/2+z
loop_
_atom_site_type_symbol
_atom_site_label
_atom_site_fract_x
_atom_site_fract_y
_atom_site_fract_z
Si Si1 0.009340 0.143615 0.395780
Si Si2 0.315127 0.426583 0.008882
Si Si3 0.824026 0.888566 0.416950
Si Si4 0.808601 0.569140 0.917798
Si Si5 0.585915 0.901152 0.022394
Si Si6 0.073195 0.927067 0.425185
Si Si7 0.892319 0.708162 0.532542
Si Si8 0.036602 0.752490 0.064364
O O1 0.138874 0.175071 0.398720
O O2 0.149284 0.186736 0.565282
O O3 0.749268 0.186943 0.236428
O O4 0.016235 0.034589 0.400047
O O5 0.550642 0.460424 0.213756
O O6 0.105874 0.413143 0.937786
O O7 0.388400 0.327314 0.019262
O O8 0.270315 0.508454 0.914231
O O9 0.889938 0.818512 0.533265
O O10 0.592969 0.845884 0.217756
O O11 0.045171 0.888314 0.498333
O O12 0.793708 0.578162 0.007593
O O13 0.992847 0.495298 0.003693
O O14 0.860304 0.671096 0.918198
O O15 0.431325 0.821978 0.963257
O O16 0.854751 0.882257 0.230561
#
# Coordination Sequence:
#
# PCOD9137756 Si02
#       8
#     4   4   4   4   4   4   4   4
#     4  12  23  43  69 102 139 186 238 288 347 418
#     4  11  26  45  68 106 144 185 242 290 356 426
#     4  11  26  47  70 105 141 185 241 293 358 423
#     4  11  23  42  70  99 142 187 229 297 355 417
#     4  10  23  42  69  99 139 185 230 290 357 413
#     4  10  22  44  67  96 141 181 234 288 351 423
#     4  11  26  45  72 104 142 189 233 299 355 420
#     4  12  25  42  69 103 140 188 237 289 349 420
#
# _framework density 24.310972
#
# number of rings (size 3 to 8) (size 9 to 14) (size 15 to 20)
#    0.000    1.000    5.000    0.750    5.250    1.000 
#    0.000    0.000    0.000    0.000    0.000    0.000 
#    0.000    0.000    0.000    0.000    0.000    0.000 
#
# Total GULP energy -89392.216664 kJ/mol
# GULP energy per Si atom -5587.013541 kJ/mol
# Density = 2.425564 g / cm^3
# Si number density = 24.310972 Si / 1000 Ang^3
#
#
#
# Elastic Constant Matrix: (Units=GPa)
#
#
# Indices 1 2 3 4 5 6 
#
# 1 131.7282 21.9957 4.3978 0.0027 28.3868 0.0012
# 2 21.9957 103.2061 3.5114 -0.0019 17.6824 -0.0003
# 3 4.3978 3.5114 56.2148 -0.0220 10.9297 -0.0043
# 4 0.0027 -0.0019 -0.0220 20.2294 -0.0004 -8.8021
# 5 28.3868 17.6824 10.9297 -0.0004 23.4215 0.0017
# 6 0.0012 -0.0003 -0.0043 -8.8021 0.0017 42.1627
#
#
#
# Elastic Compliance Matrix: (Units=1/GPa)
#
#
# Indices 1 2 3 4 5 6 
#
# 1 0.010439 0.000030 0.001810 0.000001 -0.013520 0.000001
# 2 0.000030 0.011184 0.001042 0.000002 -0.008966 0.000001
# 3 0.001810 0.001042 0.019974 0.000025 -0.012302 0.000008
# 4 0.000001 0.000002 0.000025 0.054372 -0.000014 0.011351
# 5 -0.013520 -0.008966 -0.012302 -0.000014 0.071591 -0.000007
# 6 0.000001 0.000001 0.000008 0.011351 -0.000007 0.026087
#
#
# Mechanical properties :
#
#
# Convention : Reuss Voigt Hill
#
# Bulk Modulus (GPa) = 21.11421 38.99544 30.05483
# Shear Modulus (GPa) = 24.54944 34.57898 29.56421
#
# Velocity S-wave (km/s) = 3.18120 3.77551 3.49102
# Velocity P-wave (km/s) = 4.71140 5.92293 5.35156
#
# Compressibility (1/GPa) = 0.04736146
#
# Stress axis : x y z
#
# Youngs Moduli (GPa) = 95.79081 89.41621 50.06523
#
# Poissons Ratio (x) = -0.00267 -0.09062
# Poissons Ratio (y) = -0.00286 -0.05218
# Poissons Ratio (z) = -0.17338 -0.09320
#
# Static dielectric constant tensor:
#      x y z
#    x 1.975700 0.000000 -0.070840 
#    y 0.000000 1.876840 0.000000 
#    z -0.070840 0.000000 2.079280 
# 
# From -- ./inp_files/7477.got.cif
#   From: 2010.05.17/outbox.cif.g08.bks.cpg/sg9_4_cif.got.tgz:7477.got - 2010.06.03 20:04:27.
