data_PCOD9137601
_publ_section_title
;
Structure prediction by ZEFSAII (Michael W. Deem and Ramdas Pophale) SiO2 
 PCOD9137601
Probable space group: C C
;
_chemical_formula_sum "Si O2"
_cell_formula_units_Z 32
_cell_length_a 12.841200
_cell_length_b 5.363190
_cell_length_c 20.097754
_cell_angle_alpha 90.000000
_cell_angle_beta 74.500705
_cell_angle_gamma 90.000000
_cell_volume 1333.792642
_symmetry_space_group_name_H-M "C C"
_symmetry_group_IT_number 9
_symmetry_cell_setting 'monoclinic'
loop_
_space_group_symop_operation_xyz
x,y,z
x,-y,1/2+z
1/2+x,1/2+y,z
1/2+x,1/2-y,1/2+z
loop_
_atom_site_type_symbol
_atom_site_label
_atom_site_fract_x
_atom_site_fract_y
_atom_site_fract_z
Si Si1 0.071520 0.124589 0.529190
Si Si2 0.955126 0.135977 0.162346
Si Si3 0.092803 0.722963 0.766516
Si Si4 0.887674 0.633979 0.127039
Si Si5 0.375198 0.319431 0.865885
Si Si6 0.990034 0.817646 0.425563
Si Si7 0.185847 0.759143 0.300933
Si Si8 0.806497 0.471299 0.504480
O O1 0.199301 0.132989 0.511270
O O2 0.007916 0.350462 0.573729
O O3 0.029578 0.903985 0.584514
O O4 0.024495 0.054483 0.465228
O O5 0.035568 0.190651 0.208610
O O6 0.877316 0.370471 0.164028
O O7 0.890336 0.873456 0.174643
O O8 0.989296 0.686814 0.832657
O O9 0.154046 0.459783 0.755023
O O10 0.163401 0.959078 0.779651
O O11 0.808640 0.653296 0.077186
O O12 0.414605 0.596802 0.876749
O O13 0.301150 0.286808 0.814618
O O14 0.315445 0.217557 0.941373
O O15 0.913054 0.641031 0.480861
O O16 0.101765 0.721634 0.376989
#
# Coordination Sequence:
#
# PCOD9137601 Si02
#       8
#     4   4   4   4   4   4   4   4
#     4  10  23  39  63  96 128 168 206 266 323 383
#     4  10  22  47  64  88 134 169 212 273 311 370
#     4  11  25  46  65  92 132 169 220 267 311 381
#     4  10  22  43  64  96 125 167 212 266 319 378
#     4  11  24  39  67  97 127 172 208 266 326 382
#     4  11  22  39  63  97 132 162 210 267 323 386
#     4  11  25  42  66  96 128 170 215 264 321 378
#     4  12  21  39  66  96 130 165 211 261 334 382
#
# _framework density 23.991737000000001
#
# number of rings (size 3 to 8) (size 9 to 14) (size 15 to 20)
#    0.750    0.500    5.000    0.750    1.750    2.000 
#    4.500    0.000    0.000    0.000    0.000    0.000 
#    0.000    0.000    0.000    0.000    0.000    0.000 
#
# Total GULP energy -89364.605915 kJ/mol
# GULP energy per Si atom -5585.287870 kJ/mol
# Density = 2.393713 g / cm^3
# Si number density = 23.991737 Si / 1000 Ang^3
#
#
#
# Elastic Constant Matrix: (Units=GPa)
#
#
# Indices 1 2 3 4 5 6 
#
# 1 80.7709 20.6408 13.0757 0.0000 4.7770 0.0000
# 2 20.6408 115.1007 7.0970 0.0002 16.4007 -0.0001
# 3 13.0757 7.0970 70.4494 0.0000 26.5002 0.0000
# 4 0.0000 0.0002 0.0000 30.3722 0.0000 7.3602
# 5 4.7770 16.4007 26.5002 0.0000 45.5120 0.0000
# 6 0.0000 -0.0001 0.0000 7.3602 0.0000 24.1338
#
#
#
# Elastic Compliance Matrix: (Units=1/GPa)
#
#
# Indices 1 2 3 4 5 6 
#
# 1 0.013351 -0.002372 -0.002604 0.000000 0.000969 0.000000
# 2 -0.002372 0.009589 0.000871 0.000000 -0.003714 0.000000
# 3 -0.002604 0.000871 0.018701 0.000000 -0.010930 0.000000
# 4 0.000000 0.000000 0.000000 0.035552 0.000000 -0.010843
# 5 0.000969 -0.003714 -0.010930 0.000000 0.029573 0.000000
# 6 0.000000 0.000000 0.000000 -0.010843 0.000000 0.044742
#
#
# Mechanical properties :
#
#
# Convention : Reuss Voigt Hill
#
# Bulk Modulus (GPa) = 29.91084 38.66088 34.28586
# Shear Modulus (GPa) = 29.26342 35.03744 32.15043
#
# Velocity S-wave (km/s) = 3.49625 3.82566 3.66466
# Velocity P-wave (km/s) = 5.36587 5.97189 5.67697
#
# Compressibility (1/GPa) = 0.03343270
#
# Stress axis : x y z
#
# Youngs Moduli (GPa) = 74.90095 104.28803 53.47170
#
# Poissons Ratio (x) = 0.24735 0.13922
# Poissons Ratio (y) = 0.17765 -0.04659
# Poissons Ratio (z) = 0.19502 -0.09086
#
# Static dielectric constant tensor:
#      x y z
#    x 1.879770 0.000000 -0.045570 
#    y 0.000000 1.940040 0.000000 
#    z -0.045570 0.000000 1.953000 
# 
# From -- ./inp_files/35118.got.cif
#   From: 2010.05.17/outbox.cif.g08.bks.cpg/sg9_18_cif.got.tgz:35118.got - 2010.06.03 20:04:27.
