data_PCOD9137829
_publ_section_title
;
Structure prediction by ZEFSAII (Michael W. Deem and Ramdas Pophale) SiO2 
 PCOD9137829
Probable space group: C C
;
_chemical_formula_sum "Si O2"
_cell_formula_units_Z 32
_cell_length_a 4.943997
_cell_length_b 31.379050
_cell_length_c 9.105502
_cell_angle_alpha 90.000000
_cell_angle_beta 88.507694
_cell_angle_gamma 90.000000
_cell_volume 1412.129610
_symmetry_space_group_name_H-M "C C"
_symmetry_group_IT_number 9
_symmetry_cell_setting 'monoclinic'
loop_
_space_group_symop_operation_xyz
x,y,z
x,-y,1/2+z
1/2+x,1/2+y,z
1/2+x,1/2-y,1/2+z
loop_
_atom_site_type_symbol
_atom_site_label
_atom_site_fract_x
_atom_site_fract_y
_atom_site_fract_z
Si Si1 0.689200 0.262947 0.257190
Si Si2 0.047965 0.443123 0.689317
Si Si3 0.463634 0.441673 0.437300
Si Si4 0.376937 0.131132 0.050161
Si Si5 0.511605 0.599413 0.632944
Si Si6 0.041111 0.033490 0.370911
Si Si7 0.021661 0.649060 0.728361
Si Si8 0.677836 0.274638 0.602756
O O1 0.858176 0.306433 0.220267
O O2 0.639846 0.261614 0.432566
O O3 0.409057 0.254409 0.176152
O O4 0.900931 0.228366 0.196188
O O5 0.026501 0.391638 0.683287
O O6 0.756153 0.458844 0.739810
O O7 0.186379 0.449214 0.529434
O O8 0.248762 0.464218 0.801158
O O9 0.643764 0.402665 0.500733
O O10 0.413597 0.430396 0.268320
O O11 0.602857 0.487756 0.438300
O O12 0.265076 0.176342 0.098447
O O13 0.557985 0.140516 0.902710
O O14 0.536743 0.571591 0.487591
O O15 0.808747 0.615205 0.669926
O O16 0.302284 0.639286 0.641781
#
# Coordination Sequence:
#
# PCOD9137829 Si02
#       8
#     4   4   4   4   4   4   4   4
#     4  11  24  46  70 106 137 181 232 293 349 423
#     4  12  25  46  65 100 133 181 227 286 342 402
#     4  11  25  46  73  94 132 195 238 274 336 425
#     4  10  24  45  74  98 133 189 235 271 338 439
#     4  11  23  43  66  97 130 184 227 281 339 410
#     4  12  28  42  65 105 143 168 231 300 348 383
#     4  10  22  44  72  93 133 182 236 264 338 435
#     4  11  25  46  73 105 141 180 236 287 356 425
#
# _framework density 22.660810999999999
#
# number of rings (size 3 to 8) (size 9 to 14) (size 15 to 20)
#    0.000    1.000    2.500    3.000    3.500    4.000 
#   13.500    0.000    0.000    0.000    0.000    0.000 
#    0.000    0.000    0.000    0.000    0.000    0.000 
#
# Total GULP energy -89392.718527 kJ/mol
# GULP energy per Si atom -5587.044908 kJ/mol
# Density = 2.260923 g / cm^3
# Si number density = 22.660811 Si / 1000 Ang^3
#
#
#
# Elastic Constant Matrix: (Units=GPa)
#
#
# Indices 1 2 3 4 5 6 
#
# 1 58.4379 -0.7318 10.7951 0.0000 -0.6349 0.0000
# 2 -0.7318 80.7878 29.7109 0.0000 2.1117 0.0000
# 3 10.7951 29.7109 72.4537 0.0000 0.5845 0.0000
# 4 0.0000 0.0000 0.0000 17.1060 0.0000 1.7316
# 5 -0.6349 2.1117 0.5845 0.0000 35.2003 0.0000
# 6 0.0000 0.0000 0.0000 1.7316 0.0000 24.9837
#
#
#
# Elastic Compliance Matrix: (Units=1/GPa)
#
#
# Indices 1 2 3 4 5 6 
#
# 1 0.017720 0.001324 -0.003186 0.000000 0.000293 0.000000
# 2 0.001324 0.014697 -0.006218 0.000000 -0.000755 0.000000
# 3 -0.003186 -0.006218 0.016826 0.000000 0.000036 0.000000
# 4 0.000000 0.000000 0.000000 0.058872 0.000000 -0.004080
# 5 0.000293 -0.000755 0.000036 0.000000 0.028459 0.000000
# 6 0.000000 0.000000 0.000000 -0.004080 0.000000 0.040309
#
#
# Mechanical properties :
#
#
# Convention : Reuss Voigt Hill
#
# Bulk Modulus (GPa) = 30.22535 32.35866 31.29200
# Shear Modulus (GPa) = 24.50149 26.91833 25.70991
#
# Velocity S-wave (km/s) = 3.29177 3.45030 3.37197
# Velocity P-wave (km/s) = 5.27397 5.49394 5.38508
#
# Compressibility (1/GPa) = 0.03308482
#
# Stress axis : x y z
#
# Youngs Moduli (GPa) = 56.43197 68.04330 59.43188
#
# Poissons Ratio (x) = -0.09012 0.18933
# Poissons Ratio (y) = -0.07474 0.36954
# Poissons Ratio (z) = 0.17978 0.42308
#
# Static dielectric constant tensor:
#      x y z
#    x 1.866610 0.000000 0.011020 
#    y 0.000000 1.881590 0.000000 
#    z 0.011020 0.000000 1.814590 
# 
# From -- ./inp_files/4372.got.cif
#   From: 2010.05.17/outbox.cif.g08.bks.cpg/sg9_3_cif.got.tgz:4372.got - 2010.06.03 20:04:27.
