data_PCOD9137450
_publ_section_title
;
Structure prediction by ZEFSAII (Michael W. Deem and Ramdas Pophale) SiO2 
 PCOD9137450
Probable space group: C C
;
_chemical_formula_sum "Si O2"
_cell_formula_units_Z 32
_cell_length_a 21.900458
_cell_length_b 9.841489
_cell_length_c 11.319740
_cell_angle_alpha 90.000000
_cell_angle_beta 145.108130
_cell_angle_gamma 90.000000
_cell_volume 1395.625451
_symmetry_space_group_name_H-M "C C"
_symmetry_group_IT_number 9
_symmetry_cell_setting 'monoclinic'
loop_
_space_group_symop_operation_xyz
x,y,z
x,-y,1/2+z
1/2+x,1/2+y,z
1/2+x,1/2-y,1/2+z
loop_
_atom_site_type_symbol
_atom_site_label
_atom_site_fract_x
_atom_site_fract_y
_atom_site_fract_z
Si Si1 0.042280 0.976479 0.453820
Si Si2 0.870882 0.477152 0.195126
Si Si3 0.700359 0.064823 0.233109
Si Si4 0.725384 0.653991 0.852146
Si Si5 0.943455 0.962639 0.045414
Si Si6 0.524990 0.110522 0.758523
Si Si7 0.060189 0.683751 0.565161
Si Si8 0.938659 0.339738 0.534299
O O1 0.077176 0.818252 0.515721
O O2 0.990814 0.014403 0.246042
O O3 0.137898 0.078857 0.634789
O O4 0.966994 0.981545 0.451779
O O5 0.885007 0.376568 0.325603
O O6 0.911723 0.389598 0.147410
O O7 0.958124 0.596994 0.357809
O O8 0.756200 0.549530 0.005458
O O9 0.701209 0.187403 0.329679
O O10 0.816955 0.046219 0.364405
O O11 0.657635 0.921281 0.210600
O O12 0.618110 0.115954 0.001880
O O13 0.839736 0.657165 0.967256
O O14 0.987591 0.808190 0.108907
O O15 0.539386 0.209783 0.671264
O O16 0.520602 0.958552 0.696169
#
# Coordination Sequence:
#
# PCOD9137450 Si02
#       8
#     4   4   4   4   4   4   4   4
#     4  12  28  45  63 101 141 176 222 291 339 396
#     4   9  19  41  67  97 124 175 226 274 336 408
#     4  10  22  44  67  93 130 181 224 271 343 411
#     4  10  23  40  67  94 131 172 222 277 338 405
#     4  11  27  45  66  96 143 180 221 283 348 393
#     4   9  19  35  70  96 120 169 231 275 323 406
#     4  10  22  42  65  95 134 168 231 279 332 409
#     4   9  20  44  69  94 129 177 229 278 333 412
#
# _framework density 22.928788000000001
#
# number of rings (size 3 to 8) (size 9 to 14) (size 15 to 20)
#    0.000    2.000    0.000    3.000   10.500    1.000 
#    6.750    0.000    0.000    0.000    0.000    0.000 
#    0.000    0.000    0.000    0.000    0.000    0.000 
#
# Total GULP energy -89294.354354 kJ/mol
# GULP energy per Si atom -5580.897147 kJ/mol
# Density = 2.287660 g / cm^3
# Si number density = 22.928788 Si / 1000 Ang^3
#
#
#
# Elastic Constant Matrix: (Units=GPa)
#
#
# Indices 1 2 3 4 5 6 
#
# 1 65.7631 19.1932 21.4949 0.0000 -20.7789 0.0000
# 2 19.1932 66.4103 15.9638 0.0000 -0.0313 0.0000
# 3 21.4949 15.9638 86.2183 0.0000 -8.0274 0.0000
# 4 0.0000 0.0000 0.0000 19.9150 0.0000 -0.0657
# 5 -20.7789 -0.0313 -8.0274 0.0000 33.0729 0.0000
# 6 0.0000 0.0000 0.0000 -0.0657 0.0000 31.2644
#
#
#
# Elastic Compliance Matrix: (Units=1/GPa)
#
#
# Indices 1 2 3 4 5 6 
#
# 1 0.022013 -0.005577 -0.003242 0.000000 0.013038 0.000000
# 2 -0.005577 0.017188 -0.002166 0.000000 -0.004013 0.000000
# 3 -0.003242 -0.002166 0.012910 0.000000 0.001095 0.000000
# 4 0.000000 0.000000 0.000000 0.050214 0.000000 0.000106
# 5 0.013038 -0.004013 0.001095 0.000000 0.038690 0.000000
# 6 0.000000 0.000000 0.000000 0.000106 0.000000 0.031985
#
#
# Mechanical properties :
#
#
# Convention : Reuss Voigt Hill
#
# Bulk Modulus (GPa) = 33.17551 36.85507 35.01529
# Shear Modulus (GPa) = 24.38849 27.63312 26.01081
#
# Velocity S-wave (km/s) = 3.26492 3.47532 3.37176
# Velocity P-wave (km/s) = 5.35848 5.67560 5.51932
#
# Compressibility (1/GPa) = 0.03014272
#
# Stress axis : x y z
#
# Youngs Moduli (GPa) = 45.42838 58.17901 77.46203
#
# Poissons Ratio (x) = 0.32444 0.25109
# Poissons Ratio (y) = 0.25333 0.16777
# Poissons Ratio (z) = 0.14726 0.12601
#
# Static dielectric constant tensor:
#      x y z
#    x 1.925010 0.000000 -0.044420 
#    y 0.000000 1.918720 0.000000 
#    z -0.044420 0.000000 1.860390 
# 
# From -- ./inp_files/20957.got.cif
#   From: 2010.05.17/outbox.cif.g08.bks.cpg/sg9_11_cif.got.tgz:20957.got - 2010.06.03 20:04:27.
