data_PCOD9137254
_publ_section_title
;
Structure prediction by ZEFSAII (Michael W. Deem and Ramdas Pophale) SiO2 
 PCOD9137254
Probable space group: C C
;
_chemical_formula_sum "Si O2"
_cell_formula_units_Z 32
_cell_length_a 9.340889
_cell_length_b 14.710754
_cell_length_c 11.739103
_cell_angle_alpha 90.000000
_cell_angle_beta 70.718054
_cell_angle_gamma 90.000000
_cell_volume 1522.601900
_symmetry_space_group_name_H-M "C C"
_symmetry_group_IT_number 9
_symmetry_cell_setting 'monoclinic'
loop_
_space_group_symop_operation_xyz
x,y,z
x,-y,1/2+z
1/2+x,1/2+y,z
1/2+x,1/2-y,1/2+z
loop_
_atom_site_type_symbol
_atom_site_label
_atom_site_fract_x
_atom_site_fract_y
_atom_site_fract_z
Si Si1 0.755510 0.407384 0.529020
Si Si2 0.555579 0.958018 0.345495
Si Si3 0.906384 0.950485 0.262368
Si Si4 0.947694 0.668311 0.681795
Si Si5 0.535484 0.639196 0.268051
Si Si6 0.614088 0.395126 0.005429
Si Si7 0.950727 0.659279 0.419767
Si Si8 0.116471 0.163461 0.844660
O O1 0.699863 0.381710 0.668717
O O2 0.689020 0.505140 0.507291
O O3 0.678750 0.340640 0.457117
O O4 0.934896 0.412375 0.463777
O O5 0.729136 0.936954 0.325766
O O6 0.519664 0.913269 0.233731
O O7 0.513632 0.064302 0.356003
O O8 0.983923 0.895319 0.137077
O O9 0.002319 0.917824 0.346229
O O10 0.933286 0.058502 0.241949
O O11 0.982517 0.762688 0.737791
O O12 0.998844 0.665158 0.539185
O O13 0.766992 0.652824 0.730799
O O14 0.541577 0.625882 0.401647
O O15 0.767623 0.334601 0.966721
O O16 0.029237 0.744483 0.340306
#
# Coordination Sequence:
#
# PCOD9137254 Si02
#       8
#     4   4   4   4   4   4   4   4
#     4   9  20  41  66  93 128 176 217 265 332 389
#     4  10  25  41  63 100 132 172 218 280 329 385
#     4  11  23  42  66 102 135 170 224 274 327 397
#     4  11  24  44  66  98 134 175 221 274 334 398
#     4  11  22  42  70  97 132 176 223 270 333 396
#     4  10  22  40  67  97 132 174 216 273 329 388
#     4  11  23  44  68  97 133 179 222 270 337 395
#     4  11  21  42  68  96 132 176 221 268 331 396
#
# _framework density 21.016655
#
# number of rings (size 3 to 8) (size 9 to 14) (size 15 to 20)
#    0.000    1.500    3.750    0.750    1.750    2.000 
#    0.000    2.500    0.000    0.000    0.000    0.000 
#    0.000    0.000    0.000    0.000    0.000    0.000 
#
# Total GULP energy -89312.000759 kJ/mol
# GULP energy per Si atom -5582.000047 kJ/mol
# Density = 2.096882 g / cm^3
# Si number density = 21.016655 Si / 1000 Ang^3
#
#
#
# Elastic Constant Matrix: (Units=GPa)
#
#
# Indices 1 2 3 4 5 6 
#
# 1 110.3452 33.2743 33.4732 0.0000 -31.1750 0.0000
# 2 33.2743 98.0412 3.3411 0.0000 4.4528 0.0000
# 3 33.4732 3.3411 65.1042 0.0000 2.3095 0.0000
# 4 0.0000 0.0000 0.0000 18.8280 0.0000 3.1027
# 5 -31.1750 4.4528 2.3095 0.0000 28.6338 0.0000
# 6 0.0000 0.0000 0.0000 3.1027 0.0000 22.9777
#
#
#
# Elastic Compliance Matrix: (Units=1/GPa)
#
#
# Indices 1 2 3 4 5 6 
#
# 1 0.023380 -0.008771 -0.012558 0.000000 0.027832 0.000000
# 2 -0.008771 0.013577 0.004239 0.000000 -0.012003 0.000000
# 3 -0.012558 0.004239 0.022171 0.000000 -0.016120 0.000000
# 4 0.000000 0.000000 0.000000 0.054321 0.000000 -0.007335
# 5 0.027832 -0.012003 -0.016120 0.000000 0.068392 0.000000
# 6 0.000000 0.000000 0.000000 -0.007335 0.000000 0.044511
#
#
# Mechanical properties :
#
#
# Convention : Reuss Voigt Hill
#
# Bulk Modulus (GPa) = 40.08420 45.96308 43.02364
# Shear Modulus (GPa) = 18.59781 27.64803 23.12292
#
# Velocity S-wave (km/s) = 2.97797 3.63096 3.32055
# Velocity P-wave (km/s) = 5.56223 6.28457 5.93440
#
# Compressibility (1/GPa) = 0.02494748
#
# Stress axis : x y z
#
# Youngs Moduli (GPa) = 42.77184 73.65245 45.10407
#
# Poissons Ratio (x) = 0.64601 0.56641
# Poissons Ratio (y) = 0.37515 -0.19118
# Poissons Ratio (z) = 0.53713 -0.31219
#
# Static dielectric constant tensor:
#      x y z
#    x 1.750080 0.000000 -0.000150 
#    y 0.000000 1.768330 0.000000 
#    z -0.000150 0.000000 1.766440 
# 
# From -- ./inp_files/14579.got.cif
#   From: 2010.05.17/outbox.cif.g08.bks.cpg/sg9_8_cif.got.tgz:14579.got - 2010.06.03 20:04:27.
