data_PCOD9137780
_publ_section_title
;
Structure prediction by ZEFSAII (Michael W. Deem and Ramdas Pophale) SiO2 
 PCOD9137780
Probable space group: C C
;
_chemical_formula_sum "Si O2"
_cell_formula_units_Z 32
_cell_length_a 28.519274
_cell_length_b 4.892262
_cell_length_c 13.140264
_cell_angle_alpha 90.000000
_cell_angle_beta 49.486749
_cell_angle_gamma 90.000000
_cell_volume 1393.836953
_symmetry_space_group_name_H-M "C C"
_symmetry_group_IT_number 9
_symmetry_cell_setting 'monoclinic'
loop_
_space_group_symop_operation_xyz
x,y,z
x,-y,1/2+z
1/2+x,1/2+y,z
1/2+x,1/2-y,1/2+z
loop_
_atom_site_type_symbol
_atom_site_label
_atom_site_fract_x
_atom_site_fract_y
_atom_site_fract_z
Si Si1 0.057490 0.228901 0.934480
Si Si2 0.857249 0.213966 0.981470
Si Si3 0.289403 0.224769 0.161471
Si Si4 0.989693 0.986406 0.847333
Si Si5 0.281658 0.622533 0.905756
Si Si6 0.212968 0.892266 0.586210
Si Si7 0.566363 0.772814 0.560557
Si Si8 0.097334 0.569052 0.697365
O O1 0.004259 0.101583 0.939170
O O2 0.100429 0.368202 0.789078
O O3 0.038300 0.482034 0.032898
O O4 0.084000 0.980978 0.964338
O O5 0.844537 0.194586 0.878625
O O6 0.918929 0.056451 0.926373
O O7 0.842983 0.513629 0.047203
O O8 0.803802 0.026961 0.102433
O O9 0.285539 0.264896 0.286575
O O10 0.229118 0.140094 0.182557
O O11 0.022154 0.146949 0.708719
O O12 0.027537 0.698296 0.791525
O O13 0.260048 0.311245 0.957243
O O14 0.229712 0.804403 0.032310
O O15 0.144737 0.808954 0.652219
O O16 0.614351 0.927753 0.566440
#
# Coordination Sequence:
#
# PCOD9137780 Si02
#       8
#     4   4   4   4   4   4   4   4
#     4  11  24  42  64  92 140 180 228 273 336 415
#     4  10  24  40  68  96 132 168 224 281 338 398
#     4  10  22  45  66  97 126 172 226 284 337 395
#     4  11  25  42  67 100 140 184 224 283 347 413
#     4  10  22  44  68  98 127 174 228 283 340 395
#     4  10  24  42  67  96 134 171 228 283 336 403
#     4  11  24  43  62  95 139 181 226 274 334 417
#     4  11  25  44  68 100 142 184 230 285 348 424
#
# _framework density 22.958210000000001
#
# number of rings (size 3 to 8) (size 9 to 14) (size 15 to 20)
#    0.000    1.500    2.500    0.750    7.000    3.000 
#    2.250    0.000    0.000    0.000    0.000    0.000 
#    0.000    0.000    0.000    0.000    0.000    0.000 
#
# Total GULP energy -89275.543243 kJ/mol
# GULP energy per Si atom -5579.721453 kJ/mol
# Density = 2.290596 g / cm^3
# Si number density = 22.958210 Si / 1000 Ang^3
#
#
#
# Elastic Constant Matrix: (Units=GPa)
#
#
# Indices 1 2 3 4 5 6 
#
# 1 101.6321 30.6575 50.2123 -0.0002 19.5700 -0.0009
# 2 30.6575 134.4879 30.4740 0.0005 15.2585 -0.0066
# 3 50.2123 30.4740 65.7860 -0.0005 40.5653 -0.0001
# 4 -0.0002 0.0005 -0.0005 31.0593 0.0000 14.8913
# 5 19.5700 15.2585 40.5653 0.0000 44.1846 0.0006
# 6 -0.0009 -0.0066 -0.0001 14.8913 0.0006 29.5694
#
#
#
# Elastic Compliance Matrix: (Units=1/GPa)
#
#
# Indices 1 2 3 4 5 6 
#
# 1 0.017761 -0.000786 -0.019611 0.000000 0.010410 0.000000
# 2 -0.000786 0.008388 -0.003950 -0.000001 0.001078 0.000003
# 3 -0.019611 -0.003950 0.059468 0.000001 -0.044546 -0.000001
# 4 0.000000 -0.000001 0.000001 0.042445 0.000000 -0.021375
# 5 0.010410 0.001078 -0.044546 0.000000 0.058547 -0.000001
# 6 0.000000 0.000003 -0.000001 -0.021375 -0.000001 0.044583
#
#
# Mechanical properties :
#
#
# Convention : Reuss Voigt Hill
#
# Bulk Modulus (GPa) = 27.08475 58.28816 42.68645
# Shear Modulus (GPa) = 17.11191 33.66680 25.38936
#
# Velocity S-wave (km/s) = 2.73307 3.83356 3.32911
# Velocity P-wave (km/s) = 4.66718 6.71110 5.78020
#
# Compressibility (1/GPa) = 0.03692114
#
# Stress axis : x y z
#
# Youngs Moduli (GPa) = 56.30237 119.22396 16.81582
#
# Poissons Ratio (x) = 0.09372 0.32978
# Poissons Ratio (y) = 0.04426 0.06643
# Poissons Ratio (z) = 1.10416 0.47098
#
# Static dielectric constant tensor:
#      x y z
#    x 1.984770 0.000000 0.040970 
#    y 0.000000 1.869110 0.000000 
#    z 0.040970 0.000000 1.876550 
# 
# From -- ./inp_files/21351.got.cif
#   From: 2010.05.17/outbox.cif.g08.bks.cpg/sg9_11_cif.got.tgz:21351.got - 2010.06.03 20:04:27.
