data_PCOD9137114
_publ_section_title
;
Structure prediction by ZEFSAII (Michael W. Deem and Ramdas Pophale) SiO2 
 PCOD9137114
Probable space group: C C
;
_chemical_formula_sum "Si O2"
_cell_formula_units_Z 32
_cell_length_a 18.777855
_cell_length_b 14.728839
_cell_length_c 12.525976
_cell_angle_alpha 90.000000
_cell_angle_beta 22.986455
_cell_angle_gamma 90.000000
_cell_volume 1352.888888
_symmetry_space_group_name_H-M "C C"
_symmetry_group_IT_number 9
_symmetry_cell_setting 'monoclinic'
loop_
_space_group_symop_operation_xyz
x,y,z
x,-y,1/2+z
1/2+x,1/2+y,z
1/2+x,1/2-y,1/2+z
loop_
_atom_site_type_symbol
_atom_site_label
_atom_site_fract_x
_atom_site_fract_y
_atom_site_fract_z
Si Si1 0.075140 0.676370 0.821020
Si Si2 0.110791 0.146704 0.704649
Si Si3 0.191988 0.293689 0.765763
Si Si4 0.494267 0.457555 0.862554
Si Si5 0.136883 0.480316 0.742761
Si Si6 0.230337 0.392561 0.417320
Si Si7 0.537542 0.275580 0.091841
Si Si8 0.483270 0.716123 0.255980
O O1 0.036035 0.573529 0.911412
O O2 0.285496 0.681380 0.492360
O O3 0.957477 0.708971 0.884101
O O4 0.067096 0.748842 0.927340
O O5 0.897837 0.176342 0.008127
O O6 0.200626 0.211976 0.667879
O O7 0.127372 0.040179 0.706153
O O8 0.155570 0.167967 0.517681
O O9 0.095316 0.255004 0.003838
O O10 0.088533 0.384158 0.864168
O O11 0.346350 0.500875 0.986351
O O12 0.366252 0.427566 0.138339
O O13 0.573187 0.369338 0.694786
O O14 0.134035 0.469350 0.619350
O O15 0.358223 0.337357 0.324026
O O16 0.078172 0.324414 0.583622
#
# Coordination Sequence:
#
# PCOD9137114 Si02
#       8
#     4   4   4   4   4   4   4   4
#     4  11  23  41  67  90 124 166 212 258 312 376
#     4  11  23  41  67  90 124 166 212 258 312 376
#     4  11  23  40  64  92 126 163 207 261 315 372
#     4  10  22  39  63  97 115 172 216 248 309 385
#     4  10  22  39  63  97 115 172 216 248 309 385
#     4  12  22  40  70  90 130 162 220 266 308 382
#     4  12  20  40  66  94 126 162 212 262 314 372
#     4  11  23  40  64  92 126 163 207 261 315 372
#
# _framework density 23.653088
#
# number of rings (size 3 to 8) (size 9 to 14) (size 15 to 20)
#    0.000    1.000    7.500    0.750    7.000    0.000 
#    0.000    1.250   11.000    0.000    0.000    0.000 
#    0.000    0.000    0.000    0.000    0.000    0.000 
#
# Total GULP energy -89238.487710 kJ/mol
# GULP energy per Si atom -5577.405482 kJ/mol
# Density = 2.359925 g / cm^3
# Si number density = 23.653088 Si / 1000 Ang^3
#
#
#
# Elastic Constant Matrix: (Units=GPa)
#
#
# Indices 1 2 3 4 5 6 
#
# 1 81.3730 28.4919 21.4151 -0.0001 24.7270 -0.0005
# 2 28.4919 160.9613 41.7131 -0.0027 23.7104 -0.0001
# 3 21.4151 41.7131 61.7296 -0.0028 26.1592 0.0004
# 4 -0.0001 -0.0027 -0.0028 35.2195 0.0006 3.2835
# 5 24.7270 23.7104 26.1592 0.0006 39.4954 0.0001
# 6 -0.0005 -0.0001 0.0004 3.2835 0.0001 35.4174
#
#
#
# Elastic Compliance Matrix: (Units=1/GPa)
#
#
# Indices 1 2 3 4 5 6 
#
# 1 0.015516 -0.001262 -0.001021 0.000000 -0.008280 0.000000
# 2 -0.001262 0.007708 -0.004371 0.000000 -0.000942 0.000000
# 3 -0.001021 -0.004371 0.025197 0.000002 -0.013425 0.000000
# 4 0.000000 0.000000 0.000002 0.028641 -0.000002 -0.002655
# 5 -0.008280 -0.000942 -0.013425 -0.000002 0.039961 0.000000
# 6 0.000000 0.000000 0.000000 -0.002655 0.000000 0.028481
#
#
# Mechanical properties :
#
#
# Convention : Reuss Voigt Hill
#
# Bulk Modulus (GPa) = 28.48077 54.14489 41.31283
# Shear Modulus (GPa) = 29.32271 36.18937 32.75604
#
# Velocity S-wave (km/s) = 3.52476 3.91577 3.72540
# Velocity P-wave (km/s) = 5.35092 6.58675 6.00074
#
# Compressibility (1/GPa) = 0.03511142
#
# Stress axis : x y z
#
# Youngs Moduli (GPa) = 64.45049 129.74104 39.68696
#
# Poissons Ratio (x) = 0.16376 0.04052
# Poissons Ratio (y) = 0.08135 0.17349
# Poissons Ratio (z) = 0.06580 0.56716
#
# Static dielectric constant tensor:
#      x y z
#    x 1.914060 0.000000 -0.005640 
#    y 0.000000 1.944330 0.000000 
#    z -0.005640 0.000000 1.988890 
# 
# From -- ./inp_files/10901.got.cif
#   From: 2010.05.17/outbox.cif.g08.bks.cpg/sg9_6_cif.got.tgz:10901.got - 2010.06.03 20:04:27.
