data_PCOD9137020
_publ_section_title
;
Structure prediction by ZEFSAII (Michael W. Deem and Ramdas Pophale) SiO2 
 PCOD9137020
Probable space group: C C
;
_chemical_formula_sum "Si O2"
_cell_formula_units_Z 32
_cell_length_a 27.181597
_cell_length_b 12.033857
_cell_length_c 15.040835
_cell_angle_alpha 90.000000
_cell_angle_beta 16.332335
_cell_angle_gamma 90.000000
_cell_volume 1383.502498
_symmetry_space_group_name_H-M "C C"
_symmetry_group_IT_number 9
_symmetry_cell_setting 'monoclinic'
loop_
_space_group_symop_operation_xyz
x,y,z
x,-y,1/2+z
1/2+x,1/2+y,z
1/2+x,1/2-y,1/2+z
loop_
_atom_site_type_symbol
_atom_site_label
_atom_site_fract_x
_atom_site_fract_y
_atom_site_fract_z
Si Si1 0.988080 0.606875 0.282240
Si Si2 0.424933 0.568808 0.228389
Si Si3 0.213985 0.902609 0.776828
Si Si4 0.487490 0.877726 0.981985
Si Si5 0.140261 0.330230 0.342749
Si Si6 0.683949 0.776629 0.801516
Si Si7 0.729034 0.829599 0.920267
Si Si8 0.399526 0.128520 0.119753
O O1 0.861640 0.497787 0.503308
O O2 0.868250 0.714946 0.473048
O O3 0.064818 0.619197 0.247991
O O4 0.119669 0.610937 0.972860
O O5 0.254337 0.590386 0.582811
O O6 0.361317 0.582734 0.236877
O O7 0.532489 0.460270 0.065959
O O8 0.549611 0.672709 0.036832
O O9 0.231916 0.789214 0.691584
O O10 0.228190 0.865950 0.855856
O O11 0.622473 0.846520 0.824070
O O12 0.409679 0.999499 0.129501
O O13 0.330204 0.787849 0.254886
O O14 0.953003 0.311981 0.618100
O O15 0.687064 0.841320 0.889476
O O16 0.551922 0.834920 0.285355
#
# Coordination Sequence:
#
# PCOD9137020 Si02
#       8
#     4   4   4   4   4   4   4   4
#     4   9  21  38  60  90 121 163 207 247 310 368
#     4   9  20  39  64  93 125 164 207 250 309 368
#     4  10  22  44  62  85 131 163 200 262 301 360
#     4   9  19  36  59  87 124 160 203 259 302 358
#     4  11  23  39  63  94 123 159 208 254 305 366
#     4   9  17  36  65  87 120 168 206 252 309 360
#     4   9  18  35  61  93 121 161 211 250 301 367
#     4  10  22  37  60  93 123 160 208 250 307 369
#
# _framework density 23.129701000000001
#
# number of rings (size 3 to 8) (size 9 to 14) (size 15 to 20)
#    0.000    2.500    0.000    1.500    0.000    8.000 
#    0.000    7.500    0.000    3.000    0.000    0.000 
#    0.000    0.000    0.000    0.000    0.000    0.000 
#
# Total GULP energy -89369.760052 kJ/mol
# GULP energy per Si atom -5585.610003 kJ/mol
# Density = 2.307706 g / cm^3
# Si number density = 23.129701 Si / 1000 Ang^3
#
#
#
# Elastic Constant Matrix: (Units=GPa)
#
#
# Indices 1 2 3 4 5 6 
#
# 1 176.7050 45.8138 22.7934 0.0000 -12.0990 0.0000
# 2 45.8138 106.3655 25.2145 0.0000 -6.3189 0.0000
# 3 22.7934 25.2145 41.6524 0.0000 -0.5602 0.0000
# 4 0.0000 0.0000 0.0000 26.7613 0.0000 -9.7883
# 5 -12.0990 -6.3189 -0.5602 0.0000 31.2469 0.0000
# 6 0.0000 0.0000 0.0000 -9.7883 0.0000 30.1368
#
#
#
# Elastic Compliance Matrix: (Units=1/GPa)
#
#
# Indices 1 2 3 4 5 6 
#
# 1 0.006670 -0.002206 -0.002286 0.000000 0.002095 0.000000
# 2 -0.002206 0.011846 -0.005945 0.000000 0.001435 0.000000
# 3 -0.002286 -0.005945 0.028837 0.000000 -0.001570 0.000000
# 4 0.000000 0.000000 0.000000 0.042405 0.000000 0.013773
# 5 0.002095 0.001435 -0.001570 0.000000 0.033076 0.000000
# 6 0.000000 0.000000 0.000000 0.013773 0.000000 0.037655
#
#
# Mechanical properties :
#
#
# Convention : Reuss Voigt Hill
#
# Bulk Modulus (GPa) = 37.76616 56.92960 47.34788
# Shear Modulus (GPa) = 26.28961 33.02242 29.65602
#
# Velocity S-wave (km/s) = 3.37503 3.78260 3.58461
# Velocity P-wave (km/s) = 5.61705 6.61393 6.13577
#
# Compressibility (1/GPa) = 0.02647873
#
# Stress axis : x y z
#
# Youngs Moduli (GPa) = 149.93605 84.41476 34.67810
#
# Poissons Ratio (x) = 0.18625 0.07927
# Poissons Ratio (y) = 0.33081 0.20615
# Poissons Ratio (z) = 0.34275 0.50181
#
# Static dielectric constant tensor:
#      x y z
#    x 1.913850 0.000000 -0.034060 
#    y 0.000000 1.860490 0.000000 
#    z -0.034060 0.000000 1.907380 
# 
# From -- ./inp_files/28086.got.cif
#   From: 2010.05.17/outbox.cif.g08.bks.cpg/sg9_15_cif.got.tgz:28086.got - 2010.06.03 20:04:27.
