data_PCOD9137249
_publ_section_title
;
Structure prediction by ZEFSAII (Michael W. Deem and Ramdas Pophale) SiO2 
 PCOD9137249
Probable space group: C C
;
_chemical_formula_sum "Si O2"
_cell_formula_units_Z 32
_cell_length_a 8.471483
_cell_length_b 10.636665
_cell_length_c 21.470229
_cell_angle_alpha 90.000000
_cell_angle_beta 36.826292
_cell_angle_gamma 90.000000
_cell_volume 1159.609601
_symmetry_space_group_name_H-M "C C"
_symmetry_group_IT_number 9
_symmetry_cell_setting 'monoclinic'
loop_
_space_group_symop_operation_xyz
x,y,z
x,-y,1/2+z
1/2+x,1/2+y,z
1/2+x,1/2-y,1/2+z
loop_
_atom_site_type_symbol
_atom_site_label
_atom_site_fract_x
_atom_site_fract_y
_atom_site_fract_z
Si Si1 0.454680 0.879716 0.991310
Si Si2 0.528052 0.303557 0.624234
Si Si3 0.666949 0.587356 0.741399
Si Si4 0.110972 0.159556 0.903134
Si Si5 0.085216 0.191592 0.253463
Si Si6 0.872192 0.060543 0.668240
Si Si7 0.688267 0.590092 0.451540
Si Si8 0.604015 0.865342 0.423589
O O1 0.366299 0.725610 0.012610
O O2 0.427703 0.917197 0.924580
O O3 0.601842 0.010487 0.969217
O O4 0.159546 0.925945 0.107240
O O5 0.404898 0.172679 0.640372
O O6 0.599332 0.301983 0.674608
O O7 0.307835 0.413144 0.691290
O O8 0.795068 0.340016 0.502568
O O9 0.635286 0.643272 0.822140
O O10 0.709821 0.438202 0.734413
O O11 0.377884 0.602965 0.802176
O O12 0.274876 0.291856 0.872668
O O13 0.189252 0.027641 0.905880
O O14 0.188668 0.324826 0.244325
O O15 0.930034 0.078317 0.576176
O O16 0.670689 0.725967 0.427101
#
# Coordination Sequence:
#
# PCOD9137249 Si02
#       8
#     4   4   4   4   4   4   4   4
#     4   9  20  41  63  87 124 166 210 262 324 379
#     4  10  23  45  65  92 135 173 212 272 331 385
#     4  11  24  42  67  98 133 174 222 271 327 389
#     4  11  23  40  64  96 126 168 217 271 325 386
#     4  11  23  43  61  94 136 167 215 278 323 389
#     4   9  21  43  63  89 126 167 211 268 325 381
#     4  10  22  40  67  92 127 166 217 273 320 392
#     4  11  20  44  66  94 131 173 216 267 327 387
#
# _framework density 27.595493999999999
#
# number of rings (size 3 to 8) (size 9 to 14) (size 15 to 20)
#    0.750    1.000    3.750    0.000    1.750    2.000 
#    6.750    0.000    0.000    0.000    0.000    0.000 
#    0.000    0.000    0.000    0.000    0.000    0.000 
#
# Total GULP energy -89094.421892 kJ/mol
# GULP energy per Si atom -5568.401368 kJ/mol
# Density = 2.753269 g / cm^3
# Si number density = 27.595494 Si / 1000 Ang^3
#
#
#
# Elastic Constant Matrix: (Units=GPa)
#
#
# Indices 1 2 3 4 5 6 
#
# 1 34.4258 49.8200 12.6262 -0.0015 -1.7109 0.0012
# 2 49.8200 257.3215 42.0768 -0.0010 -24.8403 0.0002
# 3 12.6262 42.0768 105.0642 -0.0053 -15.5365 0.0034
# 4 -0.0015 -0.0010 -0.0053 53.1522 0.0021 -14.4251
# 5 -1.7109 -24.8403 -15.5365 0.0021 24.1700 -0.0017
# 6 0.0012 0.0002 0.0034 -14.4251 -0.0017 46.7002
#
#
#
# Elastic Compliance Matrix: (Units=1/GPa)
#
#
# Indices 1 2 3 4 5 6 
#
# 1 0.041782 -0.008351 -0.002772 0.000001 -0.007407 -0.000001
# 2 -0.008351 0.006121 -0.000668 0.000000 0.005270 0.000000
# 3 -0.002772 -0.000668 0.011037 0.000001 0.006212 0.000000
# 4 0.000001 0.000000 0.000001 0.020535 -0.000001 0.006343
# 5 -0.007407 0.005270 0.006212 -0.000001 0.050258 0.000001
# 6 -0.000001 0.000000 0.000000 0.006343 0.000001 0.023372
#
#
# Mechanical properties :
#
#
# Convention : Reuss Voigt Hill
#
# Bulk Modulus (GPa) = 28.28277 67.31752 47.80014
# Shear Modulus (GPa) = 26.52861 44.29040 35.40950
#
# Velocity S-wave (km/s) = 3.10391 4.01057 3.58601
# Velocity P-wave (km/s) = 4.80801 6.77448 5.87412
#
# Compressibility (1/GPa) = 0.03535722
#
# Stress axis : x y z
#
# Youngs Moduli (GPa) = 23.93368 163.36915 90.60113
#
# Poissons Ratio (x) = 1.36433 0.25115
# Poissons Ratio (y) = 0.19987 0.06057
# Poissons Ratio (z) = 0.06634 0.10921
#
# Static dielectric constant tensor:
#      x y z
#    x 2.271260 0.000000 -0.052730 
#    y 0.000000 2.420550 0.000000 
#    z -0.052730 0.000000 2.273760 
# 
# From -- ./inp_files/37295.got.cif
#   From: 2010.05.17/outbox.cif.g08.bks.cpg/sg9_19_cif.got.tgz:37295.got - 2010.06.03 20:04:27.
