data_PCOD9137532
_publ_section_title
;
Structure prediction by ZEFSAII (Michael W. Deem and Ramdas Pophale) SiO2 
 PCOD9137532
Probable space group: C C
;
_chemical_formula_sum "Si O2"
_cell_formula_units_Z 32
_cell_length_a 10.696870
_cell_length_b 11.358139
_cell_length_c 22.244470
_cell_angle_alpha 90.000000
_cell_angle_beta 28.619059
_cell_angle_gamma 90.000000
_cell_volume 1294.514331
_symmetry_space_group_name_H-M "C C"
_symmetry_group_IT_number 9
_symmetry_cell_setting 'monoclinic'
loop_
_space_group_symop_operation_xyz
x,y,z
x,-y,1/2+z
1/2+x,1/2+y,z
1/2+x,1/2-y,1/2+z
loop_
_atom_site_type_symbol
_atom_site_label
_atom_site_fract_x
_atom_site_fract_y
_atom_site_fract_z
Si Si1 0.222100 0.371259 0.939260
Si Si2 0.879937 0.007088 0.180214
Si Si3 0.989557 0.792784 0.442262
Si Si4 0.381920 0.829224 0.875528
Si Si5 0.949321 0.369425 0.169122
Si Si6 0.852363 0.899285 0.319126
Si Si7 0.901176 0.018666 0.548060
Si Si8 0.812668 0.675636 0.992305
O O1 0.131960 0.313457 0.915723
O O2 0.358002 0.493204 0.864089
O O3 0.968307 0.390453 0.089441
O O4 0.377329 0.271411 0.912943
O O5 0.636552 0.096396 0.286453
O O6 0.150793 0.061887 0.040030
O O7 0.942202 0.944440 0.215957
O O8 0.793912 0.935637 0.157694
O O9 0.188998 0.869295 0.317051
O O10 0.794987 0.735570 0.474854
O O11 0.919564 0.879427 0.526711
O O12 0.464294 0.721907 0.797482
O O13 0.168856 0.907296 0.930214
O O14 0.175884 0.452993 0.096367
O O15 0.084835 0.242609 0.124352
O O16 0.550855 0.864320 0.431742
#
# Coordination Sequence:
#
# PCOD9137532 Si02
#       8
#     4   4   4   4   4   4   4   4
#     4  10  22  42  69  98 136 183 223 287 345 407
#     4  12  25  42  71 102 136 189 228 288 354 410
#     4  12  24  43  74  98 142 183 231 291 345 417
#     4  12  25  45  70 106 137 182 239 282 350 421
#     4  10  22  44  65  96 135 181 224 281 351 400
#     4  12  25  45  73 103 142 178 239 288 345 423
#     4  12  25  44  69 102 143 181 235 288 348 419
#     4  10  22  45  65  95 135 177 227 281 342 413
#
# _framework density 24.719695999999999
#
# number of rings (size 3 to 8) (size 9 to 14) (size 15 to 20)
#    0.750    0.000    5.000    2.250    1.750    3.000 
#    0.000    2.500    0.000    0.000    0.000    0.000 
#    0.000    0.000    0.000    0.000    0.000    0.000 
#
# Total GULP energy -89196.117951 kJ/mol
# GULP energy per Si atom -5574.757372 kJ/mol
# Density = 2.466343 g / cm^3
# Si number density = 24.719696 Si / 1000 Ang^3
#
#
#
# Elastic Constant Matrix: (Units=GPa)
#
#
# Indices 1 2 3 4 5 6 
#
# 1 99.6113 19.5827 21.7985 0.0009 22.3730 0.0002
# 2 19.5827 84.2330 13.3571 -0.0002 11.6454 0.0001
# 3 21.7985 13.3571 56.1450 -0.0041 20.5999 0.0015
# 4 0.0009 -0.0002 -0.0041 13.2223 0.0012 17.2032
# 5 22.3730 11.6454 20.5999 0.0012 36.1554 0.0011
# 6 0.0002 0.0001 0.0015 17.2032 0.0011 47.1201
#
#
#
# Elastic Compliance Matrix: (Units=1/GPa)
#
#
# Indices 1 2 3 4 5 6 
#
# 1 0.012136 -0.001681 -0.002219 -0.000002 -0.005704 0.000001
# 2 -0.001681 0.012817 -0.001597 0.000000 -0.002178 0.000000
# 3 -0.002219 -0.001597 0.023213 0.000017 -0.011338 -0.000007
# 4 -0.000002 0.000000 0.000017 0.144059 -0.000011 -0.052595
# 5 -0.005704 -0.002178 -0.011338 -0.000011 0.038349 0.000004
# 6 0.000001 0.000000 -0.000007 -0.052595 0.000004 0.040424
#
#
# Mechanical properties :
#
#
# Convention : Reuss Voigt Hill
#
# Bulk Modulus (GPa) = 26.90294 38.82955 32.86625
# Shear Modulus (GPa) = 16.98458 31.64963 24.31710
#
# Velocity S-wave (km/s) = 2.62408 3.58207 3.13982
# Velocity P-wave (km/s) = 4.48195 5.73152 5.14481
#
# Compressibility (1/GPa) = 0.03717066
#
# Stress axis : x y z
#
# Youngs Moduli (GPa) = 82.39760 78.02104 43.08008
#
# Poissons Ratio (x) = 0.13115 0.09560
# Poissons Ratio (y) = 0.13851 0.06882
# Poissons Ratio (z) = 0.18285 0.12464
#
# Static dielectric constant tensor:
#      x y z
#    x 2.148220 0.000000 0.010250 
#    y 0.000000 2.195350 0.000010 
#    z 0.010250 0.000010 1.969960 
# 
# From -- ./inp_files/35382.got.cif
#   From: 2010.05.17/outbox.cif.g08.bks.cpg/sg9_18_cif.got.tgz:35382.got - 2010.06.03 20:04:27.
