data_PCOD9137218
_publ_section_title
;
Structure prediction by ZEFSAII (Michael W. Deem and Ramdas Pophale) SiO2 
 PCOD9137218
Probable space group: C C
;
_chemical_formula_sum "Si O2"
_cell_formula_units_Z 32
_cell_length_a 19.426527
_cell_length_b 8.895171
_cell_length_c 11.049903
_cell_angle_alpha 90.000000
_cell_angle_beta 141.081304
_cell_angle_gamma 90.000000
_cell_volume 1199.547906
_symmetry_space_group_name_H-M "C C"
_symmetry_group_IT_number 9
_symmetry_cell_setting 'monoclinic'
loop_
_space_group_symop_operation_xyz
x,y,z
x,-y,1/2+z
1/2+x,1/2+y,z
1/2+x,1/2-y,1/2+z
loop_
_atom_site_type_symbol
_atom_site_label
_atom_site_fract_x
_atom_site_fract_y
_atom_site_fract_z
Si Si1 0.362700 0.236840 0.473510
Si Si2 0.567814 0.861998 0.378122
Si Si3 0.199536 0.391300 0.936039
Si Si4 0.930480 0.555769 0.907478
Si Si5 0.690119 0.565288 0.509526
Si Si6 0.057999 0.163843 0.649145
Si Si7 0.924973 0.072579 0.843132
Si Si8 0.144746 0.795608 0.603046
O O1 0.458699 0.231769 0.699215
O O2 0.376504 0.381187 0.406592
O O3 0.233439 0.236993 0.328679
O O4 0.397914 0.088332 0.443625
O O5 0.532347 0.951442 0.450999
O O6 0.657415 0.732268 0.500817
O O7 0.615662 0.972683 0.340651
O O8 0.326559 0.435211 0.113564
O O9 0.178171 0.298565 0.031349
O O10 0.164808 0.270967 0.788064
O O11 0.821418 0.566023 0.672390
O O12 0.965424 0.699817 0.041022
O O13 0.608139 0.474053 0.303203
O O14 0.674533 0.464585 0.607193
O O15 0.991991 0.077325 0.456484
O O16 0.015480 0.200706 0.941484
#
# Coordination Sequence:
#
# PCOD9137218 Si02
#       8
#     4   4   4   4   4   4   4   4
#     4  10  22  40  65  93 132 172 219 280 332 395
#     4  12  22  41  67  95 131 176 221 273 342 399
#     4  10  23  41  64  95 131 169 221 278 326 400
#     4  11  24  43  67  97 134 176 223 279 330 401
#     4  10  23  42  64  97 131 169 225 273 325 406
#     4  11  22  42  67  92 132 171 213 278 330 380
#     4  11  21  42  65  92 132 171 220 278 327 397
#     4   9  21  41  63  93 125 172 220 269 336 394
#
# _framework density 26.676717
#
# number of rings (size 3 to 8) (size 9 to 14) (size 15 to 20)
#    0.000    1.500    2.500    3.000    1.750    0.000 
#    0.000    5.000    0.000    0.000    0.000    0.000 
#    0.000    0.000    0.000    0.000    0.000    0.000 
#
# Total GULP energy -89094.765657 kJ/mol
# GULP energy per Si atom -5568.422854 kJ/mol
# Density = 2.661600 g / cm^3
# Si number density = 26.676717 Si / 1000 Ang^3
#
#
#
# Elastic Constant Matrix: (Units=GPa)
#
#
# Indices 1 2 3 4 5 6 
#
# 1 66.1820 30.8348 25.8512 0.0000 14.6829 0.0000
# 2 30.8348 105.7746 40.5967 0.0000 -2.6649 0.0000
# 3 25.8512 40.5967 183.6065 0.0000 18.8044 0.0000
# 4 0.0000 0.0000 0.0000 36.9331 0.0000 -9.0706
# 5 14.6829 -2.6649 18.8044 0.0000 37.7670 0.0000
# 6 0.0000 0.0000 0.0000 -9.0706 0.0000 30.2642
#
#
#
# Elastic Compliance Matrix: (Units=1/GPa)
#
#
# Indices 1 2 3 4 5 6 
#
# 1 0.019750 -0.005668 -0.000738 0.000000 -0.007711 0.000000
# 2 -0.005668 0.012098 -0.002308 0.000000 0.004206 0.000000
# 3 -0.000738 -0.002308 0.006373 0.000000 -0.003049 0.000000
# 4 0.000000 0.000000 0.000000 0.029227 0.000000 0.008760
# 5 -0.007711 0.004206 -0.003049 0.000000 0.031291 0.000000
# 6 0.000000 0.000000 0.000000 0.008760 0.000000 0.035668
#
#
# Mechanical properties :
#
#
# Convention : Reuss Voigt Hill
#
# Bulk Modulus (GPa) = 48.09290 61.12537 54.60913
# Shear Modulus (GPa) = 31.49299 38.21155 34.85227
#
# Velocity S-wave (km/s) = 3.43963 3.78880 3.61843
# Velocity P-wave (km/s) = 5.81738 6.48869 6.16219
#
# Compressibility (1/GPa) = 0.02079309
#
# Stress axis : x y z
#
# Youngs Moduli (GPa) = 50.63368 82.65697 156.91656
#
# Poissons Ratio (x) = 0.46854 0.11574
# Poissons Ratio (y) = 0.28702 0.36212
# Poissons Ratio (z) = 0.03735 0.19075
#
# Static dielectric constant tensor:
#      x y z
#    x 2.178800 0.000000 -0.038970 
#    y 0.000000 2.117600 0.000000 
#    z -0.038970 0.000000 2.192380 
# 
# From -- ./inp_files/17828.got.cif
#   From: 2010.05.17/outbox.cif.g08.bks.cpg/sg9_9_cif.got.tgz:17828.got - 2010.06.03 20:04:27.
