data_PCOD9137333
_publ_section_title
;
Structure prediction by ZEFSAII (Michael W. Deem and Ramdas Pophale) SiO2 
 PCOD9137333
Probable space group: C C
;
_chemical_formula_sum "Si O2"
_cell_formula_units_Z 32
_cell_length_a 19.936050
_cell_length_b 15.082476
_cell_length_c 14.496750
_cell_angle_alpha 90.000000
_cell_angle_beta 19.856397
_cell_angle_gamma 90.000000
_cell_volume 1480.579629
_symmetry_space_group_name_H-M "C C"
_symmetry_group_IT_number 9
_symmetry_cell_setting 'monoclinic'
loop_
_space_group_symop_operation_xyz
x,y,z
x,-y,1/2+z
1/2+x,1/2+y,z
1/2+x,1/2-y,1/2+z
loop_
_atom_site_type_symbol
_atom_site_label
_atom_site_fract_x
_atom_site_fract_y
_atom_site_fract_z
Si Si1 0.273340 0.452615 0.071510
Si Si2 0.015839 0.877161 0.216204
Si Si3 0.667869 0.986954 0.402227
Si Si4 0.535380 0.176131 0.530650
Si Si5 0.441231 0.963540 0.871464
Si Si6 0.092601 0.850010 0.569542
Si Si7 0.587071 0.521399 0.449227
Si Si8 0.608921 0.785063 0.722296
O O1 0.156405 0.442903 0.317300
O O2 0.121652 0.483981 0.188756
O O3 0.430797 0.533831 0.873990
O O4 0.406493 0.368968 0.875097
O O5 0.823573 0.825766 0.427140
O O6 0.097320 0.808822 0.186362
O O7 0.133400 0.910685 0.973567
O O8 0.670339 0.091895 0.377819
O O9 0.487215 0.968074 0.704111
O O10 0.871741 0.958679 0.186639
O O11 0.577733 0.253809 0.545713
O O12 0.572401 0.212544 0.379412
O O13 0.310134 0.143421 0.830355
O O14 0.457628 0.860341 0.880077
O O15 0.246790 0.010041 0.162212
O O16 0.077079 0.925707 0.511796
#
# Coordination Sequence:
#
# PCOD9137333 Si02
#       8
#     4   4   4   4   4   4   4   4
#     4  10  23  44  64  96 138 172 225 280 344 420
#     4  10  22  41  65  95 135 167 223 283 342 397
#     4  12  23  43  70  93 137 179 230 282 338 413
#     4  12  24  40  68 104 133 179 238 289 341 404
#     4  11  23  44  68  98 134 180 230 280 346 411
#     4  11  23  41  65 100 133 172 225 289 345 399
#     4  11  23  43  67  99 134 178 225 280 346 413
#     4  11  21  42  63 101 132 173 230 287 332 407
#
# _framework density 21.613157000000001
#
# number of rings (size 3 to 8) (size 9 to 14) (size 15 to 20)
#    0.000    1.000    7.500    1.500    3.500    0.000 
#    4.500    1.250    0.000    0.000    0.000    0.000 
#    0.000    0.000    0.000    0.000    0.000    0.000 
#
# Total GULP energy -89449.181650 kJ/mol
# GULP energy per Si atom -5590.573853 kJ/mol
# Density = 2.156396 g / cm^3
# Si number density = 21.613157 Si / 1000 Ang^3
#
#
#
# Elastic Constant Matrix: (Units=GPa)
#
#
# Indices 1 2 3 4 5 6 
#
# 1 70.4991 20.3381 31.0994 0.0075 26.7238 -0.0028
# 2 20.3381 45.3321 14.2300 0.0019 12.9541 -0.0024
# 3 31.0994 14.2300 112.0281 0.0044 39.8204 -0.0017
# 4 0.0075 0.0019 0.0044 11.6972 -0.0029 5.4478
# 5 26.7238 12.9541 39.8204 -0.0029 44.1490 0.0025
# 6 -0.0028 -0.0024 -0.0017 5.4478 0.0025 32.4844
#
#
#
# Elastic Compliance Matrix: (Units=1/GPa)
#
#
# Indices 1 2 3 4 5 6 
#
# 1 0.019979 -0.005911 -0.001639 -0.000016 -0.008881 0.000004
# 2 -0.005911 0.025877 -0.000322 -0.000002 -0.003724 0.000002
# 3 -0.001639 -0.000322 0.013300 -0.000008 -0.010909 0.000003
# 4 -0.000016 -0.000002 -0.000008 0.092734 0.000024 -0.015552
# 5 -0.008881 -0.003724 -0.010909 0.000024 0.038959 -0.000009
# 6 0.000004 0.000002 0.000003 -0.015552 -0.000009 0.033392
#
#
# Mechanical properties :
#
#
# Convention : Reuss Voigt Hill
#
# Bulk Modulus (GPa) = 23.03535 39.91049 31.47292
# Shear Modulus (GPa) = 19.64976 28.47892 24.06434
#
# Velocity S-wave (km/s) = 3.01849 3.63390 3.34040
# Velocity P-wave (km/s) = 4.77803 6.00940 5.42874
#
# Compressibility (1/GPa) = 0.04341154
#
# Stress axis : x y z
#
# Youngs Moduli (GPa) = 50.05172 38.64461 75.18833
#
# Poissons Ratio (x) = 0.22844 0.12321
# Poissons Ratio (y) = 0.29587 0.02423
# Poissons Ratio (z) = 0.08202 0.01245
#
# Static dielectric constant tensor:
#      x y z
#    x 1.815670 0.000000 -0.008730 
#    y 0.000000 1.766230 0.000000 
#    z -0.008730 0.000000 1.836440 
# 
# From -- ./inp_files/7433.got.cif
#   From: 2010.05.17/outbox.cif.g08.bks.cpg/sg9_4_cif.got.tgz:7433.got - 2010.06.03 20:04:27.
