data_PCOD9137754
_publ_section_title
;
Structure prediction by ZEFSAII (Michael W. Deem and Ramdas Pophale) SiO2 
 PCOD9137754
Probable space group: C C
;
_chemical_formula_sum "Si O2"
_cell_formula_units_Z 28
_cell_length_a 18.159779
_cell_length_b 12.144628
_cell_length_c 10.871032
_cell_angle_alpha 90.000000
_cell_angle_beta 27.764312
_cell_angle_gamma 90.000000
_cell_volume 1116.858606
_symmetry_space_group_name_H-M "C C"
_symmetry_group_IT_number 9
_symmetry_cell_setting 'monoclinic'
loop_
_space_group_symop_operation_xyz
x,y,z
x,-y,1/2+z
1/2+x,1/2+y,z
1/2+x,1/2-y,1/2+z
loop_
_atom_site_type_symbol
_atom_site_label
_atom_site_fract_x
_atom_site_fract_y
_atom_site_fract_z
Si Si1 0.067190 0.589978 0.902180
Si Si2 0.376483 0.321744 0.819799
Si Si3 0.931274 0.942866 0.144863
Si Si4 0.752305 0.424253 0.749696
Si Si5 0.709298 0.860395 0.676115
Si Si6 0.717183 0.322592 0.371379
Si Si7 0.145017 0.300188 0.511605
O O1 0.834416 0.284108 0.303215
O O2 0.118019 0.466233 0.863207
O O3 0.020839 0.656695 0.094114
O O4 0.940376 0.590059 0.979083
O O5 0.406315 0.425920 0.684059
O O6 0.530640 0.307166 0.674073
O O7 0.221258 0.350384 0.123804
O O8 0.115042 0.917179 0.848315
O O9 0.871080 0.905669 0.372020
O O10 0.802944 0.875986 0.257316
O O11 0.733861 0.548951 0.821405
O O12 0.694129 0.324872 0.921705
O O13 0.738422 0.759935 0.723893
O O14 0.606601 0.822492 0.709547
#
# Coordination Sequence:
#
# PCOD9137754 Si02
#       7
#     4   4   4   4   4   4   4
#     4  11  23  43  69  96 135 175 226 280 340 396
#     4  10  23  42  66  99 132 176 222 283 333 399
#     4   8  20  42  65  94 128 169 223 274 338 383
#     4  11  23  40  64 101 132 173 223 276 335 400
#     4   9  22  44  73  90 130 182 221 280 330 400
#     4  11  23  45  68  99 134 174 234 272 339 403
#     4  10  22  44  67  95 135 173 227 273 343 393
#
# _framework density 25.070318
#
# number of rings (size 3 to 8) (size 9 to 14) (size 15 to 20)
#    0.857    1.143    0.000    2.571    2.000    2.286 
#    2.571    2.857    0.000    0.000    0.000    0.000 
#    0.000    0.000    0.000    0.000    0.000    0.000 
#
# Total GULP energy -78156.490988 kJ/mol
# GULP energy per Si atom -5582.606499 kJ/mol
# Density = 2.501326 g / cm^3
# Si number density = 25.070318 Si / 1000 Ang^3
#
#
#
# Elastic Constant Matrix: (Units=GPa)
#
#
# Indices 1 2 3 4 5 6 
#
# 1 50.9490 11.0874 26.4671 0.0000 -15.5992 0.0000
# 2 11.0874 163.6818 13.1590 -0.0001 15.8257 0.0000
# 3 26.4671 13.1590 57.8608 -0.0001 -26.6459 0.0001
# 4 0.0000 -0.0001 -0.0001 24.8985 0.0001 0.5086
# 5 -15.5992 15.8257 -26.6459 0.0001 34.4001 0.0000
# 6 0.0000 0.0000 0.0001 0.5086 0.0000 34.9230
#
#
#
# Elastic Compliance Matrix: (Units=1/GPa)
#
#
# Indices 1 2 3 4 5 6 
#
# 1 0.026452 -0.001606 -0.009126 0.000000 0.005665 0.000000
# 2 -0.001606 0.007289 -0.004357 0.000000 -0.007457 0.000000
# 3 -0.009126 -0.004357 0.033368 0.000000 0.023713 0.000000
# 4 0.000000 0.000000 0.000000 0.040175 0.000000 -0.000585
# 5 0.005665 -0.007457 0.023713 0.000000 0.053437 0.000000
# 6 0.000000 0.000000 0.000000 -0.000585 0.000000 0.028643
#
#
# Mechanical properties :
#
#
# Convention : Reuss Voigt Hill
#
# Bulk Modulus (GPa) = 27.07658 41.54653 34.31155
# Shear Modulus (GPa) = 21.56534 33.62954 27.59744
#
# Velocity S-wave (km/s) = 2.93609 3.66650 3.32143
# Velocity P-wave (km/s) = 4.72418 5.87641 5.33151
#
# Compressibility (1/GPa) = 0.03693229
#
# Stress axis : x y z
#
# Youngs Moduli (GPa) = 37.80411 137.18480 29.96839
#
# Poissons Ratio (x) = 0.22030 0.27349
# Poissons Ratio (y) = 0.06071 0.13058
# Poissons Ratio (z) = 0.34499 0.59774
#
# Static dielectric constant tensor:
#      x y z
#    x 1.974820 0.000000 -0.027180 
#    y 0.000000 1.946030 0.000000 
#    z -0.027180 0.000000 2.033920 
# 
# From -- ./inp_files/19263.got.cif
#   From: 2010.05.17/outbox.cif.g08.bks.cpg/sg9_10_cif.got.tgz:19263.got - 2010.06.03 20:04:27.
