data_PCOD9137644
_publ_section_title
;
Structure prediction by ZEFSAII (Michael W. Deem and Ramdas Pophale) SiO2 
 PCOD9137644
Probable space group: C C
;
_chemical_formula_sum "Si O2"
_cell_formula_units_Z 32
_cell_length_a 22.231711
_cell_length_b 8.210123
_cell_length_c 13.539407
_cell_angle_alpha 90.000000
_cell_angle_beta 140.562476
_cell_angle_gamma 90.000000
_cell_volume 1569.848014
_symmetry_space_group_name_H-M "C C"
_symmetry_group_IT_number 9
_symmetry_cell_setting 'monoclinic'
loop_
_space_group_symop_operation_xyz
x,y,z
x,-y,1/2+z
1/2+x,1/2+y,z
1/2+x,1/2-y,1/2+z
loop_
_atom_site_type_symbol
_atom_site_label
_atom_site_fract_x
_atom_site_fract_y
_atom_site_fract_z
Si Si1 0.706790 0.299257 0.365600
Si Si2 0.877362 0.090294 0.525527
Si Si3 0.360516 0.407450 0.699430
Si Si4 0.509465 0.075243 0.430561
Si Si5 0.861088 0.428706 0.088270
Si Si6 0.006036 0.763608 0.038431
Si Si7 0.707637 0.149892 0.581312
Si Si8 0.882912 0.250437 0.917887
O O1 0.772978 0.168235 0.392982
O O2 0.770798 0.456894 0.462536
O O3 0.685029 0.226283 0.446095
O O4 0.610493 0.332373 0.186522
O O5 0.949504 0.217832 0.569508
O O6 0.894628 0.036635 0.660166
O O7 0.886351 0.926238 0.473101
O O8 0.335527 0.239780 0.611771
O O9 0.443239 0.360540 0.879292
O O10 0.270088 0.487699 0.637847
O O11 0.612290 0.117266 0.519615
O O12 0.460498 0.216936 0.432521
O O13 0.439827 0.020828 0.253275
O O14 0.515041 0.919100 0.509898
O O15 0.894690 0.376765 0.022151
O O16 0.780620 0.262619 0.735326
#
# Coordination Sequence:
#
# PCOD9137644 Si02
#       8
#     4   4   4   4   4   4   4   4
#     4  11  24  42  67  99 130 169 219 272 334 385
#     4  10  22  43  68  92 130 170 219 267 324 391
#     4   9  22  45  66  91 133 170 215 267 324 393
#     4  11  25  43  67  97 131 175 222 264 337 391
#     4  10  23  46  65  98 132 168 220 279 323 393
#     4  11  23  42  66  97 129 174 210 272 331 383
#     4  11  23  43  67  94 130 180 213 267 326 396
#     4  11  22  44  68  92 133 176 216 274 321 392
#
# _framework density 20.384138
#
# number of rings (size 3 to 8) (size 9 to 14) (size 15 to 20)
#    0.000    1.500    2.500    1.500    3.500    1.000 
#    9.000    0.000    0.000    0.000    0.000    0.000 
#    0.000    0.000    0.000    0.000    0.000    0.000 
#
# Total GULP energy -89432.888784 kJ/mol
# GULP energy per Si atom -5589.555549 kJ/mol
# Density = 2.033774 g / cm^3
# Si number density = 20.384138 Si / 1000 Ang^3
#
#
#
# Elastic Constant Matrix: (Units=GPa)
#
#
# Indices 1 2 3 4 5 6 
#
# 1 175.3203 73.3968 63.0668 0.0000 20.0729 0.0000
# 2 73.3968 74.5497 48.5606 0.0000 -3.1661 0.0000
# 3 63.0668 48.5606 107.2210 0.0000 14.5240 0.0000
# 4 0.0000 0.0000 0.0000 27.3188 0.0000 -2.2311
# 5 20.0729 -3.1661 14.5240 0.0000 22.4469 0.0000
# 6 0.0000 0.0000 0.0000 -2.2311 0.0000 25.8775
#
#
#
# Elastic Compliance Matrix: (Units=1/GPa)
#
#
# Indices 1 2 3 4 5 6 
#
# 1 0.012675 -0.013310 0.000397 0.000000 -0.013469 0.000000
# 2 -0.013310 0.034844 -0.011213 0.000000 0.024072 0.000000
# 3 0.000397 -0.011213 0.015820 0.000000 -0.012173 0.000000
# 4 0.000000 0.000000 0.000000 0.036864 0.000000 0.003178
# 5 -0.013469 0.024072 -0.012173 0.000000 0.067865 0.000000
# 6 0.000000 0.000000 0.000000 0.003178 0.000000 0.038918
#
#
# Mechanical properties :
#
#
# Convention : Reuss Voigt Hill
#
# Bulk Modulus (GPa) = 66.27736 80.79328 73.53532
# Shear Modulus (GPa) = 19.21100 26.59978 22.90539
#
# Velocity S-wave (km/s) = 3.07326 3.61629 3.35578
# Velocity P-wave (km/s) = 6.72146 7.56030 7.15319
#
# Compressibility (1/GPa) = 0.01508811
#
# Stress axis : x y z
#
# Youngs Moduli (GPa) = 78.89460 28.69931 63.20994
#
# Poissons Ratio (x) = 0.38198 -0.02510
# Poissons Ratio (y) = 1.05007 0.70877
# Poissons Ratio (z) = -0.03132 0.32180
#
# Static dielectric constant tensor:
#      x y z
#    x 1.719780 0.000000 -0.035380 
#    y 0.000000 1.744560 0.000000 
#    z -0.035380 0.000000 1.700290 
# 
# From -- ./inp_files/26682.got.cif
#   From: 2010.05.17/outbox.cif.g08.bks.cpg/sg9_14_cif.got.tgz:26682.got - 2010.06.03 20:04:27.
