data_PCOD9137815
_publ_section_title
;
Structure prediction by ZEFSAII (Michael W. Deem and Ramdas Pophale) SiO2 
 PCOD9137815
Probable space group: C C
;
_chemical_formula_sum "Si O2"
_cell_formula_units_Z 24
_cell_length_a 7.412915
_cell_length_b 28.116911
_cell_length_c 7.945580
_cell_angle_alpha 90.000000
_cell_angle_beta 143.128657
_cell_angle_gamma 90.000000
_cell_volume 993.683523
_symmetry_space_group_name_H-M "C C"
_symmetry_group_IT_number 9
_symmetry_cell_setting 'monoclinic'
loop_
_space_group_symop_operation_xyz
x,y,z
x,-y,1/2+z
1/2+x,1/2+y,z
1/2+x,1/2-y,1/2+z
loop_
_atom_site_type_symbol
_atom_site_label
_atom_site_fract_x
_atom_site_fract_y
_atom_site_fract_z
Si Si1 0.876660 0.864982 0.224240
Si Si2 0.653165 0.281137 0.260325
Si Si3 0.723751 0.010098 0.102685
Si Si4 0.821971 0.450901 0.597350
Si Si5 0.571763 0.100415 0.817786
Si Si6 0.442751 0.633556 0.403271
O O1 0.641854 0.874087 0.195019
O O2 0.989990 0.810858 0.287328
O O3 0.152827 0.900696 0.466753
O O4 0.781400 0.876203 0.960916
O O5 0.974715 0.265812 0.569886
O O6 0.618723 0.317210 0.077189
O O7 0.564183 0.040230 0.130049
O O8 0.714793 0.047905 0.941513
O O9 0.501882 0.966406 0.896699
O O10 0.051434 0.989022 0.372357
O O11 0.216117 0.097034 0.580952
O O12 0.728794 0.130914 0.084293
#
# Coordination Sequence:
#
# PCOD9137815 Si02
#       6
#     4   4   4   4   4   4
#     4  10  26  44  73  95 142 178 226 286 347 403
#     4  10  22  44  70  98 135 174 221 286 347 405
#     4  12  25  41  66  97 141 173 239 275 329 408
#     4  12  25  43  63 100 134 184 224 286 336 391
#     4  12  23  46  68 103 134 185 226 275 344 407
#     4  10  25  42  72  95 136 176 224 280 339 416
#
# _framework density 24.152557000000002
#
# number of rings (size 3 to 8) (size 9 to 14) (size 15 to 20)
#    1.000    0.000    1.667    5.000    2.333    5.333 
#    0.000    5.000    0.000    0.000    0.000    0.000 
#    0.000    0.000    0.000    0.000    0.000    0.000 
#
# Total GULP energy -67140.033622 kJ/mol
# GULP energy per Si atom -5595.002802 kJ/mol
# Density = 2.409758 g / cm^3
# Si number density = 24.152557 Si / 1000 Ang^3
#
#
#
# Elastic Constant Matrix: (Units=GPa)
#
#
# Indices 1 2 3 4 5 6 
#
# 1 104.4890 -1.6812 38.0411 0.0000 -8.8214 0.0000
# 2 -1.6812 84.6064 7.8739 0.0000 -4.8790 0.0000
# 3 38.0411 7.8739 112.6854 0.0000 4.0953 0.0000
# 4 0.0000 0.0000 0.0000 43.2144 0.0000 2.3050
# 5 -8.8214 -4.8790 4.0953 0.0000 37.9820 0.0000
# 6 0.0000 0.0000 0.0000 2.3050 0.0000 31.9234
#
#
#
# Elastic Compliance Matrix: (Units=1/GPa)
#
#
# Indices 1 2 3 4 5 6 
#
# 1 0.011299 0.000777 -0.003983 0.000000 0.003154 0.000000
# 2 0.000777 0.012051 -0.001172 0.000000 0.001855 0.000000
# 3 -0.003983 -0.001172 0.010381 0.000000 -0.002195 0.000000
# 4 0.000000 0.000000 0.000000 0.023230 0.000000 -0.001677
# 5 0.003154 0.001855 -0.002195 0.000000 0.027536 0.000000
# 6 0.000000 0.000000 0.000000 -0.001677 0.000000 0.031446
#
#
# Mechanical properties :
#
#
# Convention : Reuss Voigt Hill
#
# Bulk Modulus (GPa) = 40.04058 43.36094 41.70076
# Shear Modulus (GPa) = 37.58728 39.79376 38.69052
#
# Velocity S-wave (km/s) = 3.94921 4.06347 4.00674
# Velocity P-wave (km/s) = 6.11630 6.32516 6.22161
#
# Compressibility (1/GPa) = 0.02497466
#
# Stress axis : x y z
#
# Youngs Moduli (GPa) = 88.50043 82.98145 96.33292
#
# Poissons Ratio (x) = -0.06448 0.38374
# Poissons Ratio (y) = -0.06877 0.11288
# Poissons Ratio (z) = 0.35254 0.09724
#
# Static dielectric constant tensor:
#      x y z
#    x 1.949650 0.000000 -0.041920 
#    y 0.000000 2.010750 0.000000 
#    z -0.041920 0.000000 1.905940 
# 
# From -- ./inp_files/6583.got.cif
#   From: 2010.05.17/outbox.cif.g08.bks.cpg/sg9_4_cif.got.tgz:6583.got - 2010.06.03 20:04:27.
