data_PCOD9137284
_publ_section_title
;
Structure prediction by ZEFSAII (Michael W. Deem and Ramdas Pophale) SiO2 
 PCOD9137284
Probable space group: C C
;
_chemical_formula_sum "Si O2"
_cell_formula_units_Z 32
_cell_length_a 25.679613
_cell_length_b 5.241235
_cell_length_c 17.510052
_cell_angle_alpha 90.000000
_cell_angle_beta 149.367235
_cell_angle_gamma 90.000000
_cell_volume 1200.832218
_symmetry_space_group_name_H-M "C C"
_symmetry_group_IT_number 9
_symmetry_cell_setting 'monoclinic'
loop_
_space_group_symop_operation_xyz
x,y,z
x,-y,1/2+z
1/2+x,1/2+y,z
1/2+x,1/2-y,1/2+z
loop_
_atom_site_type_symbol
_atom_site_label
_atom_site_fract_x
_atom_site_fract_y
_atom_site_fract_z
Si Si1 0.096100 0.805651 0.724170
Si Si2 0.853244 0.284882 0.244225
Si Si3 0.568081 0.987420 0.033397
Si Si4 0.992154 0.498447 0.698221
Si Si5 0.715383 0.644407 0.790215
Si Si6 0.899045 0.149039 0.472547
Si Si7 0.459801 0.486714 0.756739
Si Si8 0.180079 0.901199 0.591383
O O1 0.075945 0.713027 0.612350
O O2 0.098736 0.592127 0.793651
O O3 0.196107 0.982333 0.841256
O O4 0.996016 0.977200 0.612869
O O5 0.868772 0.149030 0.346250
O O6 0.754893 0.470385 0.123811
O O7 0.953230 0.467010 0.362179
O O8 0.868209 0.062405 0.200644
O O9 0.643671 0.891644 0.060879
O O10 0.609178 0.229601 0.131167
O O11 0.953373 0.738971 0.695498
O O12 0.932060 0.428691 0.544877
O O13 0.974916 0.248389 0.728430
O O14 0.736118 0.474696 0.741250
O O15 0.795731 0.876460 0.892159
O O16 0.568891 0.470763 0.938655
#
# Coordination Sequence:
#
# PCOD9137284 Si02
#       8
#     4   4   4   4   4   4   4   4
#     4  11  21  42  70 106 149 198 247 312 393 435
#     4  11  22  46  76 109 152 201 263 321 393 448
#     4  11  20  40  74 112 149 192 260 322 379 451
#     4  12  26  48  76 102 155 206 251 318 384 460
#     4  10  22  40  72 115 143 190 260 322 373 458
#     4  11  23  45  75 112 146 200 258 319 378 461
#     4  12  26  50  71 109 158 201 259 316 385 470
#     4  10  24  43  70 111 150 202 254 320 381 461
#
# _framework density 26.648187
#
# number of rings (size 3 to 8) (size 9 to 14) (size 15 to 20)
#    0.000    1.000    5.000    1.500    1.750    1.000 
#    4.500    1.250    0.000    0.000    0.000    0.000 
#    0.000    0.000    0.000    0.000    0.000    0.000 
#
# Total GULP energy -89264.889557 kJ/mol
# GULP energy per Si atom -5579.055597 kJ/mol
# Density = 2.658754 g / cm^3
# Si number density = 26.648187 Si / 1000 Ang^3
#
#
#
# Elastic Constant Matrix: (Units=GPa)
#
#
# Indices 1 2 3 4 5 6 
#
# 1 160.1439 68.4858 20.1524 -0.0001 10.0031 -0.0001
# 2 68.4858 135.2322 11.0119 0.0011 3.1952 0.0004
# 3 20.1524 11.0119 49.4074 0.0002 20.2838 0.0002
# 4 -0.0001 0.0011 0.0002 27.2358 -0.0001 -0.7413
# 5 10.0031 3.1952 20.2838 -0.0001 35.1513 -0.0002
# 6 -0.0001 0.0004 0.0002 -0.7413 -0.0002 70.1293
#
#
#
# Elastic Compliance Matrix: (Units=1/GPa)
#
#
# Indices 1 2 3 4 5 6 
#
# 1 0.008273 -0.003995 -0.002184 0.000000 -0.000731 0.000000
# 2 -0.003995 0.009464 -0.000778 0.000000 0.000725 0.000000
# 3 -0.002184 -0.000778 0.027545 0.000000 -0.015203 0.000000
# 4 0.000000 0.000000 0.000000 0.036727 0.000000 0.000388
# 5 -0.000731 0.000725 -0.015203 0.000000 0.037363 0.000000
# 6 0.000000 0.000000 0.000000 0.000388 0.000000 0.014263
#
#
# Mechanical properties :
#
#
# Convention : Reuss Voigt Hill
#
# Bulk Modulus (GPa) = 31.87805 60.45372 46.16589
# Shear Modulus (GPa) = 31.64443 42.84550 37.24497
#
# Velocity S-wave (km/s) = 3.44973 4.01411 3.74258
# Velocity P-wave (km/s) = 5.27789 6.64976 6.00314
#
# Compressibility (1/GPa) = 0.03136955
#
# Stress axis : x y z
#
# Youngs Moduli (GPa) = 120.87189 105.66442 36.30366
#
# Poissons Ratio (x) = 0.42210 0.07929
# Poissons Ratio (y) = 0.48285 0.02823
# Poissons Ratio (z) = 0.26399 0.08218
#
# Static dielectric constant tensor:
#      x y z
#    x 2.221350 0.000000 0.066230 
#    y 0.000000 2.230070 0.000000 
#    z 0.066230 0.000000 2.219110 
# 
# From -- ./inp_files/27169.got.cif
#   From: 2010.05.17/outbox.cif.g08.bks.cpg/sg9_14_cif.got.tgz:27169.got - 2010.06.03 20:04:27.
