data_PCOD9137789
_publ_section_title
;
Structure prediction by ZEFSAII (Michael W. Deem and Ramdas Pophale) SiO2 
 PCOD9137789
Probable space group: C C
;
_chemical_formula_sum "Si O2"
_cell_formula_units_Z 28
_cell_length_a 13.350989
_cell_length_b 4.959362
_cell_length_c 17.558826
_cell_angle_alpha 90.000000
_cell_angle_beta 110.163180
_cell_angle_gamma 90.000000
_cell_volume 1091.360811
_symmetry_space_group_name_H-M "C C"
_symmetry_group_IT_number 9
_symmetry_cell_setting 'monoclinic'
loop_
_space_group_symop_operation_xyz
x,y,z
x,-y,1/2+z
1/2+x,1/2+y,z
1/2+x,1/2-y,1/2+z
loop_
_atom_site_type_symbol
_atom_site_label
_atom_site_fract_x
_atom_site_fract_y
_atom_site_fract_z
Si Si1 0.006710 0.639456 0.623490
Si Si2 0.187658 0.694157 0.892087
Si Si3 0.473433 0.409727 0.844819
Si Si4 0.087864 0.299409 0.986259
Si Si5 0.764255 0.431026 0.068134
Si Si6 0.334710 0.871973 0.803405
Si Si7 0.637844 0.334355 0.172492
O O1 0.016686 0.574115 0.535031
O O2 0.087325 0.441175 0.688896
O O3 0.887473 0.583736 0.619395
O O4 0.043397 0.948246 0.638661
O O5 0.130568 0.450400 0.922001
O O6 0.279897 0.687272 0.854564
O O7 0.084844 0.849240 0.831909
O O8 0.245308 0.845685 0.976772
O O9 0.517442 0.550625 0.934183
O O10 0.405943 0.638994 0.783406
O O11 0.410106 0.130012 0.842414
O O12 0.198469 0.207568 0.054968
O O13 0.693687 0.258341 0.107130
O O14 0.235202 0.015540 0.738221
#
# Coordination Sequence:
#
# PCOD9137789 Si02
#       7
#     4   4   4   4   4   4   4
#     4  11  24  43  70  94 133 177 222 283 336 396
#     4  11  24  42  69 104 133 173 229 285 344 417
#     4  11  25  44  66 101 137 178 225 287 344 410
#     4  10  22  44  69 105 137 166 237 289 341 417
#     4  10  24  40  72  95 132 173 223 278 346 391
#     4  12  27  43  70  95 143 185 226 281 355 404
#     4  11  26  46  62 100 133 178 234 273 324 425
#
# _framework density 25.656043
#
# number of rings (size 3 to 8) (size 9 to 14) (size 15 to 20)
#    0.000    1.143    2.857    1.714    6.000    2.286 
#    0.000    0.000    0.000    0.000    0.000    0.000 
#    0.000    0.000    0.000    0.000    0.000    0.000 
#
# Total GULP energy -78166.148401 kJ/mol
# GULP energy per Si atom -5583.296314 kJ/mol
# Density = 2.559765 g / cm^3
# Si number density = 25.656043 Si / 1000 Ang^3
#
#
#
# Elastic Constant Matrix: (Units=GPa)
#
#
# Indices 1 2 3 4 5 6 
#
# 1 137.5611 50.0748 13.5150 0.0000 29.7353 0.0000
# 2 50.0748 125.5456 10.2011 0.0000 12.7930 0.0000
# 3 13.5150 10.2011 29.2293 0.0000 8.2019 0.0000
# 4 0.0000 0.0000 0.0000 27.3055 0.0000 -1.9081
# 5 29.7353 12.7930 8.2019 0.0000 37.1597 0.0000
# 6 0.0000 0.0000 0.0000 -1.9081 0.0000 22.1861
#
#
#
# Elastic Compliance Matrix: (Units=1/GPa)
#
#
# Indices 1 2 3 4 5 6 
#
# 1 0.010009 -0.003189 -0.001680 0.000000 -0.006541 0.000000
# 2 -0.003189 0.009409 -0.001723 0.000000 -0.000307 0.000000
# 3 -0.001680 -0.001723 0.037361 0.000000 -0.006309 0.000000
# 4 0.000000 0.000000 0.000000 0.036844 0.000000 0.003169
# 5 -0.006541 -0.000307 -0.006309 0.000000 0.033643 0.000000
# 6 0.000000 0.000000 0.000000 0.003169 0.000000 0.045346
#
#
# Mechanical properties :
#
#
# Convention : Reuss Voigt Hill
#
# Bulk Modulus (GPa) = 22.93853 48.87975 35.90914
# Shear Modulus (GPa) = 24.95925 31.89994 28.42960
#
# Velocity S-wave (km/s) = 3.12242 3.52997 3.33243
# Velocity P-wave (km/s) = 4.68610 5.97558 5.36969
#
# Compressibility (1/GPa) = 0.04359476
#
# Stress axis : x y z
#
# Youngs Moduli (GPa) = 99.90656 106.28610 26.76621
#
# Poissons Ratio (x) = 0.33898 0.04496
# Poissons Ratio (y) = 0.31863 0.04611
# Poissons Ratio (z) = 0.16781 0.18312
#
# Static dielectric constant tensor:
#      x y z
#    x 1.942800 0.000000 -0.004160 
#    y 0.000000 2.079300 0.000000 
#    z -0.004160 0.000000 2.159690 
# 
# From -- ./inp_files/32921.got.cif
#   From: 2010.05.17/outbox.cif.g08.bks.cpg/sg9_17_cif.got.tgz:32921.got - 2010.06.03 20:04:27.
