data_PCOD9137802
_publ_section_title
;
Structure prediction by ZEFSAII (Michael W. Deem and Ramdas Pophale) SiO2 
 PCOD9137802
Probable space group: C C
;
_chemical_formula_sum "Si O2"
_cell_formula_units_Z 28
_cell_length_a 10.434413
_cell_length_b 14.698496
_cell_length_c 9.013869
_cell_angle_alpha 90.000000
_cell_angle_beta 119.151834
_cell_angle_gamma 90.000000
_cell_volume 1207.345262
_symmetry_space_group_name_H-M "C C"
_symmetry_group_IT_number 9
_symmetry_cell_setting 'monoclinic'
loop_
_space_group_symop_operation_xyz
x,y,z
x,-y,1/2+z
1/2+x,1/2+y,z
1/2+x,1/2-y,1/2+z
loop_
_atom_site_type_symbol
_atom_site_label
_atom_site_fract_x
_atom_site_fract_y
_atom_site_fract_z
Si Si1 0.340290 0.821629 0.524300
Si Si2 0.145548 0.083774 0.696133
Si Si3 0.819034 0.282042 0.068995
Si Si4 0.859673 0.420723 0.834669
Si Si5 0.129047 0.514634 0.675648
Si Si6 0.564783 0.163997 0.880758
Si Si7 0.302026 0.605911 0.502848
O O1 0.195793 0.871924 0.380247
O O2 0.397856 0.874776 0.700258
O O3 0.468267 0.830215 0.473693
O O4 0.299890 0.715538 0.518425
O O5 0.226936 0.149497 0.623369
O O6 0.972840 0.081279 0.577929
O O7 0.221484 0.985867 0.732615
O O8 0.978931 0.265653 0.226249
O O9 0.829956 0.335129 0.922640
O O10 0.728600 0.191202 0.007138
O O11 0.982007 0.481164 0.989332
O O12 0.075110 0.576420 0.783046
O O13 0.241670 0.561381 0.622062
O O14 0.210799 0.432302 0.808693
#
# Coordination Sequence:
#
# PCOD9137802 Si02
#       7
#     4   4   4   4   4   4   4
#     4  11  26  48  83 107 153 201 268 313 390 463
#     4  11  26  45  75 106 149 199 246 317 387 457
#     4  10  22  44  70 100 142 192 249 304 379 452
#     4  11  26  46  78 107 150 202 259 310 388 471
#     4  11  30  47  76 112 157 200 258 322 391 455
#     4  10  23  48  72 107 145 201 247 316 380 457
#     4  12  29  50  76 117 156 203 261 328 381 461
#
# _framework density 23.191378
#
# number of rings (size 3 to 8) (size 9 to 14) (size 15 to 20)
#    0.000    1.143    1.429    1.714   14.000    3.429 
#    0.000    0.000    0.000    0.000    0.000    0.000 
#    0.000    0.000    0.000    0.000    0.000    0.000 
#
# Total GULP energy -78249.782469 kJ/mol
# GULP energy per Si atom -5589.270176 kJ/mol
# Density = 2.313859 g / cm^3
# Si number density = 23.191378 Si / 1000 Ang^3
#
#
#
# Elastic Constant Matrix: (Units=GPa)
#
#
# Indices 1 2 3 4 5 6 
#
# 1 79.6249 17.5487 49.7744 0.0000 9.4039 0.0000
# 2 17.5487 95.4050 70.8394 0.0000 -1.5015 0.0000
# 3 49.7744 70.8394 147.6256 0.0000 -5.0139 0.0000
# 4 0.0000 0.0000 0.0000 16.8162 0.0000 -0.8553
# 5 9.4039 -1.5015 -5.0139 0.0000 51.9838 0.0000
# 6 0.0000 0.0000 0.0000 -0.8553 0.0000 16.1080
#
#
#
# Elastic Compliance Matrix: (Units=1/GPa)
#
#
# Indices 1 2 3 4 5 6 
#
# 1 0.016730 0.001779 -0.006617 0.000000 -0.003613 0.000000
# 2 0.001779 0.016477 -0.008529 0.000000 -0.000669 0.000000
# 3 -0.006617 -0.008529 0.013173 0.000000 0.002221 0.000000
# 4 0.000000 0.000000 0.000000 0.059627 0.000000 0.003166
# 5 -0.003613 -0.000669 0.002221 0.000000 0.020085 0.000000
# 6 0.000000 0.000000 0.000000 0.003166 0.000000 0.062249
#
#
# Mechanical properties :
#
#
# Convention : Reuss Voigt Hill
#
# Bulk Modulus (GPa) = 50.90166 66.55338 58.72752
# Shear Modulus (GPa) = 22.56059 29.28112 25.92086
#
# Velocity S-wave (km/s) = 3.12236 3.55714 3.34682
# Velocity P-wave (km/s) = 5.91566 6.75506 6.34924
#
# Compressibility (1/GPa) = 0.01964572
#
# Stress axis : x y z
#
# Youngs Moduli (GPa) = 59.77263 60.69116 75.91114
#
# Poissons Ratio (x) = -0.10799 0.50233
# Poissons Ratio (y) = -0.10635 0.64746
# Poissons Ratio (z) = 0.39554 0.51765
#
# Static dielectric constant tensor:
#      x y z
#    x 1.849800 0.000000 -0.004410 
#    y 0.000000 1.902720 0.000000 
#    z -0.004410 0.000000 1.896840 
# 
# From -- ./inp_files/7526.got.cif
#   From: 2010.05.17/outbox.cif.g08.bks.cpg/sg9_4_cif.got.tgz:7526.got - 2010.06.03 20:04:27.
