data_PCOD9137751
_publ_section_title
;
Structure prediction by ZEFSAII (Michael W. Deem and Ramdas Pophale) SiO2 
 PCOD9137751
Probable space group: C C
;
_chemical_formula_sum "Si O2"
_cell_formula_units_Z 28
_cell_length_a 9.171442
_cell_length_b 7.110915
_cell_length_c 23.915771
_cell_angle_alpha 90.000000
_cell_angle_beta 46.684340
_cell_angle_gamma 90.000000
_cell_volume 1134.831557
_symmetry_space_group_name_H-M "C C"
_symmetry_group_IT_number 9
_symmetry_cell_setting 'monoclinic'
loop_
_space_group_symop_operation_xyz
x,y,z
x,-y,1/2+z
1/2+x,1/2+y,z
1/2+x,1/2-y,1/2+z
loop_
_atom_site_type_symbol
_atom_site_label
_atom_site_fract_x
_atom_site_fract_y
_atom_site_fract_z
Si Si1 0.738450 0.101235 0.048240
Si Si2 0.265275 0.760704 0.249962
Si Si3 0.674060 0.666954 0.949884
Si Si4 0.465335 0.830854 0.724721
Si Si5 0.109895 0.424646 0.345245
Si Si6 0.073104 0.418179 0.480174
Si Si7 0.643892 0.657304 0.084192
O O1 0.626589 0.183020 0.132067
O O2 0.704691 0.877833 0.065652
O O3 0.634116 0.183617 0.020262
O O4 0.970645 0.125488 0.972185
O O5 0.185219 0.638729 0.322811
O O6 0.452880 0.650989 0.173177
O O7 0.089636 0.738311 0.248037
O O8 0.359033 0.960849 0.245298
O O9 0.886226 0.579801 0.879521
O O10 0.699285 0.891056 0.945612
O O11 0.607457 0.606275 0.029874
O O12 0.272497 0.697005 0.770094
O O13 0.093895 0.341073 0.412276
O O14 0.838318 0.458216 0.551080
#
# Coordination Sequence:
#
# PCOD9137751 Si02
#       7
#     4   4   4   4   4   4   4
#     4  10  22  44  76  99 142 196 259 316 391 466
#     4  11  26  46  78 112 150 206 261 329 403 476
#     4  10  22  44  67 104 139 193 245 314 383 479
#     4  11  27  48  79 111 155 202 265 334 394 481
#     4  11  28  46  73 108 157 194 258 319 407 471
#     4  10  24  43  70 104 143 194 250 316 391 477
#     4   9  21  43  67 102 138 187 258 308 381 466
#
# _framework density 24.673262999999999
#
# number of rings (size 3 to 8) (size 9 to 14) (size 15 to 20)
#    0.000    1.714    1.429    0.000    6.000    9.143 
#    0.000    0.000    0.000    0.000    0.000    0.000 
#    0.000    0.000    0.000    0.000    0.000    0.000 
#
# Total GULP energy -78146.801933 kJ/mol
# GULP energy per Si atom -5581.914424 kJ/mol
# Density = 2.461711 g / cm^3
# Si number density = 24.673263 Si / 1000 Ang^3
#
#
#
# Elastic Constant Matrix: (Units=GPa)
#
#
# Indices 1 2 3 4 5 6 
#
# 1 98.1460 0.7741 32.0845 0.0000 3.2554 0.0000
# 2 0.7741 102.6863 49.3708 0.0000 -0.4437 0.0000
# 3 32.0845 49.3708 131.4846 0.0000 -26.7367 0.0000
# 4 0.0000 0.0000 0.0000 32.3701 0.0000 -19.6286
# 5 3.2554 -0.4437 -26.7367 0.0000 40.8561 0.0000
# 6 0.0000 0.0000 0.0000 -19.6286 0.0000 16.5935
#
#
#
# Elastic Compliance Matrix: (Units=1/GPa)
#
#
# Indices 1 2 3 4 5 6 
#
# 1 0.011732 0.002003 -0.004384 0.000000 -0.003782 0.000000
# 2 0.002003 0.012605 -0.006028 0.000000 -0.003968 0.000000
# 3 -0.004384 -0.006028 0.012684 0.000000 0.008585 0.000000
# 4 0.000000 0.000000 0.000000 0.109275 0.000000 0.129262
# 5 -0.003782 -0.003968 0.008585 0.000000 0.030352 0.000000
# 6 0.000000 0.000000 0.000000 0.129262 0.000000 0.213170
#
#
# Mechanical properties :
#
#
# Convention : Reuss Voigt Hill
#
# Bulk Modulus (GPa) = 49.50005 55.19730 52.34867
# Shear Modulus (GPa) = 12.09570 34.63644 23.36607
#
# Velocity S-wave (km/s) = 2.21653 3.75080 3.08071
# Velocity P-wave (km/s) = 5.16299 6.41700 5.82384
#
# Compressibility (1/GPa) = 0.02020200
#
# Stress axis : x y z
#
# Youngs Moduli (GPa) = 85.23959 79.33629 78.83690
#
# Poissons Ratio (x) = -0.15890 0.34561
# Poissons Ratio (y) = -0.17073 0.47526
# Poissons Ratio (z) = 0.37367 0.47827
#
# Static dielectric constant tensor:
#      x y z
#    x 2.020420 0.000000 0.028440 
#    y 0.000000 2.024030 0.000000 
#    z 0.028440 0.000000 1.871170 
# 
# From -- ./inp_files/28997.got.cif
#   From: 2010.05.17/outbox.cif.g08.bks.cpg/sg9_15_cif.got.tgz:28997.got - 2010.06.03 20:04:27.
