data_PCOD9137552
_publ_section_title
;
Structure prediction by ZEFSAII (Michael W. Deem and Ramdas Pophale) SiO2 
 PCOD9137552
Probable space group: C C
;
_chemical_formula_sum "Si O2"
_cell_formula_units_Z 28
_cell_length_a 9.370620
_cell_length_b 12.902342
_cell_length_c 10.579856
_cell_angle_alpha 90.000000
_cell_angle_beta 54.336950
_cell_angle_gamma 90.000000
_cell_volume 1039.246216
_symmetry_space_group_name_H-M "C C"
_symmetry_group_IT_number 9
_symmetry_cell_setting 'monoclinic'
loop_
_space_group_symop_operation_xyz
x,y,z
x,-y,1/2+z
1/2+x,1/2+y,z
1/2+x,1/2-y,1/2+z
loop_
_atom_site_type_symbol
_atom_site_label
_atom_site_fract_x
_atom_site_fract_y
_atom_site_fract_z
Si Si1 0.000000 0.787540 0.952900
Si Si2 0.982515 0.444199 0.700657
Si Si3 0.848983 0.571045 0.001027
Si Si4 0.320025 0.530888 0.607023
Si Si5 0.225166 0.753232 0.058572
Si Si6 0.553475 0.608585 0.830406
Si Si7 0.972500 0.917101 0.714643
O O1 0.962621 0.842915 0.838922
O O2 0.981159 0.667028 0.933767
O O3 0.173181 0.803265 0.949007
O O4 0.850609 0.847733 0.112847
O O5 0.159334 0.514354 0.595241
O O6 0.065021 0.329648 0.656510
O O7 0.856344 0.461294 0.645118
O O8 0.902557 0.485552 0.872603
O O9 0.660237 0.618180 0.061403
O O10 0.503644 0.483193 0.456722
O O11 0.296899 0.442216 0.727141
O O12 0.214558 0.824495 0.189786
O O13 0.405971 0.692237 0.946945
O O14 0.511235 0.537416 0.730367
#
# Coordination Sequence:
#
# PCOD9137552 Si02
#       7
#     4   4   4   4   4   4   4
#     4  10  24  41  74  96 137 188 243 275 369 431
#     4  10  26  45  71 102 144 189 244 289 365 424
#     4  11  27  46  72 105 142 195 237 304 357 442
#     4  10  23  46  70 100 141 185 227 302 354 423
#     4  10  22  42  71 100 130 195 234 279 347 448
#     4  10  23  41  69  98 137 178 235 285 350 424
#     4  11  25  43  71 105 141 178 242 302 358 414
#
# _framework density 26.942606999999999
#
# number of rings (size 3 to 8) (size 9 to 14) (size 15 to 20)
#    0.000    1.714    1.429    0.000   20.000    0.000 
#    7.714    0.000    0.000    0.000    0.000    0.000 
#    0.000    0.000    0.000    0.000    0.000    0.000 
#
# Total GULP energy -77942.405846 kJ/mol
# GULP energy per Si atom -5567.314703 kJ/mol
# Density = 2.688128 g / cm^3
# Si number density = 26.942607 Si / 1000 Ang^3
#
#
#
# Elastic Constant Matrix: (Units=GPa)
#
#
# Indices 1 2 3 4 5 6 
#
# 1 81.9834 -5.2239 0.0730 0.0000 0.9131 0.0000
# 2 -5.2239 79.9958 13.4619 0.0000 1.9039 0.0000
# 3 0.0730 13.4619 97.4922 0.0000 -2.9461 0.0000
# 4 0.0000 0.0000 0.0000 37.3066 0.0000 0.7562
# 5 0.9131 1.9039 -2.9461 0.0000 27.5088 0.0000
# 6 0.0000 0.0000 0.0000 0.7562 0.0000 40.8337
#
#
#
# Elastic Compliance Matrix: (Units=1/GPa)
#
#
# Indices 1 2 3 4 5 6 
#
# 1 0.012256 0.000835 -0.000139 0.000000 -0.000479 0.000000
# 2 0.000835 0.012887 -0.001814 0.000000 -0.001114 0.000000
# 3 -0.000139 -0.001814 0.010546 0.000000 0.001260 0.000000
# 4 0.000000 0.000000 0.000000 0.026815 0.000000 -0.000497
# 5 -0.000479 -0.001114 0.001260 0.000000 0.036580 0.000000
# 6 0.000000 0.000000 0.000000 -0.000497 0.000000 0.024499
#
#
# Mechanical properties :
#
#
# Convention : Reuss Voigt Hill
#
# Bulk Modulus (GPa) = 29.89185 30.67703 30.28444
# Shear Modulus (GPa) = 36.50459 37.87385 37.18922
#
# Velocity S-wave (km/s) = 3.68489 3.75337 3.71929
# Velocity P-wave (km/s) = 5.40586 5.49495 5.45058
#
# Compressibility (1/GPa) = 0.03345393
#
# Stress axis : x y z
#
# Youngs Moduli (GPa) = 81.59087 77.59804 94.82414
#
# Poissons Ratio (x) = -0.06481 0.01318
# Poissons Ratio (y) = -0.06814 0.17199
# Poissons Ratio (z) = 0.01134 0.14074
#
# Static dielectric constant tensor:
#      x y z
#    x 2.194630 0.000000 0.148160 
#    y 0.000000 2.150780 0.000000 
#    z 0.148160 0.000000 2.351630 
# 
# From -- ./inp_files/16368.got.cif
#   From: 2010.05.17/outbox.cif.g08.bks.cpg/sg9_9_cif.got.tgz:16368.got - 2010.06.03 20:04:27.
