data_PCOD9137813
_publ_section_title
;
Structure prediction by ZEFSAII (Michael W. Deem and Ramdas Pophale) SiO2 
 PCOD9137813
Probable space group: C C
;
_chemical_formula_sum "Si O2"
_cell_formula_units_Z 28
_cell_length_a 5.426483
_cell_length_b 13.893225
_cell_length_c 14.518526
_cell_angle_alpha 90.000000
_cell_angle_beta 84.626012
_cell_angle_gamma 90.000000
_cell_volume 1089.760172
_symmetry_space_group_name_H-M "C C"
_symmetry_group_IT_number 9
_symmetry_cell_setting 'monoclinic'
loop_
_space_group_symop_operation_xyz
x,y,z
x,-y,1/2+z
1/2+x,1/2+y,z
1/2+x,1/2-y,1/2+z
loop_
_atom_site_type_symbol
_atom_site_label
_atom_site_fract_x
_atom_site_fract_y
_atom_site_fract_z
Si Si1 0.810160 0.716930 0.745080
Si Si2 0.636350 0.713482 0.555124
Si Si3 0.598941 0.980814 0.407448
Si Si4 0.286279 0.723150 0.849562
Si Si5 0.940651 0.501287 0.223517
Si Si6 0.245931 0.873733 0.566289
Si Si7 0.874518 0.022213 0.565849
O O1 0.796616 0.744498 0.638125
O O2 0.552006 0.746778 0.798969
O O3 0.052917 0.750390 0.792102
O O4 0.813214 0.600825 0.746399
O O5 0.753204 0.733836 0.452381
O O6 0.370334 0.768995 0.566944
O O7 0.586532 0.600516 0.569287
O O8 0.762476 0.893364 0.360792
O O9 0.401226 0.925442 0.478555
O O10 0.493825 0.037329 0.324309
O O11 0.742711 0.046274 0.474489
O O12 0.801275 0.574872 0.162173
O O13 0.188576 0.476309 0.157396
O O14 0.974615 0.913636 0.552797
#
# Coordination Sequence:
#
# PCOD9137813 Si02
#       7
#     4   4   4   4   4   4   4
#     4  11  23  46  71 106 146 197 245 308 380 440
#     4  11  24  46  71 105 153 192 245 323 364 455
#     4   9  22  40  66  96 136 188 235 303 359 447
#     4  10  25  43  71 108 142 194 246 304 378 442
#     4  10  22  44  70  97 143 189 249 305 370 446
#     4  10  23  43  65 103 135 190 240 298 373 438
#     4  11  23  44  70 105 141 196 246 303 382 440
#
# _framework density 25.693726999999999
#
# number of rings (size 3 to 8) (size 9 to 14) (size 15 to 20)
#    0.000    1.714    1.429    1.714    6.000    3.429 
#   15.429    0.000    0.000    0.000    0.000    0.000 
#    0.000    0.000    0.000    0.000    0.000    0.000 
#
# Total GULP energy -78405.141843 kJ/mol
# GULP energy per Si atom -5600.367275 kJ/mol
# Density = 2.563525 g / cm^3
# Si number density = 25.693727 Si / 1000 Ang^3
#
#
#
# Elastic Constant Matrix: (Units=GPa)
#
#
# Indices 1 2 3 4 5 6 
#
# 1 117.8080 19.4166 84.9397 0.0000 0.2552 0.0000
# 2 19.4166 94.9555 21.0175 0.0000 -4.3465 0.0000
# 3 84.9397 21.0175 200.5142 0.0000 41.7377 0.0000
# 4 0.0000 0.0000 0.0000 31.2394 0.0000 -1.9660
# 5 0.2552 -4.3465 41.7377 0.0000 30.6458 0.0000
# 6 0.0000 0.0000 0.0000 -1.9660 0.0000 24.4140
#
#
#
# Elastic Compliance Matrix: (Units=1/GPa)
#
#
# Indices 1 2 3 4 5 6 
#
# 1 0.014738 -0.000593 -0.008566 0.000000 0.011460 0.000000
# 2 -0.000593 0.011224 -0.001755 0.000000 0.003987 0.000000
# 3 -0.008566 -0.001755 0.012333 0.000000 -0.016975 0.000000
# 4 0.000000 0.000000 0.000000 0.032174 0.000000 0.002591
# 5 0.011460 0.003987 -0.016975 0.000000 0.056219 0.000000
# 6 0.000000 0.000000 0.000000 0.002591 0.000000 0.041169
#
#
# Mechanical properties :
#
#
# Convention : Reuss Voigt Hill
#
# Bulk Modulus (GPa) = 60.73285 73.78058 67.25672
# Shear Modulus (GPa) = 25.61822 36.45344 31.03583
#
# Velocity S-wave (km/s) = 3.16105 3.77074 3.47928
# Velocity P-wave (km/s) = 6.08371 6.90910 6.50950
#
# Compressibility (1/GPa) = 0.01646555
#
# Stress axis : x y z
#
# Youngs Moduli (GPa) = 67.85392 89.09872 81.08173
#
# Poissons Ratio (x) = 0.05283 0.69456
# Poissons Ratio (y) = 0.04023 0.14232
# Poissons Ratio (z) = 0.58125 0.15639
#
# Static dielectric constant tensor:
#      x y z
#    x 2.071340 0.000000 0.046430 
#    y 0.000000 1.992180 0.000000 
#    z 0.046430 0.000000 1.979390 
# 
# From -- ./inp_files/21712.got.cif
#   From: 2010.05.17/outbox.cif.g08.bks.cpg/sg9_11_cif.got.tgz:21712.got - 2010.06.03 20:04:27.
