data_PCOD9137427
_publ_section_title
;
Structure prediction by ZEFSAII (Michael W. Deem and Ramdas Pophale) SiO2 
 PCOD9137427
Probable space group: C C
;
_chemical_formula_sum "Si O2"
_cell_formula_units_Z 28
_cell_length_a 11.636350
_cell_length_b 7.632836
_cell_length_c 30.832360
_cell_angle_alpha 90.000000
_cell_angle_beta 154.251850
_cell_angle_gamma 90.000000
_cell_volume 1189.639737
_symmetry_space_group_name_H-M "C C"
_symmetry_group_IT_number 9
_symmetry_cell_setting 'monoclinic'
loop_
_space_group_symop_operation_xyz
x,y,z
x,-y,1/2+z
1/2+x,1/2+y,z
1/2+x,1/2-y,1/2+z
loop_
_atom_site_type_symbol
_atom_site_label
_atom_site_fract_x
_atom_site_fract_y
_atom_site_fract_z
Si Si1 0.530780 0.970046 0.772660
Si Si2 0.980285 0.465822 0.108286
Si Si3 0.965618 0.459079 0.513272
Si Si4 0.323310 0.140929 0.789774
Si Si5 0.265958 0.224394 0.107094
Si Si6 0.519391 0.208246 0.942684
Si Si7 0.863546 0.934766 0.309449
O O1 0.426254 0.053612 0.781124
O O2 0.692781 0.098148 0.794653
O O3 0.307385 0.884513 0.665494
O O4 0.750809 0.821381 0.856619
O O5 0.821641 0.594906 0.086355
O O6 0.203810 0.372148 0.213003
O O7 0.092299 0.563694 0.103997
O O8 0.762241 0.335273 0.015786
O O9 0.667223 0.387430 0.415707
O O10 0.999819 0.666128 0.514230
O O11 0.082468 0.371098 0.510571
O O12 0.463851 0.084170 0.882435
O O13 0.364118 0.352769 0.802605
O O14 0.006078 0.133806 0.686970
#
# Coordination Sequence:
#
# PCOD9137427 Si02
#       7
#     4   4   4   4   4   4   4
#     4   9  19  43  67  88 129 165 219 266 319 379
#     4  10  22  42  61  94 130 169 213 263 325 374
#     4  12  23  41  65  95 134 164 216 268 317 385
#     4   9  19  43  64  93 124 169 217 266 318 380
#     4   9  24  40  63  93 127 170 217 261 322 380
#     4  10  23  38  62  99 125 166 218 260 320 388
#     4   9  22  39  66  94 127 171 214 262 323 376
#
# _framework density 23.536536999999999
#
# number of rings (size 3 to 8) (size 9 to 14) (size 15 to 20)
#    0.000    2.857    2.857    0.000    6.000    6.857 
#    0.000    0.000    0.000    0.000    0.000    0.000 
#    0.000    0.000    0.000    0.000    0.000    0.000 
#
# Total GULP energy -78127.241845 kJ/mol
# GULP energy per Si atom -5580.517275 kJ/mol
# Density = 2.348297 g / cm^3
# Si number density = 23.536537 Si / 1000 Ang^3
#
#
#
# Elastic Constant Matrix: (Units=GPa)
#
#
# Indices 1 2 3 4 5 6 
#
# 1 190.4417 38.3202 47.7369 0.0003 -43.2326 -0.0003
# 2 38.3202 21.5485 2.8035 0.0008 -6.2345 -0.0005
# 3 47.7369 2.8035 82.2207 0.0008 -13.0162 -0.0007
# 4 0.0003 0.0008 0.0008 18.0759 -0.0004 -8.4558
# 5 -43.2326 -6.2345 -13.0162 -0.0004 41.3587 0.0004
# 6 -0.0003 -0.0005 -0.0007 -8.4558 0.0004 37.3309
#
#
#
# Elastic Compliance Matrix: (Units=1/GPa)
#
#
# Indices 1 2 3 4 5 6 
#
# 1 0.012141 -0.018527 -0.005105 0.000001 0.008292 0.000000
# 2 -0.018527 0.076817 0.007267 -0.000004 -0.005500 0.000000
# 3 -0.005105 0.007267 0.014952 -0.000001 0.000465 0.000000
# 4 0.000001 -0.000004 -0.000001 0.061879 0.000001 0.014016
# 5 0.008292 -0.005500 0.000465 0.000001 0.032163 0.000000
# 6 0.000000 0.000000 0.000000 0.014016 0.000000 0.029962
#
#
# Mechanical properties :
#
#
# Convention : Reuss Voigt Hill
#
# Bulk Modulus (GPa) = 14.04880 52.43690 33.24285
# Shear Modulus (GPa) = 17.58267 33.04313 25.31290
#
# Velocity S-wave (km/s) = 2.73616 3.75094 3.28300
# Velocity P-wave (km/s) = 3.99550 6.40989 5.34091
#
# Compressibility (1/GPa) = 0.07118043
#
# Stress axis : x y z
#
# Youngs Moduli (GPa) = 82.36741 13.01788 66.88111
#
# Poissons Ratio (x) = 0.24118 0.34139
# Poissons Ratio (y) = 1.52603 -0.48601
# Poissons Ratio (z) = 0.42044 -0.09460
#
# Static dielectric constant tensor:
#      x y z
#    x 1.930980 0.000000 -0.014900 
#    y 0.000000 1.941090 0.000000 
#    z -0.014900 0.000000 1.931920 
# 
# From -- ./inp_files/33184.got.cif
#   From: 2010.05.17/outbox.cif.g08.bks.cpg/sg9_17_cif.got.tgz:33184.got - 2010.06.03 20:04:27.
