data_PCOD9137462
_publ_section_title
;
Structure prediction by ZEFSAII (Michael W. Deem and Ramdas Pophale) SiO2 
 PCOD9137462
Probable space group: C C
;
_chemical_formula_sum "Si O2"
_cell_formula_units_Z 32
_cell_length_a 14.583182
_cell_length_b 14.868511
_cell_length_c 8.545559
_cell_angle_alpha 90.000000
_cell_angle_beta 51.138144
_cell_angle_gamma 90.000000
_cell_volume 1442.808506
_symmetry_space_group_name_H-M "C C"
_symmetry_group_IT_number 9
_symmetry_cell_setting 'monoclinic'
loop_
_space_group_symop_operation_xyz
x,y,z
x,-y,1/2+z
1/2+x,1/2+y,z
1/2+x,1/2-y,1/2+z
loop_
_atom_site_type_symbol
_atom_site_label
_atom_site_fract_x
_atom_site_fract_y
_atom_site_fract_z
Si Si1 0.925330 0.099678 0.287190
Si Si2 0.972115 0.218521 0.763671
Si Si3 0.953432 0.574727 0.766499
Si Si4 0.778375 0.726994 0.954931
Si Si5 0.613246 0.831176 0.354687
Si Si6 0.390150 0.898742 0.992982
Si Si7 0.638708 0.360809 0.353055
Si Si8 0.832036 0.068012 0.730207
O O1 0.883090 0.202305 0.314432
O O2 0.906779 0.075919 0.488801
O O3 0.840589 0.032084 0.285847
O O4 0.051636 0.090504 0.069489
O O5 0.891821 0.138530 0.784469
O O6 0.032997 0.273066 0.556175
O O7 0.065425 0.175529 0.784512
O O8 0.899139 0.296426 0.927986
O O9 0.967918 0.590064 0.566418
O O10 0.045392 0.618721 0.787313
O O11 0.833433 0.630139 0.928567
O O12 0.936311 0.470065 0.819011
O O13 0.703894 0.762011 0.178599
O O14 0.695188 0.719957 0.893759
O O15 0.697820 0.902596 0.348453
O O16 0.252847 0.917230 0.178180
#
# Coordination Sequence:
#
# PCOD9137462 Si02
#       8
#     4   4   4   4   4   4   4   4
#     4  11  24  43  66  95 130 167 215 262 314 382
#     4  12  24  42  66  96 130 168 216 260 314 382
#     4  11  24  43  66  95 130 167 215 262 314 382
#     4  10  22  42  66  94 128 168 214 260 316 382
#     4  11  23  41  67  93 130 174 206 262 322 365
#     4  11  26  43  65  97 129 166 216 263 313 384
#     4  11  23  41  67  93 130 174 206 262 322 365
#     4  11  26  43  65  97 129 166 216 263 313 384
#
# _framework density 22.178968000000001
#
# number of rings (size 3 to 8) (size 9 to 14) (size 15 to 20)
#    0.000    1.000    0.000    7.500    0.000   12.000 
#    0.000    0.000    0.000    0.000    0.000    0.000 
#    0.000    0.000    0.000    0.000    0.000    0.000 
#
# Total GULP energy -89501.716052 kJ/mol
# GULP energy per Si atom -5593.857253 kJ/mol
# Density = 2.212849 g / cm^3
# Si number density = 22.178968 Si / 1000 Ang^3
#
#
#
# Elastic Constant Matrix: (Units=GPa)
#
#
# Indices 1 2 3 4 5 6 
#
# 1 107.6057 7.3324 -1.8940 0.0000 1.4803 0.0000
# 2 7.3324 49.4134 -4.2991 0.0000 6.6261 0.0000
# 3 -1.8940 -4.2991 47.3964 0.0000 -1.2416 0.0000
# 4 0.0000 0.0000 0.0000 18.2741 0.0000 8.3530
# 5 1.4803 6.6261 -1.2416 0.0000 25.5293 0.0000
# 6 0.0000 0.0000 0.0000 8.3530 0.0000 28.7398
#
#
#
# Elastic Compliance Matrix: (Units=1/GPa)
#
#
# Indices 1 2 3 4 5 6 
#
# 1 0.009392 -0.001348 0.000248 0.000000 -0.000183 0.000000
# 2 -0.001348 0.021308 0.001738 0.000000 -0.005368 0.000000
# 3 0.000248 0.001738 0.021281 0.000000 0.000569 0.000000
# 4 0.000000 0.000000 0.000000 0.063106 0.000000 -0.018341
# 5 -0.000183 -0.005368 0.000569 0.000000 0.040602 0.000000
# 6 0.000000 0.000000 0.000000 -0.018341 0.000000 0.040126
#
#
# Mechanical properties :
#
#
# Convention : Reuss Voigt Hill
#
# Bulk Modulus (GPa) = 18.77593 22.96600 20.87096
# Shear Modulus (GPa) = 23.55267 28.06040 25.80653
#
# Velocity S-wave (km/s) = 3.26227 3.56080 3.41480
# Velocity P-wave (km/s) = 4.76171 5.22332 4.99785
#
# Compressibility (1/GPa) = 0.05325968
#
# Stress axis : x y z
#
# Youngs Moduli (GPa) = 106.47476 46.92971 46.98992
#
# Poissons Ratio (x) = 0.06324 -0.01167
# Poissons Ratio (y) = 0.14348 -0.08168
# Poissons Ratio (z) = -0.02644 -0.08158
#
# Static dielectric constant tensor:
#      x y z
#    x 1.821050 0.000000 0.001880 
#    y 0.000000 1.773750 0.000000 
#    z 0.001880 0.000000 1.847530 
# 
# From -- ./inp_files/9666.got.cif
#   From: 2010.05.17/outbox.cif.g08.bks.cpg/sg9_5_cif.got.tgz:9666.got - 2010.06.03 20:04:27.
