data_PCOD9137346
_publ_section_title
;
Structure prediction by ZEFSAII (Michael W. Deem and Ramdas Pophale) SiO2 
 PCOD9137346
Probable space group: C C
;
_chemical_formula_sum "Si O2"
_cell_formula_units_Z 32
_cell_length_a 15.762344
_cell_length_b 10.600710
_cell_length_c 18.424732
_cell_angle_alpha 90.000000
_cell_angle_beta 155.212020
_cell_angle_gamma 90.000000
_cell_volume 1290.749766
_symmetry_space_group_name_H-M "C C"
_symmetry_group_IT_number 9
_symmetry_cell_setting 'monoclinic'
loop_
_space_group_symop_operation_xyz
x,y,z
x,-y,1/2+z
1/2+x,1/2+y,z
1/2+x,1/2-y,1/2+z
loop_
_atom_site_type_symbol
_atom_site_label
_atom_site_fract_x
_atom_site_fract_y
_atom_site_fract_z
Si Si1 0.730170 0.638453 0.268580
Si Si2 0.489971 0.726962 0.637430
Si Si3 0.883723 0.614646 0.915280
Si Si4 0.424010 0.586452 0.900628
Si Si5 0.540506 0.175639 0.891647
Si Si6 0.213312 0.934841 0.025505
Si Si7 0.380530 0.540138 0.089398
Si Si8 0.096510 0.477203 0.742652
O O1 0.902807 0.534245 0.418139
O O2 0.597383 0.597439 0.096579
O O3 0.579310 0.618806 0.220623
O O4 0.819894 0.775316 0.321221
O O5 0.650085 0.645869 0.716227
O O6 0.413404 0.830711 0.518787
O O7 0.404908 0.611129 0.617759
O O8 0.599425 0.831743 0.772391
O O9 0.999367 0.690417 0.944712
O O10 0.549053 0.535622 0.927944
O O11 0.240248 0.493242 0.783242
O O12 0.359985 0.109047 0.706590
O O13 0.596491 0.312741 0.906692
O O14 0.742429 0.093100 0.044508
O O15 0.368503 0.977847 0.082802
O O16 0.232917 0.555393 0.905172
#
# Coordination Sequence:
#
# PCOD9137346 Si02
#       8
#     4   4   4   4   4   4   4   4
#     4  10  23  41  64  96 130 181 227 277 349 406
#     4  11  21  40  65  98 133 177 224 272 344 412
#     4  11  22  38  68  96 129 176 228 277 335 419
#     4  11  23  45  65  96 139 175 227 289 341 411
#     4  11  22  42  66  97 134 174 227 286 342 403
#     4  11  24  44  68  98 136 177 229 288 346 410
#     4   9  21  41  64  97 136 175 223 289 334 410
#     4  10  22  41  66  92 133 181 219 282 339 405
#
# _framework density 24.791792000000001
#
# number of rings (size 3 to 8) (size 9 to 14) (size 15 to 20)
#    0.000    1.500    2.500    2.250    3.500    1.000 
#    4.500    0.000    0.000    0.000    0.000    0.000 
#    0.000    0.000    0.000    0.000    0.000    0.000 
#
# Total GULP energy -89178.261153 kJ/mol
# GULP energy per Si atom -5573.641322 kJ/mol
# Density = 2.473536 g / cm^3
# Si number density = 24.791792 Si / 1000 Ang^3
#
#
#
# Elastic Constant Matrix: (Units=GPa)
#
#
# Indices 1 2 3 4 5 6 
#
# 1 50.2275 10.7226 33.4328 -0.0002 3.5616 0.0005
# 2 10.7226 159.5486 55.0947 0.0079 19.0318 -0.0018
# 3 33.4328 55.0947 72.0294 0.0160 17.4482 -0.0040
# 4 -0.0002 0.0079 0.0160 45.4485 -0.0008 15.1229
# 5 3.5616 19.0318 17.4482 -0.0008 26.8143 -0.0003
# 6 0.0005 -0.0018 -0.0040 15.1229 -0.0003 21.5013
#
#
#
# Elastic Compliance Matrix: (Units=1/GPa)
#
#
# Indices 1 2 3 4 5 6 
#
# 1 0.031077 0.003673 -0.018522 0.000010 0.005318 -0.000011
# 2 0.003673 0.009057 -0.008259 0.000002 -0.001542 -0.000002
# 3 -0.018522 -0.008259 0.031793 -0.000016 -0.012366 0.000016
# 4 0.000010 0.000002 -0.000016 0.028726 0.000008 -0.020204
# 5 0.005318 -0.001542 -0.012366 0.000008 0.045728 -0.000008
# 6 -0.000011 -0.000002 0.000016 -0.020204 -0.000008 0.060719
#
#
# Mechanical properties :
#
#
# Convention : Reuss Voigt Hill
#
# Bulk Modulus (GPa) = 38.89393 53.36730 46.13062
# Shear Modulus (GPa) = 19.09224 30.92318 25.00771
#
# Velocity S-wave (km/s) = 2.77808 3.53557 3.17946
# Velocity P-wave (km/s) = 5.10026 6.18384 5.66800
#
# Compressibility (1/GPa) = 0.02571096
#
# Stress axis : x y z
#
# Youngs Moduli (GPa) = 32.17795 110.41619 31.45346
#
# Poissons Ratio (x) = -0.40558 0.58259
# Poissons Ratio (y) = -0.11820 0.25977
# Poissons Ratio (z) = 0.59601 0.91190
#
# Static dielectric constant tensor:
#      x y z
#    x 2.015020 0.000000 -0.102050 
#    y 0.000000 2.152260 0.000000 
#    z -0.102050 0.000000 2.306220 
# 
# From -- ./inp_files/36962.got.cif
#   From: 2010.05.17/outbox.cif.g08.bks.cpg/sg9_19_cif.got.tgz:36962.got - 2010.06.03 20:04:27.
