data_PCOD9137681
_publ_section_title
;
Structure prediction by ZEFSAII (Michael W. Deem and Ramdas Pophale) SiO2 
 PCOD9137681
Probable space group: C C
;
_chemical_formula_sum "Si O2"
_cell_formula_units_Z 32
_cell_length_a 16.574450
_cell_length_b 10.646904
_cell_length_c 13.987605
_cell_angle_alpha 90.000000
_cell_angle_beta 33.811540
_cell_angle_gamma 90.000000
_cell_volume 1373.542481
_symmetry_space_group_name_H-M "C C"
_symmetry_group_IT_number 9
_symmetry_cell_setting 'monoclinic'
loop_
_space_group_symop_operation_xyz
x,y,z
x,-y,1/2+z
1/2+x,1/2+y,z
1/2+x,1/2-y,1/2+z
loop_
_atom_site_type_symbol
_atom_site_label
_atom_site_fract_x
_atom_site_fract_y
_atom_site_fract_z
Si Si1 0.555200 0.214314 0.717060
Si Si2 0.286071 0.792261 0.357977
Si Si3 0.456442 0.367179 0.981404
Si Si4 0.784212 0.631063 0.236770
Si Si5 0.106187 0.242154 0.739275
Si Si6 0.706606 0.547549 0.502064
Si Si7 0.364818 0.644672 0.090921
Si Si8 0.434450 0.992532 0.937084
O O1 0.447840 0.180321 0.735795
O O2 0.712101 0.217840 0.517769
O O3 0.504207 0.338442 0.824498
O O4 0.539908 0.107101 0.810730
O O5 0.304054 0.707482 0.247039
O O6 0.186338 0.919433 0.459494
O O7 0.612514 0.372081 0.881785
O O8 0.358057 0.252792 0.116979
O O9 0.366141 0.494641 0.085196
O O10 0.798394 0.629275 0.336534
O O11 0.869541 0.511750 0.106362
O O12 0.096961 0.145422 0.659890
O O13 0.268389 0.287783 0.603707
O O14 0.017454 0.370118 0.823027
O O15 0.031863 0.176524 0.903816
O O16 0.795643 0.498105 0.505256
#
# Coordination Sequence:
#
# PCOD9137681 Si02
#       8
#     4   4   4   4   4   4   4   4
#     4  10  22  43  70  94 133 179 236 289 353 421
#     4  11  24  43  70 100 134 184 241 290 354 428
#     4  11  26  46  72 106 141 195 236 298 361 432
#     4  11  26  46  73 100 149 185 244 294 366 426
#     4  12  25  44  70  99 144 182 236 294 364 419
#     4  11  25  45  70  99 142 191 232 299 359 430
#     4  12  27  44  72 105 142 187 241 298 365 419
#     4  10  23  45  69  99 139 185 232 300 358 415
#
# _framework density 23.297422999999998
#
# number of rings (size 3 to 8) (size 9 to 14) (size 15 to 20)
#    0.000    1.000    1.250    5.250   10.500    2.000 
#    0.000    0.000    0.000    0.000    0.000    0.000 
#    0.000    0.000    0.000    0.000    0.000    0.000 
#
# Total GULP energy -89274.999094 kJ/mol
# GULP energy per Si atom -5579.687443 kJ/mol
# Density = 2.324440 g / cm^3
# Si number density = 23.297423 Si / 1000 Ang^3
#
#
#
# Elastic Constant Matrix: (Units=GPa)
#
#
# Indices 1 2 3 4 5 6 
#
# 1 45.0199 17.3244 30.0845 0.0000 9.8234 0.0000
# 2 17.3244 137.1109 57.9195 0.0000 14.3284 0.0000
# 3 30.0845 57.9195 134.4222 0.0000 24.9119 0.0000
# 4 0.0000 0.0000 0.0000 51.6403 0.0000 1.1416
# 5 9.8234 14.3284 24.9119 0.0000 50.4657 0.0000
# 6 0.0000 0.0000 0.0000 1.1416 0.0000 27.0542
#
#
#
# Elastic Compliance Matrix: (Units=1/GPa)
#
#
# Indices 1 2 3 4 5 6 
#
# 1 0.026491 -0.000954 -0.005077 0.000000 -0.002380 0.000000
# 2 -0.000954 0.008973 -0.003539 0.000000 -0.000615 0.000000
# 3 -0.005077 -0.003539 0.010711 0.000000 -0.003294 0.000000
# 4 0.000000 0.000000 0.000000 0.019383 0.000000 -0.000818
# 5 -0.002380 -0.000615 -0.003294 0.000000 0.022079 0.000000
# 6 0.000000 0.000000 0.000000 -0.000818 0.000000 0.036997
#
#
# Mechanical properties :
#
#
# Convention : Reuss Voigt Hill
#
# Bulk Modulus (GPa) = 36.98781 58.57887 47.78334
# Shear Modulus (GPa) = 32.72550 39.91370 36.31960
#
# Velocity S-wave (km/s) = 3.75198 4.14360 3.95264
# Velocity P-wave (km/s) = 5.88902 6.93477 6.43318
#
# Compressibility (1/GPa) = 0.02703593
#
# Stress axis : x y z
#
# Youngs Moduli (GPa) = 37.74817 111.44464 93.36383
#
# Poissons Ratio (x) = 0.10631 0.47400
# Poissons Ratio (y) = 0.03601 0.33040
# Poissons Ratio (z) = 0.19164 0.39438
#
# Static dielectric constant tensor:
#      x y z
#    x 1.889320 0.000000 -0.004290 
#    y 0.000000 2.011790 0.000000 
#    z -0.004290 0.000000 1.902560 
# 
# From -- ./inp_files/9327.got.cif
#   From: 2010.05.17/outbox.cif.g08.bks.cpg/sg9_5_cif.got.tgz:9327.got - 2010.06.03 20:04:27.
