data_PCOD9137463
_publ_section_title
;
Structure prediction by ZEFSAII (Michael W. Deem and Ramdas Pophale) SiO2 
 PCOD9137463
Probable space group: C C
;
_chemical_formula_sum "Si O2"
_cell_formula_units_Z 28
_cell_length_a 19.561443
_cell_length_b 12.601734
_cell_length_c 12.584666
_cell_angle_alpha 90.000000
_cell_angle_beta 21.600466
_cell_angle_gamma 90.000000
_cell_volume 1142.027590
_symmetry_space_group_name_H-M "C C"
_symmetry_group_IT_number 9
_symmetry_cell_setting 'monoclinic'
loop_
_space_group_symop_operation_xyz
x,y,z
x,-y,1/2+z
1/2+x,1/2+y,z
1/2+x,1/2-y,1/2+z
loop_
_atom_site_type_symbol
_atom_site_label
_atom_site_fract_x
_atom_site_fract_y
_atom_site_fract_z
Si Si1 0.510600 0.394092 0.603020
Si Si2 0.377516 0.220684 0.269553
Si Si3 0.906953 0.929435 0.103427
Si Si4 0.868727 0.739055 0.521343
Si Si5 0.716856 0.508627 0.002395
Si Si6 0.196528 0.619004 0.690363
Si Si7 0.585142 0.898033 0.873134
O O1 0.405642 0.459465 0.665639
O O2 0.688536 0.334881 0.301596
O O3 0.593275 0.468661 0.576573
O O4 0.352378 0.327496 0.892536
O O5 0.449999 0.225007 0.285925
O O6 0.239329 0.119121 0.476152
O O7 0.350684 0.341380 0.271599
O O8 0.518368 0.187153 0.972470
O O9 0.113693 0.936752 0.750973
O O10 0.778099 0.908317 0.188595
O O11 0.769459 0.853689 0.663625
O O12 0.009732 0.696556 0.406406
O O13 0.917770 0.562615 0.691121
O O14 0.133904 0.504266 0.737445
#
# Coordination Sequence:
#
# PCOD9137463 Si02
#       7
#     4   4   4   4   4   4   4
#     4  10  22  42  66  94 136 182 226 294 349 415
#     4  11  24  40  67 100 134 181 237 286 356 418
#     4  11  23  41  72  98 138 187 231 299 351 427
#     4  11  24  41  71  98 136 182 233 287 359 415
#     4   9  22  46  62 101 143 179 232 297 350 421
#     4  10  25  44  63 100 138 182 238 287 361 428
#     4  10  24  44  67  99 141 181 235 292 352 432
#
# _framework density 24.517797000000002
#
# number of rings (size 3 to 8) (size 9 to 14) (size 15 to 20)
#    0.000    1.714    1.429    0.857   10.000    0.000 
#    0.000    0.000    0.000    0.000    0.000    0.000 
#    0.000    0.000    0.000    0.000    0.000    0.000 
#
# Total GULP energy -78169.337822 kJ/mol
# GULP energy per Si atom -5583.524130 kJ/mol
# Density = 2.446199 g / cm^3
# Si number density = 24.517797 Si / 1000 Ang^3
#
#
#
# Elastic Constant Matrix: (Units=GPa)
#
#
# Indices 1 2 3 4 5 6 
#
# 1 78.1797 20.6911 13.7866 -0.0003 16.8826 0.0001
# 2 20.6911 74.8147 14.9489 0.0002 5.5607 0.0000
# 3 13.7866 14.9489 122.1976 -0.0007 17.4046 0.0005
# 4 -0.0003 0.0002 -0.0007 31.2728 0.0004 5.7490
# 5 16.8826 5.5607 17.4046 0.0004 29.9058 -0.0002
# 6 0.0001 0.0000 0.0005 5.7490 -0.0002 27.0151
#
#
#
# Elastic Compliance Matrix: (Units=1/GPa)
#
#
# Indices 1 2 3 4 5 6 
#
# 1 0.015513 -0.003664 -0.000165 0.000000 -0.007980 0.000000
# 2 -0.003664 0.014648 -0.001401 0.000000 0.000161 0.000000
# 3 -0.000165 -0.001401 0.009075 0.000000 -0.004928 0.000000
# 4 0.000000 0.000000 0.000000 0.033279 -0.000001 -0.007082
# 5 -0.007980 0.000161 -0.004928 -0.000001 0.040781 0.000001
# 6 0.000000 0.000000 0.000000 -0.007082 0.000001 0.038523
#
#
# Mechanical properties :
#
#
# Convention : Reuss Voigt Hill
#
# Bulk Modulus (GPa) = 34.75296 41.56056 38.15676
# Shear Modulus (GPa) = 29.09118 32.68976 30.89047
#
# Velocity S-wave (km/s) = 3.44835 3.65541 3.55339
# Velocity P-wave (km/s) = 5.48271 5.89949 5.69492
#
# Compressibility (1/GPa) = 0.02877453
#
# Stress axis : x y z
#
# Youngs Moduli (GPa) = 64.46099 68.26947 110.18760
#
# Poissons Ratio (x) = 0.25016 0.01822
# Poissons Ratio (y) = 0.23620 0.15441
# Poissons Ratio (z) = 0.01066 0.09567
#
# Static dielectric constant tensor:
#      x y z
#    x 1.925430 0.000000 -0.019270 
#    y 0.000000 1.961820 0.000000 
#    z -0.019270 0.000000 2.025510 
# 
# From -- ./inp_files/21505.got.cif
#   From: 2010.05.17/outbox.cif.g08.bks.cpg/sg9_11_cif.got.tgz:21505.got - 2010.06.03 20:04:27.
