data_PCOD9137143
_publ_section_title
;
Structure prediction by ZEFSAII (Michael W. Deem and Ramdas Pophale) SiO2 
 PCOD9137143
Probable space group: C C
;
_chemical_formula_sum "Si O2"
_cell_formula_units_Z 32
_cell_length_a 9.048139
_cell_length_b 27.383087
_cell_length_c 5.837730
_cell_angle_alpha 90.000000
_cell_angle_beta 97.346395
_cell_angle_gamma 90.000000
_cell_volume 1434.517786
_symmetry_space_group_name_H-M "C C"
_symmetry_group_IT_number 9
_symmetry_cell_setting 'monoclinic'
loop_
_space_group_symop_operation_xyz
x,y,z
x,-y,1/2+z
1/2+x,1/2+y,z
1/2+x,1/2-y,1/2+z
loop_
_atom_site_type_symbol
_atom_site_label
_atom_site_fract_x
_atom_site_fract_y
_atom_site_fract_z
Si Si1 0.728950 0.894706 0.500000
Si Si2 0.544925 0.814672 0.212985
Si Si3 0.828573 0.524283 0.332524
Si Si4 0.668071 0.006366 0.853333
Si Si5 0.033400 0.799112 0.722036
Si Si6 0.508763 0.631129 0.832988
Si Si7 0.264039 0.344604 0.906281
Si Si8 0.249182 0.126766 0.536066
O O1 0.650585 0.844848 0.403885
O O2 0.639911 0.935590 0.350151
O O3 0.712790 0.893568 0.768992
O O4 0.907080 0.899268 0.490213
O O5 0.544944 0.757868 0.271201
O O6 0.624673 0.817715 0.982190
O O7 0.390963 0.843657 0.158395
O O8 0.782036 0.504576 0.064651
O O9 0.785877 0.580660 0.380511
O O10 0.008451 0.519265 0.348207
O O11 0.744470 0.001707 0.121015
O O12 0.053034 0.818381 0.466501
O O13 0.147773 0.832933 0.885810
O O14 0.865433 0.813105 0.758226
O O15 0.380697 0.641517 0.623651
O O16 0.649060 0.609057 0.731831
#
# Coordination Sequence:
#
# PCOD9137143 Si02
#       8
#     4   4   4   4   4   4   4   4
#     4  10  22  42  69  96 136 179 226 289 352 425
#     4  11  24  37  68  99 131 181 238 282 354 418
#     4  10  23  42  69 102 142 178 234 300 363 422
#     4  10  22  39  68 102 141 173 233 293 356 414
#     4  10  24  42  63  94 140 183 228 285 354 429
#     4   9  22  44  65  89 139 177 226 280 355 419
#     4   9  22  40  63  88 130 175 228 276 345 414
#     4  11  25  42  69 102 141 182 235 295 361 419
#
# _framework density 22.307148000000002
#
# number of rings (size 3 to 8) (size 9 to 14) (size 15 to 20)
#    0.000    2.000    0.000    1.500   15.750    2.000 
#    0.000    1.250    0.000    0.000    0.000    0.000 
#    0.000    0.000    0.000    0.000    0.000    0.000 
#
# Total GULP energy -89086.507070 kJ/mol
# GULP energy per Si atom -5567.906692 kJ/mol
# Density = 2.225638 g / cm^3
# Si number density = 22.307148 Si / 1000 Ang^3
#
#
#
# Elastic Constant Matrix: (Units=GPa)
#
#
# Indices 1 2 3 4 5 6 
#
# 1 107.2838 27.6704 17.2238 0.0000 -8.8129 0.0000
# 2 27.6704 81.9098 20.0704 0.0000 -0.5051 0.0000
# 3 17.2238 20.0704 115.5845 0.0000 -2.8053 0.0000
# 4 0.0000 0.0000 0.0000 33.2954 0.0000 2.3340
# 5 -8.8129 -0.5051 -2.8053 0.0000 30.0262 0.0000
# 6 0.0000 0.0000 0.0000 2.3340 0.0000 7.1510
#
#
#
# Elastic Compliance Matrix: (Units=1/GPa)
#
#
# Indices 1 2 3 4 5 6 
#
# 1 0.010571 -0.003326 -0.000926 0.000000 0.002960 0.000000
# 2 -0.003326 0.013797 -0.001923 0.000000 -0.000924 0.000000
# 3 -0.000926 -0.001923 0.009137 0.000000 0.000550 0.000000
# 4 0.000000 0.000000 0.000000 0.030737 0.000000 -0.010032
# 5 0.002960 -0.000924 0.000550 0.000000 0.034209 0.000000
# 6 0.000000 0.000000 0.000000 -0.010032 0.000000 0.143115
#
#
# Mechanical properties :
#
#
# Convention : Reuss Voigt Hill
#
# Bulk Modulus (GPa) = 47.26713 48.30081 47.78397
# Shear Modulus (GPa) = 19.15947 30.08208 24.62078
#
# Velocity S-wave (km/s) = 2.93387 3.67623 3.32583
# Velocity P-wave (km/s) = 5.71944 6.30232 6.01794
#
# Compressibility (1/GPa) = 0.02115635
#
# Stress axis : x y z
#
# Youngs Moduli (GPa) = 94.60146 72.47706 109.44710
#
# Poissons Ratio (x) = 0.24105 0.10133
# Poissons Ratio (y) = 0.31463 0.21043
# Poissons Ratio (z) = 0.08759 0.13935
#
# Static dielectric constant tensor:
#      x y z
#    x 1.798910 0.000000 -0.045880 
#    y 0.000000 1.999510 0.000000 
#    z -0.045880 0.000000 2.027390 
# 
# From -- ./inp_files/1404.got.cif
#   From: 2010.05.17/outbox.cif.g08.bks.cpg/sg9_1_cif.got.tgz:1404.got - 2010.06.03 20:04:27.
