data_PCOD9137279
_publ_section_title
;
Structure prediction by ZEFSAII (Michael W. Deem and Ramdas Pophale) SiO2 
 PCOD9137279
Probable space group: C C
;
_chemical_formula_sum "Si O2"
_cell_formula_units_Z 20
_cell_length_a 7.302772
_cell_length_b 7.950484
_cell_length_c 14.237172
_cell_angle_alpha 90.000000
_cell_angle_beta 64.820284
_cell_angle_gamma 90.000000
_cell_volume 748.071198
_symmetry_space_group_name_H-M "C C"
_symmetry_group_IT_number 9
_symmetry_cell_setting 'monoclinic'
loop_
_space_group_symop_operation_xyz
x,y,z
x,-y,1/2+z
1/2+x,1/2+y,z
1/2+x,1/2-y,1/2+z
loop_
_atom_site_type_symbol
_atom_site_label
_atom_site_fract_x
_atom_site_fract_y
_atom_site_fract_z
Si Si1 0.719900 0.564563 0.298610
Si Si2 0.765994 0.215281 0.631645
Si Si3 0.601421 0.000567 0.495883
Si Si4 0.085784 0.203620 0.692303
Si Si5 0.322253 0.798824 0.953301
O O1 0.627440 0.695467 0.241869
O O2 0.684782 0.389379 0.257203
O O3 0.677623 0.587884 0.417866
O O4 0.953736 0.632982 0.247671
O O5 0.912565 0.369263 0.559038
O O6 0.917291 0.105753 0.664590
O O7 0.665102 0.114478 0.570095
O O8 0.788657 0.886734 0.420950
O O9 0.531809 0.113947 0.425709
O O10 0.251382 0.231161 0.576244
#
# Coordination Sequence:
#
# PCOD9137279 Si02
#       5
#     4   4   4   4   4
#     4  10  22  40  70  98 133 173 224 266 333 391
#     4   9  23  42  63  96 126 173 212 271 322 380
#     4  11  24  40  71  88 135 169 220 264 333 379
#     4   9  20  44  64  97 131 173 214 281 313 397
#     4  11  23  44  70  97 135 178 218 272 335 389
#
# _framework density 26.735423999999998
#
# number of rings (size 3 to 8) (size 9 to 14) (size 15 to 20)
#    1.200    0.800    2.000    0.000    2.800    6.400 
#    0.000    0.000    0.000    0.000    0.000    0.000 
#    0.000    0.000    0.000    0.000    0.000    0.000 
#
# Total GULP energy -55690.079949 kJ/mol
# GULP energy per Si atom -5569.007995 kJ/mol
# Density = 2.667457 g / cm^3
# Si number density = 26.735424 Si / 1000 Ang^3
#
#
#
# Elastic Constant Matrix: (Units=GPa)
#
#
# Indices 1 2 3 4 5 6 
#
# 1 106.2442 74.8943 51.3078 0.0000 37.3052 0.0000
# 2 74.8943 125.4822 60.7841 0.0000 35.9714 0.0000
# 3 51.3078 60.7841 146.1623 0.0000 33.9444 0.0000
# 4 0.0000 0.0000 0.0000 46.9533 0.0000 22.7172
# 5 37.3052 35.9714 33.9444 0.0000 49.2410 0.0000
# 6 0.0000 0.0000 0.0000 22.7172 0.0000 63.3941
#
#
#
# Elastic Compliance Matrix: (Units=1/GPa)
#
#
# Indices 1 2 3 4 5 6 
#
# 1 0.018358 -0.008312 -0.001390 0.000000 -0.006878 0.000000
# 2 -0.008312 0.015043 -0.002677 0.000000 -0.002847 0.000000
# 3 -0.001390 -0.002677 0.009220 0.000000 -0.003347 0.000000
# 4 0.000000 0.000000 0.000000 0.025765 0.000000 -0.009233
# 5 -0.006878 -0.002847 -0.003347 0.000000 0.029906 0.000000
# 6 0.000000 0.000000 0.000000 -0.009233 0.000000 0.019083
#
#
# Mechanical properties :
#
#
# Convention : Reuss Voigt Hill
#
# Bulk Modulus (GPa) = 55.98249 83.54013 69.76131
# Shear Modulus (GPa) = 33.76384 44.64453 39.20419
#
# Velocity S-wave (km/s) = 3.55757 4.09083 3.83348
# Velocity P-wave (km/s) = 6.15304 7.32311 6.76343
#
# Compressibility (1/GPa) = 0.01786273
#
# Stress axis : x y z
#
# Youngs Moduli (GPa) = 54.47255 66.47606 108.45526
#
# Poissons Ratio (x) = 0.55254 0.15079
# Poissons Ratio (y) = 0.45277 0.29034
# Poissons Ratio (z) = 0.07574 0.17796
#
# Static dielectric constant tensor:
#      x y z
#    x 2.164920 0.000000 -0.151660 
#    y 0.000000 2.189290 0.000000 
#    z -0.151660 0.000000 2.238310 
# 
# From -- ./inp_files/22343.got.cif
#   From: 2010.05.17/outbox.cif.g08.bks.cpg/sg9_12_cif.got.tgz:22343.got - 2010.06.03 20:04:27.
