data_PCOD9137904
_publ_section_title
;
Structure prediction by ZEFSAII (Michael W. Deem and Ramdas Pophale) SiO2 
 PCOD9137904
Probable space group: C C
;
_chemical_formula_sum "Si O2"
_cell_formula_units_Z 28
_cell_length_a 13.870908
_cell_length_b 4.781092
_cell_length_c 16.210013
_cell_angle_alpha 90.000000
_cell_angle_beta 73.306254
_cell_angle_gamma 90.000000
_cell_volume 1029.709232
_symmetry_space_group_name_H-M "C C"
_symmetry_group_IT_number 9
_symmetry_cell_setting 'monoclinic'
loop_
_space_group_symop_operation_xyz
x,y,z
x,-y,1/2+z
1/2+x,1/2+y,z
1/2+x,1/2-y,1/2+z
loop_
_atom_site_type_symbol
_atom_site_label
_atom_site_fract_x
_atom_site_fract_y
_atom_site_fract_z
Si Si1 0.453190 0.937297 0.825240
Si Si2 0.261872 0.413544 0.430284
Si Si3 0.909195 0.749826 0.995059
Si Si4 0.742794 0.003368 0.755826
Si Si5 0.908519 0.448105 0.662326
Si Si6 0.127240 0.982488 0.221641
Si Si7 0.579671 0.615743 0.557925
O O1 0.353780 0.774500 0.877824
O O2 0.420370 0.099595 0.748443
O O3 0.537460 0.702958 0.783561
O O4 0.467950 0.129497 0.901573
O O5 0.307552 0.611013 0.488486
O O6 0.232919 0.575147 0.354088
O O7 0.172706 0.222106 0.483696
O O8 0.987588 0.964388 0.020357
O O9 0.880324 0.522826 0.072431
O O10 0.843571 0.168876 0.703554
O O11 0.723970 0.723021 0.709013
O O12 0.655992 0.231630 0.759170
O O13 0.025740 0.376616 0.616319
O O14 0.110049 0.055356 0.130416
#
# Coordination Sequence:
#
# PCOD9137904 Si02
#       7
#     4   4   4   4   4   4   4
#     4  10  23  42  67 105 145 190 252 310 383 445
#     4  11  24  41  73 105 140 200 251 317 376 458
#     4  10  22  45  69  99 149 193 258 306 380 455
#     4  11  25  45  74 105 147 195 252 307 390 445
#     4   8  21  44  63 105 143 192 244 313 375 447
#     4  11  25  46  72 106 147 196 248 317 378 456
#     4   9  22  45  66 107 141 196 253 312 384 448
#
# _framework density 27.192145
#
# number of rings (size 3 to 8) (size 9 to 14) (size 15 to 20)
#    0.857    1.143    0.000    1.714   10.000    0.000 
#    2.571    0.000    0.000    0.000    0.000    0.000 
#    0.000    0.000    0.000    0.000    0.000    0.000 
#
# Total GULP energy -78207.890890 kJ/mol
# GULP energy per Si atom -5586.277921 kJ/mol
# Density = 2.713025 g / cm^3
# Si number density = 27.192145 Si / 1000 Ang^3
#
#
#
# Elastic Constant Matrix: (Units=GPa)
#
#
# Indices 1 2 3 4 5 6 
#
# 1 111.7514 33.8395 71.5424 0.0004 30.1738 0.0004
# 2 33.8395 97.5207 40.6050 0.0009 17.1570 0.0009
# 3 71.5424 40.6050 144.7790 -0.0004 19.5570 -0.0005
# 4 0.0004 0.0009 -0.0004 12.7249 -0.0001 -7.7682
# 5 30.1738 17.1570 19.5570 -0.0001 63.9831 0.0002
# 6 0.0004 0.0009 -0.0005 -7.7682 0.0002 26.6584
#
#
#
# Elastic Compliance Matrix: (Units=1/GPa)
#
#
# Indices 1 2 3 4 5 6 
#
# 1 0.014624 -0.001721 -0.006128 -0.000001 -0.004562 0.000000
# 2 -0.001721 0.012120 -0.002315 -0.000001 -0.001731 -0.000001
# 3 -0.006128 -0.002315 0.010546 0.000001 0.000287 0.000001
# 4 -0.000001 -0.000001 0.000001 0.095591 0.000000 0.027855
# 5 -0.004562 -0.001731 0.000287 0.000000 0.018157 0.000000
# 6 0.000000 -0.000001 0.000001 0.027855 0.000000 0.045629
#
#
# Mechanical properties :
#
#
# Convention : Reuss Voigt Hill
#
# Bulk Modulus (GPa) = 58.95247 71.78053 65.36650
# Shear Modulus (GPa) = 22.45709 34.54423 28.50066
#
# Velocity S-wave (km/s) = 2.87691 3.56810 3.24098
# Velocity P-wave (km/s) = 5.72385 6.59014 6.17221
#
# Compressibility (1/GPa) = 0.01696282
#
# Stress axis : x y z
#
# Youngs Moduli (GPa) = 68.37988 82.51016 94.82640
#
# Poissons Ratio (x) = 0.14196 0.58107
# Poissons Ratio (y) = 0.11765 0.21953
# Poissons Ratio (z) = 0.41901 0.19102
#
# Static dielectric constant tensor:
#      x y z
#    x 2.266240 0.000000 0.081520 
#    y 0.000000 2.193880 0.000000 
#    z 0.081520 0.000000 2.157140 
# 
# From -- ./inp_files/33018.got.cif
#   From: 2010.05.17/outbox.cif.g08.bks.cpg/sg9_17_cif.got.tgz:33018.got - 2010.06.03 20:04:27.
