data_PCOD9137364
_publ_section_title
;
Structure prediction by ZEFSAII (Michael W. Deem and Ramdas Pophale) SiO2 
 PCOD9137364
Probable space group: C C
;
_chemical_formula_sum "Si O2"
_cell_formula_units_Z 32
_cell_length_a 9.675240
_cell_length_b 10.896538
_cell_length_c 12.649159
_cell_angle_alpha 90.000000
_cell_angle_beta 76.452673
_cell_angle_gamma 90.000000
_cell_volume 1296.454177
_symmetry_space_group_name_H-M "C C"
_symmetry_group_IT_number 9
_symmetry_cell_setting 'monoclinic'
loop_
_space_group_symop_operation_xyz
x,y,z
x,-y,1/2+z
1/2+x,1/2+y,z
1/2+x,1/2-y,1/2+z
loop_
_atom_site_type_symbol
_atom_site_label
_atom_site_fract_x
_atom_site_fract_y
_atom_site_fract_z
Si Si1 0.356490 0.824426 0.886230
Si Si2 0.534783 0.948619 0.425248
Si Si3 0.580233 0.386190 0.042793
Si Si4 0.010408 0.078038 0.906660
Si Si5 0.829307 0.737585 0.005424
Si Si6 0.914140 0.427277 0.651214
Si Si7 0.260274 0.832957 0.219451
Si Si8 0.293085 0.593369 0.334310
O O1 0.432032 0.934065 0.935825
O O2 0.188777 0.840786 0.931216
O O3 0.408745 0.695127 0.920163
O O4 0.410371 0.848552 0.757777
O O5 0.676396 0.986632 0.340179
O O6 0.440346 0.832922 0.406454
O O7 0.550283 0.922298 0.548637
O O8 0.541933 0.524389 0.016292
O O9 0.428740 0.321209 0.061465
O O10 0.662837 0.350951 0.133209
O O11 0.159091 0.117502 0.830582
O O12 0.936025 0.972874 0.847784
O O13 0.740595 0.827092 0.947349
O O14 0.791792 0.629276 0.094306
O O15 0.884743 0.567608 0.685950
O O16 0.298803 0.692576 0.239870
#
# Coordination Sequence:
#
# PCOD9137364 Si02
#       8
#     4   4   4   4   4   4   4   4
#     4  12  21  42  70  97 133 184 226 284 348 401
#     4  10  22  41  67  95 133 175 225 280 342 401
#     4  11  23  42  67 100 137 180 230 283 340 413
#     4  11  26  43  69  98 139 180 228 282 348 407
#     4   9  22  42  63  96 137 172 225 280 339 407
#     4  10  23  41  66  99 129 180 229 278 346 407
#     4  12  23  42  69  99 138 178 233 283 342 416
#     4  11  24  45  67 100 136 179 226 282 339 416
#
# _framework density 24.682708999999999
#
# number of rings (size 3 to 8) (size 9 to 14) (size 15 to 20)
#    0.750    0.500    3.750    2.250    1.750    1.000 
#    2.250    6.250    0.000    0.000    0.000    0.000 
#    0.000    0.000    0.000    0.000    0.000    0.000 
#
# Total GULP energy -89288.209190 kJ/mol
# GULP energy per Si atom -5580.513074 kJ/mol
# Density = 2.462653 g / cm^3
# Si number density = 24.682709 Si / 1000 Ang^3
#
#
#
# Elastic Constant Matrix: (Units=GPa)
#
#
# Indices 1 2 3 4 5 6 
#
# 1 54.7732 8.5570 -4.1589 0.0000 10.0629 0.0000
# 2 8.5570 87.5928 18.8975 0.0000 17.0759 0.0000
# 3 -4.1589 18.8975 63.1967 0.0000 21.5851 0.0000
# 4 0.0000 0.0000 0.0000 44.3985 0.0000 13.4891
# 5 10.0629 17.0759 21.5851 0.0000 32.7026 0.0000
# 6 0.0000 0.0000 0.0000 13.4891 0.0000 46.7506
#
#
#
# Elastic Compliance Matrix: (Units=1/GPa)
#
#
# Indices 1 2 3 4 5 6 
#
# 1 0.020420 -0.001314 0.004710 0.000000 -0.008706 0.000000
# 2 -0.001314 0.012990 -0.002314 0.000000 -0.004851 0.000000
# 3 0.004710 -0.002314 0.021829 0.000000 -0.014649 0.000000
# 4 0.000000 0.000000 0.000000 0.024687 0.000000 -0.007123
# 5 -0.008706 -0.004851 -0.014649 0.000000 0.045460 0.000000
# 6 0.000000 0.000000 0.000000 -0.007123 0.000000 0.023445
#
#
# Mechanical properties :
#
#
# Convention : Reuss Voigt Hill
#
# Bulk Modulus (GPa) = 17.42042 28.01709 22.71875
# Shear Modulus (GPa) = 30.15680 36.92148 33.53914
#
# Velocity S-wave (km/s) = 3.49919 3.87181 3.69020
# Velocity P-wave (km/s) = 4.83723 5.60031 5.23270
#
# Compressibility (1/GPa) = 0.05740390
#
# Stress axis : x y z
#
# Youngs Moduli (GPa) = 48.97270 76.98401 45.81054
#
# Poissons Ratio (x) = 0.10114 -0.21578
# Poissons Ratio (y) = 0.06434 0.10600
# Poissons Ratio (z) = -0.23068 0.17812
#
# Static dielectric constant tensor:
#      x y z
#    x 1.971910 0.000000 0.021990 
#    y 0.000000 2.005700 0.000000 
#    z 0.021990 0.000000 2.014630 
# 
# From -- ./inp_files/16222.got.cif
#   From: 2010.05.17/outbox.cif.g08.bks.cpg/sg9_9_cif.got.tgz:16222.got - 2010.06.03 20:04:27.
