data_PCOD9137748
_publ_section_title
;
Structure prediction by ZEFSAII (Michael W. Deem and Ramdas Pophale) SiO2 
 PCOD9137748
Probable space group: C C
;
_chemical_formula_sum "Si O2"
_cell_formula_units_Z 20
_cell_length_a 9.001167
_cell_length_b 16.753764
_cell_length_c 5.354983
_cell_angle_alpha 90.000000
_cell_angle_beta 87.950975
_cell_angle_gamma 90.000000
_cell_volume 807.033444
_symmetry_space_group_name_H-M "C C"
_symmetry_group_IT_number 9
_symmetry_cell_setting 'monoclinic'
loop_
_space_group_symop_operation_xyz
x,y,z
x,-y,1/2+z
1/2+x,1/2+y,z
1/2+x,1/2-y,1/2+z
loop_
_atom_site_type_symbol
_atom_site_label
_atom_site_fract_x
_atom_site_fract_y
_atom_site_fract_z
Si Si1 0.193600 0.776006 0.936640
Si Si2 0.183907 0.873577 0.452777
Si Si3 0.468595 0.157512 0.171960
Si Si4 0.375897 0.416755 0.377770
Si Si5 0.747734 0.093534 0.384089
O O1 0.131584 0.829445 0.709719
O O2 0.366165 0.780868 0.834621
O O3 0.194025 0.816173 0.211858
O O4 0.076792 0.704198 0.976807
O O5 0.350920 0.896958 0.525184
O O6 0.051624 0.933070 0.384452
O O7 0.575128 0.110447 0.355084
O O8 0.287598 0.500078 0.384225
O O9 0.325097 0.373000 0.631045
O O10 0.322534 0.374228 0.129568
#
# Coordination Sequence:
#
# PCOD9137748 Si02
#       5
#     4   4   4   4   4
#     4  10  25  39  71 102 144 180 232 293 346 422
#     4  10  24  42  67  99 139 188 230 292 338 430
#     4  10  26  44  70 106 142 185 235 283 360 414
#     4  10  22  44  67 102 132 186 235 284 353 402
#     4  10  23  41  73  97 139 185 230 290 343 424
#
# _framework density 24.782122000000001
#
# number of rings (size 3 to 8) (size 9 to 14) (size 15 to 20)
#    1.200    0.800    0.000    1.200    8.400    1.600 
#    0.000    8.000    0.000    0.000    0.000    0.000 
#    0.000    0.000    0.000    0.000    0.000    0.000 
#
# Total GULP energy -55715.970608 kJ/mol
# GULP energy per Si atom -5571.597061 kJ/mol
# Density = 2.472572 g / cm^3
# Si number density = 24.782122 Si / 1000 Ang^3
#
#
#
# Elastic Constant Matrix: (Units=GPa)
#
#
# Indices 1 2 3 4 5 6 
#
# 1 203.0831 49.8213 52.8473 0.0000 64.3681 0.0000
# 2 49.8213 38.8836 0.5511 0.0000 50.2751 0.0000
# 3 52.8473 0.5511 193.5160 0.0000 54.9137 0.0000
# 4 0.0000 0.0000 0.0000 25.2358 0.0000 3.1199
# 5 64.3681 50.2751 54.9137 0.0000 -28.0222 0.0000
# 6 0.0000 0.0000 0.0000 3.1199 0.0000 42.5451
#
#
#
# Elastic Compliance Matrix: (Units=1/GPa)
#
#
# Indices 1 2 3 4 5 6 
#
# 1 0.007863 -0.008672 -0.001820 0.000000 -0.001065 0.000000
# 2 -0.008672 0.019928 -0.001402 0.000000 0.013087 0.000000
# 3 -0.001820 -0.001402 0.004864 0.000000 0.002835 0.000000
# 4 0.000000 0.000000 0.000000 0.039989 0.000000 -0.002932
# 5 -0.001065 0.013087 0.002835 0.000000 -0.009097 0.000000
# 6 0.000000 0.000000 0.000000 -0.002932 0.000000 0.023720
#
#
# Mechanical properties :
#
#
# Convention : Reuss Voigt Hill
#
# Bulk Modulus (GPa) = 112.78396 71.32466 92.05431
# Shear Modulus (GPa) = 43.85554 30.10262 36.97908
#
# Velocity S-wave (km/s) = 4.21128 3.48902 3.86705
# Velocity P-wave (km/s) = 8.32199 6.71373 7.56074
#
# Compressibility (1/GPa) = 0.00886651
#
# Stress axis : x y z
#
# Youngs Moduli (GPa) = 127.18214 50.17950 205.58537
#
# Poissons Ratio (x) = 0.43515 0.37424
# Poissons Ratio (y) = 1.10292 0.28825
# Poissons Ratio (z) = 0.23152 0.07036
#
# Static dielectric constant tensor:
#      x y z
#    x 2.009240 0.000000 0.050830 
#    y 0.000000 0.715940 0.000000 
#    z 0.050830 0.000000 2.192750 
# 
# From -- ./inp_files/307.got.cif
#   From: 2010.05.17/outbox.cif.g08.bks.cpg/sg9_1_cif.got.tgz:307.got - 2010.06.03 20:04:27.
