data_PCOD9137354
_publ_section_title
;
Structure prediction by ZEFSAII (Michael W. Deem and Ramdas Pophale) SiO2 
 PCOD9137354
Probable space group: C C
;
_chemical_formula_sum "Si O2"
_cell_formula_units_Z 32
_cell_length_a 15.680690
_cell_length_b 5.770999
_cell_length_c 24.274041
_cell_angle_alpha 90.000000
_cell_angle_beta 145.821425
_cell_angle_gamma 90.000000
_cell_volume 1234.013563
_symmetry_space_group_name_H-M "C C"
_symmetry_group_IT_number 9
_symmetry_cell_setting 'monoclinic'
loop_
_space_group_symop_operation_xyz
x,y,z
x,-y,1/2+z
1/2+x,1/2+y,z
1/2+x,1/2-y,1/2+z
loop_
_atom_site_type_symbol
_atom_site_label
_atom_site_fract_x
_atom_site_fract_y
_atom_site_fract_z
Si Si1 0.686740 0.884114 0.162200
Si Si2 0.691085 0.847276 0.553043
Si Si3 0.330696 0.220337 0.983711
Si Si4 0.899883 0.512960 0.215232
Si Si5 0.409018 0.246346 0.826949
Si Si6 0.965497 0.153035 0.663232
Si Si7 0.770127 0.469901 0.843389
Si Si8 0.845779 0.229276 0.982450
O O1 0.796220 0.695548 0.192779
O O2 0.525342 0.765841 0.092481
O O3 0.644984 0.059029 0.089085
O O4 0.794623 0.035024 0.260648
O O5 0.796540 0.629336 0.618787
O O6 0.556389 0.755095 0.443613
O O7 0.797863 0.050472 0.585126
O O8 0.466613 0.244514 0.101910
O O9 0.275652 0.483883 0.959790
O O10 0.265996 0.963153 0.963439
O O11 0.329418 0.172622 0.917196
O O12 0.953868 0.330015 0.289350
O O13 0.005258 0.658727 0.231185
O O14 0.320728 0.036444 0.810050
O O15 0.089497 0.958914 0.742324
O O16 0.835307 0.251543 0.910434
#
# Coordination Sequence:
#
# PCOD9137354 Si02
#       8
#     4   4   4   4   4   4   4   4
#     4  10  22  41  67 101 141 188 243 307 370 445
#     4  10  23  45  69  98 143 191 251 305 379 447
#     4  10  25  45  69 105 146 192 239 307 374 452
#     4  10  26  43  69  99 146 190 252 300 378 452
#     4  11  23  44  72 106 141 194 254 316 374 453
#     4  11  25  47  69 106 144 201 242 315 378 455
#     4  10  25  43  71 109 148 188 253 308 382 446
#     4  10  23  44  70 106 145 184 242 300 373 438
#
# _framework density 25.931646000000001
#
# number of rings (size 3 to 8) (size 9 to 14) (size 15 to 20)
#    0.750    1.000    1.250    0.750   10.500    4.000 
#    9.000    0.000    0.000    0.000    0.000    0.000 
#    0.000    0.000    0.000    0.000    0.000    0.000 
#
# Total GULP energy -89137.404574 kJ/mol
# GULP energy per Si atom -5571.087786 kJ/mol
# Density = 2.587262 g / cm^3
# Si number density = 25.931646 Si / 1000 Ang^3
#
#
#
# Elastic Constant Matrix: (Units=GPa)
#
#
# Indices 1 2 3 4 5 6 
#
# 1 56.4594 12.0471 48.9943 0.0000 -12.6731 0.0005
# 2 12.0471 127.1204 17.5379 0.0001 -3.8460 0.0010
# 3 48.9943 17.5379 154.7938 0.0000 -12.2188 0.0001
# 4 0.0000 0.0001 0.0000 32.6968 0.0000 -16.1852
# 5 -12.6731 -3.8460 -12.2188 0.0000 42.2104 -0.0001
# 6 0.0005 0.0010 0.0001 -16.1852 -0.0001 11.0676
#
#
#
# Elastic Compliance Matrix: (Units=1/GPa)
#
#
# Indices 1 2 3 4 5 6 
#
# 1 0.025782 -0.001232 -0.007592 -0.000002 0.005431 -0.000004
# 2 -0.001232 0.008060 -0.000506 -0.000001 0.000218 -0.000002
# 3 -0.007592 -0.000506 0.008941 0.000001 0.000263 0.000001
# 4 -0.000002 -0.000001 0.000001 0.110768 0.000000 0.161986
# 5 0.005431 0.000218 0.000263 0.000000 0.025417 0.000000
# 6 -0.000004 -0.000002 0.000001 0.161986 0.000000 0.327240
#
#
# Mechanical properties :
#
#
# Convention : Reuss Voigt Hill
#
# Bulk Modulus (GPa) = 41.45379 55.05913 48.25646
# Shear Modulus (GPa) = 9.38246 34.51460 21.94853
#
# Velocity S-wave (km/s) = 1.90421 3.65222 2.91245
# Velocity P-wave (km/s) = 4.56675 6.25008 5.47351
#
# Compressibility (1/GPa) = 0.02412325
#
# Stress axis : x y z
#
# Youngs Moduli (GPa) = 38.78695 124.07408 111.84075
#
# Poissons Ratio (x) = 0.15281 0.84910
# Poissons Ratio (y) = 0.04777 0.05660
# Poissons Ratio (z) = 0.29447 0.06280
#
# Static dielectric constant tensor:
#      x y z
#    x 2.126820 0.000000 0.027650 
#    y 0.000000 2.046270 0.000000 
#    z 0.027650 0.000000 2.061080 
# 
# From -- ./inp_files/36915.got.cif
#   From: 2010.05.17/outbox.cif.g08.bks.cpg/sg9_19_cif.got.tgz:36915.got - 2010.06.03 20:04:27.
