data_PCOD9137692
_publ_section_title
;
Structure prediction by ZEFSAII (Michael W. Deem and Ramdas Pophale) SiO2 
 PCOD9137692
Probable space group: C C
;
_chemical_formula_sum "Si O2"
_cell_formula_units_Z 20
_cell_length_a 9.935533
_cell_length_b 15.207297
_cell_length_c 4.900183
_cell_angle_alpha 90.000000
_cell_angle_beta 97.407590
_cell_angle_gamma 90.000000
_cell_volume 734.202241
_symmetry_space_group_name_H-M "C C"
_symmetry_group_IT_number 9
_symmetry_cell_setting 'monoclinic'
loop_
_space_group_symop_operation_xyz
x,y,z
x,-y,1/2+z
1/2+x,1/2+y,z
1/2+x,1/2-y,1/2+z
loop_
_atom_site_type_symbol
_atom_site_label
_atom_site_fract_x
_atom_site_fract_y
_atom_site_fract_z
Si Si1 0.045420 0.935426 0.283390
Si Si2 0.945778 0.436326 0.691684
Si Si3 0.459305 0.704818 0.412409
Si Si4 0.263850 0.165536 0.554466
Si Si5 0.240054 0.437749 0.817840
O O1 0.196281 0.905919 0.239321
O O2 0.968937 0.841188 0.220516
O O3 0.025212 0.988590 0.550646
O O4 0.947275 0.520934 0.894260
O O5 0.837220 0.374312 0.809911
O O6 0.094267 0.391578 0.752817
O O7 0.376399 0.786222 0.270964
O O8 0.621991 0.709601 0.401379
O O9 0.358232 0.628808 0.275124
O O10 0.246424 0.477815 0.122369
#
# Coordination Sequence:
#
# PCOD9137692 Si02
#       5
#     4   4   4   4   4
#     4  10  22  46  76 102 136 198 254 296 356 456
#     4  10  22  43  71 103 140 192 249 306 364 447
#     4  10  24  45  72 109 152 195 247 312 382 444
#     4  10  24  45  72 109 152 195 247 312 382 444
#     4  10  22  43  71 103 140 192 249 306 364 447
#
# _framework density 27.240449999999999
#
# number of rings (size 3 to 8) (size 9 to 14) (size 15 to 20)
#    1.200    0.800    0.000    2.400    0.000    4.800 
#    3.600    6.000    0.000    0.000    0.000    0.000 
#    0.000    0.000    0.000    0.000    0.000    0.000 
#
# Total GULP energy -55732.687528 kJ/mol
# GULP energy per Si atom -5573.268753 kJ/mol
# Density = 2.717845 g / cm^3
# Si number density = 27.240450 Si / 1000 Ang^3
#
#
#
# Elastic Constant Matrix: (Units=GPa)
#
#
# Indices 1 2 3 4 5 6 
#
# 1 210.8639 53.4111 25.2727 0.0000 11.5084 0.0000
# 2 53.4111 86.2234 12.0673 0.0000 -2.6723 0.0000
# 3 25.2727 12.0673 91.2834 0.0000 -17.6113 0.0000
# 4 0.0000 0.0000 0.0000 29.9794 0.0000 23.6579
# 5 11.5084 -2.6723 -17.6113 0.0000 39.1066 0.0000
# 6 0.0000 0.0000 0.0000 23.6579 0.0000 37.8457
#
#
#
# Elastic Compliance Matrix: (Units=1/GPa)
#
#
# Indices 1 2 3 4 5 6 
#
# 1 0.006005 -0.003564 -0.001729 0.000000 -0.002789 0.000000
# 2 -0.003564 0.013932 -0.000514 0.000000 0.001770 0.000000
# 3 -0.001729 -0.000514 0.012696 0.000000 0.006191 0.000000
# 4 0.000000 0.000000 0.000000 0.065831 0.000000 -0.041152
# 5 -0.002789 0.001770 0.006191 0.000000 0.029301 0.000000
# 6 0.000000 0.000000 0.000000 -0.041152 0.000000 0.052148
#
#
# Mechanical properties :
#
#
# Convention : Reuss Voigt Hill
#
# Bulk Modulus (GPa) = 47.57652 63.31921 55.44787
# Shear Modulus (GPa) = 25.18473 41.22764 33.20619
#
# Velocity S-wave (km/s) = 3.04391 3.89456 3.49521
# Velocity P-wave (km/s) = 5.46417 6.59685 6.05705
#
# Compressibility (1/GPa) = 0.02101877
#
# Stress axis : x y z
#
# Youngs Moduli (GPa) = 166.53698 71.77593 78.76414
#
# Poissons Ratio (x) = 0.25581 0.13622
# Poissons Ratio (y) = 0.59354 0.04046
# Poissons Ratio (z) = 0.28802 0.03687
#
# Static dielectric constant tensor:
#      x y z
#    x 2.255160 0.000000 0.173230 
#    y 0.000000 2.194840 0.000000 
#    z 0.173230 0.000000 2.169630 
# 
# From -- ./inp_files/1508.got.cif
#   From: 2010.05.17/outbox.cif.g08.bks.cpg/sg9_1_cif.got.tgz:1508.got - 2010.06.03 20:04:27.
