data_PCOD9137715
_publ_section_title
;
Structure prediction by ZEFSAII (Michael W. Deem and Ramdas Pophale) SiO2 
 PCOD9137715
Probable space group: C C
;
_chemical_formula_sum "Si O2"
_cell_formula_units_Z 32
_cell_length_a 7.634478
_cell_length_b 32.341506
_cell_length_c 4.961500
_cell_angle_alpha 90.000000
_cell_angle_beta 89.503619
_cell_angle_gamma 90.000000
_cell_volume 1225.000552
_symmetry_space_group_name_H-M "C C"
_symmetry_group_IT_number 9
_symmetry_cell_setting 'monoclinic'
loop_
_space_group_symop_operation_xyz
x,y,z
x,-y,1/2+z
1/2+x,1/2+y,z
1/2+x,1/2-y,1/2+z
loop_
_atom_site_type_symbol
_atom_site_label
_atom_site_fract_x
_atom_site_fract_y
_atom_site_fract_z
Si Si1 0.141970 0.358374 0.683600
Si Si2 0.825446 0.402606 0.863007
Si Si3 0.383578 0.473398 0.256612
Si Si4 0.385086 0.181040 0.565887
Si Si5 0.961556 0.476767 0.219853
Si Si6 0.736023 0.724462 0.059970
Si Si7 0.961744 0.891578 0.958717
Si Si8 0.885196 0.191732 0.772995
O O1 0.068587 0.327190 0.912725
O O2 0.282750 0.390783 0.793097
O O3 0.241673 0.331118 0.463508
O O4 0.968502 0.386494 0.645308
O O5 0.820452 0.365574 0.085214
O O6 0.882251 0.440516 0.044215
O O7 0.627239 0.401049 0.767620
O O8 0.437256 0.508775 0.042625
O O9 0.454277 0.428828 0.171602
O O10 0.171833 0.471415 0.229868
O O11 0.371512 0.204344 0.845053
O O12 0.044377 0.212957 0.944163
O O13 0.263842 0.203982 0.350146
O O14 0.911347 0.516124 0.030143
O O15 0.799264 0.770900 0.108516
O O16 0.957790 0.846032 0.092343
#
# Coordination Sequence:
#
# PCOD9137715 Si02
#       8
#     4   4   4   4   4   4   4   4
#     4  10  26  49  78 116 150 214 260 335 407 480
#     4  10  23  49  76 114 158 209 267 330 402 489
#     4  10  23  44  75 116 160 210 267 330 401 485
#     4  10  26  51  80 110 157 204 268 330 404 480
#     4  10  22  43  74 112 157 207 261 326 405 483
#     4  12  29  53  80 119 155 214 269 346 409 488
#     4  12  25  49  80 117 165 214 273 337 414 490
#     4  12  30  50  83 118 166 214 279 346 416 497
#
# _framework density 26.122437000000001
#
# number of rings (size 3 to 8) (size 9 to 14) (size 15 to 20)
#    0.750    0.500    2.500    0.750    7.000    3.000 
#    2.250    1.250    0.000    0.000    0.000    0.000 
#    0.000    0.000    0.000    0.000    0.000    0.000 
#
# Total GULP energy -89520.251361 kJ/mol
# GULP energy per Si atom -5595.015710 kJ/mol
# Density = 2.606298 g / cm^3
# Si number density = 26.122437 Si / 1000 Ang^3
#
#
#
# Elastic Constant Matrix: (Units=GPa)
#
#
# Indices 1 2 3 4 5 6 
#
# 1 130.4282 11.0766 18.4853 0.0000 -18.8392 0.0000
# 2 11.0766 114.5293 7.7011 0.0000 13.2463 0.0000
# 3 18.4853 7.7011 77.2084 0.0000 -9.7578 0.0000
# 4 0.0000 0.0000 0.0000 29.6117 0.0000 -8.2170
# 5 -18.8392 13.2463 -9.7578 0.0000 30.9552 0.0000
# 6 0.0000 0.0000 0.0000 -8.2170 0.0000 15.5360
#
#
#
# Elastic Compliance Matrix: (Units=1/GPa)
#
#
# Indices 1 2 3 4 5 6 
#
# 1 0.008765 -0.001404 -0.001259 0.000000 0.005538 0.000000
# 2 -0.001404 0.009574 -0.001296 0.000000 -0.005360 0.000000
# 3 -0.001259 -0.001296 0.013910 0.000000 0.004174 0.000000
# 4 0.000000 0.000000 0.000000 0.039579 0.000000 0.020933
# 5 0.005538 -0.005360 0.004174 0.000000 0.039284 0.000000
# 6 0.000000 0.000000 0.000000 0.020933 0.000000 0.075438
#
#
# Mechanical properties :
#
#
# Convention : Reuss Voigt Hill
#
# Bulk Modulus (GPa) = 41.09812 44.07687 42.58749
# Shear Modulus (GPa) = 24.68188 34.21413 29.44800
#
# Velocity S-wave (km/s) = 3.07718 3.62299 3.36118
# Velocity P-wave (km/s) = 5.32846 5.86611 5.60373
#
# Compressibility (1/GPa) = 0.02433201
#
# Stress axis : x y z
#
# Youngs Moduli (GPa) = 114.09637 104.44727 71.89056
#
# Poissons Ratio (x) = 0.14660 0.09048
# Poissons Ratio (y) = 0.16014 0.09319
# Poissons Ratio (z) = 0.14359 0.13540
#
# Static dielectric constant tensor:
#      x y z
#    x 2.125990 0.000000 -0.003310 
#    y 0.000000 2.056000 0.000000 
#    z -0.003310 0.000000 2.000640 
# 
# From -- ./inp_files/1261.got.cif
#   From: 2010.05.17/outbox.cif.g08.bks.cpg/sg9_1_cif.got.tgz:1261.got - 2010.06.03 20:04:27.
