data_PCOD9137839
_publ_section_title
;
Structure prediction by ZEFSAII (Michael W. Deem and Ramdas Pophale) SiO2 
 PCOD9137839
Probable space group: C C
;
_chemical_formula_sum "Si O2"
_cell_formula_units_Z 32
_cell_length_a 24.305565
_cell_length_b 4.717434
_cell_length_c 10.268946
_cell_angle_alpha 90.000000
_cell_angle_beta 102.156493
_cell_angle_gamma 90.000000
_cell_volume 1151.033571
_symmetry_space_group_name_H-M "C C"
_symmetry_group_IT_number 9
_symmetry_cell_setting 'monoclinic'
loop_
_space_group_symop_operation_xyz
x,y,z
x,-y,1/2+z
1/2+x,1/2+y,z
1/2+x,1/2-y,1/2+z
loop_
_atom_site_type_symbol
_atom_site_label
_atom_site_fract_x
_atom_site_fract_y
_atom_site_fract_z
Si Si1 0.146210 0.461104 0.367390
Si Si2 0.270815 0.596732 0.437922
Si Si3 0.034086 0.046124 0.079269
Si Si4 0.436667 0.749000 0.694228
Si Si5 0.154900 0.836792 0.129207
Si Si6 0.524840 0.961330 0.413124
Si Si7 0.360689 0.239138 0.644466
Si Si8 0.773646 0.412738 0.775943
O O1 0.206218 0.581578 0.450877
O O2 0.152642 0.549650 0.217611
O O3 0.148944 0.190007 0.469214
O O4 0.082769 0.552364 0.371553
O O5 0.317839 0.438213 0.542854
O O6 0.280841 0.924079 0.416751
O O7 0.273450 0.418793 0.303811
O O8 0.098499 0.993329 0.151510
O O9 0.984530 0.917273 0.138798
O O10 0.026511 0.871869 0.940314
O O11 0.027502 0.377542 0.052539
O O12 0.398506 0.489145 0.727229
O O13 0.469320 0.929751 0.817890
O O14 0.401345 0.996614 0.601178
O O15 0.213027 0.987966 0.193804
O O16 0.323735 0.038946 0.718202
#
# Coordination Sequence:
#
# PCOD9137839 Si02
#       8
#     4   4   4   4   4   4   4   4
#     4  10  22  46  74 108 148 188 240 304 372 434
#     4  11  25  45  71 105 143 191 242 305 370 439
#     4  11  25  45  70 106 143 190 243 304 372 436
#     4  12  26  46  71 103 147 193 249 302 364 446
#     4  10  22  44  74 108 148 188 240 310 370 440
#     4  11  25  45  71 105 143 191 242 305 370 439
#     4  12  26  46  71 103 147 193 249 302 364 446
#     4  11  25  45  70 106 143 190 243 304 372 436
#
# _framework density 27.801098
#
# number of rings (size 3 to 8) (size 9 to 14) (size 15 to 20)
#    0.000    1.000    2.500    3.000    0.000   14.000 
#    9.000    0.000    0.000    0.000    0.000    0.000 
#    0.000    0.000    0.000    0.000    0.000    0.000 
#
# Total GULP energy -89416.234397 kJ/mol
# GULP energy per Si atom -5588.514650 kJ/mol
# Density = 2.773782 g / cm^3
# Si number density = 27.801098 Si / 1000 Ang^3
#
#
#
# Elastic Constant Matrix: (Units=GPa)
#
#
# Indices 1 2 3 4 5 6 
#
# 1 179.5391 44.7470 34.8769 0.0000 11.9496 0.0000
# 2 44.7470 137.4460 25.3147 0.0000 7.7610 0.0000
# 3 34.8769 25.3147 55.6866 0.0000 9.2050 0.0000
# 4 0.0000 0.0000 0.0000 43.7505 0.0000 0.2633
# 5 11.9496 7.7610 9.2050 0.0000 44.7928 0.0000
# 6 0.0000 0.0000 0.0000 0.2633 0.0000 40.3735
#
#
#
# Elastic Compliance Matrix: (Units=1/GPa)
#
#
# Indices 1 2 3 4 5 6 
#
# 1 0.006649 -0.001502 -0.003345 0.000000 -0.000826 0.000000
# 2 -0.001502 0.008298 -0.002754 0.000000 -0.000471 0.000000
# 3 -0.003345 -0.002754 0.021819 0.000000 -0.003114 0.000000
# 4 0.000000 0.000000 0.000000 0.022858 0.000000 -0.000149
# 5 -0.000826 -0.000471 -0.003114 0.000000 0.023267 0.000000
# 6 0.000000 0.000000 0.000000 -0.000149 0.000000 0.024770
#
#
# Mechanical properties :
#
#
# Convention : Reuss Voigt Hill
#
# Bulk Modulus (GPa) = 46.37095 64.72766 55.54931
# Shear Modulus (GPa) = 38.44650 43.63224 41.03937
#
# Velocity S-wave (km/s) = 3.72279 3.96592 3.84627
# Velocity P-wave (km/s) = 5.93251 6.65615 6.30472
#
# Compressibility (1/GPa) = 0.02156523
#
# Stress axis : x y z
#
# Youngs Moduli (GPa) = 150.40063 120.50589 45.83097
#
# Poissons Ratio (x) = 0.18099 0.15330
# Poissons Ratio (y) = 0.22589 0.12621
# Poissons Ratio (z) = 0.50308 0.33185
#
# Static dielectric constant tensor:
#      x y z
#    x 2.138620 0.000000 -0.001660 
#    y 0.000000 2.095200 0.000000 
#    z -0.001660 0.000000 2.247050 
# 
# From -- ./inp_files/20484.got.cif
#   From: 2010.05.17/outbox.cif.g08.bks.cpg/sg9_11_cif.got.tgz:20484.got - 2010.06.03 20:04:27.
