data_PCOD9137201
_publ_section_title
;
Structure prediction by ZEFSAII (Michael W. Deem and Ramdas Pophale) SiO2 
 PCOD9137201
Probable space group: C C
;
_chemical_formula_sum "Si O2"
_cell_formula_units_Z 32
_cell_length_a 10.428446
_cell_length_b 12.705681
_cell_length_c 10.103104
_cell_angle_alpha 90.000000
_cell_angle_beta 94.739381
_cell_angle_gamma 90.000000
_cell_volume 1334.089290
_symmetry_space_group_name_H-M "C C"
_symmetry_group_IT_number 9
_symmetry_cell_setting 'monoclinic'
loop_
_space_group_symop_operation_xyz
x,y,z
x,-y,1/2+z
1/2+x,1/2+y,z
1/2+x,1/2-y,1/2+z
loop_
_atom_site_type_symbol
_atom_site_label
_atom_site_fract_x
_atom_site_fract_y
_atom_site_fract_z
Si Si1 0.798170 0.516577 0.625000
Si Si2 0.313919 0.789215 0.632754
Si Si3 0.278603 0.557658 0.657366
Si Si4 0.062114 0.051006 0.803333
Si Si5 0.540981 0.988336 0.340868
Si Si6 0.200647 0.852226 0.905441
Si Si7 0.171730 0.638812 0.053951
Si Si8 0.081952 0.717573 0.298724
O O1 0.793521 0.400115 0.559966
O O2 0.665315 0.543509 0.691163
O O3 0.810289 0.597723 0.506901
O O4 0.912017 0.523435 0.742656
O O5 0.270567 0.672887 0.587946
O O6 0.245008 0.819469 0.764518
O O7 0.463235 0.776957 0.683761
O O8 0.414821 0.550997 0.743784
O O9 0.159179 0.544833 0.751083
O O10 0.272555 0.457913 0.558314
O O11 0.085662 0.168607 0.864400
O O12 0.095188 0.945424 0.887846
O O13 0.551876 0.924107 0.477488
O O14 0.557975 0.111496 0.375848
O O15 0.169486 0.742441 0.967896
O O16 0.191579 0.684538 0.204062
#
# Coordination Sequence:
#
# PCOD9137201 Si02
#       8
#     4   4   4   4   4   4   4   4
#     4  10  22  40  64  92 125 166 208 254 305 370
#     4   9  20  40  60  88 129 153 205 262 298 362
#     4  10  22  41  63  92 128 161 206 261 304 364
#     4  10  22  41  63  92 128 161 206 261 304 364
#     4  10  22  40  64  92 125 166 208 254 305 370
#     4  11  22  40  64  91 126 167 205 250 317 368
#     4  11  22  40  64  91 126 167 205 250 317 368
#     4   9  20  40  60  88 129 153 205 262 298 362
#
# _framework density 23.986398000000001
#
# number of rings (size 3 to 8) (size 9 to 14) (size 15 to 20)
#    0.000    2.000    2.500    0.000    0.000   12.000 
#    0.000    0.000    0.000    0.000    0.000    0.000 
#    0.000    0.000    0.000    0.000    0.000    0.000 
#
# Total GULP energy -89178.905300 kJ/mol
# GULP energy per Si atom -5573.681581 kJ/mol
# Density = 2.393180 g / cm^3
# Si number density = 23.986398 Si / 1000 Ang^3
#
#
#
# Elastic Constant Matrix: (Units=GPa)
#
#
# Indices 1 2 3 4 5 6 
#
# 1 96.5963 24.8247 15.0374 0.0000 10.8369 0.0000
# 2 24.8247 228.9109 41.4890 0.0000 6.9686 0.0000
# 3 15.0374 41.4890 61.9341 0.0000 24.2560 0.0000
# 4 0.0000 0.0000 0.0000 45.3885 0.0000 18.5683
# 5 10.8369 6.9686 24.2560 0.0000 30.5865 0.0000
# 6 0.0000 0.0000 0.0000 18.5683 0.0000 -0.6235
#
#
#
# Elastic Compliance Matrix: (Units=1/GPa)
#
#
# Indices 1 2 3 4 5 6 
#
# 1 0.011071 -0.000951 -0.000869 0.000000 -0.003016 0.000000
# 2 -0.000951 0.005157 -0.004200 0.000000 0.002493 0.000000
# 3 -0.000869 -0.004200 0.027089 0.000000 -0.020217 0.000000
# 4 0.000000 0.000000 0.000000 0.001671 0.000000 0.049770
# 5 -0.003016 0.002493 -0.020217 0.000000 0.049228 0.000000
# 6 0.000000 0.000000 0.000000 0.049770 0.000000 -0.121659
#
#
# Mechanical properties :
#
#
# Convention : Reuss Voigt Hill
#
# Bulk Modulus (GPa) = 31.97433 61.12707 46.55070
# Shear Modulus (GPa) = -1004.50267 35.47632 -484.51318
#
# Velocity S-wave (km/s) = -20.48632 3.84997 -14.22791
# Velocity P-wave (km/s) = 23.37149 6.73071 15.82599
#
# Compressibility (1/GPa) = 0.03127509
#
# Stress axis : x y z
#
# Youngs Moduli (GPa) = 90.32990 193.91133 36.91573
#
# Poissons Ratio (x) = 0.18444 0.03210
# Poissons Ratio (y) = 0.08592 0.15504
# Poissons Ratio (z) = 0.07854 0.81442
#
# Static dielectric constant tensor:
#      x y z
#    x 2.025510 0.000000 -0.081050 
#    y 0.000000 1.960480 0.000000 
#    z -0.081050 0.000000 2.022460 
# 
# From -- ./inp_files/16387.got.cif
#   From: 2010.05.17/outbox.cif.g08.bks.cpg/sg9_9_cif.got.tgz:16387.got - 2010.06.03 20:04:27.
