data_PCOD9137263
_publ_section_title
;
Structure prediction by ZEFSAII (Michael W. Deem and Ramdas Pophale) SiO2 
 PCOD9137263
Probable space group: C C
;
_chemical_formula_sum "Si O2"
_cell_formula_units_Z 28
_cell_length_a 9.931916
_cell_length_b 10.886839
_cell_length_c 14.488357
_cell_angle_alpha 90.000000
_cell_angle_beta 119.693975
_cell_angle_gamma 90.000000
_cell_volume 1360.866754
_symmetry_space_group_name_H-M "C C"
_symmetry_group_IT_number 9
_symmetry_cell_setting 'monoclinic'
loop_
_space_group_symop_operation_xyz
x,y,z
x,-y,1/2+z
1/2+x,1/2+y,z
1/2+x,1/2-y,1/2+z
loop_
_atom_site_type_symbol
_atom_site_label
_atom_site_fract_x
_atom_site_fract_y
_atom_site_fract_z
Si Si1 0.301630 0.772286 0.932450
Si Si2 0.550854 0.050157 0.542429
Si Si3 0.372449 0.550851 0.087107
Si Si4 0.365625 0.145828 0.863856
Si Si5 0.585525 0.509438 0.324044
Si Si6 0.862258 0.932639 0.897997
Si Si7 0.078658 0.413919 0.266482
O O1 0.198684 0.893338 0.912335
O O2 0.203496 0.696010 0.824047
O O3 0.470169 0.830181 0.968478
O O4 0.316207 0.679216 0.023303
O O5 0.530415 0.068505 0.644864
O O6 0.729978 0.024804 0.582192
O O7 0.465925 0.930489 0.472356
O O8 0.501483 0.569246 0.207528
O O9 0.428298 0.470964 0.019233
O O10 0.381436 0.290605 0.881859
O O11 0.437631 0.109403 0.788958
O O12 0.190651 0.100858 0.822345
O O13 0.451230 0.486140 0.352004
O O14 0.681082 0.969316 0.833801
#
# Coordination Sequence:
#
# PCOD9137263 Si02
#       7
#     4   4   4   4   4   4   4
#     4  10  22  40  68  95 132 172 218 270 327 393
#     4  11  22  41  71  97 133 176 221 273 332 390
#     4  11  23  43  66 102 133 174 227 270 330 399
#     4  11  25  45  65 102 136 170 227 274 325 404
#     4  11  23  43  69  98 134 173 223 273 332 389
#     4  11  23  43  67  94 137 176 216 276 325 395
#     4  11  22  43  70  96 133 177 218 274 335 384
#
# _framework density 20.575122
#
# number of rings (size 3 to 8) (size 9 to 14) (size 15 to 20)
#    0.000    1.143    5.714    0.857    0.000    5.714 
#    0.000    2.857    0.000    0.000    0.000    0.000 
#    0.000    0.000    0.000    0.000    0.000    0.000 
#
# Total GULP energy -78115.210167 kJ/mol
# GULP energy per Si atom -5579.657869 kJ/mol
# Density = 2.052829 g / cm^3
# Si number density = 20.575122 Si / 1000 Ang^3
#
#
#
# Elastic Constant Matrix: (Units=GPa)
#
#
# Indices 1 2 3 4 5 6 
#
# 1 112.6326 60.7565 34.3087 0.0000 -14.9487 0.0000
# 2 60.7565 76.5656 13.3776 0.0000 -8.0453 0.0000
# 3 34.3087 13.3776 85.4342 0.0000 -9.5052 0.0000
# 4 0.0000 0.0000 0.0000 23.0412 0.0000 10.3598
# 5 -14.9487 -8.0453 -9.5052 0.0000 29.5874 0.0000
# 6 0.0000 0.0000 0.0000 10.3598 0.0000 25.5987
#
#
#
# Elastic Compliance Matrix: (Units=1/GPa)
#
#
# Indices 1 2 3 4 5 6 
#
# 1 0.017773 -0.012868 -0.004680 0.000000 0.003977 0.000000
# 2 -0.012868 0.023022 0.001593 0.000000 0.000270 0.000000
# 3 -0.004680 0.001593 0.013606 0.000000 0.002440 0.000000
# 4 0.000000 0.000000 0.000000 0.053054 0.000000 -0.021471
# 5 0.003977 0.000270 0.002440 0.000000 0.036665 0.000000
# 6 0.000000 0.000000 0.000000 -0.021471 0.000000 0.047754
#
#
# Mechanical properties :
#
#
# Convention : Reuss Voigt Hill
#
# Bulk Modulus (GPa) = 44.46203 54.61312 49.53758
# Shear Modulus (GPa) = 21.61877 26.72477 24.17177
#
# Velocity S-wave (km/s) = 3.24500 3.60792 3.43126
# Velocity P-wave (km/s) = 5.97466 6.63001 6.31085
#
# Compressibility (1/GPa) = 0.02249110
#
# Stress axis : x y z
#
# Youngs Moduli (GPa) = 56.26549 43.43748 73.49529
#
# Poissons Ratio (x) = 0.55894 0.34395
# Poissons Ratio (y) = 0.72400 -0.11705
# Poissons Ratio (z) = 0.26332 -0.06918
#
# Static dielectric constant tensor:
#      x y z
#    x 1.766080 0.000000 0.021380 
#    y 0.000000 1.752150 0.000000 
#    z 0.021380 0.000000 1.745850 
# 
# From -- ./inp_files/22566.got.cif
#   From: 2010.05.17/outbox.cif.g08.bks.cpg/sg9_12_cif.got.tgz:22566.got - 2010.06.03 20:04:27.
