data_PCOD9137702
_publ_section_title
;
Structure prediction by ZEFSAII (Michael W. Deem and Ramdas Pophale) SiO2 
 PCOD9137702
Probable space group: C C
;
_chemical_formula_sum "Si O2"
_cell_formula_units_Z 32
_cell_length_a 19.891708
_cell_length_b 5.207565
_cell_length_c 12.528338
_cell_angle_alpha 90.000000
_cell_angle_beta 68.801967
_cell_angle_gamma 90.000000
_cell_volume 1209.964952
_symmetry_space_group_name_H-M "C C"
_symmetry_group_IT_number 9
_symmetry_cell_setting 'monoclinic'
loop_
_space_group_symop_operation_xyz
x,y,z
x,-y,1/2+z
1/2+x,1/2+y,z
1/2+x,1/2-y,1/2+z
loop_
_atom_site_type_symbol
_atom_site_label
_atom_site_fract_x
_atom_site_fract_y
_atom_site_fract_z
Si Si1 0.889680 0.377809 0.671560
Si Si2 0.706359 0.016220 0.703426
Si Si3 0.545807 0.071225 0.803138
Si Si4 0.398470 0.649279 0.430510
Si Si5 0.472915 0.290108 0.513082
Si Si6 0.024089 0.866783 0.154538
Si Si7 0.182079 0.006798 0.088840
Si Si8 0.272644 0.821067 0.348029
O O1 0.885954 0.289746 0.551430
O O2 0.937974 0.635057 0.629950
O O3 0.814541 0.450679 0.764455
O O4 0.936710 0.179996 0.715723
O O5 0.628076 0.112062 0.788148
O O6 0.701514 0.773727 0.623711
O O7 0.749359 0.894518 0.776759
O O8 0.725007 0.271701 0.627492
O O9 0.547945 0.905410 0.692024
O O10 0.478623 0.270722 0.840466
O O11 0.522818 0.877929 0.911048
O O12 0.408236 0.364994 0.470540
O O13 0.334148 0.707596 0.389672
O O14 0.516873 0.531420 0.536325
O O15 0.094312 0.032864 0.150932
O O16 0.206952 0.060356 0.953557
#
# Coordination Sequence:
#
# PCOD9137702 Si02
#       8
#     4   4   4   4   4   4   4   4
#     4  10  23  45  73 113 152 198 277 327 399 479
#     4  11  28  51  76 115 161 209 271 325 401 491
#     4  10  22  43  72 105 147 200 260 331 392 465
#     4  10  23  44  73 110 154 196 273 329 399 481
#     4  10  23  39  69 111 141 194 258 339 376 483
#     4  10  22  43  75 105 147 201 260 329 393 467
#     4  11  28  50  78 114 162 208 271 327 402 490
#     4  12  25  49  76 109 162 222 254 337 418 478
#
# _framework density 26.447047999999999
#
# number of rings (size 3 to 8) (size 9 to 14) (size 15 to 20)
#    0.000    1.500    1.250    1.500   10.500    1.000 
#   15.750    0.000    0.000    0.000    0.000    0.000 
#    0.000    0.000    0.000    0.000    0.000    0.000 
#
# Total GULP energy -89272.309923 kJ/mol
# GULP energy per Si atom -5579.519370 kJ/mol
# Density = 2.638685 g / cm^3
# Si number density = 26.447048 Si / 1000 Ang^3
#
#
#
# Elastic Constant Matrix: (Units=GPa)
#
#
# Indices 1 2 3 4 5 6 
#
# 1 151.9802 27.4669 55.7126 0.0000 -9.1814 0.0000
# 2 27.4669 93.7149 36.1277 0.0000 -11.2541 0.0000
# 3 55.7126 36.1277 89.1315 0.0000 -8.8257 0.0000
# 4 0.0000 0.0000 0.0000 16.5826 0.0000 13.4317
# 5 -9.1814 -11.2541 -8.8257 0.0000 41.6704 0.0000
# 6 0.0000 0.0000 0.0000 13.4317 0.0000 52.5171
#
#
#
# Elastic Compliance Matrix: (Units=1/GPa)
#
#
# Indices 1 2 3 4 5 6 
#
# 1 0.008576 -0.000463 -0.005105 0.000000 0.000683 0.000000
# 2 -0.000463 0.012907 -0.004706 0.000000 0.002387 0.000000
# 3 -0.005105 -0.004706 0.016425 0.000000 0.001083 0.000000
# 4 0.000000 0.000000 0.000000 0.076061 0.000000 -0.019453
# 5 0.000683 0.002387 0.001083 0.000000 0.025023 0.000000
# 6 0.000000 0.000000 0.000000 -0.019453 0.000000 0.024017
#
#
# Mechanical properties :
#
#
# Convention : Reuss Voigt Hill
#
# Bulk Modulus (GPa) = 57.60388 63.71566 60.65977
# Shear Modulus (GPa) = 26.40697 36.52199 31.46448
#
# Velocity S-wave (km/s) = 3.16331 3.72014 3.45297
# Velocity P-wave (km/s) = 5.93044 6.52661 6.23566
#
# Compressibility (1/GPa) = 0.01735994
#
# Stress axis : x y z
#
# Youngs Moduli (GPa) = 116.60050 77.47606 60.88280
#
# Poissons Ratio (x) = 0.03591 0.31082
# Poissons Ratio (y) = 0.05404 0.28649
# Poissons Ratio (z) = 0.59527 0.36457
#
# Static dielectric constant tensor:
#      x y z
#    x 2.053290 0.000000 -0.016570 
#    y 0.000000 2.003390 0.000000 
#    z -0.016570 0.000000 2.133690 
# 
# From -- ./inp_files/19805.got.cif
#   From: 2010.05.17/outbox.cif.g08.bks.cpg/sg9_10_cif.got.tgz:19805.got - 2010.06.03 20:04:27.
