data_PCOD9137256
_publ_section_title
;
Structure prediction by ZEFSAII (Michael W. Deem and Ramdas Pophale) SiO2 
 PCOD9137256
Probable space group: C C
;
_chemical_formula_sum "Si O2"
_cell_formula_units_Z 28
_cell_length_a 10.999855
_cell_length_b 11.542383
_cell_length_c 8.986824
_cell_angle_alpha 90.000000
_cell_angle_beta 81.264813
_cell_angle_gamma 90.000000
_cell_volume 1127.773197
_symmetry_space_group_name_H-M "C C"
_symmetry_group_IT_number 9
_symmetry_cell_setting 'monoclinic'
loop_
_space_group_symop_operation_xyz
x,y,z
x,-y,1/2+z
1/2+x,1/2+y,z
1/2+x,1/2-y,1/2+z
loop_
_atom_site_type_symbol
_atom_site_label
_atom_site_fract_x
_atom_site_fract_y
_atom_site_fract_z
Si Si1 0.021900 0.092854 0.884200
Si Si2 0.827831 0.333788 0.575680
Si Si3 0.183630 0.061705 0.577404
Si Si4 0.769936 0.014570 0.786799
Si Si5 0.671142 0.127343 0.532514
Si Si6 0.903542 0.675597 0.380979
Si Si7 0.015153 0.419591 0.318650
O O1 0.120099 0.111844 0.734518
O O2 0.975230 0.219292 0.946310
O O3 0.902341 0.036489 0.828157
O O4 0.085419 0.005777 0.990295
O O5 0.777950 0.461989 0.614797
O O6 0.711550 0.255024 0.565621
O O7 0.890721 0.285908 0.711449
O O8 0.919532 0.338388 0.419274
O O9 0.268992 0.151273 0.472832
O O10 0.759890 0.039590 0.613464
O O11 0.652732 0.094242 0.862190
O O12 0.715664 0.893917 0.856654
O O13 0.542139 0.098978 0.638703
O O14 0.969260 0.550424 0.354713
#
# Coordination Sequence:
#
# PCOD9137256 Si02
#       7
#     4   4   4   4   4   4   4
#     4  12  25  47  73 104 146 191 232 307 362 432
#     4  11  22  45  68  98 144 188 231 298 368 418
#     4  11  27  47  72 107 147 183 252 297 356 443
#     4  10  22  43  64 102 134 172 236 284 353 423
#     4  10  22  40  68 100 132 180 226 291 355 420
#     4  11  23  46  73  99 143 195 231 295 373 417
#     4   9  23  40  68  98 136 179 240 286 345 443
#
# _framework density 24.827684999999999
#
# number of rings (size 3 to 8) (size 9 to 14) (size 15 to 20)
#    0.857    0.571    2.857    1.714    2.000    4.571 
#    0.000    0.000    0.000    0.000    0.000    0.000 
#    0.000    0.000    0.000    0.000    0.000    0.000 
#
# Total GULP energy -78156.207496 kJ/mol
# GULP energy per Si atom -5582.586250 kJ/mol
# Density = 2.477118 g / cm^3
# Si number density = 24.827685 Si / 1000 Ang^3
#
#
#
# Elastic Constant Matrix: (Units=GPa)
#
#
# Indices 1 2 3 4 5 6 
#
# 1 110.8972 9.8906 19.8237 0.0000 0.0530 0.0000
# 2 9.8906 71.7785 26.3407 0.0000 -8.0391 0.0000
# 3 19.8237 26.3407 78.7499 0.0000 -16.6975 0.0000
# 4 0.0000 0.0000 0.0000 16.6226 0.0000 1.1543
# 5 0.0530 -8.0391 -16.6975 0.0000 43.0203 0.0000
# 6 0.0000 0.0000 0.0000 1.1543 0.0000 36.6896
#
#
#
# Elastic Compliance Matrix: (Units=1/GPa)
#
#
# Indices 1 2 3 4 5 6 
#
# 1 0.009501 -0.000533 -0.002438 0.000000 -0.001057 0.000000
# 2 -0.000533 0.015950 -0.004978 0.000000 0.001049 0.000000
# 3 -0.002438 -0.004978 0.016106 0.000000 0.005324 0.000000
# 4 0.000000 0.000000 0.000000 0.060291 0.000000 -0.001897
# 5 -0.001057 0.001049 0.005324 0.000000 0.025509 0.000000
# 6 0.000000 0.000000 0.000000 -0.001897 0.000000 0.027315
#
#
# Mechanical properties :
#
#
# Convention : Reuss Voigt Hill
#
# Bulk Modulus (GPa) = 38.97302 41.50393 40.23847
# Shear Modulus (GPa) = 27.91386 32.95786 30.43586
#
# Velocity S-wave (km/s) = 3.35670 3.64739 3.50506
# Velocity P-wave (km/s) = 5.54570 5.87291 5.71164
#
# Compressibility (1/GPa) = 0.02565878
#
# Stress axis : x y z
#
# Youngs Moduli (GPa) = 105.25036 62.69758 62.08838
#
# Poissons Ratio (x) = 0.03342 0.15135
# Poissons Ratio (y) = 0.05611 0.30909
# Poissons Ratio (z) = 0.25656 0.31213
#
# Static dielectric constant tensor:
#      x y z
#    x 2.099160 0.000000 0.099110 
#    y 0.000000 1.988380 0.000000 
#    z 0.099110 0.000000 1.970010 
# 
# From -- ./inp_files/7536.got.cif
#   From: 2010.05.17/outbox.cif.g08.bks.cpg/sg9_4_cif.got.tgz:7536.got - 2010.06.03 20:04:27.
