data_PCOD9137891
_publ_section_title
;
Structure prediction by ZEFSAII (Michael W. Deem and Ramdas Pophale) SiO2 
 PCOD9137891
Probable space group: C C
;
_chemical_formula_sum "Si O2"
_cell_formula_units_Z 32
_cell_length_a 31.432427
_cell_length_b 7.497825
_cell_length_c 10.812683
_cell_angle_alpha 90.000000
_cell_angle_beta 30.429922
_cell_angle_gamma 90.000000
_cell_volume 1290.662018
_symmetry_space_group_name_H-M "C C"
_symmetry_group_IT_number 9
_symmetry_cell_setting 'monoclinic'
loop_
_space_group_symop_operation_xyz
x,y,z
x,-y,1/2+z
1/2+x,1/2+y,z
1/2+x,1/2-y,1/2+z
loop_
_atom_site_type_symbol
_atom_site_label
_atom_site_fract_x
_atom_site_fract_y
_atom_site_fract_z
Si Si1 0.513730 0.155351 0.534860
Si Si2 0.184259 0.425845 0.474013
Si Si3 0.507767 0.555386 0.886867
Si Si4 0.494181 0.839849 0.714272
Si Si5 0.132297 0.802516 0.671727
Si Si6 0.859967 0.416167 0.886344
Si Si7 0.749630 0.730841 0.093315
Si Si8 0.335160 0.586886 0.776405
O O1 0.488244 0.358204 0.571425
O O2 0.509411 0.274562 0.295213
O O3 0.510349 0.053481 0.674774
O O4 0.445711 0.026225 0.634516
O O5 0.183031 0.330099 0.346681
O O6 0.167626 0.636067 0.507309
O O7 0.109413 0.358430 0.749497
O O8 0.274871 0.394404 0.309705
O O9 0.435227 0.431229 0.015101
O O10 0.594960 0.453801 0.679445
O O11 0.553903 0.761860 0.455100
O O12 0.396115 0.825283 0.919868
O O13 0.204778 0.853221 0.586438
O O14 0.794490 0.575801 0.056971
O O15 0.825926 0.261455 0.884599
O O16 0.807450 0.897191 0.906015
#
# Coordination Sequence:
#
# PCOD9137891 Si02
#       8
#     4   4   4   4   4   4   4   4
#     4   9  21  43  65 101 143 185 235 302 350 439
#     4  10  23  43  70 101 145 190 235 301 377 419
#     4  12  21  42  76 102 142 203 242 298 370 437
#     4   9  21  42  67 100 143 186 244 295 357 437
#     4  10  23  46  68 105 148 186 247 304 354 447
#     4  10  22  45  68  98 150 186 234 307 358 420
#     4  11  24  46  68 108 148 186 240 307 364 431
#     4  11  23  41  70 103 145 184 245 302 354 436
#
# _framework density 24.793479000000001
#
# number of rings (size 3 to 8) (size 9 to 14) (size 15 to 20)
#    0.750    1.000    2.500    0.750    3.500    1.000 
#    4.500    3.750    0.000    0.000    0.000    0.000 
#    0.000    0.000    0.000    0.000    0.000    0.000 
#
# Total GULP energy -89343.880694 kJ/mol
# GULP energy per Si atom -5583.992543 kJ/mol
# Density = 2.473705 g / cm^3
# Si number density = 24.793479 Si / 1000 Ang^3
#
#
#
# Elastic Constant Matrix: (Units=GPa)
#
#
# Indices 1 2 3 4 5 6 
#
# 1 78.1837 56.5698 33.6783 0.0000 -22.2681 0.0000
# 2 56.5698 111.0688 31.7285 0.0000 -25.5352 0.0000
# 3 33.6783 31.7285 65.2928 0.0000 -16.9950 0.0000
# 4 0.0000 0.0000 0.0000 37.1783 0.0000 -14.0196
# 5 -22.2681 -25.5352 -16.9950 0.0000 32.1563 0.0000
# 6 0.0000 0.0000 0.0000 -14.0196 0.0000 35.3483
#
#
#
# Elastic Compliance Matrix: (Units=1/GPa)
#
#
# Indices 1 2 3 4 5 6 
#
# 1 0.023623 -0.008847 -0.006327 0.000000 0.005989 0.000000
# 2 -0.008847 0.015094 -0.001445 0.000000 0.005096 0.000000
# 3 -0.006327 -0.001445 0.020688 0.000000 0.005405 0.000000
# 4 0.000000 0.000000 0.000000 0.031628 0.000000 0.012544
# 5 0.005989 0.005096 0.005405 0.000000 0.042149 0.000000
# 6 0.000000 0.000000 0.000000 0.012544 0.000000 0.033265
#
#
# Mechanical properties :
#
#
# Convention : Reuss Voigt Hill
#
# Bulk Modulus (GPa) = 38.21579 55.38871 46.80225
# Shear Modulus (GPa) = 23.99155 29.77450 26.88302
#
# Velocity S-wave (km/s) = 3.11409 3.46916 3.29641
# Velocity P-wave (km/s) = 5.32702 6.19962 5.77981
#
# Compressibility (1/GPa) = 0.02616720
#
# Stress axis : x y z
#
# Youngs Moduli (GPa) = 42.33141 66.25204 48.33728
#
# Poissons Ratio (x) = 0.58616 0.30581
# Poissons Ratio (y) = 0.37453 0.06984
# Poissons Ratio (z) = 0.26781 0.09572
#
# Static dielectric constant tensor:
#      x y z
#    x 2.060170 0.000000 -0.019030 
#    y 0.000000 1.963570 0.000000 
#    z -0.019030 0.000000 1.994290 
# 
# From -- ./inp_files/28238.got.cif
#   From: 2010.05.17/outbox.cif.g08.bks.cpg/sg9_15_cif.got.tgz:28238.got - 2010.06.03 20:04:27.
