data_PCOD9137993
_publ_section_title
;
Structure prediction by ZEFSAII (Michael W. Deem and Ramdas Pophale) SiO2 
 PCOD9137993
Probable space group: C C
;
_chemical_formula_sum "Si O2"
_cell_formula_units_Z 32
_cell_length_a 5.184025
_cell_length_b 18.905806
_cell_length_c 13.822410
_cell_angle_alpha 90.000000
_cell_angle_beta 84.287504
_cell_angle_gamma 90.000000
_cell_volume 1347.981481
_symmetry_space_group_name_H-M "C C"
_symmetry_group_IT_number 9
_symmetry_cell_setting 'monoclinic'
loop_
_space_group_symop_operation_xyz
x,y,z
x,-y,1/2+z
1/2+x,1/2+y,z
1/2+x,1/2-y,1/2+z
loop_
_atom_site_type_symbol
_atom_site_label
_atom_site_fract_x
_atom_site_fract_y
_atom_site_fract_z
Si Si1 0.435310 0.498931 0.336680
Si Si2 0.414717 0.800032 0.202652
Si Si3 0.446331 0.163709 0.476177
Si Si4 0.447241 0.742077 0.457370
Si Si5 0.297884 0.112203 0.863878
Si Si6 0.467818 0.949797 0.717035
Si Si7 0.526117 0.993669 0.997033
Si Si8 0.418677 0.782449 0.686615
O O1 0.513444 0.415968 0.346007
O O2 0.698980 0.530567 0.281154
O O3 0.321642 0.516084 0.447725
O O4 0.207758 0.523319 0.273015
O O5 0.436061 0.814658 0.088805
O O6 0.442025 0.874140 0.257094
O O7 0.633407 0.744322 0.223778
O O8 0.134814 0.765541 0.229333
O O9 0.738864 0.182335 0.437127
O O10 0.232725 0.210534 0.430074
O O11 0.393508 0.080715 0.476618
O O12 0.343752 0.812174 0.409960
O O13 0.442647 0.764181 0.571118
O O14 0.410083 0.055619 0.934540
O O15 0.492605 0.984310 0.609384
O O16 0.469420 0.864776 0.703954
#
# Coordination Sequence:
#
# PCOD9137993 Si02
#       8
#     4   4   4   4   4   4   4   4
#     4  12  30  46  74 119 154 199 272 310 398 475
#     4  10  24  43  74 103 151 197 257 322 387 461
#     4  10  25  45  71 107 146 200 243 320 389 459
#     4  10  24  45  75 102 145 192 263 303 385 460
#     4  12  27  49  74 112 151 203 261 321 381 470
#     4  12  27  50  80 111 165 208 255 335 393 467
#     4  12  29  50  81 115 163 204 268 324 398 470
#     4  10  22  46  71 109 143 203 257 311 395 460
#
# _framework density 23.739197999999998
#
# number of rings (size 3 to 8) (size 9 to 14) (size 15 to 20)
#    0.000    1.000    2.500    1.500    7.000    6.000 
#    0.000    0.000    0.000    0.000    0.000    0.000 
#    0.000    0.000    0.000    0.000    0.000    0.000 
#
# Total GULP energy -89460.821054 kJ/mol
# GULP energy per Si atom -5591.301316 kJ/mol
# Density = 2.368517 g / cm^3
# Si number density = 23.739198 Si / 1000 Ang^3
#
#
#
# Elastic Constant Matrix: (Units=GPa)
#
#
# Indices 1 2 3 4 5 6 
#
# 1 166.5972 53.7205 44.4790 0.0000 9.6979 0.0000
# 2 53.7205 160.8595 28.4158 0.0000 16.8761 0.0000
# 3 44.4790 28.4158 116.8876 0.0000 7.0227 0.0000
# 4 0.0000 0.0000 0.0000 41.3559 0.0000 9.1357
# 5 9.6979 16.8761 7.0227 0.0000 31.3485 0.0000
# 6 0.0000 0.0000 0.0000 9.1357 0.0000 42.0943
#
#
#
# Elastic Compliance Matrix: (Units=1/GPa)
#
#
# Indices 1 2 3 4 5 6 
#
# 1 0.007276 -0.001960 -0.002251 0.000000 -0.000692 0.000000
# 2 -0.001960 0.007353 -0.000852 0.000000 -0.003161 0.000000
# 3 -0.002251 -0.000852 0.009680 0.000000 -0.001014 0.000000
# 4 0.000000 0.000000 0.000000 0.025398 0.000000 -0.005512
# 5 -0.000692 -0.003161 -0.001014 0.000000 0.034042 0.000000
# 6 0.000000 0.000000 0.000000 -0.005512 0.000000 0.024952
#
#
# Mechanical properties :
#
#
# Convention : Reuss Voigt Hill
#
# Bulk Modulus (GPa) = 70.50174 77.50832 74.00503
# Shear Modulus (GPa) = 40.46828 44.14168 42.30498
#
# Velocity S-wave (km/s) = 4.13328 4.31680 4.22604
# Velocity P-wave (km/s) = 7.24856 7.58731 7.41987
#
# Compressibility (1/GPa) = 0.01418405
#
# Stress axis : x y z
#
# Youngs Moduli (GPa) = 137.44707 135.99520 103.30953
#
# Poissons Ratio (x) = 0.26650 0.23251
# Poissons Ratio (y) = 0.26934 0.08802
# Poissons Ratio (z) = 0.30934 0.11586
#
# Static dielectric constant tensor:
#      x y z
#    x 1.890440 0.000000 -0.017560 
#    y 0.000000 1.886460 0.000000 
#    z -0.017560 0.000000 1.971490 
# 
# From -- ./inp_files/22075.got.cif
#   From: 2010.05.17/outbox.cif.g08.bks.cpg/sg9_12_cif.got.tgz:22075.got - 2010.06.03 20:04:27.
