data_PCOD9137569
_publ_section_title
;
Structure prediction by ZEFSAII (Michael W. Deem and Ramdas Pophale) SiO2 
 PCOD9137569
Probable space group: C C
;
_chemical_formula_sum "Si O2"
_cell_formula_units_Z 32
_cell_length_a 6.263228
_cell_length_b 15.495963
_cell_length_c 16.195519
_cell_angle_alpha 90.000000
_cell_angle_beta 118.201003
_cell_angle_gamma 90.000000
_cell_volume 1385.265623
_symmetry_space_group_name_H-M "C C"
_symmetry_group_IT_number 9
_symmetry_cell_setting 'monoclinic'
loop_
_space_group_symop_operation_xyz
x,y,z
x,-y,1/2+z
1/2+x,1/2+y,z
1/2+x,1/2-y,1/2+z
loop_
_atom_site_type_symbol
_atom_site_label
_atom_site_fract_x
_atom_site_fract_y
_atom_site_fract_z
Si Si1 0.604950 0.214034 0.664640
Si Si2 0.549707 0.991363 0.145050
Si Si3 0.854863 0.413963 0.453751
Si Si4 0.960526 0.781593 0.366499
Si Si5 0.350264 0.639488 0.415470
Si Si6 0.451301 0.366372 0.741959
Si Si7 0.934249 0.527800 0.314359
Si Si8 0.235508 0.265744 0.488529
O O1 0.863325 0.223376 0.755431
O O2 0.431448 0.274525 0.691442
O O3 0.518244 0.259434 0.564828
O O4 0.584260 0.111475 0.650318
O O5 0.788954 0.052592 0.180953
O O6 0.448596 0.009161 0.219352
O O7 0.392574 0.021511 0.037277
O O8 0.594544 0.369786 0.411764
O O9 0.853617 0.454592 0.362415
O O10 0.070882 0.342782 0.492875
O O11 0.742928 0.773306 0.391219
O O12 0.160227 0.708798 0.413606
O O13 0.369928 0.644990 0.320604
O O14 0.608502 0.675290 0.492513
O O15 0.203017 0.551490 0.399168
O O16 0.730774 0.397763 0.787501
#
# Coordination Sequence:
#
# PCOD9137569 Si02
#       8
#     4   4   4   4   4   4   4   4
#     4  12  24  46  73 101 141 190 241 301 372 437
#     4  11  27  44  68 110 139 190 249 296 377 447
#     4  11  26  45  70 105 147 189 243 308 367 441
#     4  11  24  45  73 101 139 191 239 297 373 438
#     4  10  22  42  72  99 136 184 240 296 366 433
#     4  11  23  47  70 101 145 186 238 313 357 443
#     4  11  24  46  71 100 147 190 235 307 370 432
#     4  11  24  45  71 101 140 188 241 302 360 447
#
# _framework density 23.100263000000002
#
# number of rings (size 3 to 8) (size 9 to 14) (size 15 to 20)
#    0.000    1.000    3.750    1.500    7.000    1.000 
#    2.250    0.000    0.000    0.000    0.000    0.000 
#    0.000    0.000    0.000    0.000    0.000    0.000 
#
# Total GULP energy -89146.833769 kJ/mol
# GULP energy per Si atom -5571.677111 kJ/mol
# Density = 2.304769 g / cm^3
# Si number density = 23.100263 Si / 1000 Ang^3
#
#
#
# Elastic Constant Matrix: (Units=GPa)
#
#
# Indices 1 2 3 4 5 6 
#
# 1 62.6128 29.6906 16.4046 0.0000 0.5921 0.0000
# 2 29.6906 92.2292 10.8582 0.0000 -0.4841 0.0000
# 3 16.4046 10.8582 81.4538 0.0000 3.8116 0.0000
# 4 0.0000 0.0000 0.0000 37.7482 0.0000 0.8680
# 5 0.5921 -0.4841 3.8116 0.0000 24.8313 0.0000
# 6 0.0000 0.0000 0.0000 0.8680 0.0000 34.7488
#
#
#
# Elastic Compliance Matrix: (Units=1/GPa)
#
#
# Indices 1 2 3 4 5 6 
#
# 1 0.019617 -0.005944 -0.003154 0.000000 -0.000100 0.000000
# 2 -0.005944 0.012822 -0.000534 0.000000 0.000474 0.000000
# 3 -0.003154 -0.000534 0.013074 0.000000 -0.001942 0.000000
# 4 0.000000 0.000000 0.000000 0.026507 0.000000 -0.000662
# 5 -0.000100 0.000474 -0.001942 0.000000 0.040581 0.000000
# 6 0.000000 0.000000 0.000000 -0.000662 0.000000 0.028795
#
#
# Mechanical properties :
#
#
# Convention : Reuss Voigt Hill
#
# Bulk Modulus (GPa) = 38.09786 38.91141 38.50464
# Shear Modulus (GPa) = 29.51425 31.42181 30.46803
#
# Velocity S-wave (km/s) = 3.57831 3.69214 3.63567
# Velocity P-wave (km/s) = 5.79660 5.92089 5.85908
#
# Compressibility (1/GPa) = 0.02624819
#
# Stress axis : x y z
#
# Youngs Moduli (GPa) = 50.97555 77.99351 76.48681
#
# Poissons Ratio (x) = 0.46363 0.24122
# Poissons Ratio (y) = 0.30302 0.04086
# Poissons Ratio (z) = 0.16077 0.04166
#
# Static dielectric constant tensor:
#      x y z
#    x 1.826200 0.000000 0.055600 
#    y 0.000000 1.910550 0.000000 
#    z 0.055600 0.000000 1.923690 
# 
# From -- ./inp_files/28738.got.cif
#   From: 2010.05.17/outbox.cif.g08.bks.cpg/sg9_15_cif.got.tgz:28738.got - 2010.06.03 20:04:27.
