data_PCOD9137545
_publ_section_title
;
Structure prediction by ZEFSAII (Michael W. Deem and Ramdas Pophale) SiO2 
 PCOD9137545
Probable space group: C C
;
_chemical_formula_sum "Si O2"
_cell_formula_units_Z 32
_cell_length_a 10.605438
_cell_length_b 18.016410
_cell_length_c 9.119883
_cell_angle_alpha 90.000000
_cell_angle_beta 115.371982
_cell_angle_gamma 90.000000
_cell_volume 1574.475436
_symmetry_space_group_name_H-M "C C"
_symmetry_group_IT_number 9
_symmetry_cell_setting 'monoclinic'
loop_
_space_group_symop_operation_xyz
x,y,z
x,-y,1/2+z
1/2+x,1/2+y,z
1/2+x,1/2-y,1/2+z
loop_
_atom_site_type_symbol
_atom_site_label
_atom_site_fract_x
_atom_site_fract_y
_atom_site_fract_z
Si Si1 0.533070 0.537046 0.113670
Si Si2 0.710747 0.930427 0.468356
Si Si3 0.256517 0.328252 0.762133
Si Si4 0.279089 0.840770 0.255636
Si Si5 0.479246 0.102378 0.639673
Si Si6 0.570055 0.911842 0.889518
Si Si7 0.045516 0.899149 0.936439
Si Si8 0.810390 0.448201 0.553466
O O1 0.571877 0.553050 0.301965
O O2 0.667606 0.557102 0.079007
O O3 0.376794 0.569586 0.019461
O O4 0.504947 0.453141 0.049966
O O5 0.691986 0.867874 0.584859
O O6 0.629526 0.919693 0.277254
O O7 0.634966 0.008726 0.477328
O O8 0.238594 0.241448 0.781801
O O9 0.192395 0.372013 0.865621
O O10 0.420464 0.344813 0.836769
O O11 0.423437 0.845245 0.239968
O O12 0.287352 0.902053 0.390624
O O13 0.174904 0.858247 0.070146
O O14 0.508683 0.133267 0.495246
O O15 0.371142 0.032683 0.564615
O O16 0.439951 0.918040 0.713507
#
# Coordination Sequence:
#
# PCOD9137545 Si02
#       8
#     4   4   4   4   4   4   4   4
#     4  11  22  41  69 101 131 171 229 284 324 397
#     4  10  22  42  70  95 134 173 223 274 331 395
#     4  11  26  45  66  98 138 179 215 274 342 403
#     4  12  26  44  68  96 142 179 215 276 342 402
#     4  11  23  40  69 100 128 176 224 276 327 394
#     4  11  22  42  68 100 130 171 230 274 327 400
#     4  11  24  41  69  98 134 174 221 276 338 396
#     4  11  23  41  69 100 133 175 225 276 331 395
#
# _framework density 20.324228999999999
#
# number of rings (size 3 to 8) (size 9 to 14) (size 15 to 20)
#    0.000    1.000    2.500    5.250    5.250    1.000 
#    4.500    1.250    0.000    0.000    0.000    0.000 
#    0.000    0.000    0.000    0.000    0.000    0.000 
#
# Total GULP energy -89087.457790 kJ/mol
# GULP energy per Si atom -5567.966112 kJ/mol
# Density = 2.027797 g / cm^3
# Si number density = 20.324229 Si / 1000 Ang^3
#
#
#
# Elastic Constant Matrix: (Units=GPa)
#
#
# Indices 1 2 3 4 5 6 
#
# 1 91.9167 -3.6900 34.9509 0.0000 11.8052 0.0000
# 2 -3.6900 57.8280 22.0760 0.0000 8.1336 0.0000
# 3 34.9509 22.0760 120.5874 0.0000 17.6905 0.0000
# 4 0.0000 0.0000 0.0000 17.8959 0.0000 -0.3675
# 5 11.8052 8.1336 17.6905 0.0000 33.4533 0.0000
# 6 0.0000 0.0000 0.0000 -0.3675 0.0000 6.3627
#
#
#
# Elastic Compliance Matrix: (Units=1/GPa)
#
#
# Indices 1 2 3 4 5 6 
#
# 1 0.012821 0.002696 -0.003740 0.000000 -0.003202 0.000000
# 2 0.002696 0.019431 -0.003801 0.000000 -0.003666 0.000000
# 3 -0.003740 -0.003801 0.010563 0.000000 -0.003342 0.000000
# 4 0.000000 0.000000 0.000000 0.055945 0.000000 0.003231
# 5 -0.003202 -0.003666 -0.003342 0.000000 0.033681 0.000000
# 6 0.000000 0.000000 0.000000 0.003231 0.000000 0.157352
#
#
# Mechanical properties :
#
#
# Convention : Reuss Voigt Hill
#
# Bulk Modulus (GPa) = 30.18785 41.88953 36.03869
# Shear Modulus (GPa) = 16.10177 26.00874 21.05525
#
# Velocity S-wave (km/s) = 2.81774 3.58116 3.22214
# Velocity P-wave (km/s) = 5.04694 6.14451 5.62257
#
# Compressibility (1/GPa) = 0.03312591
#
# Stress axis : x y z
#
# Youngs Moduli (GPa) = 77.99714 51.46326 94.67190
#
# Poissons Ratio (x) = -0.13876 0.35406
# Poissons Ratio (y) = -0.21030 0.35985
# Poissons Ratio (z) = 0.29170 0.19561
#
# Static dielectric constant tensor:
#      x y z
#    x 1.830050 0.000000 0.063890 
#    y 0.000000 1.773360 0.000000 
#    z 0.063890 0.000000 1.756720 
# 
# From -- ./inp_files/8056.got.cif
#   From: 2010.05.17/outbox.cif.g08.bks.cpg/sg9_5_cif.got.tgz:8056.got - 2010.06.03 20:04:27.
