data_PCOD9137070
_publ_section_title
;
Structure prediction by ZEFSAII (Michael W. Deem and Ramdas Pophale) SiO2 
 PCOD9137070
Probable space group: C C
;
_chemical_formula_sum "Si O2"
_cell_formula_units_Z 28
_cell_length_a 15.530696
_cell_length_b 10.622291
_cell_length_c 9.131944
_cell_angle_alpha 90.000000
_cell_angle_beta 53.945247
_cell_angle_gamma 90.000000
_cell_volume 1217.946368
_symmetry_space_group_name_H-M "C C"
_symmetry_group_IT_number 9
_symmetry_cell_setting 'monoclinic'
loop_
_space_group_symop_operation_xyz
x,y,z
x,-y,1/2+z
1/2+x,1/2+y,z
1/2+x,1/2-y,1/2+z
loop_
_atom_site_type_symbol
_atom_site_label
_atom_site_fract_x
_atom_site_fract_y
_atom_site_fract_z
Si Si1 0.238930 0.927828 0.345310
Si Si2 0.477822 0.841618 0.133352
Si Si3 0.397315 0.640933 0.848307
Si Si4 0.848323 0.907269 0.717510
Si Si5 0.235215 0.221113 0.356394
Si Si6 0.611186 0.256779 0.250263
Si Si7 0.173201 0.704071 0.602884
O O1 0.368090 0.918610 0.230094
O O2 0.195882 0.846097 0.250379
O O3 0.185944 0.848597 0.530924
O O4 0.208454 0.073618 0.369429
O O5 0.433584 0.699188 0.173629
O O6 0.554026 0.848081 0.198230
O O7 0.556673 0.844012 0.913639
O O8 0.391390 0.538793 0.728047
O O9 0.350675 0.764468 0.816529
O O10 0.514256 0.657396 0.792640
O O11 0.331593 0.602480 0.060436
O O12 0.747310 0.873824 0.917860
O O13 0.161926 0.290178 0.549608
O O14 0.218621 0.290600 0.219969
#
# Coordination Sequence:
#
# PCOD9137070 Si02
#       7
#     4   4   4   4   4   4   4
#     4  10  22  42  67  96 132 174 222 273 329 393
#     4   9  20  42  66  90 129 180 212 268 333 395
#     4  11  24  41  66  96 132 171 216 275 326 394
#     4  10  22  41  67  92 130 173 222 264 330 389
#     4  12  24  39  64 104 132 165 225 280 326 395
#     4  10  22  38  66  94 129 172 218 269 329 391
#     4  10  22  39  66  94 132 173 219 271 327 391
#
# _framework density 22.989516999999999
#
# number of rings (size 3 to 8) (size 9 to 14) (size 15 to 20)
#    0.000    1.714    0.000    5.143    8.000    2.286 
#    2.571    0.000    9.429    0.000    0.000    0.000 
#    0.000    0.000    0.000    0.000    0.000    0.000 
#
# Total GULP energy -78148.500464 kJ/mol
# GULP energy per Si atom -5582.035747 kJ/mol
# Density = 2.293719 g / cm^3
# Si number density = 22.989517 Si / 1000 Ang^3
#
#
#
# Elastic Constant Matrix: (Units=GPa)
#
#
# Indices 1 2 3 4 5 6 
#
# 1 148.4593 5.0303 59.3517 0.0000 15.3293 0.0000
# 2 5.0303 23.1726 -1.1236 0.0000 11.1823 0.0000
# 3 59.3517 -1.1236 83.9623 0.0000 17.7290 0.0000
# 4 0.0000 0.0000 0.0000 12.7676 0.0000 12.5469
# 5 15.3293 11.1823 17.7290 0.0000 41.1136 0.0000
# 6 0.0000 0.0000 0.0000 12.5469 0.0000 12.5540
#
#
#
# Elastic Compliance Matrix: (Units=1/GPa)
#
#
# Indices 1 2 3 4 5 6 
#
# 1 0.009520 -0.002406 -0.006767 0.000000 0.000023 0.000000
# 2 -0.002406 0.051452 0.005671 0.000000 -0.015543 0.000000
# 3 -0.006767 0.005671 0.018221 0.000000 -0.006877 0.000000
# 4 0.000000 0.000000 0.000000 4.389044 0.000000 -4.386547
# 5 0.000023 -0.015543 -0.006877 0.000000 0.031507 0.000000
# 6 0.000000 0.000000 0.000000 -4.386547 0.000000 4.463707
#
#
# Mechanical properties :
#
#
# Convention : Reuss Voigt Hill
#
# Bulk Modulus (GPa) = 13.85223 42.45679 28.15451
# Shear Modulus (GPa) = 0.55589 26.10942 13.33265
#
# Velocity S-wave (km/s) = 0.49227 3.37369 2.41082
# Velocity P-wave (km/s) = 2.52223 5.80376 4.47467
#
# Compressibility (1/GPa) = 0.07219054
#
# Stress axis : x y z
#
# Youngs Moduli (GPa) = 105.03937 19.43567 54.88074
#
# Poissons Ratio (x) = 0.04675 0.37136
# Poissons Ratio (y) = 0.25268 -0.31122
# Poissons Ratio (z) = 0.71077 -0.11022
#
# Static dielectric constant tensor:
#      x y z
#    x 1.921610 0.000000 -0.068410 
#    y 0.000000 1.840980 0.000000 
#    z -0.068410 0.000000 1.944010 
# 
# From -- ./inp_files/9027.got.cif
#   From: 2010.05.17/outbox.cif.g08.bks.cpg/sg9_5_cif.got.tgz:9027.got - 2010.06.03 20:04:27.
