data_PCOD9137142
_publ_section_title
;
Structure prediction by ZEFSAII (Michael W. Deem and Ramdas Pophale) SiO2 
 PCOD9137142
Probable space group: C C
;
_chemical_formula_sum "Si O2"
_cell_formula_units_Z 32
_cell_length_a 5.135242
_cell_length_b 17.729309
_cell_length_c 15.354729
_cell_angle_alpha 90.000000
_cell_angle_beta 95.924859
_cell_angle_gamma 90.000000
_cell_volume 1390.492704
_symmetry_space_group_name_H-M "C C"
_symmetry_group_IT_number 9
_symmetry_cell_setting 'monoclinic'
loop_
_space_group_symop_operation_xyz
x,y,z
x,-y,1/2+z
1/2+x,1/2+y,z
1/2+x,1/2-y,1/2+z
loop_
_atom_site_type_symbol
_atom_site_label
_atom_site_fract_x
_atom_site_fract_y
_atom_site_fract_z
Si Si1 0.568110 0.817096 0.716970
Si Si2 0.139051 0.825393 0.016395
Si Si3 0.483062 0.033497 0.497490
Si Si4 0.289311 0.473363 0.656188
Si Si5 0.097226 0.824521 0.827385
Si Si6 0.112121 0.910103 0.507919
Si Si7 0.161531 0.744614 0.569995
Si Si8 0.843240 0.986442 0.854638
O O1 0.624954 0.897813 0.673995
O O2 0.373652 0.826660 0.790538
O O3 0.377844 0.768083 0.649119
O O4 0.854928 0.792128 0.762038
O O5 0.246182 0.910159 0.010390
O O6 0.369519 0.784831 0.079907
O O7 0.833729 0.818943 0.028240
O O8 0.142502 0.786494 0.921700
O O9 0.602045 0.042913 0.405832
O O10 0.667854 0.034711 0.587752
O O11 0.391770 0.946564 0.498934
O O12 0.518518 0.439473 0.601009
O O13 0.318557 0.511333 0.752848
O O14 0.010035 0.910539 0.843834
O O15 0.119007 0.820668 0.513005
O O16 0.952048 0.948582 0.422757
#
# Coordination Sequence:
#
# PCOD9137142 Si02
#       8
#     4   4   4   4   4   4   4   4
#     4  11  22  41  69  98 128 175 236 278 326 412
#     4  12  25  43  67  96 136 180 216 274 346 407
#     4  11  23  41  69  98 133 173 235 278 340 414
#     4  10  22  39  68 102 131 175 230 297 341 393
#     4  11  22  41  69  98 128 175 236 278 326 412
#     4  11  23  41  69  98 133 173 235 278 340 414
#     4  12  25  43  67  96 136 180 216 274 346 407
#     4  10  22  39  68 102 131 175 230 297 341 393
#
# _framework density 23.013424000000001
#
# number of rings (size 3 to 8) (size 9 to 14) (size 15 to 20)
#    0.000    1.000    2.500    6.000    3.500    0.000 
#    0.000    3.750    5.500    0.000    0.000    0.000 
#    0.000    0.000    0.000    0.000    0.000    0.000 
#
# Total GULP energy -89100.811196 kJ/mol
# GULP energy per Si atom -5568.800700 kJ/mol
# Density = 2.296104 g / cm^3
# Si number density = 23.013424 Si / 1000 Ang^3
#
#
#
# Elastic Constant Matrix: (Units=GPa)
#
#
# Indices 1 2 3 4 5 6 
#
# 1 83.1362 5.6259 49.8809 0.0000 9.4748 0.0000
# 2 5.6259 35.9222 -2.7748 0.0000 8.7656 0.0000
# 3 49.8809 -2.7748 135.0015 0.0000 2.3602 0.0000
# 4 0.0000 0.0000 0.0000 23.1074 0.0000 6.1688
# 5 9.4748 8.7656 2.3602 0.0000 39.1176 0.0000
# 6 0.0000 0.0000 0.0000 6.1688 0.0000 36.3433
#
#
#
# Elastic Compliance Matrix: (Units=1/GPa)
#
#
# Indices 1 2 3 4 5 6 
#
# 1 0.016088 -0.002237 -0.005937 0.000000 -0.003037 0.000000
# 2 -0.002237 0.029830 0.001549 0.000000 -0.006236 0.000000
# 3 -0.005937 0.001549 0.009624 0.000000 0.000510 0.000000
# 4 0.000000 0.000000 0.000000 0.045330 0.000000 -0.007694
# 5 -0.003037 -0.006236 0.000510 0.000000 0.027666 0.000000
# 6 0.000000 0.000000 0.000000 -0.007694 0.000000 0.028821
#
#
# Mechanical properties :
#
#
# Convention : Reuss Voigt Hill
#
# Bulk Modulus (GPa) = 23.64594 39.94709 31.79652
# Shear Modulus (GPa) = 27.06978 33.13551 30.10264
#
# Velocity S-wave (km/s) = 3.43339 3.79863 3.62062
# Velocity P-wave (km/s) = 5.10046 6.05271 5.59687
#
# Compressibility (1/GPa) = 0.04229055
#
# Stress axis : x y z
#
# Youngs Moduli (GPa) = 62.15710 33.52373 103.90748
#
# Poissons Ratio (x) = 0.07500 0.61692
# Poissons Ratio (y) = 0.13905 -0.16092
# Poissons Ratio (z) = 0.36904 -0.05192
#
# Static dielectric constant tensor:
#      x y z
#    x 1.971220 0.000000 0.070500 
#    y 0.000000 1.882710 0.000000 
#    z 0.070500 0.000000 2.025710 
# 
# From -- ./inp_files/22083.got.cif
#   From: 2010.05.17/outbox.cif.g08.bks.cpg/sg9_12_cif.got.tgz:22083.got - 2010.06.03 20:04:27.
