data_PCOD9137311
_publ_section_title
;
Structure prediction by ZEFSAII (Michael W. Deem and Ramdas Pophale) SiO2 
 PCOD9137311
Probable space group: C C
;
_chemical_formula_sum "Si O2"
_cell_formula_units_Z 32
_cell_length_a 10.230797
_cell_length_b 9.860994
_cell_length_c 13.829073
_cell_angle_alpha 90.000000
_cell_angle_beta 96.657864
_cell_angle_gamma 90.000000
_cell_volume 1385.748790
_symmetry_space_group_name_H-M "C C"
_symmetry_group_IT_number 9
_symmetry_cell_setting 'monoclinic'
loop_
_space_group_symop_operation_xyz
x,y,z
x,-y,1/2+z
1/2+x,1/2+y,z
1/2+x,1/2-y,1/2+z
loop_
_atom_site_type_symbol
_atom_site_label
_atom_site_fract_x
_atom_site_fract_y
_atom_site_fract_z
Si Si1 0.683810 0.876226 0.383130
Si Si2 0.943813 0.794214 0.353478
Si Si3 0.417003 0.198699 0.844547
Si Si4 0.354593 0.321617 0.127140
Si Si5 0.326836 0.967268 0.519397
Si Si6 0.534278 0.554547 0.480580
Si Si7 0.605320 0.004544 0.082398
Si Si8 0.175224 0.640905 0.283014
O O1 0.548600 0.862327 0.309708
O O2 0.644094 0.910032 0.489532
O O3 0.797039 0.763732 0.382048
O O4 0.741987 0.013445 0.342070
O O5 0.063275 0.689435 0.348787
O O6 0.911073 0.829393 0.239414
O O7 0.998171 0.913549 0.425740
O O8 0.489503 0.322758 0.906927
O O9 0.293261 0.253585 0.775880
O O10 0.353053 0.092974 0.914396
O O11 0.336750 0.168387 0.086874
O O12 0.212210 0.389465 0.107002
O O13 0.450701 0.410577 0.068259
O O14 0.458000 0.050241 0.556367
O O15 0.188943 0.042159 0.516375
O O16 0.614378 0.101995 0.175671
#
# Coordination Sequence:
#
# PCOD9137311 Si02
#       8
#     4   4   4   4   4   4   4   4
#     4  11  24  44  67  99 130 176 221 265 331 395
#     4  12  23  43  71  97 130 178 220 272 329 392
#     4  10  22  42  68  94 133 171 213 270 322 389
#     4  11  22  44  65  95 135 168 219 273 327 391
#     4  10  22  41  63  98 133 169 214 268 328 384
#     4  11  22  44  69  97 133 174 217 270 332 392
#     4  11  22  42  68  94 133 172 214 275 330 382
#     4  12  23  46  67  94 137 172 218 275 329 385
#
# _framework density 23.092209
#
# number of rings (size 3 to 8) (size 9 to 14) (size 15 to 20)
#    0.000    1.000    6.250    0.750    0.000    2.000 
#    6.750    1.250    0.000    0.000    0.000    0.000 
#    0.000    0.000    0.000    0.000    0.000    0.000 
#
# Total GULP energy -89401.043110 kJ/mol
# GULP energy per Si atom -5587.565194 kJ/mol
# Density = 2.303965 g / cm^3
# Si number density = 23.092209 Si / 1000 Ang^3
#
#
#
# Elastic Constant Matrix: (Units=GPa)
#
#
# Indices 1 2 3 4 5 6 
#
# 1 177.1843 28.9067 19.5742 0.0000 13.1857 0.0000
# 2 28.9067 43.4326 6.9338 0.0000 -6.1896 0.0000
# 3 19.5742 6.9338 74.1896 0.0000 -0.7426 0.0000
# 4 0.0000 0.0000 0.0000 11.2190 0.0000 -4.0271
# 5 13.1857 -6.1896 -0.7426 0.0000 34.1538 0.0000
# 6 0.0000 0.0000 0.0000 -4.0271 0.0000 44.8038
#
#
#
# Elastic Compliance Matrix: (Units=1/GPa)
#
#
# Indices 1 2 3 4 5 6 
#
# 1 0.006852 -0.004845 -0.001391 0.000000 -0.003554 0.000000
# 2 -0.004845 0.027414 -0.001216 0.000000 0.006812 0.000000
# 3 -0.001391 -0.001216 0.013966 0.000000 0.000620 0.000000
# 4 0.000000 0.000000 0.000000 0.092106 0.000000 0.008279
# 5 -0.003554 0.006812 0.000620 0.000000 0.031899 0.000000
# 6 0.000000 0.000000 0.000000 0.008279 0.000000 0.023064
#
#
# Mechanical properties :
#
#
# Convention : Reuss Voigt Hill
#
# Bulk Modulus (GPa) = 30.00379 45.07065 37.53722
# Shear Modulus (GPa) = 22.59240 33.99479 28.29360
#
# Velocity S-wave (km/s) = 3.13126 3.84100 3.50415
# Velocity P-wave (km/s) = 5.10826 6.26347 5.71513
#
# Compressibility (1/GPa) = 0.03332912
#
# Stress axis : x y z
#
# Youngs Moduli (GPa) = 145.93454 36.47816 71.60394
#
# Poissons Ratio (x) = 0.17674 0.09958
# Poissons Ratio (y) = 0.70706 0.08704
# Poissons Ratio (z) = 0.20295 0.04434
#
# Static dielectric constant tensor:
#      x y z
#    x 1.935440 0.000000 -0.007540 
#    y 0.000000 1.905460 0.000000 
#    z -0.007540 0.000000 1.837800 
# 
# From -- ./inp_files/22699.got.cif
#   From: 2010.05.17/outbox.cif.g08.bks.cpg/sg9_12_cif.got.tgz:22699.got - 2010.06.03 20:04:27.
