data_PCOD9137132
_publ_section_title
;
Structure prediction by ZEFSAII (Michael W. Deem and Ramdas Pophale) SiO2 
 PCOD9137132
Probable space group: C C
;
_chemical_formula_sum "Si O2"
_cell_formula_units_Z 28
_cell_length_a 12.687620
_cell_length_b 8.050478
_cell_length_c 14.783276
_cell_angle_alpha 90.000000
_cell_angle_beta 126.247187
_cell_angle_gamma 90.000000
_cell_volume 1217.762761
_symmetry_space_group_name_H-M "C C"
_symmetry_group_IT_number 9
_symmetry_cell_setting 'monoclinic'
loop_
_space_group_symop_operation_xyz
x,y,z
x,-y,1/2+z
1/2+x,1/2+y,z
1/2+x,1/2-y,1/2+z
loop_
_atom_site_type_symbol
_atom_site_label
_atom_site_fract_x
_atom_site_fract_y
_atom_site_fract_z
Si Si1 0.898120 0.629368 0.493720
Si Si2 0.236314 0.404127 0.692717
Si Si3 0.527887 0.342186 0.103219
Si Si4 0.768272 0.021749 0.907204
Si Si5 0.666440 0.842404 0.021726
Si Si6 0.381500 0.099925 0.147765
Si Si7 0.302823 0.058639 0.782236
O O1 0.802255 0.786971 0.442914
O O2 0.913113 0.559820 0.602300
O O3 0.838923 0.481722 0.402258
O O4 0.033564 0.672743 0.511177
O O5 0.105634 0.306834 0.591932
O O6 0.221267 0.493386 0.781410
O O7 0.262577 0.541539 0.632000
O O8 0.328543 0.247451 0.762283
O O9 0.476986 0.246332 0.165814
O O10 0.646578 0.462835 0.189359
O O11 0.406663 0.425901 0.993175
O O12 0.668780 0.938106 0.927555
O O13 0.737002 0.666177 0.047295
O O14 0.374834 0.061303 0.249480
#
# Coordination Sequence:
#
# PCOD9137132 Si02
#       7
#     4   4   4   4   4   4   4
#     4  12  24  40  68  97 131 174 220 268 330 397
#     4  10  22  43  66  95 133 167 222 273 321 394
#     4   9  22  42  66  89 134 166 220 272 318 392
#     4  11  24  43  66  98 132 175 220 272 335 389
#     4  11  24  42  67  95 131 172 218 273 329 391
#     4  11  22  41  67  91 130 172 216 271 326 386
#     4  10  22  39  66  93 127 172 214 265 331 381
#
# _framework density 22.992985000000001
#
# number of rings (size 3 to 8) (size 9 to 14) (size 15 to 20)
#    0.857    0.571    1.429    4.286    2.000    0.000 
#    0.000    5.714    0.000    0.000    0.000    0.000 
#    0.000    0.000    0.000    0.000    0.000    0.000 
#
# Total GULP energy -78136.857935 kJ/mol
# GULP energy per Si atom -5581.204138 kJ/mol
# Density = 2.294065 g / cm^3
# Si number density = 22.992985 Si / 1000 Ang^3
#
#
#
# Elastic Constant Matrix: (Units=GPa)
#
#
# Indices 1 2 3 4 5 6 
#
# 1 77.6257 10.9078 2.8046 0.0000 8.1696 0.0000
# 2 10.9078 64.4535 8.9165 0.0000 1.4710 0.0000
# 3 2.8046 8.9165 62.8866 0.0000 -2.7202 0.0000
# 4 0.0000 0.0000 0.0000 29.7266 0.0000 -2.4731
# 5 8.1696 1.4710 -2.7202 0.0000 41.9346 0.0000
# 6 0.0000 0.0000 0.0000 -2.4731 0.0000 34.7644
#
#
#
# Elastic Compliance Matrix: (Units=1/GPa)
#
#
# Indices 1 2 3 4 5 6 
#
# 1 0.013472 -0.002165 -0.000405 0.000000 -0.002575 0.000000
# 2 -0.002165 0.016194 -0.002212 0.000000 -0.000290 0.000000
# 3 -0.000405 -0.002212 0.016286 0.000000 0.001213 0.000000
# 4 0.000000 0.000000 0.000000 0.033840 0.000000 0.002407
# 5 -0.002575 -0.000290 0.001213 0.000000 0.024437 0.000000
# 6 0.000000 0.000000 0.000000 0.002407 0.000000 0.028936
#
#
# Mechanical properties :
#
#
# Convention : Reuss Voigt Hill
#
# Bulk Modulus (GPa) = 27.48216 27.80263 27.64240
# Shear Modulus (GPa) = 32.28726 33.44091 32.86409
#
# Velocity S-wave (km/s) = 3.75136 3.81779 3.78472
# Velocity P-wave (km/s) = 5.54454 5.61712 5.58095
#
# Compressibility (1/GPa) = 0.03638724
#
# Stress axis : x y z
#
# Youngs Moduli (GPa) = 74.22687 61.75087 61.40309
#
# Poissons Ratio (x) = 0.13370 0.02488
# Poissons Ratio (y) = 0.16071 0.13583
# Poissons Ratio (z) = 0.03008 0.13660
#
# Static dielectric constant tensor:
#      x y z
#    x 1.885930 0.000000 0.058040 
#    y 0.000000 1.871910 0.000000 
#    z 0.058040 0.000000 1.826400 
# 
# From -- ./inp_files/24127.got.cif
#   From: 2010.05.17/outbox.cif.g08.bks.cpg/sg9_13_cif.got.tgz:24127.got - 2010.06.03 20:04:27.
