data_PCOD9137584
_publ_section_title
;
Structure prediction by ZEFSAII (Michael W. Deem and Ramdas Pophale) SiO2 
 PCOD9137584
Probable space group: C C
;
_chemical_formula_sum "Si O2"
_cell_formula_units_Z 32
_cell_length_a 11.146711
_cell_length_b 16.854123
_cell_length_c 7.107458
_cell_angle_alpha 90.000000
_cell_angle_beta 58.040577
_cell_angle_gamma 90.000000
_cell_volume 1132.869083
_symmetry_space_group_name_H-M "C C"
_symmetry_group_IT_number 9
_symmetry_cell_setting 'monoclinic'
loop_
_space_group_symop_operation_xyz
x,y,z
x,-y,1/2+z
1/2+x,1/2+y,z
1/2+x,1/2-y,1/2+z
loop_
_atom_site_type_symbol
_atom_site_label
_atom_site_fract_x
_atom_site_fract_y
_atom_site_fract_z
Si Si1 0.140710 0.458795 0.805480
Si Si2 0.815319 0.191273 0.223967
Si Si3 0.177030 0.903419 0.773997
Si Si4 0.067457 0.087800 0.959969
Si Si5 0.211407 0.715090 0.738029
Si Si6 0.966296 0.395304 0.428206
Si Si7 0.393802 0.574352 0.739479
Si Si8 0.358662 0.139178 0.619452
O O1 0.223584 0.376824 0.700266
O O2 0.073527 0.537368 0.761389
O O3 0.265612 0.509548 0.818281
O O4 0.987561 0.414579 0.952210
O O5 0.737055 0.203271 0.490360
O O6 0.836740 0.269625 0.082491
O O7 0.974480 0.160927 0.123388
O O8 0.193191 0.808385 0.786298
O O9 0.342504 0.928264 0.665634
O O10 0.039641 0.934047 0.999122
O O11 0.141143 0.935378 0.594889
O O12 0.205148 0.103194 0.719428
O O13 0.954031 0.937415 0.397174
O O14 0.067768 0.671699 0.925721
O O15 0.333512 0.660188 0.728803
O O16 0.889295 0.354689 0.317874
#
# Coordination Sequence:
#
# PCOD9137584 Si02
#       8
#     4   4   4   4   4   4   4   4
#     4  11  27  46  75 114 165 207 275 348 415 491
#     4  12  22  44  85 115 150 218 274 330 410 492
#     4  11  22  47  80 109 163 223 279 333 412 501
#     4  11  25  44  74 116 158 206 273 334 406 486
#     4  11  20  44  80 115 158 219 280 335 408 494
#     4  10  22  42  76 112 152 214 267 335 414 481
#     4  11  27  46  72 123 167 212 273 353 419 480
#     4  11  23  47  78 112 153 215 277 320 410 501
#
# _framework density 28.246866000000001
#
# number of rings (size 3 to 8) (size 9 to 14) (size 15 to 20)
#    0.000    1.000    5.000    2.250    1.750    2.000 
#    6.750    0.000    0.000    0.000    0.000    0.000 
#    0.000    0.000    0.000    0.000    0.000    0.000 
#
# Total GULP energy -89154.154910 kJ/mol
# GULP energy per Si atom -5572.134682 kJ/mol
# Density = 2.818258 g / cm^3
# Si number density = 28.246866 Si / 1000 Ang^3
#
#
#
# Elastic Constant Matrix: (Units=GPa)
#
#
# Indices 1 2 3 4 5 6 
#
# 1 148.2413 50.5379 38.9792 0.0000 -36.0329 0.0000
# 2 50.5379 111.7992 13.0043 0.0000 -15.8551 0.0000
# 3 38.9792 13.0043 171.1199 0.0000 -49.2805 0.0000
# 4 0.0000 0.0000 0.0000 31.5265 0.0000 -8.0257
# 5 -36.0329 -15.8551 -49.2805 0.0000 49.1885 0.0000
# 6 0.0000 0.0000 0.0000 -8.0257 0.0000 35.4174
#
#
#
# Elastic Compliance Matrix: (Units=1/GPa)
#
#
# Indices 1 2 3 4 5 6 
#
# 1 0.009301 -0.003401 -0.000300 0.000000 0.005416 0.000000
# 2 -0.003401 0.010623 0.000332 0.000000 0.001265 0.000000
# 3 -0.000300 0.000332 0.008229 0.000000 0.008131 0.000000
# 4 0.000000 0.000000 0.000000 0.033661 0.000000 0.007628
# 5 0.005416 0.001265 0.008131 0.000000 0.032851 0.000000
# 6 0.000000 0.000000 0.000000 0.007628 0.000000 0.029963
#
#
# Mechanical properties :
#
#
# Convention : Reuss Voigt Hill
#
# Bulk Modulus (GPa) = 46.70177 70.68925 58.69551
# Shear Modulus (GPa) = 36.09972 45.13575 40.61773
#
# Velocity S-wave (km/s) = 3.57880 4.00171 3.79615
# Velocity P-wave (km/s) = 5.80055 6.81406 6.32763
#
# Compressibility (1/GPa) = 0.02141246
#
# Stress axis : x y z
#
# Youngs Moduli (GPa) = 107.51823 94.13586 121.52599
#
# Poissons Ratio (x) = 0.32019 0.03651
# Poissons Ratio (y) = 0.36570 -0.04032
# Poissons Ratio (z) = 0.03230 -0.03123
#
# Static dielectric constant tensor:
#      x y z
#    x 2.218210 0.000000 0.062410 
#    y 0.000000 2.042470 0.000000 
#    z 0.062410 0.000000 2.368370 
# 
# From -- ./inp_files/26869.got.cif
#   From: 2010.05.17/outbox.cif.g08.bks.cpg/sg9_14_cif.got.tgz:26869.got - 2010.06.03 20:04:27.
