data_PCOD9137013
_publ_section_title
;
Structure prediction by ZEFSAII (Michael W. Deem and Ramdas Pophale) SiO2 
 PCOD9137013
Probable space group: C C
;
_chemical_formula_sum "Si O2"
_cell_formula_units_Z 20
_cell_length_a 5.555501
_cell_length_b 18.628986
_cell_length_c 7.321906
_cell_angle_alpha 90.000000
_cell_angle_beta 75.933542
_cell_angle_gamma 90.000000
_cell_volume 735.046487
_symmetry_space_group_name_H-M "C C"
_symmetry_group_IT_number 9
_symmetry_cell_setting 'monoclinic'
loop_
_space_group_symop_operation_xyz
x,y,z
x,-y,1/2+z
1/2+x,1/2+y,z
1/2+x,1/2-y,1/2+z
loop_
_atom_site_type_symbol
_atom_site_label
_atom_site_fract_x
_atom_site_fract_y
_atom_site_fract_z
Si Si1 0.512780 0.690990 0.859210
Si Si2 0.677073 0.094660 0.511851
Si Si3 0.960832 0.456496 0.432859
Si Si4 0.681234 0.400883 0.008080
Si Si5 0.448011 0.812307 0.572778
O O1 0.589566 0.620145 0.728988
O O2 0.435462 0.749039 0.720272
O O3 0.248566 0.680395 0.002368
O O4 0.747165 0.708655 0.947913
O O5 0.453572 0.134384 0.450705
O O6 0.948005 0.125382 0.436533
O O7 0.676753 0.012028 0.447927
O O8 0.568085 0.084630 0.736760
O O9 0.739873 0.515389 0.464453
O O10 0.883749 0.397460 0.594807
#
# Coordination Sequence:
#
# PCOD9137013 Si02
#       5
#     4   4   4   4   4
#     4  12  25  49  70 104 142 191 233 294 353 421
#     4  10  22  36  68  93 128 174 215 286 335 415
#     4  10  23  41  67  98 132 174 228 281 351 399
#     4  10  22  40  67  93 132 170 226 280 346 396
#     4  12  26  46  74 100 146 189 236 289 353 429
#
# _framework density 27.209167000000001
#
# number of rings (size 3 to 8) (size 9 to 14) (size 15 to 20)
#    1.200    0.000    4.000    1.200    5.600    1.600 
#    3.600    0.000    0.000    0.000    0.000    0.000 
#    0.000    0.000    0.000    0.000    0.000    0.000 
#
# Total GULP energy -55693.710344 kJ/mol
# GULP energy per Si atom -5569.371034 kJ/mol
# Density = 2.714724 g / cm^3
# Si number density = 27.209167 Si / 1000 Ang^3
#
#
#
# Elastic Constant Matrix: (Units=GPa)
#
#
# Indices 1 2 3 4 5 6 
#
# 1 280.4072 31.6680 21.2643 0.0000 7.5538 0.0000
# 2 31.6680 107.2274 23.1209 0.0000 2.6454 0.0000
# 3 21.2643 23.1209 61.2105 0.0000 5.2769 0.0000
# 4 0.0000 0.0000 0.0000 16.1347 0.0000 6.2077
# 5 7.5538 2.6454 5.2769 0.0000 38.1446 0.0000
# 6 0.0000 0.0000 0.0000 6.2077 0.0000 39.7455
#
#
#
# Elastic Compliance Matrix: (Units=1/GPa)
#
#
# Indices 1 2 3 4 5 6 
#
# 1 0.003752 -0.000897 -0.000917 0.000000 -0.000554 0.000000
# 2 -0.000897 0.010368 -0.003601 0.000000 -0.000043 0.000000
# 3 -0.000917 -0.003601 0.018196 0.000000 -0.002086 0.000000
# 4 0.000000 0.000000 0.000000 0.065941 0.000000 -0.010299
# 5 -0.000554 -0.000043 -0.002086 0.000000 0.026617 0.000000
# 6 0.000000 0.000000 0.000000 -0.010299 0.000000 0.026769
#
#
# Mechanical properties :
#
#
# Convention : Reuss Voigt Hill
#
# Bulk Modulus (GPa) = 46.54115 66.77241 56.65678
# Shear Modulus (GPa) = 29.47516 43.65774 36.56645
#
# Velocity S-wave (km/s) = 3.29489 4.01000 3.66990
# Velocity P-wave (km/s) = 5.62292 6.78482 6.23101
#
# Compressibility (1/GPa) = 0.02148636
#
# Stress axis : x y z
#
# Youngs Moduli (GPa) = 266.52648 96.44712 54.95805
#
# Poissons Ratio (x) = 0.08648 0.05039
# Poissons Ratio (y) = 0.23900 0.19791
# Poissons Ratio (z) = 0.24439 0.34732
#
# Static dielectric constant tensor:
#      x y z
#    x 2.183040 0.000000 0.017130 
#    y 0.000000 2.058270 0.000000 
#    z 0.017130 0.000000 2.441800 
# 
# From -- ./inp_files/3668.got.cif
#   From: 2010.05.17/outbox.cif.g08.bks.cpg/sg9_2_cif.got.tgz:3668.got - 2010.06.03 20:04:27.
