data_PCOD9137326
_publ_section_title
;
Structure prediction by ZEFSAII (Michael W. Deem and Ramdas Pophale) SiO2 
 PCOD9137326
Probable space group: C C
;
_chemical_formula_sum "Si O2"
_cell_formula_units_Z 28
_cell_length_a 14.793364
_cell_length_b 6.565510
_cell_length_c 12.384813
_cell_angle_alpha 90.000000
_cell_angle_beta 96.470660
_cell_angle_gamma 90.000000
_cell_volume 1195.224332
_symmetry_space_group_name_H-M "C C"
_symmetry_group_IT_number 9
_symmetry_cell_setting 'monoclinic'
loop_
_space_group_symop_operation_xyz
x,y,z
x,-y,1/2+z
1/2+x,1/2+y,z
1/2+x,1/2-y,1/2+z
loop_
_atom_site_type_symbol
_atom_site_label
_atom_site_fract_x
_atom_site_fract_y
_atom_site_fract_z
Si Si1 0.152210 0.230142 0.585900
Si Si2 0.009900 0.368006 0.416388
Si Si3 0.818647 0.980068 0.520361
Si Si4 0.464590 0.617538 0.222859
Si Si5 0.918559 0.249133 0.844687
Si Si6 0.278420 0.841973 0.649734
Si Si7 0.123334 0.409561 0.231535
O O1 0.055241 0.219791 0.510175
O O2 0.223003 0.372752 0.530849
O O3 0.124305 0.366563 0.683755
O O4 0.212311 0.031372 0.617473
O O5 0.095397 0.421018 0.351012
O O6 0.943144 0.250269 0.326529
O O7 0.964699 0.585643 0.430491
O O8 0.807736 0.222520 0.544001
O O9 0.886008 0.909712 0.626085
O O10 0.857461 0.893855 0.413773
O O11 0.483383 0.400153 0.282910
O O12 0.547536 0.744254 0.181286
O O13 0.863443 0.368240 0.741978
O O14 0.217962 0.685825 0.711180
#
# Coordination Sequence:
#
# PCOD9137326 Si02
#       7
#     4   4   4   4   4   4   4
#     4  11  22  41  68  93 137 179 229 280 338 405
#     4  10  23  39  62 102 128 178 228 277 344 396
#     4  10  22  41  64  98 136 172 227 280 339 409
#     4   9  22  40  62  98 134 172 226 284 334 404
#     4  11  22  42  68  97 140 178 226 280 344 411
#     4  10  23  42  67  98 131 185 225 281 340 401
#     4   9  22  41  61  96 132 170 233 278 329 404
#
# _framework density 23.426562000000001
#
# number of rings (size 3 to 8) (size 9 to 14) (size 15 to 20)
#    0.857    1.143    0.000    2.571    2.000    4.571 
#    2.571    7.143    0.000    0.000    0.000    0.000 
#    0.000    0.000    0.000    0.000    0.000    0.000 
#
# Total GULP energy -77936.278652 kJ/mol
# GULP energy per Si atom -5566.877047 kJ/mol
# Density = 2.337324 g / cm^3
# Si number density = 23.426562 Si / 1000 Ang^3
#
#
#
# Elastic Constant Matrix: (Units=GPa)
#
#
# Indices 1 2 3 4 5 6 
#
# 1 52.4481 50.7035 20.4822 0.0000 13.3647 0.0000
# 2 50.7035 145.3796 56.0290 0.0000 20.7338 0.0000
# 3 20.4822 56.0290 71.1897 0.0000 16.8943 0.0000
# 4 0.0000 0.0000 0.0000 22.3056 0.0000 -7.0144
# 5 13.3647 20.7338 16.8943 0.0000 31.4589 0.0000
# 6 0.0000 0.0000 0.0000 -7.0144 0.0000 48.8297
#
#
#
# Elastic Compliance Matrix: (Units=1/GPa)
#
#
# Indices 1 2 3 4 5 6 
#
# 1 0.029918 -0.009729 0.000623 0.000000 -0.006633 0.000000
# 2 -0.009729 0.013237 -0.007483 0.000000 -0.000573 0.000000
# 3 0.000623 -0.007483 0.021374 0.000000 -0.006811 0.000000
# 4 0.000000 0.000000 0.000000 0.046953 0.000000 0.006745
# 5 -0.006633 -0.000573 -0.006811 0.000000 0.038640 0.000000
# 6 0.000000 0.000000 0.000000 0.006745 0.000000 0.021448
#
#
# Mechanical properties :
#
#
# Convention : Reuss Voigt Hill
#
# Bulk Modulus (GPa) = 31.89647 58.16075 45.02861
# Shear Modulus (GPa) = 23.23429 29.97235 26.60332
#
# Velocity S-wave (km/s) = 3.15269 3.58077 3.37353
# Velocity P-wave (km/s) = 5.18630 6.47894 5.86832
#
# Compressibility (1/GPa) = 0.03135143
#
# Stress axis : x y z
#
# Youngs Moduli (GPa) = 33.42430 75.54420 46.78644
#
# Poissons Ratio (x) = 0.73494 -0.02915
# Poissons Ratio (y) = 0.32517 0.35012
# Poissons Ratio (z) = -0.02082 0.56532
#
# Static dielectric constant tensor:
#      x y z
#    x 1.900440 0.000000 0.016090 
#    y 0.000000 1.924720 0.000000 
#    z 0.016090 0.000000 1.932810 
# 
# From -- ./inp_files/18837.got.cif
#   From: 2010.05.17/outbox.cif.g08.bks.cpg/sg9_10_cif.got.tgz:18837.got - 2010.06.03 20:04:27.
