data_PCOD9137699
_publ_section_title
;
Structure prediction by ZEFSAII (Michael W. Deem and Ramdas Pophale) SiO2 
 PCOD9137699
Probable space group: C C
;
_chemical_formula_sum "Si O2"
_cell_formula_units_Z 32
_cell_length_a 19.715976
_cell_length_b 9.314437
_cell_length_c 14.496870
_cell_angle_alpha 90.000000
_cell_angle_beta 151.158015
_cell_angle_gamma 90.000000
_cell_volume 1284.258788
_symmetry_space_group_name_H-M "C C"
_symmetry_group_IT_number 9
_symmetry_cell_setting 'monoclinic'
loop_
_space_group_symop_operation_xyz
x,y,z
x,-y,1/2+z
1/2+x,1/2+y,z
1/2+x,1/2-y,1/2+z
loop_
_atom_site_type_symbol
_atom_site_label
_atom_site_fract_x
_atom_site_fract_y
_atom_site_fract_z
Si Si1 0.084070 0.135195 0.169480
Si Si2 0.276024 0.294612 0.651336
Si Si3 0.852247 0.490666 0.097824
Si Si4 0.295560 0.305616 0.952868
Si Si5 0.229858 0.389008 0.072317
Si Si6 0.016378 0.177124 0.566143
Si Si7 0.479568 0.172944 0.392779
Si Si8 0.990170 0.772886 0.741893
O O1 0.226101 0.099246 0.397170
O O2 0.976922 0.158869 0.126585
O O3 0.074419 0.279025 0.094945
O O4 0.054887 0.985364 0.081076
O O5 0.234413 0.457166 0.626421
O O6 0.138190 0.200433 0.469869
O O7 0.366482 0.304109 0.665297
O O8 0.390738 0.249019 0.861463
O O9 0.891714 0.530152 0.252883
O O10 0.985219 0.399774 0.222133
O O11 0.824173 0.646607 0.025488
O O12 0.152369 0.278364 0.724998
O O13 0.251049 0.398898 0.987842
O O14 0.439545 0.345743 0.073390
O O15 0.360058 0.292463 0.258555
O O16 0.088842 0.311517 0.938328
#
# Coordination Sequence:
#
# PCOD9137699 Si02
#       8
#     4   4   4   4   4   4   4   4
#     4  11  25  46  74 104 146 190 251 304 368 452
#     4  12  25  44  69  99 148 180 240 298 368 447
#     4  10  23  45  66 106 141 182 243 302 371 435
#     4  10  22  43  71  98 142 182 237 300 368 440
#     4  11  23  44  71 106 138 190 239 305 380 440
#     4  11  23  45  69 107 135 184 246 293 368 448
#     4  11  24  45  74 105 142 185 251 306 368 454
#     4  12  25  46  66 101 148 195 233 302 375 438
#
# _framework density 24.917096000000001
#
# number of rings (size 3 to 8) (size 9 to 14) (size 15 to 20)
#    0.000    1.000    3.750    3.000    1.750    2.000 
#    4.500    0.000    0.000    0.000    0.000    0.000 
#    0.000    0.000    0.000    0.000    0.000    0.000 
#
# Total GULP energy -89112.594107 kJ/mol
# GULP energy per Si atom -5569.537132 kJ/mol
# Density = 2.486038 g / cm^3
# Si number density = 24.917096 Si / 1000 Ang^3
#
#
#
# Elastic Constant Matrix: (Units=GPa)
#
#
# Indices 1 2 3 4 5 6 
#
# 1 75.9110 3.3230 0.6632 0.0000 7.8405 0.0000
# 2 3.3230 45.9035 36.3254 0.0000 -15.1640 0.0000
# 3 0.6632 36.3254 117.3326 0.0000 7.2760 0.0000
# 4 0.0000 0.0000 0.0000 35.1594 0.0000 -4.9910
# 5 7.8405 -15.1640 7.2760 0.0000 42.1134 0.0000
# 6 0.0000 0.0000 0.0000 -4.9910 0.0000 31.7930
#
#
#
# Elastic Compliance Matrix: (Units=1/GPa)
#
#
# Indices 1 2 3 4 5 6 
#
# 1 0.013706 -0.003193 0.001153 0.000000 -0.003901 0.000000
# 2 -0.003193 0.037272 -0.012524 0.000000 0.016179 0.000000
# 3 0.001153 -0.012524 0.012824 0.000000 -0.006940 0.000000
# 4 0.000000 0.000000 0.000000 0.029090 0.000000 0.004567
# 5 -0.003901 0.016179 -0.006940 0.000000 0.031496 0.000000
# 6 0.000000 0.000000 0.000000 0.004567 0.000000 0.032170
#
#
# Mechanical properties :
#
#
# Convention : Reuss Voigt Hill
#
# Bulk Modulus (GPa) = 28.84117 35.53005 32.18561
# Shear Modulus (GPa) = 25.34920 35.06887 30.20904
#
# Velocity S-wave (km/s) = 3.19304 3.75563 3.48570
# Velocity P-wave (km/s) = 5.01936 5.75297 5.39864
#
# Compressibility (1/GPa) = 0.03467266
#
# Stress axis : x y z
#
# Youngs Moduli (GPa) = 72.96123 26.83006 77.97843
#
# Poissons Ratio (x) = 0.08567 -0.08991
# Poissons Ratio (y) = 0.23298 0.97662
# Poissons Ratio (z) = -0.08412 0.33603
#
# Static dielectric constant tensor:
#      x y z
#    x 1.984860 0.000000 -0.019740 
#    y 0.000000 2.023340 0.000000 
#    z -0.019740 0.000000 2.097880 
# 
# From -- ./inp_files/27356.got.cif
#   From: 2010.05.17/outbox.cif.g08.bks.cpg/sg9_14_cif.got.tgz:27356.got - 2010.06.03 20:04:27.
