data_PCOD9137732
_publ_section_title
;
Structure prediction by ZEFSAII (Michael W. Deem and Ramdas Pophale) SiO2 
 PCOD9137732
Probable space group: C C
;
_chemical_formula_sum "Si O2"
_cell_formula_units_Z 32
_cell_length_a 5.540801
_cell_length_b 22.062056
_cell_length_c 12.568613
_cell_angle_alpha 90.000000
_cell_angle_beta 121.004184
_cell_angle_gamma 90.000000
_cell_volume 1316.898876
_symmetry_space_group_name_H-M "C C"
_symmetry_group_IT_number 9
_symmetry_cell_setting 'monoclinic'
loop_
_space_group_symop_operation_xyz
x,y,z
x,-y,1/2+z
1/2+x,1/2+y,z
1/2+x,1/2-y,1/2+z
loop_
_atom_site_type_symbol
_atom_site_label
_atom_site_fract_x
_atom_site_fract_y
_atom_site_fract_z
Si Si1 0.327520 0.659241 0.847060
Si Si2 0.775261 0.728231 0.800220
Si Si3 0.487323 0.481354 0.595689
Si Si4 0.723137 0.087117 0.624586
Si Si5 0.343792 0.621650 0.188246
Si Si6 0.136922 0.062384 0.451123
Si Si7 0.759720 0.367818 0.630551
Si Si8 0.476705 0.681921 0.529735
O O1 0.518292 0.699028 0.809490
O O2 0.209400 0.607272 0.742887
O O3 0.558304 0.638552 0.984586
O O4 0.069652 0.691461 0.849624
O O5 0.652004 0.723733 0.650811
O O6 0.864356 0.782460 0.901205
O O7 0.480997 0.539983 0.669256
O O8 0.270947 0.428165 0.580919
O O9 0.470971 0.511018 0.476451
O O10 0.767756 0.439331 0.662588
O O11 0.464658 0.047918 0.520514
O O12 0.752930 0.145420 0.553219
O O13 0.488566 0.581232 0.310464
O O14 0.589966 0.661924 0.190476
O O15 0.069059 0.652322 0.171768
O O16 0.146677 0.125093 0.520963
#
# Coordination Sequence:
#
# PCOD9137732 Si02
#       8
#     4   4   4   4   4   4   4   4
#     4  11  24  44  72  94 139 170 231 275 336 407
#     4  11  25  46  69 104 129 181 226 283 349 401
#     4   9  23  38  65  96 137 176 223 263 332 396
#     4  10  22  44  65 102 128 183 218 277 335 405
#     4  10  24  41  62  99 138 175 227 270 336 392
#     4  11  22  44  68  97 140 175 225 279 338 406
#     4  10  23  43  61 103 135 181 222 274 330 396
#     4  10  25  44  70  99 136 175 228 285 346 409
#
# _framework density 24.299512
#
# number of rings (size 3 to 8) (size 9 to 14) (size 15 to 20)
#    0.750    1.000    1.250    1.500    7.000    2.000 
#    4.500    0.000    0.000    0.000    0.000    0.000 
#    0.000    0.000    0.000    0.000    0.000    0.000 
#
# Total GULP energy -89120.210541 kJ/mol
# GULP energy per Si atom -5570.013159 kJ/mol
# Density = 2.424421 g / cm^3
# Si number density = 24.299512 Si / 1000 Ang^3
#
#
#
# Elastic Constant Matrix: (Units=GPa)
#
#
# Indices 1 2 3 4 5 6 
#
# 1 128.5391 22.1064 33.6925 0.0000 -4.9247 0.0000
# 2 22.1064 81.8649 22.2397 0.0000 -4.3209 0.0000
# 3 33.6925 22.2397 121.7102 0.0000 -0.0925 0.0000
# 4 0.0000 0.0000 0.0000 20.0969 0.0000 3.6455
# 5 -4.9247 -4.3209 -0.0925 0.0000 30.9206 0.0000
# 6 0.0000 0.0000 0.0000 3.6455 0.0000 12.4861
#
#
#
# Elastic Compliance Matrix: (Units=1/GPa)
#
#
# Indices 1 2 3 4 5 6 
#
# 1 0.008664 -0.001713 -0.002085 0.000000 0.001134 0.000000
# 2 -0.001713 0.013292 -0.001953 0.000000 0.001579 0.000000
# 3 -0.002085 -0.001953 0.009150 0.000000 -0.000578 0.000000
# 4 0.000000 0.000000 0.000000 0.052542 0.000000 -0.015340
# 5 0.001134 0.001579 -0.000578 0.000000 0.032740 0.000000
# 6 0.000000 0.000000 0.000000 -0.015340 0.000000 0.084568
#
#
# Mechanical properties :
#
#
# Convention : Reuss Voigt Hill
#
# Bulk Modulus (GPa) = 51.01160 54.24351 52.62755
# Shear Modulus (GPa) = 22.83181 29.63909 26.23545
#
# Velocity S-wave (km/s) = 3.06861 3.49627 3.28940
# Velocity P-wave (km/s) = 5.79600 6.21851 6.01097
#
# Compressibility (1/GPa) = 0.01960338
#
# Stress axis : x y z
#
# Youngs Moduli (GPa) = 115.41644 75.23378 109.29249
#
# Poissons Ratio (x) = 0.12891 0.22782
# Poissons Ratio (y) = 0.19777 0.21348
# Poissons Ratio (z) = 0.24059 0.14695
#
# Static dielectric constant tensor:
#      x y z
#    x 2.087560 0.000000 -0.002850 
#    y 0.000000 1.967630 0.000000 
#    z -0.002850 0.000000 1.952470 
# 
# From -- ./inp_files/13889.got.cif
#   From: 2010.05.17/outbox.cif.g08.bks.cpg/sg9_7_cif.got.tgz:13889.got - 2010.06.03 20:04:27.
