data_PCOD9137833
_publ_section_title
;
Structure prediction by ZEFSAII (Michael W. Deem and Ramdas Pophale) SiO2 
 PCOD9137833
Probable space group: C C
;
_chemical_formula_sum "Si O2"
_cell_formula_units_Z 32
_cell_length_a 13.652677
_cell_length_b 12.280714
_cell_length_c 9.661269
_cell_angle_alpha 90.000000
_cell_angle_beta 110.742997
_cell_angle_gamma 90.000000
_cell_volume 1514.851719
_symmetry_space_group_name_H-M "C C"
_symmetry_group_IT_number 9
_symmetry_cell_setting 'monoclinic'
loop_
_space_group_symop_operation_xyz
x,y,z
x,-y,1/2+z
1/2+x,1/2+y,z
1/2+x,1/2-y,1/2+z
loop_
_atom_site_type_symbol
_atom_site_label
_atom_site_fract_x
_atom_site_fract_y
_atom_site_fract_z
Si Si1 0.480030 0.396192 0.842840
Si Si2 0.807947 0.206424 0.058114
Si Si3 0.302843 0.037761 0.611486
Si Si4 0.672535 0.473391 0.307495
Si Si5 0.530426 0.963529 0.708852
Si Si6 0.516899 0.291214 0.157685
Si Si7 0.847863 0.109656 0.778222
Si Si8 0.662151 0.991765 0.531446
O O1 0.410057 0.332601 0.695333
O O2 0.585020 0.443644 0.823327
O O3 0.411300 0.500873 0.855868
O O4 0.502776 0.325531 0.990414
O O5 0.790128 0.333279 0.077919
O O6 0.823398 0.179250 0.903056
O O7 0.712765 0.129084 0.061800
O O8 0.219206 0.997928 0.682235
O O9 0.271275 0.974046 0.457716
O O10 0.422325 0.012877 0.708653
O O11 0.617032 0.357196 0.264353
O O12 0.523291 0.835589 0.684463
O O13 0.559831 0.008751 0.573311
O O14 0.627683 0.987032 0.858257
O O15 0.421323 0.331503 0.204416
O O16 0.747992 0.070689 0.640803
#
# Coordination Sequence:
#
# PCOD9137833 Si02
#       8
#     4   4   4   4   4   4   4   4
#     4  10  22  44  76 102 132 176 239 285 339 410
#     4  11  25  44  73 102 134 184 227 282 350 408
#     4  12  28  45  68 101 144 179 231 288 345 409
#     4  11  24  48  68  99 135 183 232 280 342 414
#     4  12  28  45  67 101 144 178 230 283 349 406
#     4  11  25  44  72 102 134 181 224 289 346 404
#     4  10  22  44  73 103 135 172 238 284 336 411
#     4  11  24  48  69  98 138 183 229 281 337 420
#
# _framework density 21.124178000000001
#
# number of rings (size 3 to 8) (size 9 to 14) (size 15 to 20)
#    0.000    1.000    2.500    3.750   10.500    1.000 
#    0.000    0.000    0.000    0.000    0.000    0.000 
#    0.000    0.000    0.000    0.000    0.000    0.000 
#
# Total GULP energy -89470.099034 kJ/mol
# GULP energy per Si atom -5591.881190 kJ/mol
# Density = 2.107610 g / cm^3
# Si number density = 21.124178 Si / 1000 Ang^3
#
#
#
# Elastic Constant Matrix: (Units=GPa)
#
#
# Indices 1 2 3 4 5 6 
#
# 1 87.4127 22.5229 17.3174 0.0000 -2.3307 0.0000
# 2 22.5229 62.6636 36.8066 0.0000 3.3188 0.0000
# 3 17.3174 36.8066 109.6751 0.0000 1.2898 0.0000
# 4 0.0000 0.0000 0.0000 3.6757 0.0000 -2.8747
# 5 -2.3307 3.3188 1.2898 0.0000 36.9824 0.0000
# 6 0.0000 0.0000 0.0000 -2.8747 0.0000 6.5552
#
#
#
# Elastic Compliance Matrix: (Units=1/GPa)
#
#
# Indices 1 2 3 4 5 6 
#
# 1 0.012691 -0.004284 -0.000580 0.000000 0.001205 0.000000
# 2 -0.004284 0.021412 -0.006486 0.000000 -0.001965 0.000000
# 3 -0.000580 -0.006486 0.011384 0.000000 0.000148 0.000000
# 4 0.000000 0.000000 0.000000 0.414075 0.000000 0.181586
# 5 0.001205 -0.001965 0.000148 0.000000 0.027287 0.000000
# 6 0.000000 0.000000 0.000000 0.181586 0.000000 0.232182
#
#
# Mechanical properties :
#
#
# Convention : Reuss Voigt Hill
#
# Bulk Modulus (GPa) = 43.88701 45.89390 44.89046
# Shear Modulus (GPa) = 6.67264 21.64962 14.16113
#
# Velocity S-wave (km/s) = 1.77922 3.20484 2.59197
# Velocity P-wave (km/s) = 5.00416 5.95547 5.50042
#
# Compressibility (1/GPa) = 0.02278578
#
# Stress axis : x y z
#
# Youngs Moduli (GPa) = 78.79611 46.70265 87.83910
#
# Poissons Ratio (x) = 0.20010 0.05096
# Poissons Ratio (y) = 0.33760 0.56974
# Poissons Ratio (z) = 0.04572 0.30292
#
# Static dielectric constant tensor:
#      x y z
#    x 1.768740 0.000000 0.001480 
#    y 0.000000 1.727850 0.000000 
#    z 0.001480 0.000000 1.724900 
# 
# From -- ./inp_files/9322.got.cif
#   From: 2010.05.17/outbox.cif.g08.bks.cpg/sg9_5_cif.got.tgz:9322.got - 2010.06.03 20:04:27.
