data_PCOD9137666
_publ_section_title
;
Structure prediction by ZEFSAII (Michael W. Deem and Ramdas Pophale) SiO2 
 PCOD9137666
Probable space group: C C
;
_chemical_formula_sum "Si O2"
_cell_formula_units_Z 32
_cell_length_a 8.158134
_cell_length_b 11.656085
_cell_length_c 15.614556
_cell_angle_alpha 90.000000
_cell_angle_beta 116.820020
_cell_angle_gamma 90.000000
_cell_volume 1325.093352
_symmetry_space_group_name_H-M "C C"
_symmetry_group_IT_number 9
_symmetry_cell_setting 'monoclinic'
loop_
_space_group_symop_operation_xyz
x,y,z
x,-y,1/2+z
1/2+x,1/2+y,z
1/2+x,1/2-y,1/2+z
loop_
_atom_site_type_symbol
_atom_site_label
_atom_site_fract_x
_atom_site_fract_y
_atom_site_fract_z
Si Si1 0.630470 0.436882 0.292100
Si Si2 0.442596 0.886850 0.222538
Si Si3 0.244809 0.806844 0.834762
Si Si4 0.590328 0.902729 0.817298
Si Si5 0.165747 0.443709 0.499645
Si Si6 0.336855 0.772997 0.442881
Si Si7 0.420629 0.745489 0.059042
Si Si8 0.281832 0.343320 0.111866
O O1 0.791949 0.406011 0.261484
O O2 0.634648 0.572938 0.306813
O O3 0.686797 0.374145 0.393996
O O4 0.446352 0.384728 0.209427
O O5 0.605894 0.798173 0.285902
O O6 0.352131 0.828345 0.118550
O O7 0.529356 0.013645 0.226958
O O8 0.417321 0.829832 0.811529
O O9 0.340654 0.785059 0.949139
O O10 0.765870 0.819598 0.855584
O O11 0.637274 0.994269 0.902867
O O12 0.361666 0.385323 0.556908
O O13 0.153798 0.545845 0.563976
O O14 0.025353 0.339481 0.474997
O O15 0.341147 0.707370 0.533929
O O16 0.640102 0.751569 0.114146
#
# Coordination Sequence:
#
# PCOD9137666 Si02
#       8
#     4   4   4   4   4   4   4   4
#     4  11  24  47  68 102 142 181 229 286 342 407
#     4  11  24  44  70 102 138 180 232 281 344 417
#     4  11  21  46  72  95 140 182 219 292 343 392
#     4  10  22  43  69  96 140 174 226 288 336 398
#     4  11  21  47  69  95 137 180 227 284 336 400
#     4  11  21  45  73  96 137 184 224 282 342 403
#     4  12  23  42  71 101 134 179 232 276 345 411
#     4  11  26  44  68 103 140 178 231 285 340 410
#
# _framework density 24.149242999999998
#
# number of rings (size 3 to 8) (size 9 to 14) (size 15 to 20)
#    0.000    1.000    6.250    1.500    1.750    0.000 
#   11.250    6.250    0.000    0.000    0.000    0.000 
#    0.000    0.000    0.000    0.000    0.000    0.000 
#
# Total GULP energy -89458.954750 kJ/mol
# GULP energy per Si atom -5591.184672 kJ/mol
# Density = 2.409428 g / cm^3
# Si number density = 24.149243 Si / 1000 Ang^3
#
#
#
# Elastic Constant Matrix: (Units=GPa)
#
#
# Indices 1 2 3 4 5 6 
#
# 1 52.3645 40.5172 9.0655 0.0000 17.1139 0.0000
# 2 40.5172 118.7897 11.2797 0.0000 10.3355 0.0000
# 3 9.0655 11.2797 81.3910 0.0000 8.3832 0.0000
# 4 0.0000 0.0000 0.0000 36.5168 0.0000 20.0140
# 5 17.1139 10.3355 8.3832 0.0000 37.0957 0.0000
# 6 0.0000 0.0000 0.0000 20.0140 0.0000 46.8513
#
#
#
# Elastic Compliance Matrix: (Units=1/GPa)
#
#
# Indices 1 2 3 4 5 6 
#
# 1 0.029969 -0.009171 -0.000928 0.000000 -0.011061 0.000000
# 2 -0.009171 0.011510 -0.000695 0.000000 0.001182 0.000000
# 3 -0.000928 -0.000695 0.012718 0.000000 -0.002252 0.000000
# 4 0.000000 0.000000 0.000000 0.035756 0.000000 -0.015274
# 5 -0.011061 0.001182 -0.002252 0.000000 0.032240 0.000000
# 6 0.000000 0.000000 0.000000 -0.015274 0.000000 0.027869
#
#
# Mechanical properties :
#
#
# Convention : Reuss Voigt Hill
#
# Bulk Modulus (GPa) = 30.66737 41.58556 36.12647
# Shear Modulus (GPa) = 27.39423 36.87160 32.13292
#
# Velocity S-wave (km/s) = 3.37170 3.91170 3.65169
# Velocity P-wave (km/s) = 5.28057 6.13673 5.72468
#
# Compressibility (1/GPa) = 0.03260794
#
# Stress axis : x y z
#
# Youngs Moduli (GPa) = 33.36788 86.88335 78.62844
#
# Poissons Ratio (x) = 0.79685 0.07294
# Poissons Ratio (y) = 0.30603 0.05467
# Poissons Ratio (z) = 0.03095 0.06041
#
# Static dielectric constant tensor:
#      x y z
#    x 1.969790 0.000000 -0.019090 
#    y 0.000000 1.919510 0.000000 
#    z -0.019090 0.000000 1.969550 
# 
# From -- ./inp_files/29273.got.cif
#   From: 2010.05.17/outbox.cif.g08.bks.cpg/sg9_15_cif.got.tgz:29273.got - 2010.06.03 20:04:27.
