data_PCOD9137290
_publ_section_title
;
Structure prediction by ZEFSAII (Michael W. Deem and Ramdas Pophale) SiO2 
 PCOD9137290
Probable space group: C C
;
_chemical_formula_sum "Si O2"
_cell_formula_units_Z 32
_cell_length_a 13.772043
_cell_length_b 9.575712
_cell_length_c 10.702355
_cell_angle_alpha 90.000000
_cell_angle_beta 67.326246
_cell_angle_gamma 90.000000
_cell_volume 1302.315681
_symmetry_space_group_name_H-M "C C"
_symmetry_group_IT_number 9
_symmetry_cell_setting 'monoclinic'
loop_
_space_group_symop_operation_xyz
x,y,z
x,-y,1/2+z
1/2+x,1/2+y,z
1/2+x,1/2-y,1/2+z
loop_
_atom_site_type_symbol
_atom_site_label
_atom_site_fract_x
_atom_site_fract_y
_atom_site_fract_z
Si Si1 0.691830 0.247256 0.528400
Si Si2 0.536421 0.345831 0.919121
Si Si3 0.457721 0.209322 0.535701
Si Si4 0.432609 0.105079 0.098033
Si Si5 0.290709 0.599879 0.254772
Si Si6 0.091799 0.988713 0.141569
Si Si7 0.084657 0.689062 0.229447
Si Si8 0.255721 0.294815 0.268906
O O1 0.569745 0.217336 0.553781
O O2 0.768769 0.198330 0.383225
O O3 0.687528 0.412882 0.553193
O O4 0.725995 0.177668 0.639246
O O5 0.536462 0.428704 0.786507
O O6 0.649457 0.269303 0.876044
O O7 0.455356 0.217377 0.976021
O O8 0.528946 0.446513 0.045095
O O9 0.377591 0.325151 0.626391
O O10 0.493797 0.221795 0.374957
O O11 0.413657 0.053221 0.572050
O O12 0.535081 0.114226 0.135367
O O13 0.340003 0.172200 0.224102
O O14 0.177427 0.601537 0.243104
O O15 0.303778 0.439918 0.293335
O O16 0.129153 0.841074 0.174718
#
# Coordination Sequence:
#
# PCOD9137290 Si02
#       8
#     4   4   4   4   4   4   4   4
#     4  10  24  44  70  95 145 179 228 287 350 411
#     4  10  22  44  70  96 148 176 230 284 350 412
#     4  11  25  44  71 102 136 182 237 282 349 415
#     4  11  26  44  69 103 139 183 230 283 355 409
#     4  11  25  44  71 102 136 182 237 282 349 415
#     4  10  22  40  74  98 132 180 232 278 350 392
#     4  10  24  44  70  95 145 179 228 287 350 411
#     4  11  26  44  69 103 139 183 230 283 355 409
#
# _framework density 24.571615000000001
#
# number of rings (size 3 to 8) (size 9 to 14) (size 15 to 20)
#    0.000    1.500    0.000    3.750   10.500    8.000 
#    0.000    0.000    0.000    0.000    0.000    0.000 
#    0.000    0.000    0.000    0.000    0.000    0.000 
#
# Total GULP energy -89494.598507 kJ/mol
# GULP energy per Si atom -5593.412407 kJ/mol
# Density = 2.451569 g / cm^3
# Si number density = 24.571615 Si / 1000 Ang^3
#
#
#
# Elastic Constant Matrix: (Units=GPa)
#
#
# Indices 1 2 3 4 5 6 
#
# 1 55.1814 -1.4722 28.0911 0.0000 -3.6041 0.0000
# 2 -1.4722 167.8108 47.8617 0.0000 -17.2949 0.0000
# 3 28.0911 47.8617 107.4307 0.0000 -6.1979 0.0000
# 4 0.0000 0.0000 0.0000 32.9741 0.0000 -8.0049
# 5 -3.6041 -17.2949 -6.1979 0.0000 48.8069 0.0000
# 6 0.0000 0.0000 0.0000 -8.0049 0.0000 21.7874
#
#
#
# Elastic Compliance Matrix: (Units=1/GPa)
#
#
# Indices 1 2 3 4 5 6 
#
# 1 0.021618 0.002218 -0.006551 0.000000 0.001550 0.000000
# 2 0.002218 0.007263 -0.003685 0.000000 0.002270 0.000000
# 3 -0.006551 -0.003685 0.012653 0.000000 -0.000183 0.000000
# 4 0.000000 0.000000 0.000000 0.033297 0.000000 0.012234
# 5 0.001550 0.002270 -0.000183 0.000000 0.021384 0.000000
# 6 0.000000 0.000000 0.000000 0.012234 0.000000 0.050393
#
#
# Mechanical properties :
#
#
# Convention : Reuss Voigt Hill
#
# Bulk Modulus (GPa) = 39.22044 53.26491 46.24267
# Shear Modulus (GPa) = 29.21535 37.77650 33.49593
#
# Velocity S-wave (km/s) = 3.45191 3.92523 3.69615
# Velocity P-wave (km/s) = 5.64658 6.50136 6.08899
#
# Compressibility (1/GPa) = 0.02549691
#
# Stress axis : x y z
#
# Youngs Moduli (GPa) = 46.25875 137.67529 79.03571
#
# Poissons Ratio (x) = -0.30535 0.51778
# Poissons Ratio (y) = -0.10260 0.29124
# Poissons Ratio (z) = 0.30305 0.50733
#
# Static dielectric constant tensor:
#      x y z
#    x 1.985550 0.000000 0.012780 
#    y 0.000000 1.946220 0.000000 
#    z 0.012780 0.000000 1.956790 
# 
# From -- ./inp_files/17905.got.cif
#   From: 2010.05.17/outbox.cif.g08.bks.cpg/sg9_9_cif.got.tgz:17905.got - 2010.06.03 20:04:27.
