data_PCOD9137214
_publ_section_title
;
Structure prediction by ZEFSAII (Michael W. Deem and Ramdas Pophale) SiO2 
 PCOD9137214
Probable space group: C C
;
_chemical_formula_sum "Si O2"
_cell_formula_units_Z 32
_cell_length_a 25.777882
_cell_length_b 5.508788
_cell_length_c 17.962575
_cell_angle_alpha 90.000000
_cell_angle_beta 29.985054
_cell_angle_gamma 90.000000
_cell_volume 1274.810431
_symmetry_space_group_name_H-M "C C"
_symmetry_group_IT_number 9
_symmetry_cell_setting 'monoclinic'
loop_
_space_group_symop_operation_xyz
x,y,z
x,-y,1/2+z
1/2+x,1/2+y,z
1/2+x,1/2-y,1/2+z
loop_
_atom_site_type_symbol
_atom_site_label
_atom_site_fract_x
_atom_site_fract_y
_atom_site_fract_z
Si Si1 0.969790 0.963548 0.223360
Si Si2 0.749957 0.964194 0.072923
Si Si3 0.913476 0.708282 0.566306
Si Si4 0.344772 0.908030 0.796157
Si Si5 0.087113 0.221618 0.943384
Si Si6 0.229256 0.486960 0.342641
Si Si7 0.657307 0.685812 0.069031
Si Si8 0.768951 0.529597 0.637496
O O1 0.858407 0.043476 0.392438
O O2 0.057240 0.019390 0.176807
O O3 0.938275 0.701531 0.229073
O O4 0.011535 0.109636 0.099508
O O5 0.656349 0.894031 0.132781
O O6 0.754023 0.733516 0.122315
O O7 0.748473 0.228794 0.113276
O O8 0.891655 0.559222 0.669537
O O9 0.832978 0.930608 0.670691
O O10 0.883081 0.560701 0.531404
O O11 0.029642 0.789184 0.435583
O O12 0.269327 0.723266 0.845619
O O13 0.261509 0.031700 0.953966
O O14 0.133509 0.488380 0.904612
O O15 0.189511 0.057133 0.805842
O O16 0.188042 0.685512 0.453356
#
# Coordination Sequence:
#
# PCOD9137214 Si02
#       8
#     4   4   4   4   4   4   4   4
#     4  11  23  44  77 110 140 195 259 310 387 449
#     4  12  26  51  68 105 152 201 239 310 371 454
#     4  10  22  40  65 102 140 190 242 305 371 448
#     4  11  20  39  72 107 149 184 246 331 380 434
#     4  10  22  43  69 106 135 184 253 303 373 440
#     4   9  19  38  62  99 141 172 229 313 374 422
#     4  10  23  41  65 106 148 190 250 310 379 449
#     4  11  29  46  72  99 155 196 242 302 379 440
#
# _framework density 25.101769000000001
#
# number of rings (size 3 to 8) (size 9 to 14) (size 15 to 20)
#    0.000    1.500    2.500    2.250    5.250    3.000 
#    2.250    0.000    0.000    0.000    0.000    0.000 
#    0.000    0.000    0.000    0.000    0.000    0.000 
#
# Total GULP energy -89296.668390 kJ/mol
# GULP energy per Si atom -5581.041774 kJ/mol
# Density = 2.504464 g / cm^3
# Si number density = 25.101769 Si / 1000 Ang^3
#
#
#
# Elastic Constant Matrix: (Units=GPa)
#
#
# Indices 1 2 3 4 5 6 
#
# 1 101.6254 22.6298 12.9193 -0.0314 -11.6717 0.0513
# 2 22.6298 81.6282 17.7999 -0.0751 8.7131 0.0828
# 3 12.9193 17.7999 86.1194 0.0114 -8.0390 0.0647
# 4 -0.0314 -0.0751 0.0114 31.8862 0.0270 7.4483
# 5 -11.6717 8.7131 -8.0390 0.0270 40.7452 -0.0308
# 6 0.0513 0.0828 0.0647 7.4483 -0.0308 50.3859
#
#
#
# Elastic Compliance Matrix: (Units=1/GPa)
#
#
# Indices 1 2 3 4 5 6 
#
# 1 0.011097 -0.003343 -0.000622 0.000001 0.003771 -0.000003
# 2 -0.003343 0.014295 -0.002881 0.000041 -0.004583 -0.000025
# 3 -0.000622 -0.002881 0.012573 -0.000013 0.002919 -0.000007
# 4 0.000001 0.000041 -0.000013 0.032483 -0.000036 -0.004802
# 5 0.003771 -0.004583 0.002919 -0.000036 0.027179 0.000022
# 6 -0.000003 -0.000025 -0.000007 -0.004802 0.000022 0.020557
#
#
# Mechanical properties :
#
#
# Convention : Reuss Voigt Hill
#
# Bulk Modulus (GPa) = 41.19803 41.78565 41.49184
# Shear Modulus (GPa) = 35.72291 39.00506 37.36398
#
# Velocity S-wave (km/s) = 3.77652 3.94620 3.86229
# Velocity P-wave (km/s) = 5.95518 6.11931 6.03780
#
# Compressibility (1/GPa) = 0.02427300
#
# Stress axis : x y z
#
# Youngs Moduli (GPa) = 90.11710 69.95454 79.53597
#
# Poissons Ratio (x) = 0.23388 0.04944
# Poissons Ratio (y) = 0.30129 0.22913
# Poissons Ratio (z) = 0.05602 0.20153
#
# Static dielectric constant tensor:
#      x y z
#    x 2.119270 -0.000060 -0.019050 
#    y -0.000060 2.086370 0.000040 
#    z -0.019050 0.000040 1.956920 
# 
# From -- ./inp_files/34244.got.cif
#   From: 2010.05.17/outbox.cif.g08.bks.cpg/sg9_18_cif.got.tgz:34244.got - 2010.06.03 20:04:27.
