data_PCOD9137493
_publ_section_title
;
Structure prediction by ZEFSAII (Michael W. Deem and Ramdas Pophale) SiO2 
 PCOD9137493
Probable space group: C C
;
_chemical_formula_sum "Si O2"
_cell_formula_units_Z 16
_cell_length_a 4.541074
_cell_length_b 14.307456
_cell_length_c 9.339250
_cell_angle_alpha 90.000000
_cell_angle_beta 115.815963
_cell_angle_gamma 90.000000
_cell_volume 546.224016
_symmetry_space_group_name_H-M "C C"
_symmetry_group_IT_number 9
_symmetry_cell_setting 'monoclinic'
loop_
_space_group_symop_operation_xyz
x,y,z
x,-y,1/2+z
1/2+x,1/2+y,z
1/2+x,1/2-y,1/2+z
loop_
_atom_site_type_symbol
_atom_site_label
_atom_site_fract_x
_atom_site_fract_y
_atom_site_fract_z
Si Si1 0.654150 0.868677 0.030830
Si Si2 0.626968 0.778879 0.320441
Si Si3 0.558486 0.518341 0.427830
Si Si4 0.273569 0.609023 0.098568
O O1 0.713769 0.844020 0.205817
O O2 0.443773 0.784006 0.923891
O O3 0.429459 0.962104 0.957222
O O4 0.979864 0.892866 0.014676
O O5 0.374545 0.702654 0.207277
O O6 0.521895 0.843134 0.431954
O O7 0.323097 0.535946 0.241993
O O8 0.527372 0.432290 0.531217
#
# Coordination Sequence:
#
# PCOD9137493 Si02
#       4
#     4   4   4   4
#     4  10  23  42  65  96 130 170 214 264 319 380
#     4   9  21  42  66  95 132 170 212 263 322 380
#     4  11  24  42  66  95 128 170 216 263 316 380
#     4  10  22  42  67  96 130 170 214 264 319 380
#
# _framework density 29.292009
#
# number of rings (size 3 to 8) (size 9 to 14) (size 15 to 20)
#    0.000    2.000    0.000    1.500    0.000   16.000 
#    0.000   12.500    0.000    0.000    0.000    0.000 
#    0.000    0.000    0.000    0.000    0.000    0.000 
#
# Total GULP energy -44724.620348 kJ/mol
# GULP energy per Si atom -5590.577543 kJ/mol
# Density = 2.922534 g / cm^3
# Si number density = 29.292009 Si / 1000 Ang^3
#
#
#
# Elastic Constant Matrix: (Units=GPa)
#
#
# Indices 1 2 3 4 5 6 
#
# 1 67.3815 -5.6516 21.7712 0.0000 -13.0515 0.0000
# 2 -5.6516 129.0224 52.5715 0.0000 -19.1486 0.0000
# 3 21.7712 52.5715 257.8264 0.0000 -18.8575 0.0000
# 4 0.0000 0.0000 0.0000 77.0971 0.0000 -26.9326
# 5 -13.0515 -19.1486 -18.8575 0.0000 43.1040 0.0000
# 6 0.0000 0.0000 0.0000 -26.9326 0.0000 47.3954
#
#
#
# Elastic Compliance Matrix: (Units=1/GPa)
#
#
# Indices 1 2 3 4 5 6 
#
# 1 0.016506 0.002094 -0.001433 0.000000 0.005301 0.000000
# 2 0.002094 0.009139 -0.001753 0.000000 0.003927 0.000000
# 3 -0.001433 -0.001753 0.004409 0.000000 0.000716 0.000000
# 4 0.000000 0.000000 0.000000 0.016183 0.000000 0.009196
# 5 0.005301 0.003927 0.000716 0.000000 0.026863 0.000000
# 6 0.000000 0.000000 0.000000 0.009196 0.000000 0.026325
#
#
# Mechanical properties :
#
#
# Convention : Reuss Voigt Hill
#
# Bulk Modulus (GPa) = 35.88047 65.73471 50.80759
# Shear Modulus (GPa) = 45.08526 59.22193 52.15359
#
# Velocity S-wave (km/s) = 3.92748 4.50130 4.22414
# Velocity P-wave (km/s) = 5.73085 7.03601 6.41670
#
# Compressibility (1/GPa) = 0.02787032
#
# Stress axis : x y z
#
# Youngs Moduli (GPa) = 60.58300 109.41560 226.78594
#
# Poissons Ratio (x) = -0.22908 0.32498
# Poissons Ratio (y) = -0.12684 0.39758
# Poissons Ratio (z) = 0.08681 0.19182
#
# Static dielectric constant tensor:
#      x y z
#    x 2.316240 0.000000 0.102380 
#    y 0.000000 2.437460 0.000000 
#    z 0.102380 0.000000 2.189790 
# 
# From -- ./inp_files/3529.got.cif
#   From: 2010.05.17/outbox.cif.g08.bks.cpg/sg9_2_cif.got.tgz:3529.got - 2010.06.03 20:04:27.
