data_PCOD9137503
_publ_section_title
;
Structure prediction by ZEFSAII (Michael W. Deem and Ramdas Pophale) SiO2 
 PCOD9137503
Probable space group: C C
;
_chemical_formula_sum "Si O2"
_cell_formula_units_Z 32
_cell_length_a 10.329153
_cell_length_b 22.982643
_cell_length_c 4.920777
_cell_angle_alpha 90.000000
_cell_angle_beta 79.677443
_cell_angle_gamma 90.000000
_cell_volume 1149.242332
_symmetry_space_group_name_H-M "C C"
_symmetry_group_IT_number 9
_symmetry_cell_setting 'monoclinic'
loop_
_space_group_symop_operation_xyz
x,y,z
x,-y,1/2+z
1/2+x,1/2+y,z
1/2+x,1/2-y,1/2+z
loop_
_atom_site_type_symbol
_atom_site_label
_atom_site_fract_x
_atom_site_fract_y
_atom_site_fract_z
Si Si1 0.674480 0.539770 0.295860
Si Si2 0.406972 0.308377 0.387014
Si Si3 0.689350 0.115360 0.786195
Si Si4 0.346401 0.194951 0.107885
Si Si5 0.381167 0.541018 0.343897
Si Si6 0.953235 0.460846 0.512870
Si Si7 0.554704 0.795347 0.939063
Si Si8 0.686683 0.313390 0.174961
O O1 0.676148 0.518374 0.605329
O O2 0.530350 0.566074 0.304036
O O3 0.814210 0.432258 0.657481
O O4 0.366908 0.265068 0.151816
O O5 0.457986 0.257799 0.573603
O O6 0.544971 0.340940 0.280919
O O7 0.163776 0.254840 0.755912
O O8 0.776123 0.083591 0.520947
O O9 0.590013 0.072744 0.977472
O O10 0.605621 0.163659 0.652311
O O11 0.791056 0.146366 0.952776
O O12 0.473148 0.173681 0.230739
O O13 0.304376 0.170231 0.833033
O O14 0.223369 0.181983 0.350858
O O15 0.369326 0.483990 0.544963
O O16 0.953298 0.517872 0.702489
#
# Coordination Sequence:
#
# PCOD9137503 Si02
#       8
#     4   4   4   4   4   4   4   4
#     4   8  16  36  68  92 135 188 223 282 358 428
#     4   8  20  37  63  94 131 181 239 288 358 423
#     4  12  20  42  68 110 147 194 235 312 374 422
#     4   9  18  38  61  82 123 171 234 289 341 401
#     4  10  22  42  68 106 147 186 234 297 364 450
#     4  10  22  42  68 106 147 186 234 297 364 450
#     4   8  20  37  63  94 131 181 239 288 358 423
#     4   9  18  38  61  82 123 171 234 289 341 401
#
# _framework density 27.844432999999999
#
# number of rings (size 3 to 8) (size 9 to 14) (size 15 to 20)
#    1.500    1.000    1.250    0.750    0.000    4.000 
#    4.500    0.000   19.250    0.000    0.000    0.000 
#    0.000    0.250    0.000    3.750    0.000    0.000 
#
# Total GULP energy -89388.875494 kJ/mol
# GULP energy per Si atom -5586.804718 kJ/mol
# Density = 2.778106 g / cm^3
# Si number density = 27.844433 Si / 1000 Ang^3
#
#
#
# Elastic Constant Matrix: (Units=GPa)
#
#
# Indices 1 2 3 4 5 6 
#
# 1 141.6302 35.6540 28.3176 0.0000 -30.6688 0.0000
# 2 35.6540 67.2970 28.1684 0.0000 -14.0033 0.0000
# 3 28.3176 28.1684 97.6335 0.0000 -21.6510 0.0000
# 4 0.0000 0.0000 0.0000 42.7310 0.0000 -4.1910
# 5 -30.6688 -14.0033 -21.6510 0.0000 45.2541 0.0000
# 6 0.0000 0.0000 0.0000 -4.1910 0.0000 56.2075
#
#
#
# Elastic Compliance Matrix: (Units=1/GPa)
#
#
# Indices 1 2 3 4 5 6 
#
# 1 0.009116 -0.003605 -0.000539 0.000000 0.004805 0.000000
# 2 -0.003605 0.018761 -0.004052 0.000000 0.001424 0.000000
# 3 -0.000539 -0.004052 0.012539 0.000000 0.004380 0.000000
# 4 0.000000 0.000000 0.000000 0.023575 0.000000 0.001758
# 5 0.004805 0.001424 0.004380 0.000000 0.027890 0.000000
# 6 0.000000 0.000000 0.000000 0.001758 0.000000 0.017922
#
#
# Mechanical properties :
#
#
# Convention : Reuss Voigt Hill
#
# Bulk Modulus (GPa) = 41.61954 54.53786 48.07870
# Shear Modulus (GPa) = 37.25728 43.13325 40.19527
#
# Velocity S-wave (km/s) = 3.66191 3.94011 3.80355
# Velocity P-wave (km/s) = 5.73228 6.35046 6.04927
#
# Compressibility (1/GPa) = 0.02402718
#
# Stress axis : x y z
#
# Youngs Moduli (GPa) = 109.69472 53.30089 79.75188
#
# Poissons Ratio (x) = 0.19212 0.04295
# Poissons Ratio (y) = 0.39540 0.32312
# Poissons Ratio (z) = 0.05908 0.21595
#
# Static dielectric constant tensor:
#      x y z
#    x 2.221690 0.000000 -0.052090 
#    y 0.000000 2.201790 0.000000 
#    z -0.052090 0.000000 2.110840 
# 
# From -- ./inp_files/2248.got.cif
#   From: 2010.05.17/outbox.cif.g08.bks.cpg/sg9_2_cif.got.tgz:2248.got - 2010.06.03 20:04:27.
