data_PCOD9137624
_publ_section_title
;
Structure prediction by ZEFSAII (Michael W. Deem and Ramdas Pophale) SiO2 
 PCOD9137624
Probable space group: C C
;
_chemical_formula_sum "Si O2"
_cell_formula_units_Z 32
_cell_length_a 9.876449
_cell_length_b 31.568760
_cell_length_c 5.190415
_cell_angle_alpha 90.000000
_cell_angle_beta 54.712016
_cell_angle_gamma 90.000000
_cell_volume 1320.955803
_symmetry_space_group_name_H-M "C C"
_symmetry_group_IT_number 9
_symmetry_cell_setting 'monoclinic'
loop_
_space_group_symop_operation_xyz
x,y,z
x,-y,1/2+z
1/2+x,1/2+y,z
1/2+x,1/2-y,1/2+z
loop_
_atom_site_type_symbol
_atom_site_label
_atom_site_fract_x
_atom_site_fract_y
_atom_site_fract_z
Si Si1 0.390850 0.160248 0.775170
Si Si2 0.181088 0.676512 0.118519
Si Si3 0.366159 0.024909 0.273125
Si Si4 0.767044 0.023216 0.792038
Si Si5 0.887339 0.114794 0.584444
Si Si6 0.238741 0.118680 0.450803
Si Si7 0.069515 0.732550 0.833461
Si Si8 0.413843 0.693632 0.250958
O O1 0.575296 0.152797 0.454810
O O2 0.279217 0.148979 0.649568
O O3 0.423231 0.207318 0.848496
O O4 0.333216 0.134392 0.087721
O O5 0.357424 0.696070 0.016988
O O6 0.228984 0.639093 0.875317
O O7 0.070721 0.715150 0.125769
O O8 0.301251 0.070879 0.426605
O O9 0.312423 0.991199 0.550293
O O10 0.566785 0.026401 0.030085
O O11 0.840399 0.066561 0.602883
O O12 0.817738 0.987757 0.527727
O O13 0.933067 0.144343 0.293821
O O14 0.045586 0.117535 0.596189
O O15 0.246064 0.713085 0.559504
O O16 0.053745 0.779754 0.742554
#
# Coordination Sequence:
#
# PCOD9137624 Si02
#       8
#     4   4   4   4   4   4   4   4
#     4  11  24  44  68 100 133 191 236 282 351 419
#     4  10  23  46  70 100 140 190 241 294 340 436
#     4  10  22  43  67 101 135 182 236 287 352 432
#     4  10  24  43  71  99 137 190 237 288 349 433
#     4  11  27  43  69 109 146 183 240 295 367 413
#     4  12  26  41  72 104 143 183 228 302 353 427
#     4  10  23  43  66 104 135 193 233 298 348 419
#     4  10  25  41  71 101 145 188 241 298 348 427
#
# _framework density 24.224885
#
# number of rings (size 3 to 8) (size 9 to 14) (size 15 to 20)
#    0.000    1.500    1.250    1.500    8.750    7.000 
#    0.000    0.000    0.000    0.000    0.000    0.000 
#    0.000    0.000    0.000    0.000    0.000    0.000 
#
# Total GULP energy -89288.565643 kJ/mol
# GULP energy per Si atom -5580.535353 kJ/mol
# Density = 2.416975 g / cm^3
# Si number density = 24.224885 Si / 1000 Ang^3
#
#
#
# Elastic Constant Matrix: (Units=GPa)
#
#
# Indices 1 2 3 4 5 6 
#
# 1 96.2256 22.9095 23.9757 0.0000 18.2107 0.0000
# 2 22.9095 89.8686 17.2193 0.0000 7.1656 0.0000
# 3 23.9757 17.2193 70.5714 0.0000 16.0520 0.0000
# 4 0.0000 0.0000 0.0000 10.9485 0.0000 -1.6052
# 5 18.2107 7.1656 16.0520 0.0000 38.7776 0.0000
# 6 0.0000 0.0000 0.0000 -1.6052 0.0000 35.7682
#
#
#
# Elastic Compliance Matrix: (Units=1/GPa)
#
#
# Indices 1 2 3 4 5 6 
#
# 1 0.012423 -0.002311 -0.002679 0.000000 -0.004298 0.000000
# 2 -0.002311 0.012144 -0.002113 0.000000 -0.000284 0.000000
# 3 -0.002679 -0.002113 0.016803 0.000000 -0.005307 0.000000
# 4 0.000000 0.000000 0.000000 0.091941 0.000000 0.004126
# 5 -0.004298 -0.000284 -0.005307 0.000000 0.030056 0.000000
# 6 0.000000 0.000000 0.000000 0.004126 0.000000 0.028143
#
#
# Mechanical properties :
#
#
# Convention : Reuss Voigt Hill
#
# Bulk Modulus (GPa) = 36.81426 42.76387 39.78906
# Shear Modulus (GPa) = 23.28046 29.93626 26.60836
#
# Velocity S-wave (km/s) = 3.10339 3.51916 3.31779
# Velocity P-wave (km/s) = 5.29823 5.84840 5.58010
#
# Compressibility (1/GPa) = 0.02716339
#
# Stress axis : x y z
#
# Youngs Moduli (GPa) = 80.49313 82.34484 59.51312
#
# Poissons Ratio (x) = 0.19029 0.15945
# Poissons Ratio (y) = 0.18602 0.12578
# Poissons Ratio (z) = 0.21566 0.17403
#
# Static dielectric constant tensor:
#      x y z
#    x 2.090410 0.000000 0.082340 
#    y 0.000000 1.913680 0.000000 
#    z 0.082340 0.000000 2.026760 
# 
# From -- ./inp_files/1365.got.cif
#   From: 2010.05.17/outbox.cif.g08.bks.cpg/sg9_1_cif.got.tgz:1365.got - 2010.06.03 20:04:27.
