data_PCOD9137525
_publ_section_title
;
Structure prediction by ZEFSAII (Michael W. Deem and Ramdas Pophale) SiO2 
 PCOD9137525
Probable space group: C C
;
_chemical_formula_sum "Si O2"
_cell_formula_units_Z 32
_cell_length_a 14.727321
_cell_length_b 11.065652
_cell_length_c 19.129960
_cell_angle_alpha 90.000000
_cell_angle_beta 29.128634
_cell_angle_gamma 90.000000
_cell_volume 1517.540906
_symmetry_space_group_name_H-M "C C"
_symmetry_group_IT_number 9
_symmetry_cell_setting 'monoclinic'
loop_
_space_group_symop_operation_xyz
x,y,z
x,-y,1/2+z
1/2+x,1/2+y,z
1/2+x,1/2-y,1/2+z
loop_
_atom_site_type_symbol
_atom_site_label
_atom_site_fract_x
_atom_site_fract_y
_atom_site_fract_z
Si Si1 0.036570 0.567628 0.607960
Si Si2 0.652901 0.708998 0.428029
Si Si3 0.808422 0.645203 0.185412
Si Si4 0.275949 0.991995 0.563943
Si Si5 0.465292 0.694699 0.066458
Si Si6 0.276488 0.037081 0.908578
Si Si7 0.876839 0.899508 0.357874
Si Si8 0.531208 0.224455 0.374671
O O1 0.238239 0.503969 0.479258
O O2 0.913194 0.467215 0.651332
O O3 0.031525 0.685821 0.563365
O O4 0.931317 0.590633 0.751984
O O5 0.649831 0.676985 0.348054
O O6 0.446834 0.740920 0.591388
O O7 0.755524 0.603612 0.402376
O O8 0.771769 0.828294 0.366795
O O9 0.775387 0.599473 0.129270
O O10 0.415037 0.106650 0.476640
O O11 0.068292 0.045743 0.701515
O O12 0.326138 0.938056 0.455036
O O13 0.242002 0.690478 0.212676
O O14 0.569774 0.587242 0.034452
O O15 0.543161 0.694610 0.935723
O O16 0.930315 0.802811 0.382558
#
# Coordination Sequence:
#
# PCOD9137525 Si02
#       8
#     4   4   4   4   4   4   4   4
#     4  10  23  44  68  96 130 175 218 275 337 391
#     4  10  22  42  69  94 129 173 216 269 336 390
#     4  10  22  43  65  94 129 167 221 272 321 395
#     4  12  25  42  65 101 133 172 226 277 328 392
#     4  12  25  45  69  95 140 179 222 273 339 401
#     4  11  25  43  68  97 132 177 224 271 336 402
#     4  11  24  41  72  99 131 170 225 282 327 398
#     4  12  24  42  68 102 130 173 228 275 324 393
#
# _framework density 21.086745000000001
#
# number of rings (size 3 to 8) (size 9 to 14) (size 15 to 20)
#    0.000    1.000    5.000    0.750    8.750    1.000 
#    4.500    0.000    0.000    0.000    0.000    0.000 
#    0.000    0.000    0.000    0.000    0.000    0.000 
#
# Total GULP energy -89353.138459 kJ/mol
# GULP energy per Si atom -5584.571154 kJ/mol
# Density = 2.103875 g / cm^3
# Si number density = 21.086745 Si / 1000 Ang^3
#
#
#
# Elastic Constant Matrix: (Units=GPa)
#
#
# Indices 1 2 3 4 5 6 
#
# 1 78.2740 14.8068 20.5473 -0.0008 28.7976 0.0007
# 2 14.8068 27.4610 19.9094 -0.0031 1.2778 0.0001
# 3 20.5473 19.9094 84.6864 -0.0033 9.4776 0.0010
# 4 -0.0008 -0.0031 -0.0033 19.4089 0.0011 1.2144
# 5 28.7976 1.2778 9.4776 0.0011 47.7279 -0.0003
# 6 0.0007 0.0001 0.0010 1.2144 -0.0003 25.1519
#
#
#
# Elastic Compliance Matrix: (Units=1/GPa)
#
#
# Indices 1 2 3 4 5 6 
#
# 1 0.018732 -0.008654 -0.001300 0.000000 -0.010812 -0.000001
# 2 -0.008654 0.047933 -0.009828 0.000005 0.005890 0.000000
# 3 -0.001300 -0.009828 0.014642 0.000001 -0.001860 -0.000001
# 4 0.000000 0.000005 0.000001 0.051679 -0.000001 -0.002495
# 5 -0.010812 0.005890 -0.001860 -0.000001 0.027688 0.000001
# 6 -0.000001 0.000000 -0.000001 -0.002495 0.000001 0.039879
#
#
# Mechanical properties :
#
#
# Convention : Reuss Voigt Hill
#
# Bulk Modulus (GPa) = 23.95678 33.43871 28.69774
# Shear Modulus (GPa) = 19.68250 27.46827 23.57539
#
# Velocity S-wave (km/s) = 3.05848 3.61312 3.34731
# Velocity P-wave (km/s) = 4.88448 5.77046 5.34586
#
# Compressibility (1/GPa) = 0.04174184
#
# Stress axis : x y z
#
# Youngs Moduli (GPa) = 53.38436 20.86241 68.29436
#
# Poissons Ratio (x) = 0.18055 0.08880
# Poissons Ratio (y) = 0.46201 0.67122
# Poissons Ratio (z) = 0.06941 0.20504
#
# Static dielectric constant tensor:
#      x y z
#    x 1.772620 0.000000 0.021580 
#    y 0.000000 1.757200 0.000000 
#    z 0.021580 0.000000 1.753170 
# 
# From -- ./inp_files/9127.got.cif
#   From: 2010.05.17/outbox.cif.g08.bks.cpg/sg9_5_cif.got.tgz:9127.got - 2010.06.03 20:04:27.
