data_PCOD9137916
_publ_section_title
;
Structure prediction by ZEFSAII (Michael W. Deem and Ramdas Pophale) SiO2 
 PCOD9137916
Probable space group: C C
;
_chemical_formula_sum "Si O2"
_cell_formula_units_Z 32
_cell_length_a 12.593329
_cell_length_b 9.994463
_cell_length_c 10.650827
_cell_angle_alpha 90.000000
_cell_angle_beta 109.192041
_cell_angle_gamma 90.000000
_cell_volume 1266.045926
_symmetry_space_group_name_H-M "C C"
_symmetry_group_IT_number 9
_symmetry_cell_setting 'monoclinic'
loop_
_space_group_symop_operation_xyz
x,y,z
x,-y,1/2+z
1/2+x,1/2+y,z
1/2+x,1/2-y,1/2+z
loop_
_atom_site_type_symbol
_atom_site_label
_atom_site_fract_x
_atom_site_fract_y
_atom_site_fract_z
Si Si1 0.506970 0.982862 0.370950
Si Si2 0.327570 0.160723 0.443269
Si Si3 0.614195 0.331799 0.692644
Si Si4 0.454600 0.719723 0.473804
Si Si5 0.064441 0.112602 0.739491
Si Si6 0.264001 0.896642 0.511008
Si Si7 0.124064 0.460546 0.168179
Si Si8 0.876657 0.926410 0.360141
O O1 0.471197 0.826634 0.368771
O O2 0.564944 0.028444 0.265040
O O3 0.404581 0.078881 0.372268
O O4 0.596939 0.988305 0.520015
O O5 0.200835 0.177092 0.341842
O O6 0.364334 0.314750 0.464708
O O7 0.316009 0.046036 0.544274
O O8 0.540049 0.459311 0.690940
O O9 0.688626 0.365919 0.600259
O O10 0.567097 0.186461 0.648584
O O11 0.558593 0.696607 0.609446
O O12 0.360221 0.789161 0.523920
O O13 0.417340 0.573392 0.414887
O O14 0.966951 0.140022 0.801549
O O15 0.182542 0.114392 0.857641
O O16 0.255601 0.444026 0.246868
#
# Coordination Sequence:
#
# PCOD9137916 Si02
#       8
#     4   4   4   4   4   4   4   4
#     4  11  27  46  70 104 141 194 232 297 358 428
#     4   9  23  44  69  99 135 184 235 285 354 429
#     4  10  22  45  70  99 139 187 235 296 346 435
#     4  11  25  43  67 104 140 178 243 293 352 431
#     4  11  24  41  70  99 138 190 232 291 358 418
#     4  10  23  44  70  99 137 189 240 287 358 426
#     4  11  27  44  72 103 147 183 243 294 361 418
#     4  11  25  43  68 101 141 181 234 299 351 427
#
# _framework density 25.275544
#
# number of rings (size 3 to 8) (size 9 to 14) (size 15 to 20)
#    0.000    1.500    0.000    3.000   14.000    2.000 
#    0.000    0.000    0.000    0.000    0.000    0.000 
#    0.000    0.000    0.000    0.000    0.000    0.000 
#
# Total GULP energy -89520.756675 kJ/mol
# GULP energy per Si atom -5595.047292 kJ/mol
# Density = 2.521802 g / cm^3
# Si number density = 25.275544 Si / 1000 Ang^3
#
#
#
# Elastic Constant Matrix: (Units=GPa)
#
#
# Indices 1 2 3 4 5 6 
#
# 1 56.4468 -4.3185 8.2796 0.0000 0.4159 0.0000
# 2 -4.3185 128.9564 22.5502 0.0000 0.9020 0.0000
# 3 8.2796 22.5502 63.8940 0.0000 7.4622 0.0000
# 4 0.0000 0.0000 0.0000 35.3380 0.0000 6.1930
# 5 0.4159 0.9020 7.4622 0.0000 47.9708 0.0000
# 6 0.0000 0.0000 0.0000 6.1930 0.0000 38.4204
#
#
#
# Elastic Compliance Matrix: (Units=1/GPa)
#
#
# Indices 1 2 3 4 5 6 
#
# 1 0.018204 0.001093 -0.002774 0.000000 0.000253 0.000000
# 2 0.001093 0.008335 -0.003120 0.000000 0.000319 0.000000
# 3 -0.002774 -0.003120 0.017419 0.000000 -0.002627 0.000000
# 4 0.000000 0.000000 0.000000 0.029121 0.000000 -0.004694
# 5 0.000253 0.000319 -0.002627 0.000000 0.021246 0.000000
# 6 0.000000 0.000000 0.000000 -0.004694 0.000000 0.026784
#
#
# Mechanical properties :
#
#
# Convention : Reuss Voigt Hill
#
# Bulk Modulus (GPa) = 29.10867 33.59111 31.34989
# Shear Modulus (GPa) = 35.17062 39.19824 37.18443
#
# Velocity S-wave (km/s) = 3.73431 3.94234 3.83973
# Velocity P-wave (km/s) = 5.48953 5.83451 5.66465
#
# Compressibility (1/GPa) = 0.03435403
#
# Stress axis : x y z
#
# Youngs Moduli (GPa) = 54.93155 119.98190 57.41019
#
# Poissons Ratio (x) = -0.13114 0.15927
# Poissons Ratio (y) = -0.06004 0.17915
# Poissons Ratio (z) = 0.15240 0.37440
#
# Static dielectric constant tensor:
#      x y z
#    x 1.957680 0.000000 0.019750 
#    y 0.000000 2.022550 0.000000 
#    z 0.019750 0.000000 2.023790 
# 
# From -- ./inp_files/17947.got.cif
#   From: 2010.05.17/outbox.cif.g08.bks.cpg/sg9_9_cif.got.tgz:17947.got - 2010.06.03 20:04:27.
