data_PCOD9137505
_publ_section_title
;
Structure prediction by ZEFSAII (Michael W. Deem and Ramdas Pophale) SiO2 
 PCOD9137505
Probable space group: C C
;
_chemical_formula_sum "Si O2"
_cell_formula_units_Z 28
_cell_length_a 8.816653
_cell_length_b 28.304537
_cell_length_c 9.059539
_cell_angle_alpha 90.000000
_cell_angle_beta 147.715525
_cell_angle_gamma 90.000000
_cell_volume 1207.556396
_symmetry_space_group_name_H-M "C C"
_symmetry_group_IT_number 9
_symmetry_cell_setting 'monoclinic'
loop_
_space_group_symop_operation_xyz
x,y,z
x,-y,1/2+z
1/2+x,1/2+y,z
1/2+x,1/2-y,1/2+z
loop_
_atom_site_type_symbol
_atom_site_label
_atom_site_fract_x
_atom_site_fract_y
_atom_site_fract_z
Si Si1 0.403160 0.614062 0.641470
Si Si2 0.964279 0.335456 0.593270
Si Si3 0.500075 0.520464 0.896409
Si Si4 0.083234 0.355745 0.162920
Si Si5 0.729129 0.783789 0.535446
Si Si6 0.885270 0.461576 0.996998
Si Si7 0.272762 0.217435 0.224131
O O1 0.455938 0.560840 0.735334
O O2 0.316128 0.639359 0.724150
O O3 0.151358 0.623099 0.320576
O O4 0.676871 0.640073 0.803167
O O5 0.891202 0.299591 0.664800
O O6 0.118900 0.306093 0.596425
O O7 0.181678 0.510898 0.699495
O O8 0.689489 0.481549 0.967666
O O9 0.691441 0.538854 0.190063
O O10 0.195283 0.327007 0.393798
O O11 0.985152 0.408618 0.116734
O O12 0.827978 0.326631 0.876885
O O13 0.025791 0.758640 0.813664
O O14 0.470252 0.259426 0.447734
#
# Coordination Sequence:
#
# PCOD9137505 Si02
#       7
#     4   4   4   4   4   4   4
#     4  10  22  42  68  93 126 172 225 272 324 405
#     4  11  22  40  64  93 129 172 220 271 329 395
#     4  11  23  45  71 105 138 178 228 289 349 413
#     4  10  24  43  65  95 130 173 222 278 336 400
#     4  12  26  43  63  97 140 175 218 280 342 397
#     4  11  25  45  72 102 140 178 231 287 349 419
#     4  11  20  34  59  87 119 166 218 261 315 391
#
# _framework density 23.187325000000001
#
# number of rings (size 3 to 8) (size 9 to 14) (size 15 to 20)
#    0.000    1.143    0.000    7.714    0.000    6.857 
#    0.000    4.286    0.000    0.000    0.000    0.000 
#    0.000    0.000    0.000    0.000    0.000    0.000 
#
# Total GULP energy -78390.730098 kJ/mol
# GULP energy per Si atom -5599.337864 kJ/mol
# Density = 2.313455 g / cm^3
# Si number density = 23.187325 Si / 1000 Ang^3
#
#
#
# Elastic Constant Matrix: (Units=GPa)
#
#
# Indices 1 2 3 4 5 6 
#
# 1 93.2861 39.5503 35.7852 0.0000 5.7145 0.0000
# 2 39.5503 86.8806 18.8397 0.0000 4.3927 0.0000
# 3 35.7852 18.8397 92.3533 0.0000 23.1740 0.0000
# 4 0.0000 0.0000 0.0000 25.8688 0.0000 7.5229
# 5 5.7145 4.3927 23.1740 0.0000 38.8178 0.0000
# 6 0.0000 0.0000 0.0000 7.5229 0.0000 37.9657
#
#
#
# Elastic Compliance Matrix: (Units=1/GPa)
#
#
# Indices 1 2 3 4 5 6 
#
# 1 0.015016 -0.005826 -0.004988 0.000000 0.001426 0.000000
# 2 -0.005826 0.014304 -0.000552 0.000000 -0.000431 0.000000
# 3 -0.004988 -0.000552 0.014906 0.000000 -0.008102 0.000000
# 4 0.000000 0.000000 0.000000 0.041020 0.000000 -0.008128
# 5 0.001426 -0.000431 -0.008102 0.000000 0.030437 0.000000
# 6 0.000000 0.000000 0.000000 -0.008128 0.000000 0.027950
#
#
# Mechanical properties :
#
#
# Convention : Reuss Voigt Hill
#
# Bulk Modulus (GPa) = 46.52496 51.20780 48.86638
# Shear Modulus (GPa) = 28.81340 32.42011 30.61676
#
# Velocity S-wave (km/s) = 3.52893 3.74328 3.63769
# Velocity P-wave (km/s) = 6.05911 6.38868 6.22608
#
# Compressibility (1/GPa) = 0.02149384
#
# Stress axis : x y z
#
# Youngs Moduli (GPa) = 66.59676 69.91157 67.08534
#
# Poissons Ratio (x) = 0.40731 0.33461
# Poissons Ratio (y) = 0.38800 0.03704
# Poissons Ratio (z) = 0.33217 0.03860
#
# Static dielectric constant tensor:
#      x y z
#    x 1.909260 0.000000 0.036010 
#    y 0.000000 1.851640 0.000000 
#    z 0.036010 0.000000 1.848870 
# 
# From -- ./inp_files/6584.got.cif
#   From: 2010.05.17/outbox.cif.g08.bks.cpg/sg9_4_cif.got.tgz:6584.got - 2010.06.03 20:04:27.
