data_PCOD9137535
_publ_section_title
;
Structure prediction by ZEFSAII (Michael W. Deem and Ramdas Pophale) SiO2 
 PCOD9137535
Probable space group: C C
;
_chemical_formula_sum "Si O2"
_cell_formula_units_Z 32
_cell_length_a 5.333582
_cell_length_b 22.324586
_cell_length_c 13.607638
_cell_angle_alpha 90.000000
_cell_angle_beta 64.309187
_cell_angle_gamma 90.000000
_cell_volume 1460.093135
_symmetry_space_group_name_H-M "C C"
_symmetry_group_IT_number 9
_symmetry_cell_setting 'monoclinic'
loop_
_space_group_symop_operation_xyz
x,y,z
x,-y,1/2+z
1/2+x,1/2+y,z
1/2+x,1/2-y,1/2+z
loop_
_atom_site_type_symbol
_atom_site_label
_atom_site_fract_x
_atom_site_fract_y
_atom_site_fract_z
Si Si1 0.821290 0.327063 0.727510
Si Si2 0.536089 0.133428 0.497392
Si Si3 0.146838 0.921706 0.914837
Si Si4 0.146869 0.787439 0.190200
Si Si5 0.776521 0.348189 0.510324
Si Si6 0.257033 0.384732 0.297117
Si Si7 0.277054 0.743019 0.374276
Si Si8 0.693877 0.439367 0.359985
O O1 0.806237 0.384260 0.801781
O O2 0.741373 0.349584 0.632169
O O3 0.586999 0.282174 0.810796
O O4 0.085448 0.281747 0.671575
O O5 0.312635 0.089183 0.487894
O O6 0.397660 0.174785 0.602934
O O7 0.595359 0.183477 0.403756
O O8 0.830497 0.103398 0.473126
O O9 0.150586 0.991600 0.891031
O O10 0.198211 0.784863 0.297626
O O11 0.880178 0.829675 0.215236
O O12 0.723105 0.281475 0.480090
O O13 0.623676 0.397957 0.468285
O O14 0.093986 0.359277 0.420563
O O15 0.509610 0.422317 0.297920
O O16 0.018198 0.423303 0.285597
#
# Coordination Sequence:
#
# PCOD9137535 Si02
#       8
#     4   4   4   4   4   4   4   4
#     4  11  24  40  68 101 136 178 227 281 351 413
#     4  11  27  40  72  96 141 175 223 283 346 407
#     4  11  25  50  63 102 135 182 228 284 336 400
#     4  12  23  40  69 102 136 176 224 282 355 410
#     4  10  23  40  70 100 133 181 226 281 343 409
#     4  10  22  42  69  99 128 177 223 281 332 399
#     4  11  22  43  65 100 137 177 220 287 342 415
#     4  10  22  45  72  86 140 176 225 281 325 397
#
# _framework density 21.916409999999999
#
# number of rings (size 3 to 8) (size 9 to 14) (size 15 to 20)
#    0.750    0.500    3.750    1.500    7.000    1.000 
#    2.250    1.250    0.000    0.000    0.000    0.000 
#    0.000    0.000    0.000    0.000    0.000    0.000 
#
# Total GULP energy -89273.047936 kJ/mol
# GULP energy per Si atom -5579.565496 kJ/mol
# Density = 2.186653 g / cm^3
# Si number density = 21.916410 Si / 1000 Ang^3
#
#
#
# Elastic Constant Matrix: (Units=GPa)
#
#
# Indices 1 2 3 4 5 6 
#
# 1 106.8961 33.9953 6.1522 0.0000 -8.4612 0.0000
# 2 33.9953 122.4189 15.8732 0.0000 -19.0576 0.0000
# 3 6.1522 15.8732 33.3775 0.0000 -3.0381 0.0000
# 4 0.0000 0.0000 0.0000 16.7732 0.0000 3.5474
# 5 -8.4612 -19.0576 -3.0381 0.0000 21.0532 0.0000
# 6 0.0000 0.0000 0.0000 3.5474 0.0000 27.7626
#
#
#
# Elastic Compliance Matrix: (Units=1/GPa)
#
#
# Indices 1 2 3 4 5 6 
#
# 1 0.010329 -0.002519 -0.000543 0.000000 0.001793 0.000000
# 2 -0.002519 0.010620 -0.003854 0.000000 0.008045 0.000000
# 3 -0.000543 -0.003854 0.031976 0.000000 0.000907 0.000000
# 4 0.000000 0.000000 0.000000 0.061275 0.000000 -0.007829
# 5 0.001793 0.008045 0.000907 0.000000 0.055633 0.000000
# 6 0.000000 0.000000 0.000000 -0.007829 0.000000 0.037020
#
#
# Mechanical properties :
#
#
# Convention : Reuss Voigt Hill
#
# Bulk Modulus (GPa) = 25.57959 41.63709 33.60834
# Shear Modulus (GPa) = 21.39352 26.89592 24.14472
#
# Velocity S-wave (km/s) = 3.12772 3.50695 3.32275
# Velocity P-wave (km/s) = 4.97396 5.95295 5.48534
#
# Compressibility (1/GPa) = 0.03909367
#
# Stress axis : x y z
#
# Youngs Moduli (GPa) = 96.81405 94.15906 31.27365
#
# Poissons Ratio (x) = 0.23718 0.01697
# Poissons Ratio (y) = 0.24386 0.12053
# Poissons Ratio (z) = 0.05255 0.36290
#
# Static dielectric constant tensor:
#      x y z
#    x 1.866280 0.000000 -0.044200 
#    y 0.000000 1.781830 0.000000 
#    z -0.044200 0.000000 1.831590 
# 
# From -- ./inp_files/22219.got.cif
#   From: 2010.05.17/outbox.cif.g08.bks.cpg/sg9_12_cif.got.tgz:22219.got - 2010.06.03 20:04:27.
