data_PCOD9137613
_publ_section_title
;
Structure prediction by ZEFSAII (Michael W. Deem and Ramdas Pophale) SiO2 
 PCOD9137613
Probable space group: C C
;
_chemical_formula_sum "Si O2"
_cell_formula_units_Z 32
_cell_length_a 9.890839
_cell_length_b 11.931767
_cell_length_c 15.299626
_cell_angle_alpha 90.000000
_cell_angle_beta 43.440656
_cell_angle_gamma 90.000000
_cell_volume 1241.527695
_symmetry_space_group_name_H-M "C C"
_symmetry_group_IT_number 9
_symmetry_cell_setting 'monoclinic'
loop_
_space_group_symop_operation_xyz
x,y,z
x,-y,1/2+z
1/2+x,1/2+y,z
1/2+x,1/2-y,1/2+z
loop_
_atom_site_type_symbol
_atom_site_label
_atom_site_fract_x
_atom_site_fract_y
_atom_site_fract_z
Si Si1 0.014890 0.349503 0.052880
Si Si2 0.963604 0.900284 0.537585
Si Si3 0.521310 0.230928 0.889824
Si Si4 0.130838 0.909871 0.159131
Si Si5 0.251934 0.844626 0.645935
Si Si6 0.244132 0.107395 0.410326
Si Si7 0.228113 0.494648 0.310970
Si Si8 0.074323 0.434677 0.632081
O O1 0.066096 0.434476 0.108028
O O2 0.058381 0.218877 0.016473
O O3 0.774415 0.349680 0.159526
O O4 0.115281 0.417988 0.925170
O O5 0.847656 0.947506 0.676902
O O6 0.797906 0.895753 0.539745
O O7 0.123889 0.995097 0.440719
O O8 0.560431 0.297707 0.783575
O O9 0.668232 0.291898 0.887172
O O10 0.579779 0.102257 0.849354
O O11 0.321900 0.236873 0.037126
O O12 0.202580 0.037414 0.128724
O O13 0.898986 0.922556 0.280755
O O14 0.189513 0.867259 0.035557
O O15 0.436285 0.869996 0.625251
O O16 0.465248 0.087338 0.275498
#
# Coordination Sequence:
#
# PCOD9137613 Si02
#       8
#     4   4   4   4   4   4   4   4
#     4  11  25  44  71 106 140 187 249 299 369 449
#     4  11  26  46  69 104 150 190 238 306 379 439
#     4  11  22  45  72  99 141 185 248 300 361 452
#     4  10  22  45  68 102 141 182 235 305 362 437
#     4  10  22  43  66 109 138 183 248 295 364 451
#     4  10  24  44  67 104 138 183 246 293 369 441
#     4  11  24  47  68 103 140 187 243 303 376 446
#     4  10  23  44  67 103 138 187 239 299 366 439
#
# _framework density 25.774695999999999
#
# number of rings (size 3 to 8) (size 9 to 14) (size 15 to 20)
#    0.000    1.500    2.500    2.250    7.000    3.000 
#   13.500    0.000    0.000    0.000    0.000    0.000 
#    0.000    0.000    0.000    0.000    0.000    0.000 
#
# Total GULP energy -89523.626319 kJ/mol
# GULP energy per Si atom -5595.226645 kJ/mol
# Density = 2.571603 g / cm^3
# Si number density = 25.774696 Si / 1000 Ang^3
#
#
#
# Elastic Constant Matrix: (Units=GPa)
#
#
# Indices 1 2 3 4 5 6 
#
# 1 95.5808 5.7790 -5.9183 0.0000 -16.2858 0.0000
# 2 5.7790 130.1915 13.4540 0.0000 11.4994 0.0000
# 3 -5.9183 13.4540 71.8411 0.0000 10.1468 0.0000
# 4 0.0000 0.0000 0.0000 38.6687 0.0000 -3.9148
# 5 -16.2858 11.4994 10.1468 0.0000 25.2795 0.0000
# 6 0.0000 0.0000 0.0000 -3.9148 0.0000 28.6577
#
#
#
# Elastic Compliance Matrix: (Units=1/GPa)
#
#
# Indices 1 2 3 4 5 6 
#
# 1 0.011948 -0.001265 0.000056 0.000000 0.008250 0.000000
# 2 -0.001265 0.008211 -0.001059 0.000000 -0.004125 0.000000
# 3 0.000056 -0.001059 0.014894 0.000000 -0.005460 0.000000
# 4 0.000000 0.000000 0.000000 0.026223 0.000000 0.003582
# 5 0.008250 -0.004125 -0.005460 0.000000 0.048941 0.000000
# 6 0.000000 0.000000 0.000000 0.003582 0.000000 0.035384
#
#
# Mechanical properties :
#
#
# Convention : Reuss Voigt Hill
#
# Bulk Modulus (GPa) = 32.76945 36.02698 34.39822
# Shear Modulus (GPa) = 31.18964 37.47441 34.33203
#
# Velocity S-wave (km/s) = 3.48241 3.81717 3.65362
# Velocity P-wave (km/s) = 5.37689 5.78236 5.58331
#
# Compressibility (1/GPa) = 0.03051622
#
# Stress axis : x y z
#
# Youngs Moduli (GPa) = 83.69584 121.78889 67.14202
#
# Poissons Ratio (x) = 0.15404 -0.00375
# Poissons Ratio (y) = 0.10586 0.07113
# Poissons Ratio (z) = -0.00468 0.12901
#
# Static dielectric constant tensor:
#      x y z
#    x 2.159600 0.000000 -0.029100 
#    y 0.000000 1.959810 0.000000 
#    z -0.029100 0.000000 2.007400 
# 
# From -- ./inp_files/16455.got.cif
#   From: 2010.05.17/outbox.cif.g08.bks.cpg/sg9_9_cif.got.tgz:16455.got - 2010.06.03 20:04:27.
