data_PCOD9137844
_publ_section_title
;
Structure prediction by ZEFSAII (Michael W. Deem and Ramdas Pophale) SiO2 
 PCOD9137844
Probable space group: C C
;
_chemical_formula_sum "Si O2"
_cell_formula_units_Z 32
_cell_length_a 16.162194
_cell_length_b 17.596528
_cell_length_c 5.008302
_cell_angle_alpha 90.000000
_cell_angle_beta 121.299367
_cell_angle_gamma 90.000000
_cell_volume 1217.059663
_symmetry_space_group_name_H-M "C C"
_symmetry_group_IT_number 9
_symmetry_cell_setting 'monoclinic'
loop_
_space_group_symop_operation_xyz
x,y,z
x,-y,1/2+z
1/2+x,1/2+y,z
1/2+x,1/2-y,1/2+z
loop_
_atom_site_type_symbol
_atom_site_label
_atom_site_fract_x
_atom_site_fract_y
_atom_site_fract_z
Si Si1 0.592860 0.957015 0.047720
Si Si2 0.807585 0.550652 0.980904
Si Si3 0.661087 0.812463 0.372955
Si Si4 0.517145 0.277416 0.928678
Si Si5 0.579680 0.444990 0.141732
Si Si6 0.430271 0.198735 0.273251
Si Si7 0.829452 0.959549 0.408284
Si Si8 0.784052 0.181883 0.559971
O O1 0.558663 0.020026 0.199433
O O2 0.711004 0.958006 0.221216
O O3 0.386213 0.885429 0.684762
O O4 0.820160 0.479519 0.202138
O O5 0.695286 0.575593 0.830392
O O6 0.617035 0.740129 0.441855
O O7 0.578038 0.873356 0.145616
O O8 0.721380 0.794402 0.211464
O O9 0.719813 0.852571 0.712458
O O10 0.520955 0.366265 0.005893
O O11 0.507849 0.228004 0.182567
O O12 0.445636 0.238108 0.590900
O O13 0.562532 0.493652 0.379152
O O14 0.338520 0.249583 0.016852
O O15 0.853828 0.882136 0.300023
O O16 0.860868 0.024768 0.258319
#
# Coordination Sequence:
#
# PCOD9137844 Si02
#       8
#     4   4   4   4   4   4   4   4
#     4   9  16  29  50  78 111 146 193 249 292 344
#     4  10  22  44  75 104 133 180 244 304 350 411
#     4  11  22  38  62  87 117 166 222 269 322 403
#     4  12  26  44  65  99 143 177 215 284 372 440
#     4  10  22  44  75 104 133 180 244 304 350 411
#     4  12  26  44  65  99 143 177 215 284 372 440
#     4   9  16  29  50  78 111 146 193 249 292 344
#     4  11  22  38  62  87 117 166 222 269 322 403
#
# _framework density 26.292876
#
# number of rings (size 3 to 8) (size 9 to 14) (size 15 to 20)
#    0.000    1.500    0.000    7.500    0.000    3.000 
#    0.000    7.500    0.000    3.000    0.000    0.000 
#    0.000    0.000    0.000    0.000    0.000    0.000 
#
# Total GULP energy -89525.036846 kJ/mol
# GULP energy per Si atom -5595.314803 kJ/mol
# Density = 2.623303 g / cm^3
# Si number density = 26.292876 Si / 1000 Ang^3
#
#
#
# Elastic Constant Matrix: (Units=GPa)
#
#
# Indices 1 2 3 4 5 6 
#
# 1 76.7548 12.7236 24.6106 0.0000 -19.0019 0.0000
# 2 12.7236 109.7751 9.0331 0.0000 1.3360 0.0000
# 3 24.6106 9.0331 115.8885 0.0000 -13.5152 0.0000
# 4 0.0000 0.0000 0.0000 36.1872 0.0000 -2.3742
# 5 -19.0019 1.3360 -13.5152 0.0000 46.3806 0.0000
# 6 0.0000 0.0000 0.0000 -2.3742 0.0000 42.5258
#
#
#
# Elastic Compliance Matrix: (Units=1/GPa)
#
#
# Indices 1 2 3 4 5 6 
#
# 1 0.015511 -0.001661 -0.002503 0.000000 0.005673 0.000000
# 2 -0.001661 0.009357 -0.000505 0.000000 -0.001097 0.000000
# 3 -0.002503 -0.000505 0.009401 0.000000 0.001729 0.000000
# 4 0.000000 0.000000 0.000000 0.027736 0.000000 0.001548
# 5 0.005673 -0.001097 0.001729 0.000000 0.024420 0.000000
# 6 0.000000 0.000000 0.000000 0.001548 0.000000 0.023602
#
#
# Mechanical properties :
#
#
# Convention : Reuss Voigt Hill
#
# Bulk Modulus (GPa) = 40.10821 43.90589 42.00705
# Shear Modulus (GPa) = 39.16216 42.08880 40.62548
#
# Velocity S-wave (km/s) = 3.86354 4.00530 3.93506
# Velocity P-wave (km/s) = 5.93212 6.17454 6.05454
#
# Compressibility (1/GPa) = 0.02493255
#
# Stress axis : x y z
#
# Youngs Moduli (GPa) = 64.47106 106.87293 106.36677
#
# Poissons Ratio (x) = 0.17750 0.26622
# Poissons Ratio (y) = 0.10708 0.05367
# Poissons Ratio (z) = 0.16136 0.05392
#
# Static dielectric constant tensor:
#      x y z
#    x 2.083910 0.000000 0.210020 
#    y 0.000000 2.156230 0.000000 
#    z 0.210020 0.000000 2.189950 
# 
# From -- ./inp_files/3064.got.cif
#   From: 2010.05.17/outbox.cif.g08.bks.cpg/sg9_2_cif.got.tgz:3064.got - 2010.06.03 20:04:27.
