data_PCOD9137721
_publ_section_title
;
Structure prediction by ZEFSAII (Michael W. Deem and Ramdas Pophale) SiO2 
 PCOD9137721
Probable space group: C C
;
_chemical_formula_sum "Si O2"
_cell_formula_units_Z 24
_cell_length_a 7.731195
_cell_length_b 15.913538
_cell_length_c 10.029348
_cell_angle_alpha 90.000000
_cell_angle_beta 50.380552
_cell_angle_gamma 90.000000
_cell_volume 950.482638
_symmetry_space_group_name_H-M "C C"
_symmetry_group_IT_number 9
_symmetry_cell_setting 'monoclinic'
loop_
_space_group_symop_operation_xyz
x,y,z
x,-y,1/2+z
1/2+x,1/2+y,z
1/2+x,1/2-y,1/2+z
loop_
_atom_site_type_symbol
_atom_site_label
_atom_site_fract_x
_atom_site_fract_y
_atom_site_fract_z
Si Si1 0.327410 0.662399 0.184680
Si Si2 0.369338 0.478682 0.451819
Si Si3 0.109253 0.568355 0.806968
Si Si4 0.344724 0.805416 0.984008
Si Si5 0.210239 0.897095 0.677119
Si Si6 0.367163 0.721561 0.705144
O O1 0.404534 0.602266 0.027232
O O2 0.491025 0.647297 0.225418
O O3 0.069244 0.642125 0.351824
O O4 0.342973 0.757962 0.125336
O O5 0.181318 0.526083 0.633790
O O6 0.269376 0.460583 0.353228
O O7 0.599331 0.531803 0.324179
O O8 0.160910 0.667124 0.758400
O O9 0.860772 0.560598 0.988327
O O10 0.360018 0.732731 0.865762
O O11 0.092685 0.833363 0.071724
O O12 0.357308 0.818931 0.662292
#
# Coordination Sequence:
#
# PCOD9137721 Si02
#       6
#     4   4   4   4   4   4
#     4  11  25  47  71 118 144 204 257 322 396 454
#     4  12  27  51  72 116 156 209 252 323 397 457
#     4  12  27  48  79 109 156 205 258 317 397 461
#     4  10  22  43  77 101 153 189 256 314 388 456
#     4  12  28  48  78 113 154 198 273 319 382 468
#     4  11  21  47  75 109 143 205 252 317 382 460
#
# _framework density 25.250329000000001
#
# number of rings (size 3 to 8) (size 9 to 14) (size 15 to 20)
#    0.000    0.667    5.000    2.000    4.667    1.333 
#    3.000    0.000    0.000    0.000    0.000    0.000 
#    0.000    0.000    0.000    0.000    0.000    0.000 
#
# Total GULP energy -66998.278225 kJ/mol
# GULP energy per Si atom -5583.189852 kJ/mol
# Density = 2.519286 g / cm^3
# Si number density = 25.250329 Si / 1000 Ang^3
#
#
#
# Elastic Constant Matrix: (Units=GPa)
#
#
# Indices 1 2 3 4 5 6 
#
# 1 70.1510 14.0504 25.6726 0.0000 -20.1538 0.0000
# 2 14.0504 70.5373 39.7017 0.0000 -5.8425 0.0000
# 3 25.6726 39.7017 166.1994 0.0000 -31.1993 0.0000
# 4 0.0000 0.0000 0.0000 44.1771 0.0000 4.8921
# 5 -20.1538 -5.8425 -31.1993 0.0000 35.7253 0.0000
# 6 0.0000 0.0000 0.0000 4.8921 0.0000 31.4663
#
#
#
# Elastic Compliance Matrix: (Units=1/GPa)
#
#
# Indices 1 2 3 4 5 6 
#
# 1 0.017526 -0.002514 -0.000392 0.000000 0.009133 0.000000
# 2 -0.002514 0.016763 -0.004028 0.000000 -0.002194 0.000000
# 3 -0.000392 -0.004028 0.008222 0.000000 0.006301 0.000000
# 4 0.000000 0.000000 0.000000 0.023033 0.000000 -0.003581
# 5 0.009133 -0.002194 0.006301 0.000000 0.038287 0.000000
# 6 0.000000 0.000000 0.000000 -0.003581 0.000000 0.032337
#
#
# Mechanical properties :
#
#
# Convention : Reuss Voigt Hill
#
# Bulk Modulus (GPa) = 34.91194 51.74856 43.33025
# Shear Modulus (GPa) = 31.33147 37.43794 34.38470
#
# Velocity S-wave (km/s) = 3.52637 3.85472 3.69420
# Velocity P-wave (km/s) = 5.51695 6.35221 5.94926
#
# Compressibility (1/GPa) = 0.02864350
#
# Stress axis : x y z
#
# Youngs Moduli (GPa) = 57.05843 59.65520 121.61837
#
# Poissons Ratio (x) = 0.14996 0.04770
# Poissons Ratio (y) = 0.14343 0.48988
# Poissons Ratio (z) = 0.02238 0.24029
#
# Static dielectric constant tensor:
#      x y z
#    x 1.990560 0.000000 -0.063520 
#    y 0.000000 2.061160 0.000000 
#    z -0.063520 0.000000 2.085380 
# 
# From -- ./inp_files/4954.got.cif
#   From: 2010.05.17/outbox.cif.g08.bks.cpg/sg9_3_cif.got.tgz:4954.got - 2010.06.03 20:04:27.
