data_PCOD9137554
_publ_section_title
;
Structure prediction by ZEFSAII (Michael W. Deem and Ramdas Pophale) SiO2 
 PCOD9137554
Probable space group: C C
;
_chemical_formula_sum "Si O2"
_cell_formula_units_Z 28
_cell_length_a 12.680534
_cell_length_b 11.150552
_cell_length_c 8.345123
_cell_angle_alpha 90.000000
_cell_angle_beta 113.902811
_cell_angle_gamma 90.000000
_cell_volume 1078.758070
_symmetry_space_group_name_H-M "C C"
_symmetry_group_IT_number 9
_symmetry_cell_setting 'monoclinic'
loop_
_space_group_symop_operation_xyz
x,y,z
x,-y,1/2+z
1/2+x,1/2+y,z
1/2+x,1/2-y,1/2+z
loop_
_atom_site_type_symbol
_atom_site_label
_atom_site_fract_x
_atom_site_fract_y
_atom_site_fract_z
Si Si1 0.507260 0.359763 0.809630
Si Si2 0.127255 0.401236 0.983533
Si Si3 0.813555 0.599567 0.053041
Si Si4 0.588317 0.579757 0.703323
Si Si5 0.439677 0.098015 0.803854
Si Si6 0.795034 0.006808 0.338850
Si Si7 0.928092 0.786848 0.340344
O O1 0.570915 0.437117 0.712627
O O2 0.481913 0.222464 0.759764
O O3 0.385279 0.417261 0.790190
O O4 0.584839 0.375571 0.019639
O O5 0.234619 0.402590 0.925877
O O6 0.040851 0.502238 0.866314
O O7 0.041741 0.289851 0.955797
O O8 0.188817 0.451940 0.176678
O O9 0.695689 0.610585 0.882523
O O10 0.906478 0.618467 0.968823
O O11 0.837370 0.468176 0.143813
O O12 0.835535 0.692903 0.210533
O O13 0.476866 0.636165 0.721198
O O14 0.867303 0.883347 0.420514
#
# Coordination Sequence:
#
# PCOD9137554 Si02
#       7
#     4   4   4   4   4   4   4
#     4  11  25  46  69 105 145 185 244 306 365 456
#     4  11  24  45  70 103 141 190 239 302 374 435
#     4  11  23  45  73 103 145 195 242 301 379 437
#     4  11  23  44  71 104 140 188 242 301 371 440
#     4  11  25  47  69 108 146 189 246 307 369 460
#     4  11  24  45  71 103 139 190 244 295 376 441
#     4  10  22  42  71 102 140 187 241 298 356 455
#
# _framework density 25.955774000000002
#
# number of rings (size 3 to 8) (size 9 to 14) (size 15 to 20)
#    0.000    1.143    1.429    5.143    2.000    1.143 
#   30.857    0.000    0.000    0.000    0.000    0.000 
#    0.000    0.000    0.000    0.000    0.000    0.000 
#
# Total GULP energy -78349.543566 kJ/mol
# GULP energy per Si atom -5596.395969 kJ/mol
# Density = 2.589670 g / cm^3
# Si number density = 25.955774 Si / 1000 Ang^3
#
#
#
# Elastic Constant Matrix: (Units=GPa)
#
#
# Indices 1 2 3 4 5 6 
#
# 1 102.7056 30.9880 36.0547 0.0000 17.1236 0.0000
# 2 30.9880 163.0505 33.0768 0.0000 5.2032 0.0000
# 3 36.0547 33.0768 118.4607 0.0000 25.4593 0.0000
# 4 0.0000 0.0000 0.0000 31.8713 0.0000 3.7495
# 5 17.1236 5.2032 25.4593 0.0000 56.3569 0.0000
# 6 0.0000 0.0000 0.0000 3.7495 0.0000 14.5279
#
#
#
# Elastic Compliance Matrix: (Units=1/GPa)
#
#
# Indices 1 2 3 4 5 6 
#
# 1 0.011486 -0.001589 -0.002585 0.000000 -0.002176 0.000000
# 2 -0.001589 0.006724 -0.001511 0.000000 0.000545 0.000000
# 3 -0.002585 -0.001511 0.010468 0.000000 -0.003804 0.000000
# 4 0.000000 0.000000 0.000000 0.032359 0.000000 -0.008352
# 5 -0.002176 0.000545 -0.003804 0.000000 0.020073 0.000000
# 6 0.000000 0.000000 0.000000 -0.008352 0.000000 0.070988
#
#
# Mechanical properties :
#
#
# Convention : Reuss Voigt Hill
#
# Bulk Modulus (GPa) = 57.77468 64.93955 61.35711
# Shear Modulus (GPa) = 29.54430 39.49105 34.51768
#
# Velocity S-wave (km/s) = 3.37746 3.90484 3.65069
# Velocity P-wave (km/s) = 6.12510 6.73825 6.43898
#
# Compressibility (1/GPa) = 0.01730862
#
# Stress axis : x y z
#
# Youngs Moduli (GPa) = 87.06170 148.71591 95.53208
#
# Poissons Ratio (x) = 0.23634 0.24691
# Poissons Ratio (y) = 0.13836 0.14434
# Poissons Ratio (z) = 0.22502 0.22470
#
# Static dielectric constant tensor:
#      x y z
#    x 2.047710 0.000000 -0.001890 
#    y 0.000000 2.044740 0.000000 
#    z -0.001890 0.000000 2.115320 
# 
# From -- ./inp_files/9192.got.cif
#   From: 2010.05.17/outbox.cif.g08.bks.cpg/sg9_5_cif.got.tgz:9192.got - 2010.06.03 20:04:27.
