data_PCOD9137433
_publ_section_title
;
Structure prediction by ZEFSAII (Michael W. Deem and Ramdas Pophale) SiO2 
 PCOD9137433
Probable space group: C C
;
_chemical_formula_sum "Si O2"
_cell_formula_units_Z 28
_cell_length_a 5.225855
_cell_length_b 23.294908
_cell_length_c 12.162075
_cell_angle_alpha 90.000000
_cell_angle_beta 107.871701
_cell_angle_gamma 90.000000
_cell_volume 1409.117263
_symmetry_space_group_name_H-M "C C"
_symmetry_group_IT_number 9
_symmetry_cell_setting 'monoclinic'
loop_
_space_group_symop_operation_xyz
x,y,z
x,-y,1/2+z
1/2+x,1/2+y,z
1/2+x,1/2-y,1/2+z
loop_
_atom_site_type_symbol
_atom_site_label
_atom_site_fract_x
_atom_site_fract_y
_atom_site_fract_z
Si Si1 0.367290 0.323323 0.650880
Si Si2 0.540623 0.139963 0.451700
Si Si3 0.967865 0.914612 0.848523
Si Si4 0.131798 0.392395 0.429022
Si Si5 0.780785 0.858011 0.223186
Si Si6 0.084716 0.952334 0.372725
Si Si7 0.949429 0.268346 0.756955
O O1 0.396622 0.382030 0.725829
O O2 0.216869 0.341009 0.519818
O O3 0.660857 0.294437 0.679667
O O4 0.175709 0.282829 0.697564
O O5 0.241554 0.115468 0.424160
O O6 0.658925 0.148009 0.587565
O O7 0.522840 0.198259 0.378559
O O8 0.728316 0.098041 0.402878
O O9 0.034183 0.981335 0.844211
O O10 0.077985 0.369068 0.298312
O O11 0.395363 0.431826 0.447744
O O12 0.885461 0.431314 0.434693
O O13 0.929511 0.799154 0.271417
O O14 0.972823 0.913377 0.257831
#
# Coordination Sequence:
#
# PCOD9137433 Si02
#       7
#     4   4   4   4   4   4   4
#     4  10  22  42  63  90 120 166 207 256 304 373
#     4  10  23  41  64  90 127 164 205 258 304 377
#     4  10  22  42  63  90 123 162 213 246 315 367
#     4  10  23  40  59  95 122 158 208 250 315 362
#     4  10  26  40  63  96 129 159 210 253 319 367
#     4  10  23  39  61  95 122 164 203 258 313 366
#     4  10  23  40  65  90 121 167 204 253 312 364
#
# _framework density 19.870597
#
# number of rings (size 3 to 8) (size 9 to 14) (size 15 to 20)
#    0.857    1.143    0.000    1.714    6.000    2.286 
#    2.571    0.000    0.000    0.000    0.000    0.000 
#    0.000    0.000    0.000    0.000    0.000    0.000 
#
# Total GULP energy -78099.374197 kJ/mol
# GULP energy per Si atom -5578.526728 kJ/mol
# Density = 1.982537 g / cm^3
# Si number density = 19.870597 Si / 1000 Ang^3
#
#
#
# Elastic Constant Matrix: (Units=GPa)
#
#
# Indices 1 2 3 4 5 6 
#
# 1 81.7053 -18.1386 7.0908 0.0000 10.0169 0.0000
# 2 -18.1386 83.6996 9.6052 0.0000 2.4125 0.0000
# 3 7.0908 9.6052 75.8239 0.0000 1.1715 0.0000
# 4 0.0000 0.0000 0.0000 3.9183 0.0000 0.3940
# 5 10.0169 2.4125 1.1715 0.0000 7.6931 0.0000
# 6 0.0000 0.0000 0.0000 0.3940 0.0000 -1.7990
#
#
#
# Elastic Compliance Matrix: (Units=1/GPa)
#
#
# Indices 1 2 3 4 5 6 
#
# 1 0.016036 0.004304 -0.001705 0.000000 -0.021970 0.000000
# 2 0.004304 0.013378 -0.001950 0.000000 -0.009502 0.000000
# 3 -0.001705 -0.001950 0.013583 0.000000 0.000764 0.000000
# 4 0.000000 0.000000 0.000000 0.249714 0.000000 0.054694
# 5 -0.021970 -0.009502 0.000764 0.000000 0.161456 0.000000
# 6 0.000000 0.000000 0.000000 0.054694 0.000000 -0.543894
#
#
# Mechanical properties :
#
#
# Convention : Reuss Voigt Hill
#
# Bulk Modulus (GPa) = 22.57644 26.48261 24.52952
# Shear Modulus (GPa) = -65.56560 18.14058 -23.71251
#
# Velocity S-wave (km/s) = -5.75047 3.02476 -3.45823
# Velocity P-wave (km/s) = 5.71876 5.05523 1.89061
#
# Compressibility (1/GPa) = 0.04429396
#
# Stress axis : x y z
#
# Youngs Moduli (GPa) = 62.35928 74.74983 73.62036
#
# Poissons Ratio (x) = -0.32173 0.12555
# Poissons Ratio (y) = -0.26840 0.14359
# Poissons Ratio (z) = 0.10635 0.14579
#
# Static dielectric constant tensor:
#      x y z
#    x 1.700990 0.000000 0.003020 
#    y 0.000000 1.683830 0.000000 
#    z 0.003020 0.000000 1.695350 
# 
# From -- ./inp_files/13181.got.cif
#   From: 2010.05.17/outbox.cif.g08.bks.cpg/sg9_7_cif.got.tgz:13181.got - 2010.06.03 20:04:27.
