data_PCOD9137240
_publ_section_title
;
Structure prediction by ZEFSAII (Michael W. Deem and Ramdas Pophale) SiO2 
 PCOD9137240
Probable space group: C C
;
_chemical_formula_sum "Si O2"
_cell_formula_units_Z 28
_cell_length_a 7.237374
_cell_length_b 18.662570
_cell_length_c 13.003943
_cell_angle_alpha 90.000000
_cell_angle_beta 43.632675
_cell_angle_gamma 90.000000
_cell_volume 1211.984363
_symmetry_space_group_name_H-M "C C"
_symmetry_group_IT_number 9
_symmetry_cell_setting 'monoclinic'
loop_
_space_group_symop_operation_xyz
x,y,z
x,-y,1/2+z
1/2+x,1/2+y,z
1/2+x,1/2-y,1/2+z
loop_
_atom_site_type_symbol
_atom_site_label
_atom_site_fract_x
_atom_site_fract_y
_atom_site_fract_z
Si Si1 0.835060 0.421634 0.094420
Si Si2 0.237933 0.605016 0.102970
Si Si3 0.715105 0.676477 0.250825
Si Si4 0.223396 0.818841 0.328145
Si Si5 0.534081 0.816437 0.417407
Si Si6 0.297630 0.465612 0.382789
Si Si7 0.712351 0.844021 0.828464
O O1 0.823723 0.377384 0.205932
O O2 0.572125 0.470588 0.209764
O O3 0.073646 0.474672 0.967132
O O4 0.905081 0.359399 0.984307
O O5 0.291743 0.605788 0.201465
O O6 0.923208 0.618677 0.211110
O O7 0.413888 0.668672 0.982661
O O8 0.336576 0.540664 0.991122
O O9 0.708003 0.745528 0.326842
O O10 0.415150 0.649772 0.344462
O O11 0.832117 0.698009 0.092183
O O12 0.383036 0.827177 0.370230
O O13 0.247629 0.738065 0.279300
O O14 0.684411 0.889289 0.387447
#
# Coordination Sequence:
#
# PCOD9137240 Si02
#       7
#     4   4   4   4   4   4   4
#     4  11  26  45  70  98 144 186 239 288 345 423
#     4  10  22  40  66  96 140 178 230 279 352 411
#     4  10  23  37  64 102 139 176 224 297 330 426
#     4  10  22  42  68 102 135 180 231 296 351 416
#     4  10  22  41  65 101 140 176 236 281 362 399
#     4  10  26  46  66 100 140 196 229 290 343 429
#     4  11  23  41  69 101 136 180 233 297 353 402
#
# _framework density 23.102609000000001
#
# number of rings (size 3 to 8) (size 9 to 14) (size 15 to 20)
#    0.000    1.714    1.429    0.857   18.000    1.143 
#    0.000    2.857    0.000    0.000    0.000    0.000 
#    0.000    0.000    0.000    0.000    0.000    0.000 
#
# Total GULP energy -78090.861746 kJ/mol
# GULP energy per Si atom -5577.918696 kJ/mol
# Density = 2.305003 g / cm^3
# Si number density = 23.102609 Si / 1000 Ang^3
#
#
#
# Elastic Constant Matrix: (Units=GPa)
#
#
# Indices 1 2 3 4 5 6 
#
# 1 64.8791 24.2024 21.0979 0.0000 1.1101 0.0000
# 2 24.2024 59.3351 48.9827 0.0000 -6.8666 0.0000
# 3 21.0979 48.9827 137.0276 0.0000 -6.1433 0.0000
# 4 0.0000 0.0000 0.0000 34.6162 0.0000 -3.9003
# 5 1.1101 -6.8666 -6.1433 0.0000 40.7637 0.0000
# 6 0.0000 0.0000 0.0000 -3.9003 0.0000 27.7396
#
#
#
# Elastic Compliance Matrix: (Units=1/GPa)
#
#
# Indices 1 2 3 4 5 6 
#
# 1 0.018312 -0.007495 -0.000221 0.000000 -0.001794 0.000000
# 2 -0.007495 0.027288 -0.008443 0.000000 0.003528 0.000000
# 3 -0.000221 -0.008443 0.010356 0.000000 0.000145 0.000000
# 4 0.000000 0.000000 0.000000 0.029353 0.000000 0.004127
# 5 -0.001794 0.003528 0.000145 0.000000 0.025197 0.000000
# 6 0.000000 0.000000 0.000000 0.004127 0.000000 0.036630
#
#
# Mechanical properties :
#
#
# Convention : Reuss Voigt Hill
#
# Bulk Modulus (GPa) = 42.30066 49.97863 46.13965
# Shear Modulus (GPa) = 26.69062 31.75447 29.22255
#
# Velocity S-wave (km/s) = 3.40267 3.71144 3.56041
# Velocity P-wave (km/s) = 5.81268 6.32825 6.07593
#
# Compressibility (1/GPa) = 0.02364029
#
# Stress axis : x y z
#
# Youngs Moduli (GPa) = 54.61040 36.64575 96.56052
#
# Poissons Ratio (x) = 0.27464 0.02132
# Poissons Ratio (y) = 0.40928 0.81522
# Poissons Ratio (z) = 0.01206 0.30938
#
# Static dielectric constant tensor:
#      x y z
#    x 1.934150 0.000000 -0.030090 
#    y 0.000000 1.964090 0.000000 
#    z -0.030090 0.000000 1.868410 
# 
# From -- ./inp_files/23638.got.cif
#   From: 2010.05.17/outbox.cif.g08.bks.cpg/sg9_12_cif.got.tgz:23638.got - 2010.06.03 20:04:27.
