data_PCOD9137191
_publ_section_title
;
Structure prediction by ZEFSAII (Michael W. Deem and Ramdas Pophale) SiO2 
 PCOD9137191
Probable space group: C C
;
_chemical_formula_sum "Si O2"
_cell_formula_units_Z 32
_cell_length_a 16.993973
_cell_length_b 11.255511
_cell_length_c 8.532620
_cell_angle_alpha 90.000000
_cell_angle_beta 118.596611
_cell_angle_gamma 90.000000
_cell_volume 1432.988301
_symmetry_space_group_name_H-M "C C"
_symmetry_group_IT_number 9
_symmetry_cell_setting 'monoclinic'
loop_
_space_group_symop_operation_xyz
x,y,z
x,-y,1/2+z
1/2+x,1/2+y,z
1/2+x,1/2-y,1/2+z
loop_
_atom_site_type_symbol
_atom_site_label
_atom_site_fract_x
_atom_site_fract_y
_atom_site_fract_z
Si Si1 0.983850 0.643898 0.756370
Si Si2 0.579900 0.021396 0.561391
Si Si3 0.306770 0.851801 0.568733
Si Si4 0.602942 0.644337 0.368953
Si Si5 0.963374 0.178567 0.665910
Si Si6 0.295788 0.879891 0.935624
Si Si7 0.507811 0.525320 0.989057
Si Si8 0.146210 0.321589 0.845680
O O1 0.899790 0.708181 0.105923
O O2 0.883638 0.670598 0.607363
O O3 0.038679 0.602411 0.656368
O O4 0.995496 0.536919 0.889665
O O5 0.542211 0.748935 0.379082
O O6 0.635171 0.099495 0.491979
O O7 0.636947 0.916534 0.696375
O O8 0.233170 0.759030 0.436808
O O9 0.294896 0.979987 0.477998
O O10 0.300632 0.862113 0.752647
O O11 0.704285 0.672621 0.421176
O O12 0.550866 0.605762 0.162973
O O13 0.590716 0.533964 0.474064
O O14 0.951767 0.104005 0.815332
O O15 0.063407 0.230308 0.761604
O O16 0.953530 0.081030 0.519940
#
# Coordination Sequence:
#
# PCOD9137191 Si02
#       8
#     4   4   4   4   4   4   4   4
#     4  11  22  40  64  92 127 168 210 264 323 383
#     4  10  22  40  63  89 128 173 217 263 322 391
#     4  12  26  42  68  98 132 172 218 278 334 394
#     4  11  22  40  64  92 127 168 210 264 323 383
#     4  11  23  42  64  93 131 173 219 275 331 385
#     4  12  24  40  66 100 130 168 220 270 328 398
#     4  10  22  40  63  89 128 173 217 263 322 391
#     4  11  23  42  64  93 131 173 219 275 331 385
#
# _framework density 22.330957999999999
#
# number of rings (size 3 to 8) (size 9 to 14) (size 15 to 20)
#    0.000    1.000    0.000    9.000    0.000    3.000 
#    0.000    5.000    0.000    0.000    0.000    0.000 
#    0.000    0.000    0.000    0.000    0.000    0.000 
#
# Total GULP energy -89570.748961 kJ/mol
# GULP energy per Si atom -5598.171810 kJ/mol
# Density = 2.228013 g / cm^3
# Si number density = 22.330958 Si / 1000 Ang^3
#
#
#
# Elastic Constant Matrix: (Units=GPa)
#
#
# Indices 1 2 3 4 5 6 
#
# 1 39.5156 6.6952 10.1354 0.0000 14.5185 0.0000
# 2 6.6952 80.9677 20.7064 0.0000 -0.0991 0.0000
# 3 10.1354 20.7064 64.0318 0.0000 -12.2605 0.0000
# 4 0.0000 0.0000 0.0000 115.6451 0.0000 -46.2294
# 5 14.5185 -0.0991 -12.2605 0.0000 28.4582 0.0000
# 6 0.0000 0.0000 0.0000 -46.2294 0.0000 62.8234
#
#
#
# Elastic Compliance Matrix: (Units=1/GPa)
#
#
# Indices 1 2 3 4 5 6 
#
# 1 0.036333 -0.000484 -0.009966 0.000000 -0.022831 0.000000
# 2 -0.000484 0.013575 -0.004640 0.000000 -0.001705 0.000000
# 3 -0.009966 -0.004640 0.021434 0.000000 0.014303 0.000000
# 4 0.000000 0.000000 0.000000 0.012251 0.000000 0.009015
# 5 -0.022831 -0.001705 0.014303 0.000000 0.052943 0.000000
# 6 0.000000 0.000000 0.000000 0.009015 0.000000 0.022551
#
#
# Mechanical properties :
#
#
# Convention : Reuss Voigt Hill
#
# Bulk Modulus (GPa) = 24.29388 28.84324 26.56856
# Shear Modulus (GPa) = 24.63202 51.18388 37.90795
#
# Velocity S-wave (km/s) = 3.32481 4.79274 4.12461
# Velocity P-wave (km/s) = 5.06377 6.60087 5.88274
#
# Compressibility (1/GPa) = 0.04116263
#
# Stress axis : x y z
#
# Youngs Moduli (GPa) = 27.52302 73.66442 46.65531
#
# Poissons Ratio (x) = 0.03562 0.46498
# Poissons Ratio (y) = 0.01331 0.21647
# Poissons Ratio (z) = 0.27430 0.34179
#
# Static dielectric constant tensor:
#      x y z
#    x 1.791500 0.000000 -0.017460 
#    y 0.000000 1.614580 0.000000 
#    z -0.017460 0.000000 1.826400 
# 
# From -- ./inp_files/11582.got.cif
#   From: 2010.05.17/outbox.cif.g08.bks.cpg/sg9_6_cif.got.tgz:11582.got - 2010.06.03 20:04:27.
