data_PCOD9137007
_publ_section_title
;
Structure prediction by ZEFSAII (Michael W. Deem and Ramdas Pophale) SiO2 
 PCOD9137007
Probable space group: C C
;
_chemical_formula_sum "Si O2"
_cell_formula_units_Z 28
_cell_length_a 7.598026
_cell_length_b 27.360054
_cell_length_c 7.708772
_cell_angle_alpha 90.000000
_cell_angle_beta 137.643789
_cell_angle_gamma 90.000000
_cell_volume 1079.677004
_symmetry_space_group_name_H-M "C C"
_symmetry_group_IT_number 9
_symmetry_cell_setting 'monoclinic'
loop_
_space_group_symop_operation_xyz
x,y,z
x,-y,1/2+z
1/2+x,1/2+y,z
1/2+x,1/2-y,1/2+z
loop_
_atom_site_type_symbol
_atom_site_label
_atom_site_fract_x
_atom_site_fract_y
_atom_site_fract_z
Si Si1 0.392860 0.371717 0.232120
Si Si2 0.279826 0.868346 0.838335
Si Si3 0.568116 0.269537 0.805297
Si Si4 0.083119 0.069172 0.483634
Si Si5 0.076545 0.562805 0.997984
Si Si6 0.364231 0.728827 0.538544
Si Si7 0.795357 0.971560 0.289531
O O1 0.625398 0.367785 0.544126
O O2 0.431963 0.327535 0.127109
O O3 0.361857 0.430896 0.194989
O O4 0.089785 0.360909 0.065903
O O5 0.152064 0.825315 0.855941
O O6 0.211355 0.917493 0.892811
O O7 0.340375 0.260032 0.499942
O O8 0.446118 0.257850 0.902793
O O9 0.298339 0.086825 0.775487
O O10 0.029041 0.011396 0.468081
O O11 0.791455 0.091011 0.266580
O O12 0.212484 0.553327 0.909539
O O13 0.064434 0.508610 0.067641
O O14 0.052873 0.740229 0.305286
#
# Coordination Sequence:
#
# PCOD9137007 Si02
#       7
#     4   4   4   4   4   4   4
#     4  12  24  38  68  94 126 159 209 262 311 363
#     4  12  23  41  65  94 126 160 212 259 308 362
#     4  10  23  43  67  89 127 165 205 253 312 378
#     4  10  22  38  60  84 123 162 195 253 293 367
#     4  10  22  36  61  79 124 156 207 235 312 336
#     4  10  23  45  63  92 129 163 200 258 316 374
#     4  10  23  39  60  88 121 165 200 254 296 366
#
# _framework density 25.933681
#
# number of rings (size 3 to 8) (size 9 to 14) (size 15 to 20)
#    0.857    0.571    2.857    1.714    4.000    4.571 
#    0.000    0.000    0.000    0.000    0.000    0.000 
#    0.000    0.000    0.000    0.000    0.000    0.000 
#
# Total GULP energy -78113.033666 kJ/mol
# GULP energy per Si atom -5579.502405 kJ/mol
# Density = 2.587465 g / cm^3
# Si number density = 25.933681 Si / 1000 Ang^3
#
#
#
# Elastic Constant Matrix: (Units=GPa)
#
#
# Indices 1 2 3 4 5 6 
#
# 1 59.6165 -7.5217 18.5185 0.0000 -5.3819 0.0000
# 2 -7.5217 71.0663 4.7290 0.0000 5.5814 0.0000
# 3 18.5185 4.7290 171.0417 0.0000 40.9549 0.0000
# 4 0.0000 0.0000 0.0000 44.9015 0.0000 -0.5567
# 5 -5.3819 5.5814 40.9549 0.0000 35.0320 0.0000
# 6 0.0000 0.0000 0.0000 -0.5567 0.0000 37.5118
#
#
#
# Elastic Compliance Matrix: (Units=1/GPa)
#
#
# Indices 1 2 3 4 5 6 
#
# 1 0.018788 0.001688 -0.003760 0.000000 0.007013 0.000000
# 2 0.001688 0.014407 -0.000130 0.000000 -0.001884 0.000000
# 3 -0.003760 -0.000130 0.008875 0.000000 -0.010932 0.000000
# 4 0.000000 0.000000 0.000000 0.022275 0.000000 0.000331
# 5 0.007013 -0.001884 -0.010932 0.000000 0.042704 0.000000
# 6 0.000000 0.000000 0.000000 0.000331 0.000000 0.026663
#
#
# Mechanical properties :
#
#
# Convention : Reuss Voigt Hill
#
# Bulk Modulus (GPa) = 26.54966 37.01958 31.78462
# Shear Modulus (GPa) = 33.18491 42.55562 37.87026
#
# Velocity S-wave (km/s) = 3.58104 4.05525 3.82550
# Velocity P-wave (km/s) = 5.23051 6.01934 5.63873
#
# Compressibility (1/GPa) = 0.03766527
#
# Stress axis : x y z
#
# Youngs Moduli (GPa) = 53.22550 69.41243 112.67699
#
# Poissons Ratio (x) = -0.11716 0.42368
# Poissons Ratio (y) = -0.08984 0.01464
# Poissons Ratio (z) = 0.20013 0.00902
#
# Static dielectric constant tensor:
#      x y z
#    x 2.098170 0.000000 -0.037010 
#    y 0.000000 1.979120 0.000000 
#    z -0.037010 0.000000 2.099840 
# 
# From -- ./inp_files/6452.got.cif
#   From: 2010.05.17/outbox.cif.g08.bks.cpg/sg9_4_cif.got.tgz:6452.got - 2010.06.03 20:04:27.
