data_PCOD9137746
_publ_section_title
;
Structure prediction by ZEFSAII (Michael W. Deem and Ramdas Pophale) SiO2 
 PCOD9137746
Probable space group: C C
;
_chemical_formula_sum "Si O2"
_cell_formula_units_Z 32
_cell_length_a 5.576916
_cell_length_b 19.458495
_cell_length_c 12.272120
_cell_angle_alpha 90.000000
_cell_angle_beta 86.851917
_cell_angle_gamma 90.000000
_cell_volume 1329.741032
_symmetry_space_group_name_H-M "C C"
_symmetry_group_IT_number 9
_symmetry_cell_setting 'monoclinic'
loop_
_space_group_symop_operation_xyz
x,y,z
x,-y,1/2+z
1/2+x,1/2+y,z
1/2+x,1/2-y,1/2+z
loop_
_atom_site_type_symbol
_atom_site_label
_atom_site_fract_x
_atom_site_fract_y
_atom_site_fract_z
Si Si1 0.141090 0.953709 0.098310
Si Si2 0.991520 0.173255 0.491309
Si Si3 0.987932 0.262707 0.937157
Si Si4 0.538344 0.679010 0.150040
Si Si5 0.261405 0.553905 0.194379
Si Si6 0.346881 0.701945 0.725621
Si Si7 0.412417 0.919711 0.517281
Si Si8 0.006404 0.577582 0.768309
O O1 0.313232 0.912375 0.176685
O O2 0.988186 0.906895 0.021421
O O3 0.294747 0.005352 0.022134
O O4 0.984867 0.003453 0.177179
O O5 0.740674 0.198961 0.448262
O O6 0.991303 0.208731 0.610739
O O7 0.251221 0.189455 0.434191
O O8 0.997207 0.218225 0.828008
O O9 0.941109 0.213582 0.041966
O O10 0.361490 0.628902 0.222240
O O11 0.637106 0.741469 0.218920
O O12 0.755376 0.631588 0.096290
O O13 0.159717 0.569205 0.075698
O O14 0.073365 0.504442 0.261534
O O15 0.229436 0.626887 0.734799
O O16 0.432474 0.899547 0.391239
#
# Coordination Sequence:
#
# PCOD9137746 Si02
#       8
#     4   4   4   4   4   4   4   4
#     4  10  22  44  67 100 141 189 236 305 361 437
#     4  11  25  48  72 106 151 183 248 305 362 433
#     4  11  27  45  73 109 143 199 239 303 378 437
#     4  10  24  45  67 103 147 187 234 314 360 443
#     4  10  22  44  66  99 141 183 239 300 371 425
#     4  11  25  45  74 104 143 194 247 303 369 454
#     4  10  24  43  70  98 145 184 246 298 372 436
#     4  11  23  44  75 103 133 199 251 298 369 451
#
# _framework density 24.064834999999999
#
# number of rings (size 3 to 8) (size 9 to 14) (size 15 to 20)
#    0.000    1.500    1.250    2.250   10.500    4.000 
#    9.000    0.000    0.000    0.000    0.000    0.000 
#    0.000    0.000    0.000    0.000    0.000    0.000 
#
# Total GULP energy -89401.859685 kJ/mol
# GULP energy per Si atom -5587.616230 kJ/mol
# Density = 2.401006 g / cm^3
# Si number density = 24.064835 Si / 1000 Ang^3
#
#
#
# Elastic Constant Matrix: (Units=GPa)
#
#
# Indices 1 2 3 4 5 6 
#
# 1 86.6352 20.8266 15.1368 0.0000 -0.8443 0.0000
# 2 20.8266 107.6040 4.4448 0.0000 8.2996 0.0000
# 3 15.1368 4.4448 77.5126 0.0000 -2.8190 0.0000
# 4 0.0000 0.0000 0.0000 -12.7647 0.0000 -13.4923
# 5 -0.8443 8.2996 -2.8190 0.0000 12.5088 0.0000
# 6 0.0000 0.0000 0.0000 -13.4923 0.0000 43.3647
#
#
#
# Elastic Compliance Matrix: (Units=1/GPa)
#
#
# Indices 1 2 3 4 5 6 
#
# 1 0.012552 -0.002491 -0.002236 0.000000 0.001996 0.000000
# 2 -0.002491 0.010339 -0.000365 0.000000 -0.007110 0.000000
# 3 -0.002236 -0.000365 0.013472 0.000000 0.003128 0.000000
# 4 0.000000 0.000000 0.000000 -0.058953 0.000000 -0.018342
# 5 0.001996 -0.007110 0.003128 0.000000 0.085501 0.000000
# 6 0.000000 0.000000 0.000000 -0.018342 0.000000 0.017353
#
#
# Mechanical properties :
#
#
# Convention : Reuss Voigt Hill
#
# Bulk Modulus (GPa) = 38.19766 39.17427 38.68597
# Shear Modulus (GPa) = 50.41654 24.04466 37.23060
#
# Velocity S-wave (km/s) = 4.58211 3.16438 3.93758
# Velocity P-wave (km/s) = 6.62583 5.44656 6.06493
#
# Compressibility (1/GPa) = 0.02617961
#
# Stress axis : x y z
#
# Youngs Moduli (GPa) = 79.67160 96.72155 74.22593
#
# Poissons Ratio (x) = 0.24093 0.16594
# Poissons Ratio (y) = 0.19846 0.02709
# Poissons Ratio (z) = 0.17812 0.03531
#
# Static dielectric constant tensor:
#      x y z
#    x 1.955480 0.000000 -0.012060 
#    y 0.000000 1.953090 0.000000 
#    z -0.012060 0.000000 1.873930 
# 
# From -- ./inp_files/13514.got.cif
#   From: 2010.05.17/outbox.cif.g08.bks.cpg/sg9_7_cif.got.tgz:13514.got - 2010.06.03 20:04:27.
