data_PCOD9137636
_publ_section_title
;
Structure prediction by ZEFSAII (Michael W. Deem and Ramdas Pophale) SiO2 
 PCOD9137636
Probable space group: C C
;
_chemical_formula_sum "Si O2"
_cell_formula_units_Z 20
_cell_length_a 5.937168
_cell_length_b 19.300269
_cell_length_c 9.496318
_cell_angle_alpha 90.000000
_cell_angle_beta 45.787660
_cell_angle_gamma 90.000000
_cell_volume 779.959365
_symmetry_space_group_name_H-M "C C"
_symmetry_group_IT_number 9
_symmetry_cell_setting 'monoclinic'
loop_
_space_group_symop_operation_xyz
x,y,z
x,-y,1/2+z
1/2+x,1/2+y,z
1/2+x,1/2-y,1/2+z
loop_
_atom_site_type_symbol
_atom_site_label
_atom_site_fract_x
_atom_site_fract_y
_atom_site_fract_z
Si Si1 0.150080 0.763922 0.431500
Si Si2 0.406524 0.954952 0.046094
Si Si3 0.221842 0.402673 0.395027
Si Si4 0.084378 0.343263 0.749589
Si Si5 0.204627 0.652352 0.598226
O O1 0.946281 0.717825 0.409418
O O2 0.363048 0.712401 0.435709
O O3 0.362287 0.812246 0.242181
O O4 0.948414 0.819272 0.607402
O O5 0.460895 0.912307 0.877863
O O6 0.476041 0.034505 0.986160
O O7 0.668027 0.920365 0.035351
O O8 0.063912 0.939772 0.261196
O O9 0.088271 0.357514 0.582108
O O10 0.267595 0.359281 0.232722
#
# Coordination Sequence:
#
# PCOD9137636 Si02
#       5
#     4   4   4   4   4
#     4   9  20  44  68  98 140 173 210 282 334 401
#     4  11  26  45  66  99 139 177 226 284 329 393
#     4  12  26  43  71  99 133 182 232 272 334 400
#     4  10  22  43  70  94 139 175 217 274 339 393
#     4  10  22  43  67  98 135 175 219 272 338 395
#
# _framework density 25.642361999999999
#
# number of rings (size 3 to 8) (size 9 to 14) (size 15 to 20)
#    0.000    1.600    2.000    1.200    2.800    6.400 
#    7.200    0.000    0.000    0.000    0.000    0.000 
#    0.000    0.000    0.000    0.000    0.000    0.000 
#
# Total GULP energy -55722.253442 kJ/mol
# GULP energy per Si atom -5572.225344 kJ/mol
# Density = 2.558400 g / cm^3
# Si number density = 25.642362 Si / 1000 Ang^3
#
#
#
# Elastic Constant Matrix: (Units=GPa)
#
#
# Indices 1 2 3 4 5 6 
#
# 1 51.4021 31.5805 40.0931 0.0000 16.3956 0.0000
# 2 31.5805 121.9817 34.0645 0.0000 9.8459 0.0000
# 3 40.0931 34.0645 136.6064 0.0000 32.7678 0.0000
# 4 0.0000 0.0000 0.0000 46.4141 0.0000 6.5030
# 5 16.3956 9.8459 32.7678 0.0000 41.3073 0.0000
# 6 0.0000 0.0000 0.0000 6.5030 0.0000 13.7071
#
#
#
# Elastic Compliance Matrix: (Units=1/GPa)
#
#
# Indices 1 2 3 4 5 6 
#
# 1 0.029170 -0.005464 -0.005846 0.000000 -0.005638 0.000000
# 2 -0.005464 0.009842 -0.000998 0.000000 0.000615 0.000000
# 3 -0.005846 -0.000998 0.010709 0.000000 -0.005937 0.000000
# 4 0.000000 0.000000 0.000000 0.023079 0.000000 -0.010949
# 5 -0.005638 0.000615 -0.005937 0.000000 0.031010 0.000000
# 6 0.000000 0.000000 0.000000 -0.010949 0.000000 0.078150
#
#
# Mechanical properties :
#
#
# Convention : Reuss Voigt Hill
#
# Bulk Modulus (GPa) = 39.83438 57.94073 48.88755
# Shear Modulus (GPa) = 23.26188 33.90248 28.58218
#
# Velocity S-wave (km/s) = 3.01519 3.64005 3.34225
# Velocity P-wave (km/s) = 5.26214 6.34913 5.83102
#
# Compressibility (1/GPa) = 0.02510394
#
# Stress axis : x y z
#
# Youngs Moduli (GPa) = 34.28189 101.60874 93.37921
#
# Poissons Ratio (x) = 0.55522 0.54592
# Poissons Ratio (y) = 0.18733 0.09318
# Poissons Ratio (z) = 0.20042 0.10139
#
# Static dielectric constant tensor:
#      x y z
#    x 2.097810 0.000000 -0.012330 
#    y 0.000000 2.016430 0.000000 
#    z -0.012330 0.000000 2.335200 
# 
# From -- ./inp_files/3596.got.cif
#   From: 2010.05.17/outbox.cif.g08.bks.cpg/sg9_2_cif.got.tgz:3596.got - 2010.06.03 20:04:27.
