data_PCOD9137100
_publ_section_title
;
Structure prediction by ZEFSAII (Michael W. Deem and Ramdas Pophale) SiO2 
 PCOD9137100
Probable space group: C C
;
_chemical_formula_sum "Si O2"
_cell_formula_units_Z 28
_cell_length_a 6.529871
_cell_length_b 18.696684
_cell_length_c 9.837301
_cell_angle_alpha 90.000000
_cell_angle_beta 114.572630
_cell_angle_gamma 90.000000
_cell_volume 1092.236656
_symmetry_space_group_name_H-M "C C"
_symmetry_group_IT_number 9
_symmetry_cell_setting 'monoclinic'
loop_
_space_group_symop_operation_xyz
x,y,z
x,-y,1/2+z
1/2+x,1/2+y,z
1/2+x,1/2-y,1/2+z
loop_
_atom_site_type_symbol
_atom_site_label
_atom_site_fract_x
_atom_site_fract_y
_atom_site_fract_z
Si Si1 0.183820 0.231623 0.482480
Si Si2 0.546819 0.670519 0.181711
Si Si3 0.055448 0.374936 0.158731
Si Si4 0.298076 0.129134 0.864895
Si Si5 0.648476 0.518914 0.297559
Si Si6 0.444126 0.735184 0.704409
Si Si7 0.413271 0.978600 0.612786
O O1 0.363915 0.296517 0.528826
O O2 0.021326 0.216298 0.312357
O O3 0.338961 0.160694 0.526660
O O4 0.046621 0.239778 0.582773
O O5 0.508948 0.587098 0.207084
O O6 0.801717 0.694799 0.209774
O O7 0.979671 0.367333 0.295027
O O8 0.255010 0.325424 0.166594
O O9 0.094863 0.459086 0.144456
O O10 0.421999 0.093530 0.028484
O O11 0.152090 0.200156 0.846306
O O12 0.121976 0.066394 0.768185
O O13 0.700339 0.516169 0.473383
O O14 0.867131 0.531038 0.258850
#
# Coordination Sequence:
#
# PCOD9137100 Si02
#       7
#     4   4   4   4   4   4   4
#     4  10  22  40  60  91 128 171 218 266 323 402
#     4  11  23  40  65  97 134 170 221 270 335 401
#     4   9  17  38  59  83 119 169 207 263 326 383
#     4   8  18  36  61  85 122 159 216 264 328 378
#     4   9  19  36  64  92 126 169 208 280 323 389
#     4  10  22  39  62  86 126 179 209 267 335 391
#     4   9  17  35  63  88 123 161 213 272 324 390
#
# _framework density 25.635470999999999
#
# number of rings (size 3 to 8) (size 9 to 14) (size 15 to 20)
#    0.857    1.714    1.429    0.000    2.000    2.286 
#    5.143    8.571    0.000    0.000    0.000    0.000 
#    0.000    0.000    0.000    0.000    0.000    0.000 
#
# Total GULP energy -77947.691354 kJ/mol
# GULP energy per Si atom -5567.692240 kJ/mol
# Density = 2.557712 g / cm^3
# Si number density = 25.635471 Si / 1000 Ang^3
#
#
#
# Elastic Constant Matrix: (Units=GPa)
#
#
# Indices 1 2 3 4 5 6 
#
# 1 101.3418 38.1501 32.5126 0.0000 -9.7114 0.0000
# 2 38.1501 143.5312 12.9243 0.0000 11.2384 0.0000
# 3 32.5126 12.9243 75.9913 0.0000 -12.8267 0.0000
# 4 0.0000 0.0000 0.0000 33.9961 0.0000 0.2377
# 5 -9.7114 11.2384 -12.8267 0.0000 37.8484 0.0000
# 6 0.0000 0.0000 0.0000 0.2377 0.0000 40.7888
#
#
#
# Elastic Compliance Matrix: (Units=1/GPa)
#
#
# Indices 1 2 3 4 5 6 
#
# 1 0.012764 -0.003204 -0.004458 0.000000 0.002716 0.000000
# 2 -0.003204 0.008142 -0.000595 0.000000 -0.003441 0.000000
# 3 -0.004458 -0.000595 0.015915 0.000000 0.004426 0.000000
# 4 0.000000 0.000000 0.000000 0.029416 0.000000 -0.000171
# 5 0.002716 -0.003441 0.004426 0.000000 0.029640 0.000000
# 6 0.000000 0.000000 0.000000 -0.000171 0.000000 0.024518
#
#
# Mechanical properties :
#
#
# Convention : Reuss Voigt Hill
#
# Bulk Modulus (GPa) = 49.24206 54.22646 51.73426
# Shear Modulus (GPa) = 34.80038 38.34515 36.57277
#
# Velocity S-wave (km/s) = 3.68844 3.87173 3.78120
# Velocity P-wave (km/s) = 6.11471 6.41763 6.26800
#
# Compressibility (1/GPa) = 0.02030784
#
# Stress axis : x y z
#
# Youngs Moduli (GPa) = 78.34484 122.82438 62.83411
#
# Poissons Ratio (x) = 0.39351 0.28010
# Poissons Ratio (y) = 0.25101 0.03737
# Poissons Ratio (z) = 0.34924 0.07305
#
# Static dielectric constant tensor:
#      x y z
#    x 2.010910 0.000000 0.033100 
#    y 0.000000 2.100020 0.000000 
#    z 0.033100 0.000000 2.077040 
# 
# From -- ./inp_files/13650.got.cif
#   From: 2010.05.17/outbox.cif.g08.bks.cpg/sg9_7_cif.got.tgz:13650.got - 2010.06.03 20:04:27.
