data_PCOD9137978
_publ_section_title
;
Structure prediction by ZEFSAII (Michael W. Deem and Ramdas Pophale) SiO2 
 PCOD9137978
Probable space group: C C
;
_chemical_formula_sum "Si O2"
_cell_formula_units_Z 28
_cell_length_a 7.289375
_cell_length_b 13.745941
_cell_length_c 17.317930
_cell_angle_alpha 90.000000
_cell_angle_beta 36.384554
_cell_angle_gamma 90.000000
_cell_volume 1029.350468
_symmetry_space_group_name_H-M "C C"
_symmetry_group_IT_number 9
_symmetry_cell_setting 'monoclinic'
loop_
_space_group_symop_operation_xyz
x,y,z
x,-y,1/2+z
1/2+x,1/2+y,z
1/2+x,1/2-y,1/2+z
loop_
_atom_site_type_symbol
_atom_site_label
_atom_site_fract_x
_atom_site_fract_y
_atom_site_fract_z
Si Si1 0.062460 0.583939 0.278120
Si Si2 0.245694 0.893147 0.226339
Si Si3 0.303673 0.484005 0.494218
Si Si4 0.797077 0.661438 0.206209
Si Si5 0.113907 0.144299 0.013282
Si Si6 0.780631 0.874486 0.247735
Si Si7 0.638249 0.791608 0.876459
O O1 0.403121 0.633803 0.158176
O O2 0.150912 0.470453 0.249214
O O3 0.935813 0.627918 0.400694
O O4 0.886605 0.630480 0.264405
O O5 0.044488 0.972411 0.343139
O O6 0.066180 0.890685 0.206594
O O7 0.208592 0.798555 0.293484
O O8 0.598854 0.923092 0.087604
O O9 0.510152 0.448898 0.496984
O O10 0.031638 0.403312 0.576826
O O11 0.842635 0.777175 0.178997
O O12 0.438946 0.653441 0.307003
O O13 0.476194 0.151423 0.902407
O O14 0.015083 0.234849 0.993447
#
# Coordination Sequence:
#
# PCOD9137978 Si02
#       7
#     4   4   4   4   4   4   4
#     4  11  23  47  71 103 149 193 258 319 389 462
#     4  11  24  47  73 112 151 205 257 326 400 478
#     4  10  24  46  71 106 154 197 261 324 392 477
#     4  10  23  44  72 102 143 197 255 313 385 460
#     4   9  24  43  71 105 145 192 264 311 383 488
#     4  11  24  45  73 107 150 200 260 319 396 474
#     4  10  22  46  69 101 150 192 249 320 381 461
#
# _framework density 27.201619999999998
#
# number of rings (size 3 to 8) (size 9 to 14) (size 15 to 20)
#    0.000    1.714    1.429    0.857   16.000    0.000 
#   15.429    0.000    0.000    0.000    0.000    0.000 
#    0.000    0.000    0.000    0.000    0.000    0.000 
#
# Total GULP energy -78275.197996 kJ/mol
# GULP energy per Si atom -5591.085571 kJ/mol
# Density = 2.713971 g / cm^3
# Si number density = 27.201620 Si / 1000 Ang^3
#
#
#
# Elastic Constant Matrix: (Units=GPa)
#
#
# Indices 1 2 3 4 5 6 
#
# 1 101.3187 33.1745 10.0884 -0.0221 -9.3981 0.0307
# 2 33.1745 169.2246 7.2697 -0.0094 4.4538 0.0098
# 3 10.0884 7.2697 60.0558 -0.0418 -16.8571 0.0031
# 4 -0.0221 -0.0094 -0.0418 41.6630 0.0252 -13.7164
# 5 -9.3981 4.4538 -16.8571 0.0252 45.8435 -0.0226
# 6 0.0307 0.0098 0.0031 -13.7164 -0.0226 44.6155
#
#
#
# Elastic Compliance Matrix: (Units=1/GPa)
#
#
# Indices 1 2 3 4 5 6 
#
# 1 0.010861 -0.002142 -0.000983 0.000001 0.002073 -0.000006
# 2 -0.002142 0.006399 -0.000795 0.000000 -0.001353 -0.000001
# 3 -0.000983 -0.000795 0.018820 0.000017 0.006796 0.000008
# 4 0.000001 0.000000 0.000017 0.026705 -0.000004 0.008210
# 5 0.002073 -0.001353 0.006796 -0.000004 0.024869 0.000010
# 6 -0.000006 -0.000001 0.000008 0.008210 0.000010 0.024938
#
#
# Mechanical properties :
#
#
# Convention : Reuss Voigt Hill
#
# Bulk Modulus (GPa) = 35.40921 47.96269 41.68595
# Shear Modulus (GPa) = 38.50759 45.09551 41.80155
#
# Velocity S-wave (km/s) = 3.76658 4.07606 3.92437
# Velocity P-wave (km/s) = 5.65347 6.31054 5.99102
#
# Compressibility (1/GPa) = 0.02824124
#
# Stress axis : x y z
#
# Youngs Moduli (GPa) = 92.07036 156.27756 53.13467
#
# Poissons Ratio (x) = 0.33467 0.05225
# Poissons Ratio (y) = 0.19717 0.04222
# Poissons Ratio (z) = 0.09054 0.12417
#
# Static dielectric constant tensor:
#      x y z
#    x 2.051350 -0.000010 0.042410 
#    y -0.000010 2.213500 -0.000040 
#    z 0.042410 -0.000040 2.229290 
# 
# From -- ./inp_files/32768.got.cif
#   From: 2010.05.17/outbox.cif.g08.bks.cpg/sg9_17_cif.got.tgz:32768.got - 2010.06.03 20:04:27.
