data_PCOD9137772
_publ_section_title
;
Structure prediction by ZEFSAII (Michael W. Deem and Ramdas Pophale) SiO2 
 PCOD9137772
Probable space group: C C
;
_chemical_formula_sum "Si O2"
_cell_formula_units_Z 28
_cell_length_a 7.337771
_cell_length_b 7.079595
_cell_length_c 21.940045
_cell_angle_alpha 90.000000
_cell_angle_beta 126.647070
_cell_angle_gamma 90.000000
_cell_volume 914.453655
_symmetry_space_group_name_H-M "C C"
_symmetry_group_IT_number 9
_symmetry_cell_setting 'monoclinic'
loop_
_space_group_symop_operation_xyz
x,y,z
x,-y,1/2+z
1/2+x,1/2+y,z
1/2+x,1/2-y,1/2+z
loop_
_atom_site_type_symbol
_atom_site_label
_atom_site_fract_x
_atom_site_fract_y
_atom_site_fract_z
Si Si1 0.693050 0.255977 0.216420
Si Si2 0.630917 0.666556 0.170468
Si Si3 0.099097 0.512956 0.090552
Si Si4 0.229066 0.685777 0.359287
Si Si5 0.209825 0.693364 0.008727
Si Si6 0.236120 0.985776 0.940507
Si Si7 0.195203 0.746180 0.820245
O O1 0.713071 0.453951 0.185555
O O2 0.556497 0.122490 0.144258
O O3 0.652776 0.278600 0.279891
O O4 0.940806 0.165145 0.269880
O O5 0.721056 0.743267 0.252667
O O6 0.705378 0.812839 0.133258
O O7 0.347161 0.638978 0.111217
O O8 0.831057 0.401280 0.027289
O O9 0.000823 0.599823 0.004669
O O10 0.125865 0.821592 0.391626
O O11 0.168652 0.468276 0.338131
O O12 0.515189 0.679887 0.418193
O O13 0.344447 0.547399 0.996901
O O14 0.312353 0.874747 0.894684
#
# Coordination Sequence:
#
# PCOD9137772 Si02
#       7
#     4   4   4   4   4   4   4
#     4  12  24  42  70  99 134 179 225 280 337 396
#     4  11  24  43  69  99 133 179 226 276 337 402
#     4  10  23  44  67  99 135 175 222 278 334 402
#     4  11  24  43  69  99 133 179 226 276 337 402
#     4  10  22  44  68  92 142 174 214 282 328 400
#     4  10  23  44  67  99 135 175 222 278 334 402
#     4  12  24  42  70  99 134 179 225 280 337 396
#
# _framework density 30.619377
#
# number of rings (size 3 to 8) (size 9 to 14) (size 15 to 20)
#    0.000    1.143    5.714    0.000    0.000    8.000 
#    0.000    4.286    0.000    0.000    0.000    0.000 
#    0.000    0.000    0.000    0.000    0.000    0.000 
#
# Total GULP energy -77958.816517 kJ/mol
# GULP energy per Si atom -5568.486894 kJ/mol
# Density = 3.054969 g / cm^3
# Si number density = 30.619377 Si / 1000 Ang^3
#
#
#
# Elastic Constant Matrix: (Units=GPa)
#
#
# Indices 1 2 3 4 5 6 
#
# 1 124.1736 53.6673 40.4767 0.0000 -9.9594 0.0000
# 2 53.6673 245.6417 98.4032 0.0000 -16.4306 0.0000
# 3 40.4767 98.4032 245.7491 0.0000 36.1322 0.0000
# 4 0.0000 0.0000 0.0000 69.8658 0.0000 -16.1503
# 5 -9.9594 -16.4306 36.1322 0.0000 38.4929 0.0000
# 6 0.0000 0.0000 0.0000 -16.1503 0.0000 73.1595
#
#
#
# Elastic Compliance Matrix: (Units=1/GPa)
#
#
# Indices 1 2 3 4 5 6 
#
# 1 0.009347 -0.001193 -0.001558 0.000000 0.003371 0.000000
# 2 -0.001193 0.005787 -0.002829 0.000000 0.004817 0.000000
# 3 -0.001558 -0.002829 0.006607 0.000000 -0.007813 0.000000
# 4 0.000000 0.000000 0.000000 0.015083 0.000000 0.003330
# 5 0.003371 0.004817 -0.007813 0.000000 0.036241 0.000000
# 6 0.000000 0.000000 0.000000 0.003330 0.000000 0.014404
#
#
# Mechanical properties :
#
#
# Convention : Reuss Voigt Hill
#
# Bulk Modulus (GPa) = 94.49581 111.18431 102.84006
# Shear Modulus (GPa) = 48.94528 64.50477 56.72502
#
# Velocity S-wave (km/s) = 4.00247 4.59482 4.30884
# Velocity P-wave (km/s) = 7.23105 8.03371 7.64292
#
# Compressibility (1/GPa) = 0.01058248
#
# Stress axis : x y z
#
# Youngs Moduli (GPa) = 106.98821 172.79892 151.34828
#
# Poissons Ratio (x) = 0.20608 0.23575
# Poissons Ratio (y) = 0.12759 0.42818
# Poissons Ratio (z) = 0.16665 0.48887
#
# Static dielectric constant tensor:
#      x y z
#    x 2.949330 0.000000 0.225780 
#    y 0.000000 2.545160 0.000000 
#    z 0.225780 0.000000 2.984500 
# 
# From -- ./inp_files/32941.got.cif
#   From: 2010.05.17/outbox.cif.g08.bks.cpg/sg9_17_cif.got.tgz:32941.got - 2010.06.03 20:04:27.
