data_PCOD9137071
_publ_section_title
;
Structure prediction by ZEFSAII (Michael W. Deem and Ramdas Pophale) SiO2 
 PCOD9137071
Probable space group: C C
;
_chemical_formula_sum "Si O2"
_cell_formula_units_Z 28
_cell_length_a 12.092600
_cell_length_b 8.894660
_cell_length_c 13.975143
_cell_angle_alpha 90.000000
_cell_angle_beta 133.647786
_cell_angle_gamma 90.000000
_cell_volume 1087.681465
_symmetry_space_group_name_H-M "C C"
_symmetry_group_IT_number 9
_symmetry_cell_setting 'monoclinic'
loop_
_space_group_symop_operation_xyz
x,y,z
x,-y,1/2+z
1/2+x,1/2+y,z
1/2+x,1/2-y,1/2+z
loop_
_atom_site_type_symbol
_atom_site_label
_atom_site_fract_x
_atom_site_fract_y
_atom_site_fract_z
Si Si1 0.459950 0.670397 0.208300
Si Si2 0.339898 0.284967 0.287122
Si Si3 0.375033 0.043822 0.610165
Si Si4 0.680817 0.998240 0.563657
Si Si5 0.187893 0.434188 0.356784
Si Si6 0.837677 0.558205 0.814090
Si Si7 0.127560 0.871865 0.338295
O O1 0.397445 0.783089 0.088870
O O2 0.309948 0.617873 0.177031
O O3 0.594923 0.778588 0.328213
O O4 0.534163 0.510460 0.235804
O O5 0.210559 0.347718 0.137344
O O6 0.324565 0.398441 0.367116
O O7 0.303389 0.120404 0.303829
O O8 0.499267 0.286921 0.324184
O O9 0.548623 0.982033 0.717124
O O10 0.331047 0.068595 0.695271
O O11 0.252348 0.944058 0.484934
O O12 0.721655 0.017053 0.475087
O O13 0.509836 0.936275 0.459508
O O14 0.732941 0.672027 0.811336
#
# Coordination Sequence:
#
# PCOD9137071 Si02
#       7
#     4   4   4   4   4   4   4
#     4   9  19  38  65  90 116 163 219 258 320 388
#     4  11  24  38  67  97 126 173 222 262 331 401
#     4   9  21  37  65  90 126 163 212 267 330 383
#     4  10  22  38  66  95 124 170 222 273 325 395
#     4   9  19  39  65  91 121 165 216 273 320 382
#     4  11  23  41  63  92 136 172 211 274 332 387
#     4  11  22  39  63  97 123 166 222 265 324 394
#
# _framework density 25.742830999999999
#
# number of rings (size 3 to 8) (size 9 to 14) (size 15 to 20)
#    0.857    1.143    1.429    1.714    2.000    2.286 
#    0.000    7.143    0.000    0.000    0.000    0.000 
#    0.000    0.000    0.000    0.000    0.000    0.000 
#
# Total GULP energy -77982.697874 kJ/mol
# GULP energy per Si atom -5570.192705 kJ/mol
# Density = 2.568424 g / cm^3
# Si number density = 25.742831 Si / 1000 Ang^3
#
#
#
# Elastic Constant Matrix: (Units=GPa)
#
#
# Indices 1 2 3 4 5 6 
#
# 1 175.8517 31.9188 43.7098 0.0000 -3.6666 0.0000
# 2 31.9188 35.0557 1.6537 0.0000 12.9495 0.0000
# 3 43.7098 1.6537 95.3511 0.0000 7.0231 0.0000
# 4 0.0000 0.0000 0.0000 20.6383 0.0000 3.5466
# 5 -3.6666 12.9495 7.0231 0.0000 37.3526 0.0000
# 6 0.0000 0.0000 0.0000 3.5466 0.0000 35.2958
#
#
#
# Elastic Compliance Matrix: (Units=1/GPa)
#
#
# Indices 1 2 3 4 5 6 
#
# 1 0.008498 -0.009332 -0.004090 0.000000 0.004838 0.000000
# 2 -0.009332 0.042970 0.004763 0.000000 -0.016709 0.000000
# 3 -0.004090 0.004763 0.012606 0.000000 -0.004423 0.000000
# 4 0.000000 0.000000 0.000000 0.049305 0.000000 -0.004954
# 5 0.004838 -0.016709 -0.004423 0.000000 0.033871 0.000000
# 6 0.000000 0.000000 0.000000 -0.004954 0.000000 0.028830
#
#
# Mechanical properties :
#
#
# Convention : Reuss Voigt Hill
#
# Bulk Modulus (GPa) = 21.38740 51.20258 36.29499
# Shear Modulus (GPa) = 23.92541 33.92239 28.92390
#
# Velocity S-wave (km/s) = 3.05191 3.63401 3.35561
# Velocity P-wave (km/s) = 4.55467 6.12709 5.39844
#
# Compressibility (1/GPa) = 0.04675651
#
# Stress axis : x y z
#
# Youngs Moduli (GPa) = 117.67539 23.27186 79.32955
#
# Poissons Ratio (x) = 0.21717 0.32446
# Poissons Ratio (y) = 1.09813 -0.37787
# Poissons Ratio (z) = 0.48130 -0.11085
#
# Static dielectric constant tensor:
#      x y z
#    x 2.136550 0.000000 -0.013340 
#    y 0.000000 2.233660 0.000000 
#    z -0.013340 0.000000 2.075670 
# 
# From -- ./inp_files/24573.got.cif
#   From: 2010.05.17/outbox.cif.g08.bks.cpg/sg9_13_cif.got.tgz:24573.got - 2010.06.03 20:04:27.
