data_PCOD9137652
_publ_section_title
;
Structure prediction by ZEFSAII (Michael W. Deem and Ramdas Pophale) SiO2 
 PCOD9137652
Probable space group: C C
;
_chemical_formula_sum "Si O2"
_cell_formula_units_Z 28
_cell_length_a 6.702654
_cell_length_b 15.941728
_cell_length_c 12.818434
_cell_angle_alpha 90.000000
_cell_angle_beta 113.187928
_cell_angle_gamma 90.000000
_cell_volume 1259.029306
_symmetry_space_group_name_H-M "C C"
_symmetry_group_IT_number 9
_symmetry_cell_setting 'monoclinic'
loop_
_space_group_symop_operation_xyz
x,y,z
x,-y,1/2+z
1/2+x,1/2+y,z
1/2+x,1/2-y,1/2+z
loop_
_atom_site_type_symbol
_atom_site_label
_atom_site_fract_x
_atom_site_fract_y
_atom_site_fract_z
Si Si1 0.577960 0.521645 0.407630
Si Si2 0.853723 0.640579 0.331005
Si Si3 0.643495 0.839597 0.515757
Si Si4 0.469783 0.249397 0.716391
Si Si5 0.676028 0.084026 0.791382
Si Si6 0.893490 0.442661 0.632842
Si Si7 0.321003 0.304858 0.893206
O O1 0.769224 0.557963 0.373414
O O2 0.421045 0.450483 0.325610
O O3 0.690785 0.484064 0.533105
O O4 0.431577 0.603427 0.403022
O O5 0.675263 0.710137 0.317571
O O6 0.830903 0.627783 0.202381
O O7 0.092563 0.674950 0.400272
O O8 0.869391 0.801080 0.601313
O O9 0.659011 0.883950 0.406888
O O10 0.555932 0.907304 0.579649
O O11 0.472615 0.762369 0.481704
O O12 0.562723 0.159467 0.703881
O O13 0.291516 0.260489 0.772703
O O14 0.523839 0.006683 0.732319
#
# Coordination Sequence:
#
# PCOD9137652 Si02
#       7
#     4   4   4   4   4   4   4
#     4  11  24  42  67 100 140 183 229 298 357 413
#     4  11  22  45  67  94 141 180 235 285 351 433
#     4  11  23  44  73 100 143 190 234 292 356 424
#     4  10  22  43  68  97 136 185 232 288 350 421
#     4  11  24  44  70 103 141 179 238 294 348 424
#     4  12  23  42  68 102 134 184 229 291 357 411
#     4  10  22  44  65  94 139 181 231 288 345 432
#
# _framework density 22.239356000000001
#
# number of rings (size 3 to 8) (size 9 to 14) (size 15 to 20)
#    0.000    1.143    2.857    3.429    2.000    0.000 
#    5.143    0.000    0.000    0.000    0.000    0.000 
#    0.000    0.000    0.000    0.000    0.000    0.000 
#
# Total GULP energy -78135.774059 kJ/mol
# GULP energy per Si atom -5581.126719 kJ/mol
# Density = 2.218874 g / cm^3
# Si number density = 22.239356 Si / 1000 Ang^3
#
#
#
# Elastic Constant Matrix: (Units=GPa)
#
#
# Indices 1 2 3 4 5 6 
#
# 1 75.2889 44.2270 15.4155 0.0000 24.3999 0.0000
# 2 44.2270 102.4568 29.3327 0.0000 13.8621 0.0000
# 3 15.4155 29.3327 68.5336 0.0000 21.6578 0.0000
# 4 0.0000 0.0000 0.0000 41.4285 0.0000 10.2918
# 5 24.3999 13.8621 21.6578 0.0000 36.3056 0.0000
# 6 0.0000 0.0000 0.0000 10.2918 0.0000 32.6967
#
#
#
# Elastic Compliance Matrix: (Units=1/GPa)
#
#
# Indices 1 2 3 4 5 6 
#
# 1 0.021995 -0.008529 0.002890 0.000000 -0.013249 0.000000
# 2 -0.008529 0.014520 -0.005367 0.000000 0.003390 0.000000
# 3 0.002890 -0.005367 0.019969 0.000000 -0.011806 0.000000
# 4 0.000000 0.000000 0.000000 0.026186 0.000000 -0.008242
# 5 -0.013249 0.003390 -0.011806 0.000000 0.042197 0.000000
# 6 0.000000 0.000000 0.000000 -0.008242 0.000000 0.033178
#
#
# Mechanical properties :
#
#
# Convention : Reuss Voigt Hill
#
# Bulk Modulus (GPa) = 29.00970 47.13661 38.07315
# Shear Modulus (GPa) = 26.10317 32.57311 29.33814
#
# Velocity S-wave (km/s) = 3.42970 3.83124 3.63602
# Velocity P-wave (km/s) = 5.36250 6.38845 5.89783
#
# Compressibility (1/GPa) = 0.03447123
#
# Stress axis : x y z
#
# Youngs Moduli (GPa) = 45.46567 68.87082 50.07679
#
# Poissons Ratio (x) = 0.58741 -0.14474
# Poissons Ratio (y) = 0.38778 0.26878
# Poissons Ratio (z) = -0.13141 0.36966
#
# Static dielectric constant tensor:
#      x y z
#    x 1.855980 0.000000 -0.004690 
#    y 0.000000 1.864410 0.000000 
#    z -0.004690 0.000000 1.807400 
# 
# From -- ./inp_files/13107.got.cif
#   From: 2010.05.17/outbox.cif.g08.bks.cpg/sg9_7_cif.got.tgz:13107.got - 2010.06.03 20:04:27.
