data_PCOD9137766
_publ_section_title
;
Structure prediction by ZEFSAII (Michael W. Deem and Ramdas Pophale) SiO2 
 PCOD9137766
Probable space group: C C
;
_chemical_formula_sum "Si O2"
_cell_formula_units_Z 24
_cell_length_a 7.308310
_cell_length_b 22.903100
_cell_length_c 5.508113
_cell_angle_alpha 90.000000
_cell_angle_beta 97.645180
_cell_angle_gamma 90.000000
_cell_volume 913.768836
_symmetry_space_group_name_H-M "C C"
_symmetry_group_IT_number 9
_symmetry_cell_setting 'monoclinic'
loop_
_space_group_symop_operation_xyz
x,y,z
x,-y,1/2+z
1/2+x,1/2+y,z
1/2+x,1/2-y,1/2+z
loop_
_atom_site_type_symbol
_atom_site_label
_atom_site_fract_x
_atom_site_fract_y
_atom_site_fract_z
Si Si1 0.728640 0.185611 0.956440
Si Si2 0.935854 0.525949 0.311832
Si Si3 0.395608 0.861964 0.562891
Si Si4 0.437806 0.739867 0.388199
Si Si5 0.361112 0.484088 0.307453
Si Si6 0.533976 0.365967 0.212420
O O1 0.603595 0.129542 0.993309
O O2 0.592387 0.223706 0.766380
O O3 0.926450 0.171346 0.895577
O O4 0.761836 0.225051 0.198039
O O5 0.858467 0.500462 0.547039
O O6 0.152692 0.506891 0.328147
O O7 0.895486 0.595117 0.289920
O O8 0.388497 0.791405 0.573525
O O9 0.237428 0.878393 0.343999
O O10 0.516954 0.677544 0.483867
O O11 0.437833 0.475703 0.598142
O O12 0.405476 0.422878 0.178926
#
# Coordination Sequence:
#
# PCOD9137766 Si02
#       6
#     4   4   4   4   4   4
#     4  10  23  43  65 101 142 185 235 295 373 429
#     4  10  22  44  68 103 139 196 242 304 370 427
#     4  10  23  46  64 106 142 181 252 297 362 450
#     4  10  23  43  66 103 142 180 239 293 368 433
#     4  10  24  44  72 106 141 199 246 303 373 432
#     4  12  25  44  73 101 144 195 240 302 372 445
#
# _framework density 26.264849000000002
#
# number of rings (size 3 to 8) (size 9 to 14) (size 15 to 20)
#    1.000    0.667    1.667    2.000    9.333    1.333 
#    6.000    0.000    0.000    0.000    0.000    0.000 
#    0.000    0.000    0.000    0.000    0.000    0.000 
#
# Total GULP energy -66824.531240 kJ/mol
# GULP energy per Si atom -5568.710937 kJ/mol
# Density = 2.620507 g / cm^3
# Si number density = 26.264849 Si / 1000 Ang^3
#
#
#
# Elastic Constant Matrix: (Units=GPa)
#
#
# Indices 1 2 3 4 5 6 
#
# 1 59.3903 27.1612 34.2385 0.0000 10.3763 0.0000
# 2 27.1612 101.4407 -1.0637 0.0000 14.5108 0.0000
# 3 34.2385 -1.0637 84.3359 0.0000 -5.5914 0.0000
# 4 0.0000 0.0000 0.0000 37.5931 0.0000 9.9442
# 5 10.3763 14.5108 -5.5914 0.0000 33.2752 0.0000
# 6 0.0000 0.0000 0.0000 9.9442 0.0000 12.8080
#
#
#
# Elastic Compliance Matrix: (Units=1/GPa)
#
#
# Indices 1 2 3 4 5 6 
#
# 1 0.028153 -0.006526 -0.012039 0.000000 -0.007956 0.000000
# 2 -0.006526 0.012029 0.002618 0.000000 -0.002771 0.000000
# 3 -0.012039 0.002618 0.017142 0.000000 0.005493 0.000000
# 4 0.000000 0.000000 0.000000 0.033476 0.000000 -0.025991
# 5 -0.007956 -0.002771 0.005493 0.000000 0.034665 0.000000
# 6 0.000000 0.000000 0.000000 -0.025991 0.000000 0.098256
#
#
# Mechanical properties :
#
#
# Convention : Reuss Voigt Hill
#
# Bulk Modulus (GPa) = 39.32600 40.64879 39.98739
# Shear Modulus (GPa) = 18.93266 29.05730 23.99498
#
# Velocity S-wave (km/s) = 2.68775 3.32975 3.02582
# Velocity P-wave (km/s) = 4.96361 5.50391 5.24073
#
# Compressibility (1/GPa) = 0.02542847
#
# Stress axis : x y z
#
# Youngs Moduli (GPa) = 35.51989 83.13088 58.33526
#
# Poissons Ratio (x) = 0.54254 0.70232
# Poissons Ratio (y) = 0.23181 -0.15270
# Poissons Ratio (z) = 0.42764 -0.21760
#
# Static dielectric constant tensor:
#      x y z
#    x 2.154980 0.000000 -0.057470 
#    y 0.000000 2.130370 0.000000 
#    z -0.057470 0.000000 2.259450 
# 
# From -- ./inp_files/883.got.cif
#   From: 2010.05.17/outbox.cif.g08.bks.cpg/sg9_1_cif.got.tgz:883.got - 2010.06.03 20:04:27.
