data_PCOD9137415
_publ_section_title
;
Structure prediction by ZEFSAII (Michael W. Deem and Ramdas Pophale) SiO2 
 PCOD9137415
Probable space group: C C
;
_chemical_formula_sum "Si O2"
_cell_formula_units_Z 32
_cell_length_a 24.611286
_cell_length_b 5.590116
_cell_length_c 18.328922
_cell_angle_alpha 90.000000
_cell_angle_beta 147.899627
_cell_angle_gamma 90.000000
_cell_volume 1340.037483
_symmetry_space_group_name_H-M "C C"
_symmetry_group_IT_number 9
_symmetry_cell_setting 'monoclinic'
loop_
_space_group_symop_operation_xyz
x,y,z
x,-y,1/2+z
1/2+x,1/2+y,z
1/2+x,1/2-y,1/2+z
loop_
_atom_site_type_symbol
_atom_site_label
_atom_site_fract_x
_atom_site_fract_y
_atom_site_fract_z
Si Si1 0.641900 0.531263 0.163100
Si Si2 0.425696 0.655069 0.445470
Si Si3 0.005455 0.810694 0.741235
Si Si4 0.384963 0.690631 0.654276
Si Si5 0.719543 0.836805 0.518356
Si Si6 0.201048 0.483819 0.656501
Si Si7 0.350109 0.987495 0.983219
Si Si8 0.409508 0.930181 0.277763
O O1 0.666650 0.278653 0.148570
O O2 0.737661 0.566531 0.326375
O O3 0.644507 0.780200 0.121446
O O4 0.530684 0.489841 0.071369
O O5 0.322332 0.501794 0.314210
O O6 0.437535 0.822528 0.386811
O O7 0.401887 0.828902 0.485743
O O8 0.928873 0.724037 0.591258
O O9 0.971363 0.697052 0.781699
O O10 0.985923 0.088951 0.731184
O O11 0.121515 0.741432 0.862478
O O12 0.298680 0.492282 0.562604
O O13 0.340381 0.888404 0.550630
O O14 0.416640 0.790138 0.769079
O O15 0.688186 0.980293 0.554983
O O16 0.789089 0.624984 0.629890
#
# Coordination Sequence:
#
# PCOD9137415 Si02
#       8
#     4   4   4   4   4   4   4   4
#     4  11  25  47  72 106 149 189 242 301 364 431
#     4  10  23  47  73 103 141 195 239 301 373 420
#     4  10  22  44  65 102 140 187 235 292 363 425
#     4  10  23  44  66  99 145 182 238 301 349 441
#     4  10  22  41  72  99 139 185 238 295 368 419
#     4  10  25  46  71 111 143 182 247 308 352 439
#     4  10  25  43  67 103 148 185 246 291 353 444
#     4   9  21  44  66 103 133 179 241 299 356 425
#
# _framework density 23.879930000000002
#
# number of rings (size 3 to 8) (size 9 to 14) (size 15 to 20)
#    0.000    2.000    0.000    0.750   10.500    4.000 
#   24.750    0.000    0.000    0.000    0.000    0.000 
#    0.000    0.000    0.000    0.000    0.000    0.000 
#
# Total GULP energy -89433.012221 kJ/mol
# GULP energy per Si atom -5589.563264 kJ/mol
# Density = 2.382558 g / cm^3
# Si number density = 23.879930 Si / 1000 Ang^3
#
#
#
# Elastic Constant Matrix: (Units=GPa)
#
#
# Indices 1 2 3 4 5 6 
#
# 1 79.8608 24.6981 37.1742 0.0000 -0.9665 0.0000
# 2 24.6981 85.6310 34.1760 -0.0001 7.7140 0.0001
# 3 37.1742 34.1760 138.0601 0.0000 17.6118 0.0000
# 4 0.0000 -0.0001 0.0000 6.9830 0.0000 -6.8454
# 5 -0.9665 7.7140 17.6118 0.0000 34.8343 0.0000
# 6 0.0000 0.0001 0.0000 -6.8454 0.0000 40.2581
#
#
#
# Elastic Compliance Matrix: (Units=1/GPa)
#
#
# Indices 1 2 3 4 5 6 
#
# 1 0.015271 -0.003197 -0.003704 0.000000 0.003004 0.000000
# 2 -0.003197 0.013686 -0.002276 0.000000 -0.001969 0.000000
# 3 -0.003704 -0.002276 0.009356 0.000000 -0.004329 0.000000
# 4 0.000000 0.000000 0.000000 0.171849 0.000000 0.029221
# 5 0.003004 -0.001969 -0.004329 0.000000 0.031415 0.000000
# 6 0.000000 0.000000 0.000000 0.029221 0.000000 0.029808
#
#
# Mechanical properties :
#
#
# Convention : Reuss Voigt Hill
#
# Bulk Modulus (GPa) = 50.10095 55.07206 52.58651
# Shear Modulus (GPa) = 16.86953 30.24865 23.55909
#
# Velocity S-wave (km/s) = 2.66076 3.56293 3.14437
# Velocity P-wave (km/s) = 5.51955 6.32757 5.93732
#
# Compressibility (1/GPa) = 0.01995970
#
# Stress axis : x y z
#
# Youngs Moduli (GPa) = 65.48411 73.06858 106.88198
#
# Poissons Ratio (x) = 0.23360 0.39586
# Poissons Ratio (y) = 0.20935 0.24325
# Poissons Ratio (z) = 0.24253 0.16630
#
# Static dielectric constant tensor:
#      x y z
#    x 1.921020 0.000000 0.002990 
#    y 0.000000 2.019300 0.000000 
#    z 0.002990 0.000000 1.918910 
# 
# From -- ./inp_files/34571.got.cif
#   From: 2010.05.17/outbox.cif.g08.bks.cpg/sg9_18_cif.got.tgz:34571.got - 2010.06.03 20:04:27.
