data_PCOD9137385
_publ_section_title
;
Structure prediction by ZEFSAII (Michael W. Deem and Ramdas Pophale) SiO2 
 PCOD9137385
Probable space group: C C
;
_chemical_formula_sum "Si O2"
_cell_formula_units_Z 32
_cell_length_a 6.680388
_cell_length_b 13.833161
_cell_length_c 16.196008
_cell_angle_alpha 90.000000
_cell_angle_beta 119.674644
_cell_angle_gamma 90.000000
_cell_volume 1300.397881
_symmetry_space_group_name_H-M "C C"
_symmetry_group_IT_number 9
_symmetry_cell_setting 'monoclinic'
loop_
_space_group_symop_operation_xyz
x,y,z
x,-y,1/2+z
1/2+x,1/2+y,z
1/2+x,1/2-y,1/2+z
loop_
_atom_site_type_symbol
_atom_site_label
_atom_site_fract_x
_atom_site_fract_y
_atom_site_fract_z
Si Si1 0.360210 0.724404 0.035730
Si Si2 0.812239 0.387282 0.647197
Si Si3 0.900429 0.540958 0.343408
Si Si4 0.621691 0.156064 0.831823
Si Si5 0.686470 0.128057 0.525605
Si Si6 0.677122 0.935323 0.614458
Si Si7 0.983891 0.944619 0.294543
Si Si8 0.625897 0.706702 0.682130
O O1 0.570073 0.649939 0.066608
O O2 0.517436 0.821940 0.059951
O O3 0.232125 0.671253 0.087657
O O4 0.188179 0.722035 0.923246
O O5 0.787621 0.429336 0.733261
O O6 0.920412 0.449564 0.596604
O O7 0.009844 0.304225 0.693146
O O8 0.708663 0.503141 0.368646
O O9 0.051913 0.448248 0.353102
O O10 0.048771 0.626986 0.412058
O O11 0.841917 0.127826 0.822510
O O12 0.404647 0.198897 0.736154
O O13 0.939656 0.175174 0.573746
O O14 0.719621 0.016115 0.554673
O O15 0.824576 0.971878 0.722789
O O16 0.072371 0.876383 0.239015
#
# Coordination Sequence:
#
# PCOD9137385 Si02
#       8
#     4   4   4   4   4   4   4   4
#     4  11  25  45  66 103 137 181 233 297 346 432
#     4  11  24  42  70  97 138 180 226 289 352 420
#     4  11  22  43  66 101 138 180 234 285 355 430
#     4  11  23  42  71  98 137 180 234 292 358 428
#     4  10  24  45  69  98 140 184 231 300 355 424
#     4  11  22  44  67  96 137 180 231 281 356 426
#     4  10  22  41  69  97 134 183 222 286 356 419
#     4   9  24  44  64  98 137 178 231 290 350 429
#
# _framework density 24.607852000000001
#
# number of rings (size 3 to 8) (size 9 to 14) (size 15 to 20)
#    0.000    1.500    3.750    0.000    3.500    4.000 
#    2.250    0.000    0.000    0.000    0.000    0.000 
#    0.000    0.000    0.000    0.000    0.000    0.000 
#
# Total GULP energy -89224.669638 kJ/mol
# GULP energy per Si atom -5576.541852 kJ/mol
# Density = 2.455184 g / cm^3
# Si number density = 24.607852 Si / 1000 Ang^3
#
#
#
# Elastic Constant Matrix: (Units=GPa)
#
#
# Indices 1 2 3 4 5 6 
#
# 1 74.8105 -10.3132 2.5937 0.0000 3.7334 0.0000
# 2 -10.3132 69.4896 6.3237 0.0000 -1.5520 0.0000
# 3 2.5937 6.3237 72.5925 0.0000 1.7845 0.0000
# 4 0.0000 0.0000 0.0000 23.1601 0.0000 8.5378
# 5 3.7334 -1.5520 1.7845 0.0000 20.6076 0.0000
# 6 0.0000 0.0000 0.0000 8.5378 0.0000 40.4275
#
#
#
# Elastic Compliance Matrix: (Units=1/GPa)
#
#
# Indices 1 2 3 4 5 6 
#
# 1 0.013785 0.002051 -0.000615 0.000000 -0.002290 0.000000
# 2 0.002051 0.014841 -0.001387 0.000000 0.000866 0.000000
# 3 -0.000615 -0.001387 0.013948 0.000000 -0.001201 0.000000
# 4 0.000000 0.000000 0.000000 0.046823 0.000000 -0.009888
# 5 -0.002290 0.000866 -0.001201 0.000000 0.049110 0.000000
# 6 0.000000 0.000000 0.000000 -0.009888 0.000000 0.026824
#
#
# Mechanical properties :
#
#
# Convention : Reuss Voigt Hill
#
# Bulk Modulus (GPa) = 23.43520 23.78900 23.61210
# Shear Modulus (GPa) = 27.86181 31.39162 29.62671
#
# Velocity S-wave (km/s) = 3.36852 3.57553 3.47357
# Velocity P-wave (km/s) = 4.96723 5.17051 5.06989
#
# Compressibility (1/GPa) = 0.04267086
#
# Stress axis : x y z
#
# Youngs Moduli (GPa) = 72.54048 67.38270 71.69549
#
# Poissons Ratio (x) = -0.13819 0.04409
# Poissons Ratio (y) = -0.14876 0.09947
# Poissons Ratio (z) = 0.04461 0.09348
#
# Static dielectric constant tensor:
#      x y z
#    x 2.059280 0.000000 -0.012550 
#    y 0.000000 1.974280 0.000000 
#    z -0.012550 0.000000 1.992190 
# 
# From -- ./inp_files/28737.got.cif
#   From: 2010.05.17/outbox.cif.g08.bks.cpg/sg9_15_cif.got.tgz:28737.got - 2010.06.03 20:04:27.
