data_PCOD9137460
_publ_section_title
;
Structure prediction by ZEFSAII (Michael W. Deem and Ramdas Pophale) SiO2 
 PCOD9137460
Probable space group: C C
;
_chemical_formula_sum "Si O2"
_cell_formula_units_Z 28
_cell_length_a 15.338517
_cell_length_b 12.114976
_cell_length_c 10.488177
_cell_angle_alpha 90.000000
_cell_angle_beta 141.988170
_cell_angle_gamma 90.000000
_cell_volume 1200.224989
_symmetry_space_group_name_H-M "C C"
_symmetry_group_IT_number 9
_symmetry_cell_setting 'monoclinic'
loop_
_space_group_symop_operation_xyz
x,y,z
x,-y,1/2+z
1/2+x,1/2+y,z
1/2+x,1/2-y,1/2+z
loop_
_atom_site_type_symbol
_atom_site_label
_atom_site_fract_x
_atom_site_fract_y
_atom_site_fract_z
Si Si1 0.535980 0.988293 0.897300
Si Si2 0.767048 0.578517 0.678674
Si Si3 0.500754 0.812667 0.081082
Si Si4 0.700290 0.187712 0.044316
Si Si5 0.918919 0.764036 0.980218
Si Si6 0.695688 0.657456 0.179078
Si Si7 0.192355 0.696463 0.420808
O O1 0.377458 0.036647 0.697165
O O2 0.628495 0.093084 0.047205
O O3 0.513664 0.903743 0.986653
O O4 0.617076 0.915260 0.884873
O O5 0.672243 0.681317 0.525737
O O6 0.691388 0.471271 0.643832
O O7 0.862617 0.637935 0.897853
O O8 0.617859 0.842047 0.320825
O O9 0.553590 0.698493 0.081745
O O10 0.335079 0.811600 0.923308
O O11 0.862775 0.185120 0.281390
O O12 0.833738 0.816176 0.000768
O O13 0.081364 0.761118 0.202626
O O14 0.717127 0.727228 0.073389
#
# Coordination Sequence:
#
# PCOD9137460 Si02
#       7
#     4   4   4   4   4   4   4
#     4  10  22  42  66  93 126 185 215 263 333 398
#     4   9  22  40  64  96 126 172 221 257 339 391
#     4  10  23  40  69  92 130 169 218 270 318 402
#     4  10  24  36  63  97 128 159 226 268 324 377
#     4  10  23  39  63  99 127 173 217 273 326 391
#     4  10  22  43  64  95 124 177 217 261 328 380
#     4  11  22  42  69  92 135 171 228 264 326 407
#
# _framework density 23.328959000000001
#
# number of rings (size 3 to 8) (size 9 to 14) (size 15 to 20)
#    0.857    1.143    0.000    3.429    8.000    1.143 
#    0.000   11.429    0.000    0.000    0.000    0.000 
#    0.000    0.000    0.000    0.000    0.000    0.000 
#
# Total GULP energy -78010.330384 kJ/mol
# GULP energy per Si atom -5572.166456 kJ/mol
# Density = 2.327586 g / cm^3
# Si number density = 23.328959 Si / 1000 Ang^3
#
#
#
# Elastic Constant Matrix: (Units=GPa)
#
#
# Indices 1 2 3 4 5 6 
#
# 1 60.1644 24.2195 7.6241 0.0000 14.7795 0.0000
# 2 24.2195 115.9133 10.1668 0.0000 17.9901 0.0000
# 3 7.6241 10.1668 105.1536 0.0000 -4.0305 0.0000
# 4 0.0000 0.0000 0.0000 26.5241 0.0000 -0.4278
# 5 14.7795 17.9901 -4.0305 0.0000 28.6900 0.0000
# 6 0.0000 0.0000 0.0000 -0.4278 0.0000 19.0540
#
#
#
# Elastic Compliance Matrix: (Units=1/GPa)
#
#
# Indices 1 2 3 4 5 6 
#
# 1 0.020076 -0.002682 -0.001536 0.000000 -0.008876 0.000000
# 2 -0.002682 0.010059 -0.000972 0.000000 -0.005062 0.000000
# 3 -0.001536 -0.000972 0.009822 0.000000 0.002781 0.000000
# 4 0.000000 0.000000 0.000000 0.037715 0.000000 0.000847
# 5 -0.008876 -0.005062 0.002781 0.000000 0.042992 0.000000
# 6 0.000000 0.000000 0.000000 0.000847 0.000000 0.052501
#
#
# Mechanical properties :
#
#
# Convention : Reuss Voigt Hill
#
# Bulk Modulus (GPa) = 33.81295 40.58358 37.19826
# Shear Modulus (GPa) = 25.85241 30.80169 28.32705
#
# Velocity S-wave (km/s) = 3.33253 3.63756 3.48838
# Velocity P-wave (km/s) = 5.41600 5.92254 5.67493
#
# Compressibility (1/GPa) = 0.02957447
#
# Stress axis : x y z
#
# Youngs Moduli (GPa) = 49.81067 99.41838 101.81365
#
# Poissons Ratio (x) = 0.26669 0.15643
# Poissons Ratio (y) = 0.13362 0.09897
# Poissons Ratio (z) = 0.07653 0.09664
#
# Static dielectric constant tensor:
#      x y z
#    x 1.963280 0.000000 -0.051860 
#    y 0.000000 1.876240 0.000000 
#    z -0.051860 0.000000 1.906240 
# 
# From -- ./inp_files/20285.got.cif
#   From: 2010.05.17/outbox.cif.g08.bks.cpg/sg9_11_cif.got.tgz:20285.got - 2010.06.03 20:04:27.
