data_PCOD9137405
_publ_section_title
;
Structure prediction by ZEFSAII (Michael W. Deem and Ramdas Pophale) SiO2 
 PCOD9137405
Probable space group: C C
;
_chemical_formula_sum "Si O2"
_cell_formula_units_Z 28
_cell_length_a 21.080297
_cell_length_b 10.253673
_cell_length_c 13.270829
_cell_angle_alpha 90.000000
_cell_angle_beta 157.065934
_cell_angle_gamma 90.000000
_cell_volume 1117.771365
_symmetry_space_group_name_H-M "C C"
_symmetry_group_IT_number 9
_symmetry_cell_setting 'monoclinic'
loop_
_space_group_symop_operation_xyz
x,y,z
x,-y,1/2+z
1/2+x,1/2+y,z
1/2+x,1/2-y,1/2+z
loop_
_atom_site_type_symbol
_atom_site_label
_atom_site_fract_x
_atom_site_fract_y
_atom_site_fract_z
Si Si1 0.703370 0.148511 0.550490
Si Si2 0.169233 0.604560 0.268480
Si Si3 0.381695 0.220920 0.602039
Si Si4 0.214638 0.658500 0.108703
Si Si5 0.541498 0.265730 0.499643
Si Si6 0.843193 0.572468 0.733054
Si Si7 0.002423 0.993033 0.818316
O O1 0.655340 0.159479 0.361995
O O2 0.563460 0.193869 0.423384
O O3 0.743348 0.995733 0.633652
O O4 0.865975 0.239336 0.797675
O O5 0.166200 0.675897 0.156005
O O6 0.352882 0.551748 0.537386
O O7 0.009685 0.512414 0.019927
O O8 0.214879 0.256181 0.304689
O O9 0.351303 0.095027 0.626082
O O10 0.432605 0.350762 0.737077
O O11 0.555773 0.190093 0.805337
O O12 0.334567 0.779581 0.265814
O O13 0.537843 0.419266 0.465618
O O14 0.672049 0.510816 0.508812
#
# Coordination Sequence:
#
# PCOD9137405 Si02
#       7
#     4   4   4   4   4   4   4
#     4  11  26  45  69 107 141 188 236 300 375 433
#     4  10  23  41  66 100 141 179 237 297 354 438
#     4  10  23  43  69 103 138 186 245 295 364 444
#     4  10  23  43  70 100 134 190 241 296 362 435
#     4  11  26  44  70 107 145 188 238 304 371 446
#     4  10  22  41  71  97 133 191 235 298 368 419
#     4  10  23  43  65 102 138 184 236 296 360 441
#
# _framework density 25.049845000000001
#
# number of rings (size 3 to 8) (size 9 to 14) (size 15 to 20)
#    0.000    1.714    0.000    2.571   12.000    3.429 
#    0.000    4.286    0.000    0.000    0.000    0.000 
#    0.000    0.000    0.000    0.000    0.000    0.000 
#
# Total GULP energy -77995.380642 kJ/mol
# GULP energy per Si atom -5571.098617 kJ/mol
# Density = 2.499283 g / cm^3
# Si number density = 25.049845 Si / 1000 Ang^3
#
#
#
# Elastic Constant Matrix: (Units=GPa)
#
#
# Indices 1 2 3 4 5 6 
#
# 1 72.8354 13.7191 24.5724 0.0000 1.2148 0.0000
# 2 13.7191 80.2106 23.3191 0.0000 9.7357 0.0000
# 3 24.5724 23.3191 156.9755 0.0000 8.7810 0.0000
# 4 0.0000 0.0000 0.0000 41.5193 0.0000 14.0282
# 5 1.2148 9.7357 8.7810 0.0000 36.0908 0.0000
# 6 0.0000 0.0000 0.0000 14.0282 0.0000 26.7807
#
#
#
# Elastic Compliance Matrix: (Units=1/GPa)
#
#
# Indices 1 2 3 4 5 6 
#
# 1 0.014788 -0.001999 -0.002048 0.000000 0.000540 0.000000
# 2 -0.001999 0.013648 -0.001533 0.000000 -0.003241 0.000000
# 3 -0.002048 -0.001533 0.006987 0.000000 -0.001217 0.000000
# 4 0.000000 0.000000 0.000000 0.029264 0.000000 -0.015329
# 5 0.000540 -0.003241 -0.001217 0.000000 0.028860 0.000000
# 6 0.000000 0.000000 0.000000 -0.015329 0.000000 0.045370
#
#
# Mechanical properties :
#
#
# Convention : Reuss Voigt Hill
#
# Bulk Modulus (GPa) = 41.21681 48.13807 44.67744
# Shear Modulus (GPa) = 31.61219 37.43890 34.52555
#
# Velocity S-wave (km/s) = 3.55628 3.87017 3.71654
# Velocity P-wave (km/s) = 5.77516 6.26335 6.02420
#
# Compressibility (1/GPa) = 0.02426195
#
# Stress axis : x y z
#
# Youngs Moduli (GPa) = 67.62168 73.26908 143.12544
#
# Poissons Ratio (x) = 0.14650 0.29313
# Poissons Ratio (y) = 0.13521 0.21944
# Poissons Ratio (z) = 0.13849 0.11234
#
# Static dielectric constant tensor:
#      x y z
#    x 2.086320 0.000000 0.094650 
#    y 0.000000 2.067590 0.000000 
#    z 0.094650 0.000000 2.065890 
# 
# From -- ./inp_files/27785.got.cif
#   From: 2010.05.17/outbox.cif.g08.bks.cpg/sg9_14_cif.got.tgz:27785.got - 2010.06.03 20:04:27.
