data_PCOD9137903
_publ_section_title
;
Structure prediction by ZEFSAII (Michael W. Deem and Ramdas Pophale) SiO2 
 PCOD9137903
Probable space group: C C
;
_chemical_formula_sum "Si O2"
_cell_formula_units_Z 32
_cell_length_a 22.165444
_cell_length_b 7.027245
_cell_length_c 13.692497
_cell_angle_alpha 90.000000
_cell_angle_beta 142.936228
_cell_angle_gamma 90.000000
_cell_volume 1285.428542
_symmetry_space_group_name_H-M "C C"
_symmetry_group_IT_number 9
_symmetry_cell_setting 'monoclinic'
loop_
_space_group_symop_operation_xyz
x,y,z
x,-y,1/2+z
1/2+x,1/2+y,z
1/2+x,1/2-y,1/2+z
loop_
_atom_site_type_symbol
_atom_site_label
_atom_site_fract_x
_atom_site_fract_y
_atom_site_fract_z
Si Si1 0.329270 0.203247 0.488740
Si Si2 0.297840 0.444079 0.283005
Si Si3 0.677848 0.933112 0.945582
Si Si4 0.090871 0.573040 0.628212
Si Si5 0.514636 0.517427 0.513066
Si Si6 0.461198 0.484921 0.232901
Si Si7 0.475900 0.944516 0.800946
Si Si8 0.152750 0.958300 0.341139
O O1 0.319246 0.230255 0.358286
O O2 0.362569 0.413508 0.565165
O O3 0.415648 0.077663 0.649150
O O4 0.230540 0.119930 0.411841
O O5 0.196729 0.481884 0.213370
O O6 0.408415 0.535342 0.430452
O O7 0.266925 0.498723 0.131988
O O8 0.586857 0.922821 0.903502
O O9 0.707929 0.716024 0.961780
O O10 0.621317 0.025918 0.779290
O O11 0.057876 0.798956 0.577801
O O12 0.997012 0.494240 0.441095
O O13 0.500620 0.572755 0.384197
O O14 0.601667 0.630170 0.678692
O O15 0.436436 0.269421 0.231964
O O16 0.555816 0.508529 0.281718
#
# Coordination Sequence:
#
# PCOD9137903 Si02
#       8
#     4   4   4   4   4   4   4   4
#     4  12  24  44  73 104 140 193 247 289 367 432
#     4  11  24  41  72 101 139 189 237 299 362 424
#     4  10  24  44  69 101 145 184 239 302 360 427
#     4  10  22  45  69  99 141 185 240 298 359 428
#     4  11  23  44  69  96 141 187 230 297 360 423
#     4  10  25  48  69  99 150 181 238 304 358 419
#     4   9  23  45  69 104 140 192 238 296 362 430
#     4  11  25  43  68 102 140 187 235 301 358 429
#
# _framework density 24.894421000000001
#
# number of rings (size 3 to 8) (size 9 to 14) (size 15 to 20)
#    0.000    1.500    2.500    1.500    7.000    0.000 
#    2.250    0.000    2.750    0.000    0.000    0.000 
#    0.000    0.000    0.000    0.000    0.000    0.000 
#
# Total GULP energy -89069.180972 kJ/mol
# GULP energy per Si atom -5566.823811 kJ/mol
# Density = 2.483776 g / cm^3
# Si number density = 24.894421 Si / 1000 Ang^3
#
#
#
# Elastic Constant Matrix: (Units=GPa)
#
#
# Indices 1 2 3 4 5 6 
#
# 1 88.3743 -4.4358 41.3369 0.0000 3.3633 0.0000
# 2 -4.4358 59.4584 38.9036 0.0000 2.2896 0.0000
# 3 41.3369 38.9036 150.2423 0.0000 4.5605 0.0000
# 4 0.0000 0.0000 0.0000 23.5193 0.0000 8.9374
# 5 3.3633 2.2896 4.5605 0.0000 43.1513 0.0000
# 6 0.0000 0.0000 0.0000 8.9374 0.0000 26.6696
#
#
#
# Elastic Compliance Matrix: (Units=1/GPa)
#
#
# Indices 1 2 3 4 5 6 
#
# 1 0.013846 0.004263 -0.004889 0.000000 -0.000789 0.000000
# 2 0.004263 0.021573 -0.006736 0.000000 -0.000765 0.000000
# 3 -0.004889 -0.006736 0.009754 0.000000 -0.000292 0.000000
# 4 0.000000 0.000000 0.000000 0.048723 0.000000 -0.016328
# 5 -0.000789 -0.000765 -0.000292 0.000000 0.023307 0.000000
# 6 0.000000 0.000000 0.000000 -0.016328 0.000000 0.042968
#
#
# Mechanical properties :
#
#
# Convention : Reuss Voigt Hill
#
# Bulk Modulus (GPa) = 32.84227 49.96495 41.40361
# Shear Modulus (GPa) = 27.02028 33.48606 30.25317
#
# Velocity S-wave (km/s) = 3.29811 3.67157 3.48984
# Velocity P-wave (km/s) = 5.26542 6.17157 5.73641
#
# Compressibility (1/GPa) = 0.03044856
#
# Stress axis : x y z
#
# Youngs Moduli (GPa) = 72.22042 46.35412 102.52028
#
# Poissons Ratio (x) = -0.19759 0.50127
# Poissons Ratio (y) = -0.30784 0.69054
# Poissons Ratio (z) = 0.35312 0.31222
#
# Static dielectric constant tensor:
#      x y z
#    x 1.997080 0.000000 -0.066640 
#    y 0.000000 2.097680 0.000000 
#    z -0.066640 0.000000 2.013560 
# 
# From -- ./inp_files/28031.got.cif
#   From: 2010.05.17/outbox.cif.g08.bks.cpg/sg9_15_cif.got.tgz:28031.got - 2010.06.03 20:04:27.
