data_PCOD9137849
_publ_section_title
;
Structure prediction by ZEFSAII (Michael W. Deem and Ramdas Pophale) SiO2 
 PCOD9137849
Probable space group: C C
;
_chemical_formula_sum "Si O2"
_cell_formula_units_Z 20
_cell_length_a 13.841229
_cell_length_b 5.856719
_cell_length_c 21.685929
_cell_angle_alpha 90.000000
_cell_angle_beta 156.204946
_cell_angle_gamma 90.000000
_cell_volume 709.274508
_symmetry_space_group_name_H-M "C C"
_symmetry_group_IT_number 9
_symmetry_cell_setting 'monoclinic'
loop_
_space_group_symop_operation_xyz
x,y,z
x,-y,1/2+z
1/2+x,1/2+y,z
1/2+x,1/2-y,1/2+z
loop_
_atom_site_type_symbol
_atom_site_label
_atom_site_fract_x
_atom_site_fract_y
_atom_site_fract_z
Si Si1 0.302970 0.057030 0.640230
Si Si2 0.064856 0.811704 0.208536
Si Si3 0.231382 0.320864 0.473695
Si Si4 0.463050 0.815870 0.947616
Si Si5 0.193737 0.434205 0.191315
O O1 0.221865 0.209834 0.535467
O O2 0.484556 0.170033 0.793763
O O3 0.467976 0.858195 0.704268
O O4 0.067153 0.933808 0.530441
O O5 0.193275 0.661990 0.231337
O O6 0.233036 0.023243 0.326811
O O7 0.836283 0.928223 0.043973
O O8 0.435034 0.177625 0.557265
O O9 0.391670 0.736524 0.836009
O O10 0.670755 0.957888 0.104421
#
# Coordination Sequence:
#
# PCOD9137849 Si02
#       5
#     4   4   4   4   4
#     4  11  25  45  77 111 146 194 250 304 367 440
#     4  10  22  44  77 106 146 195 243 311 363 438
#     4  10  22  45  73 103 144 195 248 302 364 435
#     4  11  25  45  71 110 150 191 247 301 373 440
#     4  10  22  45  70 104 146 195 244 300 369 435
#
# _framework density 28.197825999999999
#
# number of rings (size 3 to 8) (size 9 to 14) (size 15 to 20)
#    0.000    1.600    0.000    4.800    2.800    4.800 
#    7.200    0.000    0.000    0.000    0.000    0.000 
#    0.000    0.000    0.000    0.000    0.000    0.000 
#
# Total GULP energy -55868.441914 kJ/mol
# GULP energy per Si atom -5586.844191 kJ/mol
# Density = 2.813365 g / cm^3
# Si number density = 28.197826 Si / 1000 Ang^3
#
#
#
# Elastic Constant Matrix: (Units=GPa)
#
#
# Indices 1 2 3 4 5 6 
#
# 1 126.1374 71.0476 71.3367 0.0007 -9.1359 -0.0003
# 2 71.0476 96.3601 88.3228 0.0012 3.1101 0.0037
# 3 71.3367 88.3228 272.6984 0.0184 -41.7867 0.0021
# 4 0.0007 0.0012 0.0184 61.8526 0.0022 16.1004
# 5 -9.1359 3.1101 -41.7867 0.0022 37.8165 -0.0005
# 6 -0.0003 0.0037 0.0021 16.1004 -0.0005 64.7520
#
#
#
# Elastic Compliance Matrix: (Units=1/GPa)
#
#
# Indices 1 2 3 4 5 6 
#
# 1 0.014305 -0.011406 0.000753 -0.000001 0.005226 0.000001
# 2 -0.011406 0.026063 -0.007474 0.000003 -0.013157 -0.000002
# 3 0.000753 -0.007474 0.007238 -0.000003 0.008795 0.000001
# 4 -0.000001 0.000003 -0.000003 0.017286 -0.000004 -0.004298
# 5 0.005226 -0.013157 0.008795 -0.000004 0.038506 0.000002
# 6 0.000001 -0.000002 0.000001 -0.004298 0.000002 0.016512
#
#
# Mechanical properties :
#
#
# Convention : Reuss Voigt Hill
#
# Bulk Modulus (GPa) = 88.08751 106.29001 97.18876
# Shear Modulus (GPa) = 31.26002 50.51680 40.88841
#
# Velocity S-wave (km/s) = 3.33317 4.23722 3.81209
# Velocity P-wave (km/s) = 6.79119 7.85589 7.34286
#
# Compressibility (1/GPa) = 0.01135235
#
# Stress axis : x y z
#
# Youngs Moduli (GPa) = 69.90489 38.36922 138.15309
#
# Poissons Ratio (x) = 0.43765 -0.10402
# Poissons Ratio (y) = 0.79735 1.03250
# Poissons Ratio (z) = -0.05263 0.28676
#
# Static dielectric constant tensor:
#      x y z
#    x 2.392630 0.000000 0.024910 
#    y 0.000000 2.246370 0.000000 
#    z 0.024910 0.000000 2.117110 
# 
# From -- ./inp_files/10225.got.cif
#   From: 2010.05.17/outbox.cif.g08.bks.cpg/sg9_6_cif.got.tgz:10225.got - 2010.06.03 20:04:27.
