data_PCOD9137832
_publ_section_title
;
Structure prediction by ZEFSAII (Michael W. Deem and Ramdas Pophale) SiO2 
 PCOD9137832
Probable space group: C C
;
_chemical_formula_sum "Si O2"
_cell_formula_units_Z 32
_cell_length_a 11.930015
_cell_length_b 7.727099
_cell_length_c 14.171463
_cell_angle_alpha 90.000000
_cell_angle_beta 65.495558
_cell_angle_gamma 90.000000
_cell_volume 1188.720401
_symmetry_space_group_name_H-M "C C"
_symmetry_group_IT_number 9
_symmetry_cell_setting 'monoclinic'
loop_
_space_group_symop_operation_xyz
x,y,z
x,-y,1/2+z
1/2+x,1/2+y,z
1/2+x,1/2-y,1/2+z
loop_
_atom_site_type_symbol
_atom_site_label
_atom_site_fract_x
_atom_site_fract_y
_atom_site_fract_z
Si Si1 0.453030 0.492117 0.268370
Si Si2 0.372045 0.070507 0.801680
Si Si3 0.866424 0.761740 0.140073
Si Si4 0.535674 0.431474 0.947646
Si Si5 0.756249 0.235136 0.909638
Si Si6 0.410338 0.037139 0.485570
Si Si7 0.664340 0.218652 0.426779
Si Si8 0.611892 0.816680 0.154495
O O1 0.455119 0.336996 0.191764
O O2 0.521999 0.509225 0.344512
O O3 0.313902 0.445845 0.357205
O O4 0.517841 0.652051 0.192993
O O5 0.394099 0.098992 0.906122
O O6 0.276637 0.227162 0.816435
O O7 0.507346 0.045081 0.714000
O O8 0.304488 0.886559 0.820286
O O9 0.719391 0.798535 0.193361
O O10 0.908614 0.896119 0.042543
O O11 0.879741 0.566500 0.091690
O O12 0.612183 0.257528 0.947443
O O13 0.612774 0.586240 0.965859
O O14 0.814903 0.308919 0.986992
O O15 0.545466 0.118427 0.428938
O O16 0.671436 0.153348 0.532166
#
# Coordination Sequence:
#
# PCOD9137832 Si02
#       8
#     4   4   4   4   4   4   4   4
#     4  12  25  42  74 106 138 197 248 299 368 450
#     4   9  22  44  72 100 140 192 231 297 373 428
#     4  12  26  45  70 110 147 195 253 304 369 444
#     4  11  22  49  70 103 152 190 243 311 364 441
#     4   9  22  45  69 104 140 192 239 294 384 426
#     4  10  22  44  73 100 148 188 238 304 370 437
#     4  11  22  47  73  98 149 190 237 303 379 434
#     4  12  25  46  69 103 148 190 243 308 369 442
#
# _framework density 26.919702999999998
#
# number of rings (size 3 to 8) (size 9 to 14) (size 15 to 20)
#    0.750    0.500    3.750    1.500    1.750    2.000 
#    0.000    1.250    0.000    0.000    0.000    0.000 
#    0.000    0.000    0.000    0.000    0.000    0.000 
#
# Total GULP energy -89087.812930 kJ/mol
# GULP energy per Si atom -5567.988308 kJ/mol
# Density = 2.685843 g / cm^3
# Si number density = 26.919703 Si / 1000 Ang^3
#
#
#
# Elastic Constant Matrix: (Units=GPa)
#
#
# Indices 1 2 3 4 5 6 
#
# 1 153.2965 12.9923 30.9466 0.0000 -14.4302 0.0000
# 2 12.9923 72.9305 -7.4217 0.0000 -3.0403 0.0000
# 3 30.9466 -7.4217 80.5319 0.0000 -8.7148 0.0000
# 4 0.0000 0.0000 0.0000 32.3414 0.0000 -8.7862
# 5 -14.4302 -3.0403 -8.7148 0.0000 52.3454 0.0000
# 6 0.0000 0.0000 0.0000 -8.7862 0.0000 38.8098
#
#
#
# Elastic Compliance Matrix: (Units=1/GPa)
#
#
# Indices 1 2 3 4 5 6 
#
# 1 0.007359 -0.001536 -0.002810 0.000000 0.001472 0.000000
# 2 -0.001536 0.014217 0.001980 0.000000 0.000732 0.000000
# 3 -0.002810 0.001980 0.013858 0.000000 0.001647 0.000000
# 4 0.000000 0.000000 0.000000 0.032946 0.000000 0.007459
# 5 0.001472 0.000732 0.001647 0.000000 0.019826 0.000000
# 6 0.000000 0.000000 0.000000 0.007459 0.000000 0.027455
#
#
# Mechanical properties :
#
#
# Convention : Reuss Voigt Hill
#
# Bulk Modulus (GPa) = 32.57132 42.19927 37.38530
# Shear Modulus (GPa) = 38.27622 42.71544 40.49583
#
# Velocity S-wave (km/s) = 3.77485 3.98775 3.88276
# Velocity P-wave (km/s) = 5.57899 6.07560 5.83258
#
# Compressibility (1/GPa) = 0.03070185
#
# Stress axis : x y z
#
# Youngs Moduli (GPa) = 135.88215 70.33725 72.16002
#
# Poissons Ratio (x) = 0.10802 0.20279
# Poissons Ratio (y) = 0.20867 -0.14285
# Poissons Ratio (z) = 0.38187 -0.13924
#
# Static dielectric constant tensor:
#      x y z
#    x 2.139580 0.000000 -0.010720 
#    y 0.000000 2.277840 0.000000 
#    z -0.010720 0.000000 2.386300 
# 
# From -- ./inp_files/24347.got.cif
#   From: 2010.05.17/outbox.cif.g08.bks.cpg/sg9_13_cif.got.tgz:24347.got - 2010.06.03 20:04:27.
