data_PCOD9137088
_publ_section_title
;
Structure prediction by ZEFSAII (Michael W. Deem and Ramdas Pophale) SiO2 
 PCOD9137088
Probable space group: C C
;
_chemical_formula_sum "Si O2"
_cell_formula_units_Z 32
_cell_length_a 15.278953
_cell_length_b 17.209144
_cell_length_c 10.029709
_cell_angle_alpha 90.000000
_cell_angle_beta 144.103094
_cell_angle_gamma 90.000000
_cell_volume 1546.259158
_symmetry_space_group_name_H-M "C C"
_symmetry_group_IT_number 9
_symmetry_cell_setting 'monoclinic'
loop_
_space_group_symop_operation_xyz
x,y,z
x,-y,1/2+z
1/2+x,1/2+y,z
1/2+x,1/2-y,1/2+z
loop_
_atom_site_type_symbol
_atom_site_label
_atom_site_fract_x
_atom_site_fract_y
_atom_site_fract_z
Si Si1 0.703170 0.381013 0.461200
Si Si2 0.179808 0.717694 0.553228
Si Si3 0.633257 0.006967 0.729095
Si Si4 0.894405 0.292427 0.507831
Si Si5 0.940585 0.307420 0.257552
Si Si6 0.428473 0.984392 0.224839
Si Si7 0.356441 0.371117 0.070971
Si Si8 0.204436 0.681001 0.879187
O O1 0.733902 0.305386 0.590872
O O2 0.762922 0.350286 0.391280
O O3 0.798406 0.457075 0.606074
O O4 0.528015 0.394289 0.263036
O O5 0.307420 0.658840 0.657755
O O6 0.140942 0.709594 0.658897
O O7 0.034220 0.700969 0.282480
O O8 0.496884 0.997080 0.664641
O O9 0.713156 0.088462 0.864093
O O10 0.562220 0.999436 0.495116
O O11 0.749338 0.938882 0.894777
O O12 0.951482 0.301837 0.429786
O O13 0.834228 0.205519 0.454042
O O14 0.877164 0.394721 0.157137
O O15 0.094115 0.307336 0.366522
O O16 0.845532 0.235080 0.084989
#
# Coordination Sequence:
#
# PCOD9137088 Si02
#       8
#     4   4   4   4   4   4   4   4
#     4  10  22  38  72  98 127 168 237 276 316 391
#     4  10  22  43  69  96 130 177 228 268 333 416
#     4  11  24  44  68  94 133 182 221 272 340 413
#     4  10  22  43  69  96 130 177 228 268 333 416
#     4  11  27  43  66  98 138 174 216 282 348 397
#     4  11  24  44  68  94 133 182 221 272 340 413
#     4  10  22  38  72  98 127 168 237 276 316 391
#     4  11  27  43  66  98 138 174 216 282 348 397
#
# _framework density 20.695108000000001
#
# number of rings (size 3 to 8) (size 9 to 14) (size 15 to 20)
#    0.000    1.500    0.000    3.750   17.500    2.000 
#    0.000    5.000    0.000    0.000    0.000    0.000 
#    0.000    0.000    0.000    0.000    0.000    0.000 
#
# Total GULP energy -89397.154282 kJ/mol
# GULP energy per Si atom -5587.322143 kJ/mol
# Density = 2.064801 g / cm^3
# Si number density = 20.695108 Si / 1000 Ang^3
#
#
#
# Elastic Constant Matrix: (Units=GPa)
#
#
# Indices 1 2 3 4 5 6 
#
# 1 81.4363 3.5461 7.1323 0.0000 -16.3315 0.0000
# 2 3.5461 92.9464 3.1037 0.0000 25.1850 0.0000
# 3 7.1323 3.1037 33.1563 0.0000 -4.2570 0.0000
# 4 0.0000 0.0000 0.0000 21.2700 0.0000 13.8910
# 5 -16.3315 25.1850 -4.2570 0.0000 39.3586 0.0000
# 6 0.0000 0.0000 0.0000 13.8910 0.0000 31.7106
#
#
#
# Elastic Compliance Matrix: (Units=1/GPa)
#
#
# Indices 1 2 3 4 5 6 
#
# 1 0.013979 -0.002405 -0.001865 0.000000 0.007138 0.000000
# 2 -0.002405 0.013608 -0.002031 0.000000 -0.009925 0.000000
# 3 -0.001865 -0.002031 0.031253 0.000000 0.003906 0.000000
# 4 0.000000 0.000000 0.000000 0.065854 0.000000 -0.028848
# 5 0.007138 -0.009925 0.003906 0.000000 0.035142 0.000000
# 6 0.000000 0.000000 0.000000 -0.028848 0.000000 0.044172
#
#
# Mechanical properties :
#
#
# Convention : Reuss Voigt Hill
#
# Bulk Modulus (GPa) = 21.62759 26.12259 23.87509
# Shear Modulus (GPa) = 21.54950 31.38497 26.46723
#
# Velocity S-wave (km/s) = 3.23040 3.89850 3.58007
# Velocity P-wave (km/s) = 4.93834 5.73711 5.35265
#
# Compressibility (1/GPa) = 0.04623723
#
# Stress axis : x y z
#
# Youngs Moduli (GPa) = 71.53557 73.48745 31.99684
#
# Poissons Ratio (x) = 0.17674 0.05969
# Poissons Ratio (y) = 0.17205 0.06498
# Poissons Ratio (z) = 0.13345 0.14924
#
# Static dielectric constant tensor:
#      x y z
#    x 1.747730 0.000000 -0.000920 
#    y 0.000000 1.765990 0.000000 
#    z -0.000920 0.000000 1.736250 
# 
# From -- ./inp_files/9962.got.cif
#   From: 2010.05.17/outbox.cif.g08.bks.cpg/sg9_5_cif.got.tgz:9962.got - 2010.06.03 20:04:27.
