data_PCOD9137506
_publ_section_title
;
Structure prediction by ZEFSAII (Michael W. Deem and Ramdas Pophale) SiO2 
 PCOD9137506
Probable space group: C C
;
_chemical_formula_sum "Si O2"
_cell_formula_units_Z 32
_cell_length_a 6.615246
_cell_length_b 17.351078
_cell_length_c 13.158907
_cell_angle_alpha 90.000000
_cell_angle_beta 110.834391
_cell_angle_gamma 90.000000
_cell_volume 1411.639489
_symmetry_space_group_name_H-M "C C"
_symmetry_group_IT_number 9
_symmetry_cell_setting 'monoclinic'
loop_
_space_group_symop_operation_xyz
x,y,z
x,-y,1/2+z
1/2+x,1/2+y,z
1/2+x,1/2-y,1/2+z
loop_
_atom_site_type_symbol
_atom_site_label
_atom_site_fract_x
_atom_site_fract_y
_atom_site_fract_z
Si Si1 0.832840 0.517228 0.248600
Si Si2 0.217728 0.248297 0.457506
Si Si3 0.873158 0.202732 0.767428
Si Si4 0.421815 0.138875 0.640621
Si Si5 0.755125 0.931332 0.731307
Si Si6 0.586579 0.448177 0.377435
Si Si7 0.294589 0.738383 0.288198
Si Si8 0.435390 0.405575 0.573149
O O1 0.861097 0.444379 0.175116
O O2 0.794731 0.482726 0.355216
O O3 0.636923 0.573206 0.181819
O O4 0.047433 0.563767 0.265081
O O5 0.277159 0.257733 0.350185
O O6 0.296238 0.167885 0.518745
O O7 0.352461 0.318993 0.533134
O O8 0.955939 0.255848 0.412339
O O9 0.677766 0.158936 0.675710
O O10 0.046705 0.138111 0.831776
O O11 0.033363 0.261927 0.743595
O O12 0.346398 0.198377 0.713436
O O13 0.856703 0.847581 0.766787
O O14 0.736856 0.939820 0.605348
O O15 0.899237 0.000435 0.796182
O O16 0.523972 0.443275 0.484737
#
# Coordination Sequence:
#
# PCOD9137506 Si02
#       8
#     4   4   4   4   4   4   4   4
#     4  11  24  41  70  99 132 180 220 283 337 398
#     4  10  24  42  67  98 134 174 228 276 334 408
#     4  10  22  42  68  94 127 185 219 272 339 405
#     4  11  22  44  67  96 134 171 228 282 333 408
#     4  11  24  43  66 101 136 174 225 281 335 400
#     4  10  22  44  66  93 136 177 224 269 341 406
#     4  11  24  42  69  96 136 174 222 281 340 394
#     4  10  24  44  69  97 133 177 228 272 339 407
#
# _framework density 22.668676999999999
#
# number of rings (size 3 to 8) (size 9 to 14) (size 15 to 20)
#    0.000    1.500    3.750    0.000    3.500    5.000 
#    2.250    0.000    0.000    0.000    0.000    0.000 
#    0.000    0.000    0.000    0.000    0.000    0.000 
#
# Total GULP energy -89073.741984 kJ/mol
# GULP energy per Si atom -5567.108874 kJ/mol
# Density = 2.261708 g / cm^3
# Si number density = 22.668677 Si / 1000 Ang^3
#
#
#
# Elastic Constant Matrix: (Units=GPa)
#
#
# Indices 1 2 3 4 5 6 
#
# 1 115.0752 11.5426 15.2160 0.0000 -3.0861 0.0000
# 2 11.5426 95.0481 1.7244 0.0000 5.6308 0.0000
# 3 15.2160 1.7244 28.1819 0.0000 -0.8446 0.0000
# 4 0.0000 0.0000 0.0000 22.7394 0.0000 -1.6939
# 5 -3.0861 5.6308 -0.8446 0.0000 30.3630 0.0000
# 6 0.0000 0.0000 0.0000 -1.6939 0.0000 34.4526
#
#
#
# Elastic Compliance Matrix: (Units=1/GPa)
#
#
# Indices 1 2 3 4 5 6 
#
# 1 0.009495 -0.001123 -0.005027 0.000000 0.001034 0.000000
# 2 -0.001123 0.010785 -0.000117 0.000000 -0.002117 0.000000
# 3 -0.005027 -0.000117 0.038222 0.000000 0.000574 0.000000
# 4 0.000000 0.000000 0.000000 0.044138 0.000000 0.002170
# 5 0.001034 -0.002117 0.000574 0.000000 0.033448 0.000000
# 6 0.000000 0.000000 0.000000 0.002170 0.000000 0.029132
#
#
# Mechanical properties :
#
#
# Convention : Reuss Voigt Hill
#
# Bulk Modulus (GPa) = 21.75413 32.80790 27.28101
# Shear Modulus (GPa) = 25.89634 31.49916 28.69775
#
# Velocity S-wave (km/s) = 3.38358 3.73170 3.56190
# Velocity P-wave (km/s) = 4.98821 5.75080 5.38303
#
# Compressibility (1/GPa) = 0.04596829
#
# Stress axis : x y z
#
# Youngs Moduli (GPa) = 105.31829 92.72185 26.16282
#
# Poissons Ratio (x) = 0.10414 0.13152
# Poissons Ratio (y) = 0.11828 0.00306
# Poissons Ratio (z) = 0.52942 0.01085
#
# Static dielectric constant tensor:
#      x y z
#    x 1.983270 0.000000 -0.016650 
#    y 0.000000 1.804560 0.000000 
#    z -0.016650 0.000000 1.893920 
# 
# From -- ./inp_files/13508.got.cif
#   From: 2010.05.17/outbox.cif.g08.bks.cpg/sg9_7_cif.got.tgz:13508.got - 2010.06.03 20:04:27.
