data_PCOD9137512
_publ_section_title
;
Structure prediction by ZEFSAII (Michael W. Deem and Ramdas Pophale) SiO2 
 PCOD9137512
Probable space group: C C
;
_chemical_formula_sum "Si O2"
_cell_formula_units_Z 32
_cell_length_a 7.488706
_cell_length_b 12.058545
_cell_length_c 18.536595
_cell_angle_alpha 90.000000
_cell_angle_beta 130.178881
_cell_angle_gamma 90.000000
_cell_volume 1278.922634
_symmetry_space_group_name_H-M "C C"
_symmetry_group_IT_number 9
_symmetry_cell_setting 'monoclinic'
loop_
_space_group_symop_operation_xyz
x,y,z
x,-y,1/2+z
1/2+x,1/2+y,z
1/2+x,1/2-y,1/2+z
loop_
_atom_site_type_symbol
_atom_site_label
_atom_site_fract_x
_atom_site_fract_y
_atom_site_fract_z
Si Si1 0.607840 0.865745 0.930240
Si Si2 0.650247 0.121279 0.698400
Si Si3 0.690951 0.927991 0.376132
Si Si4 0.495296 0.788328 0.548462
Si Si5 0.997597 0.140517 0.174654
Si Si6 0.629142 0.686825 0.365603
Si Si7 0.445477 0.407234 0.139132
Si Si8 0.706547 0.507414 0.511216
O O1 0.388018 0.797192 0.898522
O O2 0.543758 0.965488 0.862050
O O3 0.819297 0.789455 0.956809
O O4 0.709212 0.917006 0.030362
O O5 0.696458 0.083092 0.791407
O O6 0.647517 0.254425 0.691703
O O7 0.855245 0.090991 0.696911
O O8 0.393581 0.074908 0.608927
O O9 0.577964 0.813281 0.375069
O O10 0.952876 0.961945 0.471125
O O11 0.737509 0.829331 0.580223
O O12 0.546058 0.705702 0.630787
O O13 0.347283 0.896305 0.528708
O O14 0.984078 0.145447 0.258659
O O15 0.078834 0.022695 0.166031
O O16 0.648431 0.592426 0.430737
#
# Coordination Sequence:
#
# PCOD9137512 Si02
#       8
#     4   4   4   4   4   4   4   4
#     4  10  22  45  65  92 135 174 219 271 331 393
#     4  11  24  43  68  97 133 175 221 279 331 394
#     4  11  25  45  65 100 134 173 230 270 334 398
#     4  10  22  42  68  97 127 175 225 266 333 402
#     4  11  23  41  66 100 129 169 228 273 331 397
#     4  11  24  44  65  99 135 174 220 278 330 395
#     4  10  22  43  66  90 130 176 215 272 337 387
#     4  12  22  43  71  93 137 174 220 277 333 394
#
# _framework density 25.021062000000001
#
# number of rings (size 3 to 8) (size 9 to 14) (size 15 to 20)
#    0.750    0.500    3.750    1.500    1.750    2.000 
#    6.750    0.000    0.000    0.000    0.000    0.000 
#    0.000    0.000    0.000    0.000    0.000    0.000 
#
# Total GULP energy -89390.777145 kJ/mol
# GULP energy per Si atom -5586.923572 kJ/mol
# Density = 2.496411 g / cm^3
# Si number density = 25.021062 Si / 1000 Ang^3
#
#
#
# Elastic Constant Matrix: (Units=GPa)
#
#
# Indices 1 2 3 4 5 6 
#
# 1 28.1216 5.9799 -6.5590 0.0000 -4.5555 0.0000
# 2 5.9799 160.0917 48.1379 0.0000 -19.6463 0.0000
# 3 -6.5590 48.1379 51.4889 0.0000 -1.8416 0.0000
# 4 0.0000 0.0000 0.0000 34.9780 0.0000 -6.1960
# 5 -4.5555 -19.6463 -1.8416 0.0000 29.8811 0.0000
# 6 0.0000 0.0000 0.0000 -6.1960 0.0000 35.3594
#
#
#
# Elastic Compliance Matrix: (Units=1/GPa)
#
#
# Indices 1 2 3 4 5 6 
#
# 1 0.038911 -0.003444 0.008326 0.000000 0.004181 0.000000
# 2 -0.003444 0.009892 -0.009494 0.000000 0.005393 0.000000
# 3 0.008326 -0.009494 0.029245 0.000000 -0.003170 0.000000
# 4 0.000000 0.000000 0.000000 0.029505 0.000000 0.005170
# 5 0.004181 0.005393 -0.003170 0.000000 0.037454 0.000000
# 6 0.000000 0.000000 0.000000 0.005170 0.000000 0.029187
#
#
# Mechanical properties :
#
#
# Convention : Reuss Voigt Hill
#
# Bulk Modulus (GPa) = 14.52962 37.20217 25.86590
# Shear Modulus (GPa) = 24.22969 32.85326 28.54147
#
# Velocity S-wave (km/s) = 3.11524 3.62750 3.38109
# Velocity P-wave (km/s) = 4.33119 5.69611 5.05988
#
# Compressibility (1/GPa) = 0.06882491
#
# Stress axis : x y z
#
# Youngs Moduli (GPa) = 25.69938 101.09632 34.19429
#
# Poissons Ratio (x) = 0.34817 -0.28471
# Poissons Ratio (y) = 0.08851 0.32463
# Poissons Ratio (z) = -0.21398 0.95977
#
# Static dielectric constant tensor:
#      x y z
#    x 1.973190 0.000000 0.005040 
#    y 0.000000 1.980780 0.000000 
#    z 0.005040 0.000000 1.988310 
# 
# From -- ./inp_files/32601.got.cif
#   From: 2010.05.17/outbox.cif.g08.bks.cpg/sg9_17_cif.got.tgz:32601.got - 2010.06.03 20:04:27.
