data_PCOD9137865
_publ_section_title
;
Structure prediction by ZEFSAII (Michael W. Deem and Ramdas Pophale) SiO2 
 PCOD9137865
Probable space group: C C
;
_chemical_formula_sum "Si O2"
_cell_formula_units_Z 32
_cell_length_a 15.445303
_cell_length_b 16.527141
_cell_length_c 5.367311
_cell_angle_alpha 90.000000
_cell_angle_beta 67.255758
_cell_angle_gamma 90.000000
_cell_volume 1263.556889
_symmetry_space_group_name_H-M "C C"
_symmetry_group_IT_number 9
_symmetry_cell_setting 'monoclinic'
loop_
_space_group_symop_operation_xyz
x,y,z
x,-y,1/2+z
1/2+x,1/2+y,z
1/2+x,1/2-y,1/2+z
loop_
_atom_site_type_symbol
_atom_site_label
_atom_site_fract_x
_atom_site_fract_y
_atom_site_fract_z
Si Si1 0.489820 0.196589 0.852510
Si Si2 0.269065 0.035042 0.601882
Si Si3 0.555491 0.473758 0.954463
Si Si4 0.349010 0.192216 0.622323
Si Si5 0.202490 0.297124 0.026739
Si Si6 0.431880 0.340105 0.217572
Si Si7 0.739742 0.108573 0.980081
Si Si8 0.041535 0.454583 0.596083
O O1 0.428685 0.156276 0.708847
O O2 0.592207 0.216016 0.637781
O O3 0.439688 0.280376 0.975083
O O4 0.505413 0.135780 0.068601
O O5 0.514135 0.006865 0.387064
O O6 0.307253 0.983326 0.332594
O O7 0.159643 0.007700 0.767354
O O8 0.514569 0.531167 0.218510
O O9 0.531545 0.386739 0.107772
O O10 0.396644 0.273089 0.455247
O O11 0.299181 0.126356 0.502067
O O12 0.262134 0.219991 0.888477
O O13 0.225629 0.322145 0.283768
O O14 0.223680 0.362256 0.782190
O O15 0.350135 0.408048 0.317403
O O16 0.655890 0.049586 0.993983
#
# Coordination Sequence:
#
# PCOD9137865 Si02
#       8
#     4   4   4   4   4   4   4   4
#     4  11  26  43  74 109 145 197 255 314 372 466
#     4  10  25  46  70 104 155 204 245 303 389 458
#     4  10  25  47  72 111 151 198 244 313 385 458
#     4  11  26  45  74 112 156 201 254 320 379 464
#     4  10  23  42  69 101 146 184 249 309 378 435
#     4  11  26  45  77 112 152 191 263 311 385 451
#     4  10  22  45  66 104 136 190 240 314 368 444
#     4  11  25  45  70  97 143 197 244 302 374 440
#
# _framework density 25.325333000000001
#
# number of rings (size 3 to 8) (size 9 to 14) (size 15 to 20)
#    0.000    1.500    1.250    1.500   12.250    3.000 
#    6.750    0.000    0.000    0.000    0.000    0.000 
#    0.000    0.000    0.000    0.000    0.000    0.000 
#
# Total GULP energy -89201.146472 kJ/mol
# GULP energy per Si atom -5575.071654 kJ/mol
# Density = 2.526769 g / cm^3
# Si number density = 25.325333 Si / 1000 Ang^3
#
#
#
# Elastic Constant Matrix: (Units=GPa)
#
#
# Indices 1 2 3 4 5 6 
#
# 1 106.9721 27.6985 32.3194 0.0000 -23.9667 0.0000
# 2 27.6985 71.5993 30.5130 0.0000 -8.2227 0.0000
# 3 32.3194 30.5130 128.6935 0.0000 -0.4436 0.0000
# 4 0.0000 0.0000 0.0000 41.1107 0.0000 -6.0160
# 5 -23.9667 -8.2227 -0.4436 0.0000 41.5890 0.0000
# 6 0.0000 0.0000 0.0000 -6.0160 0.0000 32.3689
#
#
#
# Elastic Compliance Matrix: (Units=1/GPa)
#
#
# Indices 1 2 3 4 5 6 
#
# 1 0.012284 -0.003009 -0.002349 0.000000 0.006459 0.000000
# 2 -0.003009 0.016666 -0.003190 0.000000 0.001527 0.000000
# 3 -0.002349 -0.003190 0.009110 0.000000 -0.001887 0.000000
# 4 0.000000 0.000000 0.000000 0.025005 0.000000 0.004647
# 5 0.006459 0.001527 -0.001887 0.000000 0.028049 0.000000
# 6 0.000000 0.000000 0.000000 0.004647 0.000000 0.031758
#
#
# Mechanical properties :
#
#
# Convention : Reuss Voigt Hill
#
# Bulk Modulus (GPa) = 47.70428 54.25851 50.98140
# Shear Modulus (GPa) = 34.02357 37.46264 35.74310
#
# Velocity S-wave (km/s) = 3.66930 3.85028 3.76088
# Velocity P-wave (km/s) = 6.06870 6.42163 6.24766
#
# Compressibility (1/GPa) = 0.02096248
#
# Stress axis : x y z
#
# Youngs Moduli (GPa) = 81.40433 60.00327 109.76565
#
# Poissons Ratio (x) = 0.18057 0.25787
# Poissons Ratio (y) = 0.24497 0.35020
# Poissons Ratio (z) = 0.19124 0.19144
#
# Static dielectric constant tensor:
#      x y z
#    x 2.169870 0.000000 0.037300 
#    y 0.000000 2.027750 0.000000 
#    z 0.037300 0.000000 2.006550 
# 
# From -- ./inp_files/2694.got.cif
#   From: 2010.05.17/outbox.cif.g08.bks.cpg/sg9_2_cif.got.tgz:2694.got - 2010.06.03 20:04:27.
