data_PCOD9137054
_publ_section_title
;
Structure prediction by ZEFSAII (Michael W. Deem and Ramdas Pophale) SiO2 
 PCOD9137054
Probable space group: C C
;
_chemical_formula_sum "Si O2"
_cell_formula_units_Z 28
_cell_length_a 14.299729
_cell_length_b 5.244552
_cell_length_c 22.250394
_cell_angle_alpha 90.000000
_cell_angle_beta 42.503730
_cell_angle_gamma 90.000000
_cell_volume 1127.426158
_symmetry_space_group_name_H-M "C C"
_symmetry_group_IT_number 9
_symmetry_cell_setting 'monoclinic'
loop_
_space_group_symop_operation_xyz
x,y,z
x,-y,1/2+z
1/2+x,1/2+y,z
1/2+x,1/2-y,1/2+z
loop_
_atom_site_type_symbol
_atom_site_label
_atom_site_fract_x
_atom_site_fract_y
_atom_site_fract_z
Si Si1 0.981420 0.883528 0.415510
Si Si2 0.651642 0.553092 0.630330
Si Si3 0.917767 0.384052 0.385529
Si Si4 0.413715 0.817337 0.073840
Si Si5 0.563321 0.063737 0.614337
Si Si6 0.208378 0.425262 0.758293
Si Si7 0.369209 0.348409 0.790003
O O1 0.890105 0.661834 0.426044
O O2 0.987260 0.809912 0.482326
O O3 0.129822 0.838112 0.313727
O O4 0.925986 0.162030 0.430549
O O5 0.785624 0.524591 0.607546
O O6 0.642125 0.332114 0.585004
O O7 0.507101 0.518152 0.735007
O O8 0.643605 0.832324 0.605681
O O9 0.082046 0.417862 0.289615
O O10 0.831150 0.279675 0.370696
O O11 0.514519 0.972248 0.069585
O O12 0.335465 0.611576 0.153473
O O13 0.427290 0.122347 0.719396
O O14 0.264577 0.506050 0.797507
#
# Coordination Sequence:
#
# PCOD9137054 Si02
#       7
#     4   4   4   4   4   4   4
#     4  10  25  44  62 101 128 180 221 270 342 393
#     4  10  22  38  63 102 122 171 224 263 331 397
#     4  10  22  44  60  95 136 164 226 272 328 397
#     4  11  22  47  70  94 142 177 221 288 330 401
#     4   9  23  38  63 102 125 167 227 262 335 393
#     4   9  22  44  67  97 131 182 216 281 335 393
#     4   9  20  39  65  95 126 173 219 268 329 398
#
# _framework density 24.835331
#
# number of rings (size 3 to 8) (size 9 to 14) (size 15 to 20)
#    1.714    0.571    0.000    1.714    2.000    6.857 
#    7.714    0.000    0.000    0.000    0.000    0.000 
#    0.000    0.000    0.000    0.000    0.000    0.000 
#
# Total GULP energy -78135.889482 kJ/mol
# GULP energy per Si atom -5581.134963 kJ/mol
# Density = 2.477881 g / cm^3
# Si number density = 24.835331 Si / 1000 Ang^3
#
#
#
# Elastic Constant Matrix: (Units=GPa)
#
#
# Indices 1 2 3 4 5 6 
#
# 1 122.2149 7.2111 -3.6066 0.0001 23.5252 0.0019
# 2 7.2111 72.8196 4.0710 0.0050 -4.6346 0.0061
# 3 -3.6066 4.0710 68.0993 -0.0017 18.4805 0.0030
# 4 0.0001 0.0050 -0.0017 23.1918 -0.0004 -5.4037
# 5 23.5252 -4.6346 18.4805 -0.0004 39.6336 -0.0011
# 6 0.0019 0.0061 0.0030 -5.4037 -0.0011 16.3909
#
#
#
# Elastic Compliance Matrix: (Units=1/GPa)
#
#
# Indices 1 2 3 4 5 6 
#
# 1 0.009724 -0.001560 0.002546 0.000000 -0.007142 -0.000002
# 2 -0.001560 0.014212 -0.001871 -0.000005 0.003460 -0.000006
# 3 0.002546 -0.001871 0.017632 0.000001 -0.009952 -0.000003
# 4 0.000000 -0.000005 0.000001 0.046707 0.000000 0.015398
# 5 -0.007142 0.003460 -0.009952 0.000000 0.034515 0.000004
# 6 -0.000002 -0.000006 -0.000003 0.015398 0.000004 0.066086
#
#
# Mechanical properties :
#
#
# Convention : Reuss Voigt Hill
#
# Bulk Modulus (GPa) = 25.12668 30.94276 28.03472
# Shear Modulus (GPa) = 24.52050 32.87381 28.69715
#
# Velocity S-wave (km/s) = 3.14558 3.64218 3.40295
# Velocity P-wave (km/s) = 4.83034 5.49304 5.17231
#
# Compressibility (1/GPa) = 0.03979834
#
# Stress axis : x y z
#
# Youngs Moduli (GPa) = 102.83629 70.36369 56.71570
#
# Poissons Ratio (x) = 0.10976 -0.14442
# Poissons Ratio (y) = 0.16041 0.10613
# Poissons Ratio (z) = -0.26186 0.13167
#
# Static dielectric constant tensor:
#      x y z
#    x 2.005990 -0.000010 -0.061950 
#    y -0.000010 1.897800 0.000000 
#    z -0.061950 0.000000 2.072100 
# 
# From -- ./inp_files/33454.got.cif
#   From: 2010.05.17/outbox.cif.g08.bks.cpg/sg9_17_cif.got.tgz:33454.got - 2010.06.03 20:04:27.
