data_PCOD9137353
_publ_section_title
;
Structure prediction by ZEFSAII (Michael W. Deem and Ramdas Pophale) SiO2 
 PCOD9137353
Probable space group: C C
;
_chemical_formula_sum "Si O2"
_cell_formula_units_Z 32
_cell_length_a 11.772583
_cell_length_b 10.067055
_cell_length_c 13.587638
_cell_angle_alpha 90.000000
_cell_angle_beta 117.302459
_cell_angle_gamma 90.000000
_cell_volume 1430.946118
_symmetry_space_group_name_H-M "C C"
_symmetry_group_IT_number 9
_symmetry_cell_setting 'monoclinic'
loop_
_space_group_symop_operation_xyz
x,y,z
x,-y,1/2+z
1/2+x,1/2+y,z
1/2+x,1/2-y,1/2+z
loop_
_atom_site_type_symbol
_atom_site_label
_atom_site_fract_x
_atom_site_fract_y
_atom_site_fract_z
Si Si1 0.712140 0.973346 0.202340
Si Si2 0.660507 0.550771 0.203164
Si Si3 0.298525 0.704816 0.374744
Si Si4 0.495390 0.206828 0.614267
Si Si5 0.310131 0.750714 0.881604
Si Si6 0.911509 0.404131 0.276898
Si Si7 0.020980 0.315443 0.812470
Si Si8 0.913021 0.874272 0.121680
O O1 0.566415 0.932730 0.116683
O O2 0.740891 0.874836 0.306586
O O3 0.802850 0.936722 0.146775
O O4 0.751226 0.114510 0.263412
O O5 0.597715 0.679371 0.126835
O O6 0.729218 0.618418 0.324122
O O7 0.774531 0.472188 0.194772
O O8 0.542370 0.458520 0.181669
O O9 0.380600 0.825045 0.363933
O O10 0.374293 0.632957 0.492371
O O11 0.162865 0.740798 0.369007
O O12 0.361964 0.244117 0.511114
O O13 0.463318 0.197252 0.716603
O O14 0.439283 0.758703 0.868940
O O15 0.010449 0.526228 0.320599
O O16 0.948523 0.267516 0.684720
#
# Coordination Sequence:
#
# PCOD9137353 Si02
#       8
#     4   4   4   4   4   4   4   4
#     4  10  22  41  66  99 137 178 235 289 331 422
#     4  10  22  43  62 100 137 168 236 279 328 426
#     4  12  23  43  68 100 136 188 228 289 354 404
#     4  11  21  43  66  97 137 181 224 283 347 407
#     4   9  21  40  68  94 132 187 219 281 356 396
#     4  11  24  43  66  98 137 172 231 289 337 414
#     4  10  22  43  62  97 136 169 237 282 334 426
#     4  11  23  44  68  95 140 187 226 290 355 405
#
# _framework density 22.362828
#
# number of rings (size 3 to 8) (size 9 to 14) (size 15 to 20)
#    0.000    1.500    2.500    3.000    0.000    2.000 
#   13.500    0.000    0.000    0.000    0.000    0.000 
#    0.000    0.000    0.000    0.000    0.000    0.000 
#
# Total GULP energy -89272.910652 kJ/mol
# GULP energy per Si atom -5579.556916 kJ/mol
# Density = 2.231193 g / cm^3
# Si number density = 22.362828 Si / 1000 Ang^3
#
#
#
# Elastic Constant Matrix: (Units=GPa)
#
#
# Indices 1 2 3 4 5 6 
#
# 1 97.5571 2.9796 6.7672 0.0000 -6.0524 0.0000
# 2 2.9796 54.7514 2.8822 0.0000 -8.2076 0.0000
# 3 6.7672 2.8822 48.2804 0.0000 3.3175 0.0000
# 4 0.0000 0.0000 0.0000 14.0956 0.0000 4.3741
# 5 -6.0524 -8.2076 3.3175 0.0000 23.4109 0.0000
# 6 0.0000 0.0000 0.0000 4.3741 0.0000 45.1370
#
#
#
# Elastic Compliance Matrix: (Units=1/GPa)
#
#
# Indices 1 2 3 4 5 6 
#
# 1 0.010551 -0.000044 -0.001679 0.000000 0.002950 0.000000
# 2 -0.000044 0.019406 -0.001635 0.000000 0.007024 0.000000
# 3 -0.001679 -0.001635 0.021322 0.000000 -0.004029 0.000000
# 4 0.000000 0.000000 0.000000 0.073144 0.000000 -0.007088
# 5 0.002950 0.007024 -0.004029 0.000000 0.046511 0.000000
# 6 0.000000 0.000000 0.000000 -0.007088 0.000000 0.022842
#
#
# Mechanical properties :
#
#
# Convention : Reuss Voigt Hill
#
# Bulk Modulus (GPa) = 22.43964 25.09409 23.76686
# Shear Modulus (GPa) = 23.21850 29.05937 26.13893
#
# Velocity S-wave (km/s) = 3.22570 3.60870 3.42256
# Velocity P-wave (km/s) = 4.89180 5.34877 5.12538
#
# Compressibility (1/GPa) = 0.04456399
#
# Stress axis : x y z
#
# Youngs Moduli (GPa) = 94.77554 51.53117 46.89967
#
# Poissons Ratio (x) = 0.00224 0.07875
# Poissons Ratio (y) = 0.00412 0.07668
# Poissons Ratio (z) = 0.15913 0.08425
#
# Static dielectric constant tensor:
#      x y z
#    x 1.825660 0.000000 0.032640 
#    y 0.000000 1.889650 0.000000 
#    z 0.032640 0.000000 1.877060 
# 
# From -- ./inp_files/16484.got.cif
#   From: 2010.05.17/outbox.cif.g08.bks.cpg/sg9_9_cif.got.tgz:16484.got - 2010.06.03 20:04:27.
