data_PCOD9137792
_publ_section_title
;
Structure prediction by ZEFSAII (Michael W. Deem and Ramdas Pophale) SiO2 
 PCOD9137792
Probable space group: C C
;
_chemical_formula_sum "Si O2"
_cell_formula_units_Z 24
_cell_length_a 12.158555
_cell_length_b 10.092830
_cell_length_c 20.132489
_cell_angle_alpha 90.000000
_cell_angle_beta 157.214770
_cell_angle_gamma 90.000000
_cell_volume 956.786727
_symmetry_space_group_name_H-M "C C"
_symmetry_group_IT_number 9
_symmetry_cell_setting 'monoclinic'
loop_
_space_group_symop_operation_xyz
x,y,z
x,-y,1/2+z
1/2+x,1/2+y,z
1/2+x,1/2-y,1/2+z
loop_
_atom_site_type_symbol
_atom_site_label
_atom_site_fract_x
_atom_site_fract_y
_atom_site_fract_z
Si Si1 0.902890 0.966648 0.798430
Si Si2 0.576013 0.359764 0.210121
Si Si3 0.766487 0.127868 0.405415
Si Si4 0.759822 0.221634 0.650592
Si Si5 0.634890 0.650934 0.299214
Si Si6 0.000808 0.423311 0.173572
O O1 0.943943 0.112875 0.791603
O O2 0.603605 0.985739 0.668436
O O3 0.035357 0.734333 0.694188
O O4 0.166651 0.945702 0.994283
O O5 0.773010 0.244809 0.352666
O O6 0.284232 0.324799 0.087192
O O7 0.663269 0.507641 0.280250
O O8 0.508355 0.355276 0.094757
O O9 0.449483 0.149204 0.260791
O O10 0.718610 0.983032 0.348744
O O11 0.938780 0.870433 0.755335
O O12 0.939771 0.703608 0.492787
#
# Coordination Sequence:
#
# PCOD9137792 Si02
#       6
#     4   4   4   4   4   4
#     4  11  24  48  73 103 151 193 247 310 377 442
#     4   9  23  42  72 105 143 195 246 307 370 460
#     4  10  22  44  69 109 143 195 243 305 384 447
#     4   9  21  43  77  95 146 199 240 292 390 452
#     4  11  24  44  76 107 143 198 257 307 374 456
#     4  12  26  45  75 109 150 196 251 317 381 449
#
# _framework density 25.083959
#
# number of rings (size 3 to 8) (size 9 to 14) (size 15 to 20)
#    1.000    0.667    1.667    2.000    4.667    0.000 
#   15.000    0.000    0.000    0.000    0.000    0.000 
#    0.000    0.000    0.000    0.000    0.000    0.000 
#
# Total GULP energy -66873.693136 kJ/mol
# GULP energy per Si atom -5572.807761 kJ/mol
# Density = 2.502687 g / cm^3
# Si number density = 25.083959 Si / 1000 Ang^3
#
#
#
# Elastic Constant Matrix: (Units=GPa)
#
#
# Indices 1 2 3 4 5 6 
#
# 1 64.7361 39.7646 33.1598 0.0058 4.5223 0.0027
# 2 39.7646 140.9061 43.4871 0.0168 -12.9361 0.0014
# 3 33.1598 43.4871 98.2790 0.0508 -13.8166 0.0059
# 4 0.0058 0.0168 0.0508 25.5775 0.0075 -9.0155
# 5 4.5223 -12.9361 -13.8166 0.0075 56.7881 0.0012
# 6 0.0027 0.0014 0.0059 -9.0155 0.0012 31.0471
#
#
#
# Elastic Compliance Matrix: (Units=1/GPa)
#
#
# Indices 1 2 3 4 5 6 
#
# 1 0.021592 -0.004689 -0.005801 0.000012 -0.004199 0.000003
# 2 -0.004689 0.009295 -0.002258 -0.000001 0.001941 0.000000
# 3 -0.005801 -0.002258 0.013589 -0.000029 0.003254 -0.000011
# 4 0.000012 -0.000001 -0.000029 0.043555 -0.000014 0.012648
# 5 -0.004199 0.001941 0.003254 -0.000014 0.019178 -0.000005
# 6 0.000003 0.000000 -0.000011 0.012648 -0.000005 0.035882
#
#
# Mechanical properties :
#
#
# Convention : Reuss Voigt Hill
#
# Bulk Modulus (GPa) = 52.68426 59.63824 56.16125
# Shear Modulus (GPa) = 28.58563 35.18316 31.88440
#
# Velocity S-wave (km/s) = 3.37946 3.74921 3.56913
# Velocity P-wave (km/s) = 6.02299 6.52451 6.27876
#
# Compressibility (1/GPa) = 0.01898100
#
# Stress axis : x y z
#
# Youngs Moduli (GPa) = 46.31327 107.58215 73.58880
#
# Poissons Ratio (x) = 0.50441 0.42688
# Poissons Ratio (y) = 0.21714 0.16617
# Poissons Ratio (z) = 0.26866 0.24293
#
# Static dielectric constant tensor:
#      x y z
#    x 2.147140 0.000000 -0.080690 
#    y 0.000000 1.957290 -0.000010 
#    z -0.080690 -0.000010 1.920270 
# 
# From -- ./inp_files/35640.got.cif
#   From: 2010.05.17/outbox.cif.g08.bks.cpg/sg9_18_cif.got.tgz:35640.got - 2010.06.03 20:04:27.
