data_PCOD9137901
_publ_section_title
;
Structure prediction by ZEFSAII (Michael W. Deem and Ramdas Pophale) SiO2 
 PCOD9137901
Probable space group: C C
;
_chemical_formula_sum "Si O2"
_cell_formula_units_Z 32
_cell_length_a 8.779621
_cell_length_b 11.347014
_cell_length_c 21.586331
_cell_angle_alpha 90.000000
_cell_angle_beta 137.352547
_cell_angle_gamma 90.000000
_cell_volume 1456.921391
_symmetry_space_group_name_H-M "C C"
_symmetry_group_IT_number 9
_symmetry_cell_setting 'monoclinic'
loop_
_space_group_symop_operation_xyz
x,y,z
x,-y,1/2+z
1/2+x,1/2+y,z
1/2+x,1/2-y,1/2+z
loop_
_atom_site_type_symbol
_atom_site_label
_atom_site_fract_x
_atom_site_fract_y
_atom_site_fract_z
Si Si1 0.859890 0.008434 0.094390
Si Si2 0.362616 0.966633 0.898633
Si Si3 0.596472 0.449103 0.536654
Si Si4 0.857650 0.335831 0.318775
Si Si5 0.054846 0.111173 0.418523
Si Si6 0.202522 0.580805 0.830593
Si Si7 0.710810 0.301165 0.747206
Si Si8 0.907262 0.245914 0.670264
O O1 0.009346 0.003899 0.076277
O O2 0.988203 0.116656 0.168256
O O3 0.848418 0.886412 0.129735
O O4 0.604305 0.014371 0.992726
O O5 0.363182 0.870101 0.843865
O O6 0.217130 0.921406 0.911396
O O7 0.239982 0.079266 0.832311
O O8 0.657829 0.560308 0.512416
O O9 0.393379 0.385241 0.438447
O O10 0.784919 0.351024 0.598119
O O11 0.020366 0.249229 0.404169
O O12 0.670925 0.252824 0.234335
O O13 0.977446 0.417020 0.303897
O O14 0.815436 0.040808 0.342184
O O15 0.165452 0.676053 0.766384
O O16 0.836811 0.273566 0.720317
#
# Coordination Sequence:
#
# PCOD9137901 Si02
#       8
#     4   4   4   4   4   4   4   4
#     4  11  24  42  72 104 140 187 239 290 360 429
#     4  12  23  45  72 100 141 188 235 292 359 424
#     4   9  23  45  65  99 142 183 228 298 351 416
#     4  12  24  42  72 101 133 185 233 281 355 426
#     4  10  25  43  69 103 135 189 237 285 359 421
#     4  10  22  45  69  97 144 184 227 294 352 414
#     4  11  24  43  70 105 142 183 236 295 354 424
#     4  11  25  41  71 107 141 185 239 293 362 424
#
# _framework density 21.964120999999999
#
# number of rings (size 3 to 8) (size 9 to 14) (size 15 to 20)
#    0.750    0.500    3.750    1.500    3.500    2.000 
#    0.000    2.500    0.000    0.000    0.000    0.000 
#    0.000    0.000    0.000    0.000    0.000    0.000 
#
# Total GULP energy -89162.053446 kJ/mol
# GULP energy per Si atom -5572.628340 kJ/mol
# Density = 2.191413 g / cm^3
# Si number density = 21.964121 Si / 1000 Ang^3
#
#
#
# Elastic Constant Matrix: (Units=GPa)
#
#
# Indices 1 2 3 4 5 6 
#
# 1 132.7864 26.8737 21.0820 0.0000 28.4073 0.0000
# 2 26.8737 96.8280 10.2365 0.0000 -18.9957 0.0000
# 3 21.0820 10.2365 75.0710 0.0000 0.1685 0.0000
# 4 0.0000 0.0000 0.0000 36.9722 0.0000 -5.9273
# 5 28.4073 -18.9957 0.1685 0.0000 59.6562 0.0000
# 6 0.0000 0.0000 0.0000 -5.9273 0.0000 32.8491
#
#
#
# Elastic Compliance Matrix: (Units=1/GPa)
#
#
# Indices 1 2 3 4 5 6 
#
# 1 0.009884 -0.003654 -0.002264 0.000000 -0.005864 0.000000
# 2 -0.003654 0.012541 -0.000697 0.000000 0.005735 0.000000
# 3 -0.002264 -0.000697 0.014050 0.000000 0.000817 0.000000
# 4 0.000000 0.000000 0.000000 0.027853 0.000000 0.005026
# 5 -0.005864 0.005735 0.000817 0.000000 0.021379 0.000000
# 6 0.000000 0.000000 0.000000 0.005026 0.000000 0.031349
#
#
# Mechanical properties :
#
#
# Convention : Reuss Voigt Hill
#
# Bulk Modulus (GPa) = 43.02160 46.78553 44.90357
# Shear Modulus (GPa) = 36.22272 42.32837 39.27555
#
# Velocity S-wave (km/s) = 4.06541 4.39471 4.23326
# Velocity P-wave (km/s) = 6.45496 6.86283 6.66201
#
# Compressibility (1/GPa) = 0.02324414
#
# Stress axis : x y z
#
# Youngs Moduli (GPa) = 101.16856 79.74083 71.17553
#
# Poissons Ratio (x) = 0.29140 0.16117
# Poissons Ratio (y) = 0.36971 0.04958
# Poissons Ratio (z) = 0.22908 0.05555
#
# Static dielectric constant tensor:
#      x y z
#    x 1.761560 0.000000 0.010090 
#    y 0.000000 1.793910 0.000000 
#    z 0.010090 0.000000 1.876060 
# 
# From -- ./inp_files/35022.got.cif
#   From: 2010.05.17/outbox.cif.g08.bks.cpg/sg9_18_cif.got.tgz:35022.got - 2010.06.03 20:04:27.
