data_PCOD9137038
_publ_section_title
;
Structure prediction by ZEFSAII (Michael W. Deem and Ramdas Pophale) SiO2 
 PCOD9137038
Probable space group: C C
;
_chemical_formula_sum "Si O2"
_cell_formula_units_Z 24
_cell_length_a 14.652900
_cell_length_b 6.639292
_cell_length_c 18.676466
_cell_angle_alpha 90.000000
_cell_angle_beta 150.932895
_cell_angle_gamma 90.000000
_cell_volume 882.729507
_symmetry_space_group_name_H-M "C C"
_symmetry_group_IT_number 9
_symmetry_cell_setting 'monoclinic'
loop_
_space_group_symop_operation_xyz
x,y,z
x,-y,1/2+z
1/2+x,1/2+y,z
1/2+x,1/2-y,1/2+z
loop_
_atom_site_type_symbol
_atom_site_label
_atom_site_fract_x
_atom_site_fract_y
_atom_site_fract_z
Si Si1 0.279640 0.240589 0.060510
Si Si2 0.028991 0.525391 0.807716
Si Si3 0.460725 0.520149 0.923155
Si Si4 0.868988 0.263168 0.000840
Si Si5 0.721820 0.267701 0.187463
Si Si6 0.615769 0.514931 0.757435
O O1 0.405486 0.038080 0.154026
O O2 0.437245 0.412263 0.181438
O O3 0.167726 0.338848 0.918413
O O4 0.110750 0.181883 0.997546
O O5 0.168847 0.711422 0.899512
O O6 0.884681 0.577718 0.772102
O O7 0.381792 0.614818 0.941144
O O8 0.310947 0.451899 0.760917
O O9 0.566972 0.315077 0.021104
O O10 0.816156 0.479668 0.932574
O O11 0.039954 0.188560 0.166161
O O12 0.643934 0.330855 0.211540
#
# Coordination Sequence:
#
# PCOD9137038 Si02
#       6
#     4   4   4   4   4   4
#     4  10  22  38  60  86 120 156 200 246 294 350
#     4  10  22  38  58  90 120 156 202 244 296 356
#     4  10  22  40  61  89 121 157 199 245 295 355
#     4  10  22  39  60  87 121 156 200 245 296 353
#     4  10  22  39  60  87 121 156 200 245 296 353
#     4  10  22  40  61  89 121 157 199 245 295 355
#
# _framework density 27.188396000000001
#
# number of rings (size 3 to 8) (size 9 to 14) (size 15 to 20)
#    0.000    2.000    0.000    2.000    0.000   10.667 
#    0.000    0.000    0.000    0.000    0.000    0.000 
#    0.000    0.000    0.000    0.000    0.000    0.000 
#
# Total GULP energy -66983.798221 kJ/mol
# GULP energy per Si atom -5581.983185 kJ/mol
# Density = 2.712651 g / cm^3
# Si number density = 27.188396 Si / 1000 Ang^3
#
#
#
# Elastic Constant Matrix: (Units=GPa)
#
#
# Indices 1 2 3 4 5 6 
#
# 1 64.8618 28.3664 17.3154 -0.0001 10.8468 -0.0001
# 2 28.3664 65.0150 24.5195 0.0001 -1.5071 0.0001
# 3 17.3154 24.5195 111.0639 0.0002 -3.2554 0.0001
# 4 -0.0001 0.0001 0.0002 54.8163 0.0001 0.6702
# 5 10.8468 -1.5071 -3.2554 0.0001 31.7924 0.0000
# 6 -0.0001 0.0001 0.0001 0.6702 0.0000 42.6026
#
#
#
# Elastic Compliance Matrix: (Units=1/GPa)
#
#
# Indices 1 2 3 4 5 6 
#
# 1 0.020942 -0.008726 -0.001565 0.000000 -0.007719 0.000000
# 2 -0.008726 0.020419 -0.003041 0.000000 0.003634 0.000000
# 3 -0.001565 -0.003041 0.009960 0.000000 0.001410 0.000000
# 4 0.000000 0.000000 0.000000 0.018246 0.000000 -0.000287
# 5 -0.007719 0.003634 0.001410 0.000000 0.034404 0.000000
# 6 0.000000 0.000000 0.000000 -0.000287 0.000000 0.023477
#
#
# Mechanical properties :
#
#
# Convention : Reuss Voigt Hill
#
# Bulk Modulus (GPa) = 40.55420 42.37149 41.46284
# Shear Modulus (GPa) = 30.80096 37.22488 34.01292
#
# Velocity S-wave (km/s) = 3.36947 3.70421 3.54080
# Velocity P-wave (km/s) = 5.48508 5.82350 5.65682
#
# Compressibility (1/GPa) = 0.02465836
#
# Stress axis : x y z
#
# Youngs Moduli (GPa) = 47.75070 48.97311 100.39681
#
# Poissons Ratio (x) = 0.42734 0.15710
# Poissons Ratio (y) = 0.41667 0.30531
# Poissons Ratio (z) = 0.07472 0.14893
#
# Static dielectric constant tensor:
#      x y z
#    x 2.070380 0.000000 -0.016970 
#    y 0.000000 2.222440 0.000000 
#    z -0.016970 0.000000 2.060700 
# 
# From -- ./inp_files/12042.got.cif
#   From: 2010.05.17/outbox.cif.g08.bks.cpg/sg9_7_cif.got.tgz:12042.got - 2010.06.03 20:04:27.
