data_PCOD9137868
_publ_section_title
;
Structure prediction by ZEFSAII (Michael W. Deem and Ramdas Pophale) SiO2 
 PCOD9137868
Probable space group: C C
;
_chemical_formula_sum "Si O2"
_cell_formula_units_Z 32
_cell_length_a 7.853310
_cell_length_b 16.581309
_cell_length_c 12.680726
_cell_angle_alpha 90.000000
_cell_angle_beta 53.184761
_cell_angle_gamma 90.000000
_cell_volume 1321.953198
_symmetry_space_group_name_H-M "C C"
_symmetry_group_IT_number 9
_symmetry_cell_setting 'monoclinic'
loop_
_space_group_symop_operation_xyz
x,y,z
x,-y,1/2+z
1/2+x,1/2+y,z
1/2+x,1/2-y,1/2+z
loop_
_atom_site_type_symbol
_atom_site_label
_atom_site_fract_x
_atom_site_fract_y
_atom_site_fract_z
Si Si1 0.551030 0.294446 0.517440
Si Si2 0.880784 0.011246 0.432179
Si Si3 0.117624 0.093916 0.696361
Si Si4 0.209483 0.032155 0.980415
Si Si5 0.082289 0.731892 0.263046
Si Si6 0.010684 0.560048 0.696434
Si Si7 0.264344 0.709685 0.617478
Si Si8 0.152723 0.173173 0.345829
O O1 0.699318 0.370570 0.498099
O O2 0.309339 0.305797 0.647614
O O3 0.564359 0.265716 0.390352
O O4 0.641137 0.221392 0.552653
O O5 0.021586 0.092572 0.362979
O O6 0.638231 0.019077 0.554402
O O7 0.919376 0.951076 0.322960
O O8 0.993935 0.976858 0.493652
O O9 0.061767 0.186839 0.698575
O O10 0.302611 0.096250 0.716592
O O11 0.195425 0.033918 0.576588
O O12 0.408441 0.012830 0.831270
O O13 0.889153 0.672417 0.306608
O O14 0.182540 0.621799 0.680745
O O15 0.179056 0.773544 0.731883
O O16 0.506545 0.713011 0.490488
#
# Coordination Sequence:
#
# PCOD9137868 Si02
#       8
#     4   4   4   4   4   4   4   4
#     4  12  23  46  71 100 139 188 231 285 354 423
#     4  10  24  44  65  98 140 174 231 282 347 415
#     4  11  24  47  68 100 138 176 234 287 343 416
#     4  11  24  43  67  98 135 180 227 285 349 413
#     4  12  26  45  73 107 143 179 239 294 348 418
#     4  10  22  45  66  98 133 178 229 285 334 427
#     4  11  22  43  70  99 135 185 235 284 346 421
#     4  11  25  41  68 102 141 182 234 288 351 413
#
# _framework density 24.206605
#
# number of rings (size 3 to 8) (size 9 to 14) (size 15 to 20)
#    0.000    1.000    3.750    3.000    5.250    4.000 
#    6.750    0.000    0.000    0.000    0.000    0.000 
#    0.000    0.000    0.000    0.000    0.000    0.000 
#
# Total GULP energy -89374.890373 kJ/mol
# GULP energy per Si atom -5585.930648 kJ/mol
# Density = 2.415151 g / cm^3
# Si number density = 24.206605 Si / 1000 Ang^3
#
#
#
# Elastic Constant Matrix: (Units=GPa)
#
#
# Indices 1 2 3 4 5 6 
#
# 1 47.5658 -5.5920 43.4921 0.0000 4.2332 0.0000
# 2 -5.5920 93.3004 46.6387 0.0000 8.0765 0.0000
# 3 43.4921 46.6387 157.1904 0.0000 -18.7231 0.0000
# 4 0.0000 0.0000 0.0000 20.1851 0.0000 13.8782
# 5 4.2332 8.0765 -18.7231 0.0000 46.7579 0.0000
# 6 0.0000 0.0000 0.0000 13.8782 0.0000 22.0211
#
#
#
# Elastic Compliance Matrix: (Units=1/GPa)
#
#
# Indices 1 2 3 4 5 6 
#
# 1 0.036401 0.010336 -0.014432 0.000000 -0.010860 0.000000
# 2 0.010336 0.016217 -0.008523 0.000000 -0.007150 0.000000
# 3 -0.014432 -0.008523 0.013876 0.000000 0.008335 0.000000
# 4 0.000000 0.000000 0.000000 0.087422 0.000000 -0.055096
# 5 -0.010860 -0.007150 0.008335 0.000000 0.026943 0.000000
# 6 0.000000 0.000000 0.000000 -0.055096 0.000000 0.080134
#
#
# Mechanical properties :
#
#
# Convention : Reuss Voigt Hill
#
# Bulk Modulus (GPa) = 24.23871 51.90380 38.07125
# Shear Modulus (GPa) = 16.66764 32.02733 24.34748
#
# Velocity S-wave (km/s) = 2.62688 3.64137 3.17491
# Velocity P-wave (km/s) = 4.38585 6.25843 5.40387
#
# Compressibility (1/GPa) = 0.04125632
#
# Stress axis : x y z
#
# Youngs Moduli (GPa) = 27.47195 61.66421 72.06531
#
# Poissons Ratio (x) = -0.63735 1.04002
# Poissons Ratio (y) = -0.28394 0.61421
# Poissons Ratio (z) = 0.39647 0.52556
#
# Static dielectric constant tensor:
#      x y z
#    x 1.948440 0.000000 0.012420 
#    y 0.000000 2.068050 0.000000 
#    z 0.012420 0.000000 1.928220 
# 
# From -- ./inp_files/23655.got.cif
#   From: 2010.05.17/outbox.cif.g08.bks.cpg/sg9_12_cif.got.tgz:23655.got - 2010.06.03 20:04:27.
