data_PCOD9137870
_publ_section_title
;
Structure prediction by ZEFSAII (Michael W. Deem and Ramdas Pophale) SiO2 
 PCOD9137870
Probable space group: C C
;
_chemical_formula_sum "Si O2"
_cell_formula_units_Z 32
_cell_length_a 19.545318
_cell_length_b 5.040266
_cell_length_c 20.490351
_cell_angle_alpha 90.000000
_cell_angle_beta 139.818046
_cell_angle_gamma 90.000000
_cell_volume 1302.421201
_symmetry_space_group_name_H-M "C C"
_symmetry_group_IT_number 9
_symmetry_cell_setting 'monoclinic'
loop_
_space_group_symop_operation_xyz
x,y,z
x,-y,1/2+z
1/2+x,1/2+y,z
1/2+x,1/2-y,1/2+z
loop_
_atom_site_type_symbol
_atom_site_label
_atom_site_fract_x
_atom_site_fract_y
_atom_site_fract_z
Si Si1 0.983080 0.570602 0.356370
Si Si2 0.669699 0.199751 0.836456
Si Si3 0.976844 0.931059 0.226267
Si Si4 0.984337 0.423003 0.619555
Si Si5 0.614520 0.432200 0.981309
Si Si6 0.264161 0.121802 0.274067
Si Si7 0.304476 0.736707 0.047398
Si Si8 0.644843 0.870448 0.637368
O O1 0.971252 0.697819 0.275335
O O2 0.877189 0.582791 0.322310
O O3 0.028594 0.272558 0.387039
O O4 0.064635 0.777649 0.449747
O O5 0.591937 0.432282 0.806914
O O6 0.752709 0.288866 0.841084
O O7 0.585269 0.023839 0.735490
O O8 0.729133 0.075142 0.942122
O O9 0.957555 0.845623 0.136848
O O10 0.872205 0.111898 0.155834
O O11 0.025181 0.403077 0.576522
O O12 0.887113 0.611306 0.562195
O O13 0.723095 0.440900 0.020926
O O14 0.641965 0.278333 0.067244
O O15 0.203694 0.350025 0.188085
O O16 0.202884 0.843499 0.225749
#
# Coordination Sequence:
#
# PCOD9137870 Si02
#       8
#     4   4   4   4   4   4   4   4
#     4  12  27  44  72 101 148 185 241 290 365 421
#     4  10  22  45  66  99 142 176 242 290 360 420
#     4  11  23  43  69  99 138 188 232 300 354 428
#     4  10  24  41  70 100 138 185 231 298 355 425
#     4  12  27  45  69 105 142 188 237 302 346 435
#     4  11  24  45  71  99 137 195 225 299 356 426
#     4  11  25  41  71 102 135 188 238 294 354 425
#     4  11  24  46  70  99 144 179 242 289 360 422
#
# _framework density 24.569623
#
# number of rings (size 3 to 8) (size 9 to 14) (size 15 to 20)
#    0.000    1.000    2.500    3.000    7.000    2.000 
#    0.000    0.000    0.000    0.000    0.000    0.000 
#    0.000    0.000    0.000    0.000    0.000    0.000 
#
# Total GULP energy -89462.894734 kJ/mol
# GULP energy per Si atom -5591.430921 kJ/mol
# Density = 2.451370 g / cm^3
# Si number density = 24.569623 Si / 1000 Ang^3
#
#
#
# Elastic Constant Matrix: (Units=GPa)
#
#
# Indices 1 2 3 4 5 6 
#
# 1 103.6190 -0.8350 19.8547 0.0048 7.1866 -0.0139
# 2 -0.8350 73.2026 -4.8956 0.0115 7.0100 -0.0144
# 3 19.8547 -4.8956 70.3836 0.0019 -9.9510 -0.0073
# 4 0.0048 0.0115 0.0019 22.0877 0.0058 -1.1855
# 5 7.1866 7.0100 -9.9510 0.0058 27.6043 -0.0191
# 6 -0.0139 -0.0144 -0.0073 -1.1855 -0.0191 33.1427
#
#
#
# Elastic Compliance Matrix: (Units=1/GPa)
#
#
# Indices 1 2 3 4 5 6 
#
# 1 0.010621 0.000278 -0.003559 -0.000001 -0.004118 0.000001
# 2 0.000278 0.014025 0.000404 -0.000006 -0.003488 0.000004
# 3 -0.003559 0.000404 0.016181 -0.000002 0.006657 0.000006
# 4 -0.000001 -0.000006 -0.000002 0.045361 -0.000007 0.001623
# 5 -0.004118 -0.003488 0.006657 -0.000007 0.040584 0.000021
# 6 0.000001 0.000004 0.000006 0.001623 0.000021 0.030231
#
#
# Mechanical properties :
#
#
# Convention : Reuss Voigt Hill
#
# Bulk Modulus (GPa) = 28.51286 30.60592 29.55939
# Shear Modulus (GPa) = 28.66189 32.10570 30.38379
#
# Velocity S-wave (km/s) = 3.41920 3.61878 3.52041
# Velocity P-wave (km/s) = 5.21709 5.47217 5.34615
#
# Compressibility (1/GPa) = 0.03507189
#
# Stress axis : x y z
#
# Youngs Moduli (GPa) = 94.15703 71.30156 61.80052
#
# Poissons Ratio (x) = -0.01979 0.21994
# Poissons Ratio (y) = -0.02613 -0.02497
# Poissons Ratio (z) = 0.33510 -0.02881
#
# Static dielectric constant tensor:
#      x y z
#    x 1.962980 0.000010 -0.042690 
#    y 0.000010 2.004950 0.000010 
#    z -0.042690 0.000010 2.005090 
# 
# From -- ./inp_files/19813.got.cif
#   From: 2010.05.17/outbox.cif.g08.bks.cpg/sg9_10_cif.got.tgz:19813.got - 2010.06.03 20:04:27.
