data_PCOD9137686
_publ_section_title
;
Structure prediction by ZEFSAII (Michael W. Deem and Ramdas Pophale) SiO2 
 PCOD9137686
Probable space group: C C
;
_chemical_formula_sum "Si O2"
_cell_formula_units_Z 32
_cell_length_a 25.288063
_cell_length_b 11.357387
_cell_length_c 14.186032
_cell_angle_alpha 90.000000
_cell_angle_beta 159.237569
_cell_angle_gamma 90.000000
_cell_volume 1444.320959
_symmetry_space_group_name_H-M "C C"
_symmetry_group_IT_number 9
_symmetry_cell_setting 'monoclinic'
loop_
_space_group_symop_operation_xyz
x,y,z
x,-y,1/2+z
1/2+x,1/2+y,z
1/2+x,1/2-y,1/2+z
loop_
_atom_site_type_symbol
_atom_site_label
_atom_site_fract_x
_atom_site_fract_y
_atom_site_fract_z
Si Si1 0.042150 0.501953 0.864330
Si Si2 0.816626 0.837567 0.885359
Si Si3 0.618198 0.987323 0.781227
Si Si4 0.446676 0.421190 0.292638
Si Si5 0.543667 0.184848 0.523045
Si Si6 0.866943 0.735117 0.583367
Si Si7 0.650818 0.385076 0.073422
Si Si8 0.893375 0.688949 0.844280
O O1 0.075732 0.455660 0.816469
O O2 0.993269 0.403486 0.856641
O O3 0.921086 0.604522 0.649219
O O4 0.193061 0.564773 0.154081
O O5 0.729093 0.716666 0.766114
O O6 0.897562 0.798240 0.923571
O O7 0.922838 0.876862 0.145700
O O8 0.545644 0.884225 0.597462
O O9 0.549913 0.109536 0.629374
O O10 0.795437 0.990215 0.064733
O O11 0.457578 0.307533 0.377410
O O12 0.591795 0.503690 0.532068
O O13 0.714109 0.221858 0.784586
O O14 0.850111 0.729944 0.668903
O O15 0.001629 0.823467 0.784382
O O16 0.768651 0.397018 0.184431
#
# Coordination Sequence:
#
# PCOD9137686 Si02
#       8
#     4   4   4   4   4   4   4   4
#     4  11  23  44  72  96 139 183 226 292 342 407
#     4   9  20  42  69  94 129 180 225 280 347 395
#     4  12  24  46  66 101 146 175 235 288 349 417
#     4  12  24  45  66 103 140 175 230 288 339 420
#     4  12  26  42  71 101 136 183 228 279 351 411
#     4  11  21  44  70  96 141 176 232 288 341 411
#     4   9  22  40  68  96 131 178 227 278 343 402
#     4  10  22  43  70  99 132 186 227 287 344 407
#
# _framework density 22.155739000000001
#
# number of rings (size 3 to 8) (size 9 to 14) (size 15 to 20)
#    0.750    0.500    3.750    2.250    1.750    1.000 
#    4.500    0.000    0.000    0.000    0.000    0.000 
#    0.000    0.000    0.000    0.000    0.000    0.000 
#
# Total GULP energy -89381.774553 kJ/mol
# GULP energy per Si atom -5586.360910 kJ/mol
# Density = 2.210531 g / cm^3
# Si number density = 22.155739 Si / 1000 Ang^3
#
#
#
# Elastic Constant Matrix: (Units=GPa)
#
#
# Indices 1 2 3 4 5 6 
#
# 1 65.4998 -3.0834 -4.7125 0.0000 -0.2616 0.0000
# 2 -3.0834 82.0098 10.8306 0.0000 -3.7451 0.0000
# 3 -4.7125 10.8306 46.6584 0.0000 2.9517 0.0000
# 4 0.0000 0.0000 0.0000 22.7471 0.0000 0.7550
# 5 -0.2616 -3.7451 2.9517 0.0000 20.1988 0.0000
# 6 0.0000 0.0000 0.0000 0.7550 0.0000 28.9279
#
#
#
# Elastic Compliance Matrix: (Units=1/GPa)
#
#
# Indices 1 2 3 4 5 6 
#
# 1 0.015391 0.000388 0.001461 0.000000 0.000058 0.000000
# 2 0.000388 0.012746 -0.003098 0.000000 0.002821 0.000000
# 3 0.001461 -0.003098 0.022543 0.000000 -0.003850 0.000000
# 4 0.000000 0.000000 0.000000 0.044000 0.000000 -0.001148
# 5 0.000058 0.002821 -0.003850 0.000000 0.050594 0.000000
# 6 0.000000 0.000000 0.000000 -0.001148 0.000000 0.034599
#
#
# Mechanical properties :
#
#
# Convention : Reuss Voigt Hill
#
# Bulk Modulus (GPa) = 20.75474 22.24861 21.50167
# Shear Modulus (GPa) = 25.19770 27.11697 26.15733
#
# Velocity S-wave (km/s) = 3.37604 3.50226 3.43973
# Velocity P-wave (km/s) = 4.95832 5.13986 5.04990
#
# Compressibility (1/GPa) = 0.04818177
#
# Stress axis : x y z
#
# Youngs Moduli (GPa) = 64.97375 78.45460 44.36060
#
# Poissons Ratio (x) = -0.03047 -0.06480
# Poissons Ratio (y) = -0.02524 0.13743
# Poissons Ratio (z) = -0.09490 0.24305
#
# Static dielectric constant tensor:
#      x y z
#    x 1.790100 0.000000 0.005770 
#    y 0.000000 1.846960 0.000000 
#    z 0.005770 0.000000 1.821710 
# 
# From -- ./inp_files/28112.got.cif
#   From: 2010.05.17/outbox.cif.g08.bks.cpg/sg9_15_cif.got.tgz:28112.got - 2010.06.03 20:04:27.
