data_PCOD9137583
_publ_section_title
;
Structure prediction by ZEFSAII (Michael W. Deem and Ramdas Pophale) SiO2 
 PCOD9137583
Probable space group: C C
;
_chemical_formula_sum "Si O2"
_cell_formula_units_Z 28
_cell_length_a 7.234735
_cell_length_b 9.343260
_cell_length_c 25.848420
_cell_angle_alpha 90.000000
_cell_angle_beta 138.021835
_cell_angle_gamma 90.000000
_cell_volume 1168.643574
_symmetry_space_group_name_H-M "C C"
_symmetry_group_IT_number 9
_symmetry_cell_setting 'monoclinic'
loop_
_space_group_symop_operation_xyz
x,y,z
x,-y,1/2+z
1/2+x,1/2+y,z
1/2+x,1/2-y,1/2+z
loop_
_atom_site_type_symbol
_atom_site_label
_atom_site_fract_x
_atom_site_fract_y
_atom_site_fract_z
Si Si1 0.257120 0.715246 0.123280
Si Si2 0.629639 0.236006 0.605444
Si Si3 0.560875 0.938551 0.856563
Si Si4 0.459213 0.522569 0.736217
Si Si5 0.457165 0.484502 0.032498
Si Si6 0.866320 0.100707 0.827523
Si Si7 0.418543 0.998154 0.493057
O O1 0.500137 0.705841 0.131539
O O2 0.359819 0.630708 0.194221
O O3 0.156472 0.875463 0.103293
O O4 0.992675 0.636939 0.043530
O O5 0.635458 0.370525 0.569240
O O6 0.419137 0.130627 0.532322
O O7 0.883758 0.137788 0.675883
O O8 0.283529 0.022223 0.815552
O O9 0.455565 0.770883 0.839994
O O10 0.647898 0.025250 0.821837
O O11 0.826990 0.951310 0.949380
O O12 0.298337 0.556900 0.755018
O O13 0.179037 0.489467 0.008999
O O14 0.145338 0.023457 0.904342
#
# Coordination Sequence:
#
# PCOD9137583 Si02
#       7
#     4   4   4   4   4   4   4
#     4  10  22  48  70 109 148 200 256 317 398 486
#     4  10  24  46  73 112 150 203 256 328 398 487
#     4  12  28  50  83 118 155 213 276 338 412 494
#     4  11  26  53  74 113 162 204 262 334 420 489
#     4  11  23  44  82 111 148 203 273 322 399 488
#     4  12  27  51  80 114 162 208 271 343 411 500
#     4  10  22  42  76 109 147 197 262 318 394 474
#
# _framework density 23.959402000000001
#
# number of rings (size 3 to 8) (size 9 to 14) (size 15 to 20)
#    0.000    1.143    2.857    1.714    4.000    3.429 
#   33.429    0.000    0.000    0.000    0.000    0.000 
#    0.000    0.000    0.000    0.000    0.000    0.000 
#
# Total GULP energy -78146.076419 kJ/mol
# GULP energy per Si atom -5581.862601 kJ/mol
# Density = 2.390487 g / cm^3
# Si number density = 23.959402 Si / 1000 Ang^3
#
#
#
# Elastic Constant Matrix: (Units=GPa)
#
#
# Indices 1 2 3 4 5 6 
#
# 1 115.3427 18.5230 26.0815 0.0000 -16.9157 0.0000
# 2 18.5230 138.6759 46.5097 0.0000 -8.7986 0.0000
# 3 26.0815 46.5097 116.7868 0.0000 -10.1502 0.0000
# 4 0.0000 0.0000 0.0000 23.7425 0.0000 -8.9886
# 5 -16.9157 -8.7986 -10.1502 0.0000 31.0075 0.0000
# 6 0.0000 0.0000 0.0000 -8.9886 0.0000 16.4515
#
#
#
# Elastic Compliance Matrix: (Units=1/GPa)
#
#
# Indices 1 2 3 4 5 6 
#
# 1 0.009793 -0.000478 -0.001590 0.000000 0.004687 0.000000
# 2 -0.000478 0.008398 -0.003143 0.000000 0.001094 0.000000
# 3 -0.001590 -0.003143 0.010310 0.000000 0.001616 0.000000
# 4 0.000000 0.000000 0.000000 0.053103 0.000000 0.029014
# 5 0.004687 0.001094 0.001616 0.000000 0.035646 0.000000
# 6 0.000000 0.000000 0.000000 0.029014 0.000000 0.076637
#
#
# Mechanical properties :
#
#
# Convention : Reuss Voigt Hill
#
# Bulk Modulus (GPa) = 55.30604 61.44818 58.37711
# Shear Modulus (GPa) = 23.77166 32.88638 28.32902
#
# Velocity S-wave (km/s) = 3.15328 3.70886 3.44230
# Velocity P-wave (km/s) = 6.03249 6.63652 6.34170
#
# Compressibility (1/GPa) = 0.01808121
#
# Stress axis : x y z
#
# Youngs Moduli (GPa) = 102.11075 119.07152 96.99639
#
# Poissons Ratio (x) = 0.05687 0.15418
# Poissons Ratio (y) = 0.04877 0.30485
# Poissons Ratio (z) = 0.16231 0.37422
#
# Static dielectric constant tensor:
#      x y z
#    x 1.978580 0.000000 -0.046710 
#    y 0.000000 1.968580 0.000000 
#    z -0.046710 0.000000 1.858100 
# 
# From -- ./inp_files/28996.got.cif
#   From: 2010.05.17/outbox.cif.g08.bks.cpg/sg9_15_cif.got.tgz:28996.got - 2010.06.03 20:04:27.
