data_PCOD9137365
_publ_section_title
;
Structure prediction by ZEFSAII (Michael W. Deem and Ramdas Pophale) SiO2 
 PCOD9137365
Probable space group: C C
;
_chemical_formula_sum "Si O2"
_cell_formula_units_Z 32
_cell_length_a 21.902516
_cell_length_b 9.240926
_cell_length_c 9.413368
_cell_angle_alpha 90.000000
_cell_angle_beta 46.484769
_cell_angle_gamma 90.000000
_cell_volume 1381.678999
_symmetry_space_group_name_H-M "C C"
_symmetry_group_IT_number 9
_symmetry_cell_setting 'monoclinic'
loop_
_space_group_symop_operation_xyz
x,y,z
x,-y,1/2+z
1/2+x,1/2+y,z
1/2+x,1/2-y,1/2+z
loop_
_atom_site_type_symbol
_atom_site_label
_atom_site_fract_x
_atom_site_fract_y
_atom_site_fract_z
Si Si1 0.575820 0.960894 0.417880
Si Si2 0.757386 0.963850 0.140899
Si Si3 0.267585 0.202520 0.650733
Si Si4 0.330418 0.265823 0.233083
Si Si5 0.022123 0.254330 0.711332
Si Si6 0.430570 0.502066 0.227624
Si Si7 0.908592 0.509092 0.504416
Si Si8 0.579691 0.725093 0.933068
O O1 0.488799 0.976600 0.474320
O O2 0.575804 0.113469 0.507337
O O3 0.669046 0.964903 0.199678
O O4 0.575945 0.804709 0.492484
O O5 0.757908 0.855230 0.271717
O O6 0.771057 0.126889 0.174760
O O7 0.841251 0.932892 0.917112
O O8 0.298277 0.197199 0.434442
O O9 0.328348 0.114138 0.658106
O O10 0.170217 0.156498 0.820207
O O11 0.403316 0.384286 0.151402
O O12 0.365117 0.146139 0.068897
O O13 0.073589 0.254203 0.773776
O O14 0.972973 0.105187 0.774844
O O15 0.955506 0.387564 0.817181
O O16 0.499443 0.624935 0.090802
#
# Coordination Sequence:
#
# PCOD9137365 Si02
#       8
#     4   4   4   4   4   4   4   4
#     4  10  22  41  67  96 129 182 219 269 337 397
#     4  10  22  41  67  96 132 172 226 269 331 403
#     4  10  22  44  62 100 133 174 222 275 337 397
#     4  11  22  40  67  92 135 179 222 273 336 397
#     4  11  21  43  65  90 141 174 218 279 332 400
#     4  11  22  42  66  99 130 171 224 281 333 391
#     4  11  21  40  65  92 130 175 218 276 332 393
#     4  10  24  39  69  97 134 175 225 276 334 398
#
# _framework density 23.160226999999999
#
# number of rings (size 3 to 8) (size 9 to 14) (size 15 to 20)
#    0.000    1.500    3.750    1.500    3.500    3.000 
#    0.000    0.000    0.000    0.000    0.000    0.000 
#    0.000    0.000    0.000    0.000    0.000    0.000 
#
# Total GULP energy -89080.996628 kJ/mol
# GULP energy per Si atom -5567.562289 kJ/mol
# Density = 2.310751 g / cm^3
# Si number density = 23.160227 Si / 1000 Ang^3
#
#
#
# Elastic Constant Matrix: (Units=GPa)
#
#
# Indices 1 2 3 4 5 6 
#
# 1 101.3293 18.1686 40.9424 0.0000 -41.6105 0.0000
# 2 18.1686 55.8398 39.0677 0.0000 -14.4461 0.0000
# 3 40.9424 39.0677 99.0055 0.0000 -43.0452 0.0000
# 4 0.0000 0.0000 0.0000 30.0414 0.0000 -1.8438
# 5 -41.6105 -14.4461 -43.0452 0.0000 43.4697 0.0000
# 6 0.0000 0.0000 0.0000 -1.8438 0.0000 34.1405
#
#
#
# Elastic Compliance Matrix: (Units=1/GPa)
#
#
# Indices 1 2 3 4 5 6 
#
# 1 0.016393 -0.001818 0.000875 0.000000 0.015954 0.000000
# 2 -0.001818 0.025100 -0.011033 0.000000 -0.004324 0.000000
# 3 0.000875 -0.011033 0.022586 0.000000 0.019537 0.000000
# 4 0.000000 0.000000 0.000000 0.033398 0.000000 0.001804
# 5 0.015954 -0.004324 0.019537 0.000000 0.056185 0.000000
# 6 0.000000 0.000000 0.000000 0.001804 0.000000 0.029388
#
#
# Mechanical properties :
#
#
# Convention : Reuss Voigt Hill
#
# Bulk Modulus (GPa) = 24.92113 50.28134 37.60123
# Shear Modulus (GPa) = 22.68829 32.06338 27.37584
#
# Velocity S-wave (km/s) = 3.13329 3.72481 3.44178
# Velocity P-wave (km/s) = 4.88607 6.34478 5.66259
#
# Compressibility (1/GPa) = 0.04012660
#
# Stress axis : x y z
#
# Youngs Moduli (GPa) = 61.00293 39.84036 44.27474
#
# Poissons Ratio (x) = 0.07245 -0.03873
# Poissons Ratio (y) = 0.11093 0.48846
# Poissons Ratio (z) = -0.05337 0.43954
#
# Static dielectric constant tensor:
#      x y z
#    x 1.921200 0.000000 0.059390 
#    y 0.000000 1.886370 0.000000 
#    z 0.059390 0.000000 2.013450 
# 
# From -- ./inp_files/17764.got.cif
#   From: 2010.05.17/outbox.cif.g08.bks.cpg/sg9_9_cif.got.tgz:17764.got - 2010.06.03 20:04:27.
