data_PCOD9137884
_publ_section_title
;
Structure prediction by ZEFSAII (Michael W. Deem and Ramdas Pophale) SiO2 
 PCOD9137884
Probable space group: C C
;
_chemical_formula_sum "Si O2"
_cell_formula_units_Z 32
_cell_length_a 7.748131
_cell_length_b 13.398664
_cell_length_c 14.845542
_cell_angle_alpha 90.000000
_cell_angle_beta 63.504959
_cell_angle_gamma 90.000000
_cell_volume 1379.318088
_symmetry_space_group_name_H-M "C C"
_symmetry_group_IT_number 9
_symmetry_cell_setting 'monoclinic'
loop_
_space_group_symop_operation_xyz
x,y,z
x,-y,1/2+z
1/2+x,1/2+y,z
1/2+x,1/2-y,1/2+z
loop_
_atom_site_type_symbol
_atom_site_label
_atom_site_fract_x
_atom_site_fract_y
_atom_site_fract_z
Si Si1 0.776400 0.006124 0.921810
Si Si2 0.957123 0.178407 0.565568
Si Si3 0.552278 0.163989 0.561532
Si Si4 0.743792 0.989532 0.216187
Si Si5 0.407724 0.171676 0.783669
Si Si6 0.984636 0.202485 0.907074
Si Si7 0.019315 0.673204 0.214015
Si Si8 0.605300 0.648422 0.351031
O O1 0.966630 0.943854 0.899103
O O2 0.770124 0.993054 0.815676
O O3 0.605443 0.948033 0.014097
O O4 0.820110 0.119354 0.936612
O O5 0.755168 0.201921 0.559321
O O6 0.910579 0.072647 0.626172
O O7 0.008462 0.254635 0.631865
O O8 0.118412 0.185385 0.451177
O O9 0.402064 0.179333 0.676637
O O10 0.480690 0.224199 0.492525
O O11 0.559902 0.916491 0.259664
O O12 0.687893 0.092284 0.180960
O O13 0.196303 0.151000 0.869493
O O14 0.500007 0.268645 0.812470
O O15 0.010538 0.262802 0.807907
O O16 0.809731 0.619560 0.263206
#
# Coordination Sequence:
#
# PCOD9137884 Si02
#       8
#     4   4   4   4   4   4   4   4
#     4  11  22  44  70 100 142 183 233 296 353 426
#     4  10  22  45  68 103 145 184 241 297 355 423
#     4  10  22  45  68 103 145 184 241 297 355 423
#     4  11  22  44  70 100 142 183 233 296 353 426
#     4  11  22  45  71  99 148 185 237 299 354 428
#     4  12  23  44  72 102 141 191 231 295 367 422
#     4  12  23  44  72 102 141 191 231 295 367 422
#     4  11  22  45  71  99 148 185 237 299 354 428
#
# _framework density 23.199871000000002
#
# number of rings (size 3 to 8) (size 9 to 14) (size 15 to 20)
#    0.000    1.000    7.500    0.750    0.000    1.000 
#   27.000    0.000    0.000    0.000    0.000    0.000 
#    0.000    0.000    0.000    0.000    0.000    0.000 
#
# Total GULP energy -89436.674922 kJ/mol
# GULP energy per Si atom -5589.792183 kJ/mol
# Density = 2.314707 g / cm^3
# Si number density = 23.199871 Si / 1000 Ang^3
#
#
#
# Elastic Constant Matrix: (Units=GPa)
#
#
# Indices 1 2 3 4 5 6 
#
# 1 37.1849 14.5942 10.5362 0.0000 -0.7661 0.0000
# 2 14.5942 124.3892 18.1934 0.0000 -3.3856 0.0000
# 3 10.5362 18.1934 107.2274 0.0000 0.1392 0.0000
# 4 0.0000 0.0000 0.0000 40.3846 0.0000 8.7946
# 5 -0.7661 -3.3856 0.1392 0.0000 38.3178 0.0000
# 6 0.0000 0.0000 0.0000 8.7946 0.0000 41.0748
#
#
#
# Elastic Compliance Matrix: (Units=1/GPa)
#
#
# Indices 1 2 3 4 5 6 
#
# 1 0.028741 -0.003025 -0.002311 0.000000 0.000316 0.000000
# 2 -0.003025 0.008583 -0.001160 0.000000 0.000702 0.000000
# 3 -0.002311 -0.001160 0.009750 0.000000 -0.000184 0.000000
# 4 0.000000 0.000000 0.000000 0.025973 0.000000 -0.005561
# 5 0.000316 0.000702 -0.000184 0.000000 0.026167 0.000000
# 6 0.000000 0.000000 0.000000 -0.005561 0.000000 0.025537
#
#
# Mechanical properties :
#
#
# Convention : Reuss Voigt Hill
#
# Bulk Modulus (GPa) = 29.34159 39.49433 34.41796
# Shear Modulus (GPa) = 33.53358 38.98730 36.26044
#
# Velocity S-wave (km/s) = 3.80599 4.10383 3.95772
# Velocity P-wave (km/s) = 5.65587 6.28615 5.97932
#
# Compressibility (1/GPa) = 0.03408132
#
# Stress axis : x y z
#
# Youngs Moduli (GPa) = 34.79298 116.50922 102.56285
#
# Poissons Ratio (x) = 0.35250 0.23704
# Poissons Ratio (y) = 0.10527 0.11896
# Poissons Ratio (z) = 0.08041 0.13514
#
# Static dielectric constant tensor:
#      x y z
#    x 1.991450 0.000000 0.066640 
#    y 0.000000 1.935840 0.000000 
#    z 0.066640 0.000000 2.008260 
# 
# From -- ./inp_files/22868.got.cif
#   From: 2010.05.17/outbox.cif.g08.bks.cpg/sg9_12_cif.got.tgz:22868.got - 2010.06.03 20:04:27.
