data_PCOD9137018
_publ_section_title
;
Structure prediction by ZEFSAII (Michael W. Deem and Ramdas Pophale) SiO2 
 PCOD9137018
Probable space group: C C
;
_chemical_formula_sum "Si O2"
_cell_formula_units_Z 32
_cell_length_a 17.622699
_cell_length_b 7.139992
_cell_length_c 9.376408
_cell_angle_alpha 90.000000
_cell_angle_beta 81.810631
_cell_angle_gamma 90.000000
_cell_volume 1167.764504
_symmetry_space_group_name_H-M "C C"
_symmetry_group_IT_number 9
_symmetry_cell_setting 'monoclinic'
loop_
_space_group_symop_operation_xyz
x,y,z
x,-y,1/2+z
1/2+x,1/2+y,z
1/2+x,1/2-y,1/2+z
loop_
_atom_site_type_symbol
_atom_site_label
_atom_site_fract_x
_atom_site_fract_y
_atom_site_fract_z
Si Si1 0.782500 0.404339 0.879970
Si Si2 0.891887 0.171836 0.410671
Si Si3 0.682140 0.892259 0.225553
Si Si4 0.095174 0.573855 0.013280
Si Si5 0.032512 0.973138 0.282161
Si Si6 0.133001 0.972559 0.507301
Si Si7 0.933907 0.360231 0.665157
Si Si8 0.316631 0.645873 0.129751
O O1 0.732031 0.279607 0.779149
O O2 0.720626 0.562442 0.939372
O O3 0.867014 0.422580 0.790237
O O4 0.793801 0.308899 0.030358
O O5 0.888308 0.331676 0.529396
O O6 0.868049 0.190808 0.253019
O O7 0.981046 0.124152 0.375620
O O8 0.852559 0.002032 0.507917
O O9 0.609308 0.939962 0.342452
O O10 0.654271 0.931659 0.072546
O O11 0.743494 0.057613 0.223510
O O12 0.010768 0.532718 0.096670
O O13 0.119404 0.796290 0.029924
O O14 0.081587 0.886597 0.396018
O O15 0.972892 0.830840 0.221520
O O16 0.093608 0.079752 0.166310
#
# Coordination Sequence:
#
# PCOD9137018 Si02
#       8
#     4   4   4   4   4   4   4   4
#     4  11  22  38  60  89 120 152 195 247 292 349
#     4  12  18  30  57  91 116 145 189 248 305 327
#     4  11  18  36  59  85 121 151 188 248 295 340
#     4  10  22  37  58  88 120 156 194 239 297 353
#     4  11  18  36  59  85 121 151 188 248 295 340
#     4  10  22  37  58  88 120 156 194 239 297 353
#     4  11  22  38  60  89 120 152 195 247 292 349
#     4  12  18  30  57  91 116 145 189 248 305 327
#
# _framework density 27.402785999999999
#
# number of rings (size 3 to 8) (size 9 to 14) (size 15 to 20)
#    0.000    1.000   10.000    0.000    0.000    0.000 
#    0.000    8.750    0.000    0.000    0.000    0.000 
#    0.000    0.000    0.000    0.000    0.000    0.000 
#
# Total GULP energy -89415.030880 kJ/mol
# GULP energy per Si atom -5588.439430 kJ/mol
# Density = 2.734042 g / cm^3
# Si number density = 27.402786 Si / 1000 Ang^3
#
#
#
# Elastic Constant Matrix: (Units=GPa)
#
#
# Indices 1 2 3 4 5 6 
#
# 1 146.5666 20.7015 43.3052 0.0000 -24.7275 0.0000
# 2 20.7015 82.7109 25.6151 0.0000 4.4213 0.0000
# 3 43.3052 25.6151 147.6234 0.0000 -4.0588 0.0000
# 4 0.0000 0.0000 0.0000 27.7030 0.0000 -2.4940
# 5 -24.7275 4.4213 -4.0588 0.0000 86.8922 0.0000
# 6 0.0000 0.0000 0.0000 -2.4940 0.0000 32.8395
#
#
#
# Elastic Compliance Matrix: (Units=1/GPa)
#
#
# Indices 1 2 3 4 5 6 
#
# 1 0.008016 -0.001499 -0.002029 0.000000 0.002263 0.000000
# 2 -0.001499 0.013107 -0.001867 0.000000 -0.001181 0.000000
# 3 -0.002029 -0.001867 0.007690 0.000000 -0.000123 0.000000
# 4 0.000000 0.000000 0.000000 0.036346 0.000000 0.002760
# 5 0.002263 -0.001181 -0.000123 0.000000 0.012207 0.000000
# 6 0.000000 0.000000 0.000000 0.002760 0.000000 0.030661
#
#
# Mechanical properties :
#
#
# Convention : Reuss Voigt Hill
#
# Bulk Modulus (GPa) = 55.48643 61.79383 58.64013
# Shear Modulus (GPa) = 40.05674 48.63887 44.34781
#
# Velocity S-wave (km/s) = 3.82747 4.21760 4.02726
# Velocity P-wave (km/s) = 6.31071 6.80564 6.56284
#
# Compressibility (1/GPa) = 0.01802243
#
# Stress axis : x y z
#
# Youngs Moduli (GPa) = 124.75361 76.29658 130.04209
#
# Poissons Ratio (x) = 0.11435 0.26388
# Poissons Ratio (y) = 0.18698 0.24279
# Poissons Ratio (z) = 0.25314 0.14245
#
# Static dielectric constant tensor:
#      x y z
#    x 2.125420 0.000000 0.022300 
#    y 0.000000 2.307370 0.000000 
#    z 0.022300 0.000000 2.070450 
# 
# From -- ./inp_files/10658.got.cif
#   From: 2010.05.17/outbox.cif.g08.bks.cpg/sg9_6_cif.got.tgz:10658.got - 2010.06.03 20:04:27.
