data_PCOD9137015
_publ_section_title
;
Structure prediction by ZEFSAII (Michael W. Deem and Ramdas Pophale) SiO2 
 PCOD9137015
Probable space group: C C
;
_chemical_formula_sum "Si O2"
_cell_formula_units_Z 24
_cell_length_a 7.954649
_cell_length_b 29.503650
_cell_length_c 6.980116
_cell_angle_alpha 90.000000
_cell_angle_beta 41.744970
_cell_angle_gamma 90.000000
_cell_volume 1090.721176
_symmetry_space_group_name_H-M "C C"
_symmetry_group_IT_number 9
_symmetry_cell_setting 'monoclinic'
loop_
_space_group_symop_operation_xyz
x,y,z
x,-y,1/2+z
1/2+x,1/2+y,z
1/2+x,1/2-y,1/2+z
loop_
_atom_site_type_symbol
_atom_site_label
_atom_site_fract_x
_atom_site_fract_y
_atom_site_fract_z
Si Si1 0.824850 0.109227 0.153580
Si Si2 0.844256 0.178233 0.436907
Si Si3 0.221283 0.761797 0.771012
Si Si4 0.718204 0.907977 0.293663
Si Si5 0.330048 0.939160 0.179681
Si Si6 0.230259 0.955700 0.823191
O O1 0.816508 0.159673 0.247466
O O2 0.613513 0.079811 0.446205
O O3 0.768937 0.103752 0.975579
O O4 0.105986 0.091121 0.955566
O O5 0.742842 0.138573 0.658752
O O6 0.129173 0.190309 0.267173
O O7 0.709147 0.225194 0.606644
O O8 0.505489 0.755883 0.597647
O O9 0.444751 0.931612 0.513177
O O10 0.940688 0.941925 0.033024
O O11 0.284936 0.990906 0.277627
O O12 0.277385 0.938793 0.997252
#
# Coordination Sequence:
#
# PCOD9137015 Si02
#       6
#     4   4   4   4   4   4
#     4  10  23  37  56  85 110 149 190 231 271 346
#     4  10  22  38  66  78 120 146 188 226 306 310
#     4   8  20  36  58  88 112 134 192 236 270 356
#     4  10  23  37  56  85 110 149 190 231 271 346
#     4  10  22  37  54  80 116 144 195 233 274 325
#     4  10  22  37  54  80 116 144 195 233 274 325
#
# _framework density 22.003791
#
# number of rings (size 3 to 8) (size 9 to 14) (size 15 to 20)
#    1.000    1.333    0.000    1.000    9.333    0.000 
#    0.000    1.667    0.000    0.000    0.000    0.000 
#    0.000    0.000    0.000    0.000    0.000    0.000 
#
# Total GULP energy -66883.227023 kJ/mol
# GULP energy per Si atom -5573.602252 kJ/mol
# Density = 2.195371 g / cm^3
# Si number density = 22.003791 Si / 1000 Ang^3
#
#
#
# Elastic Constant Matrix: (Units=GPa)
#
#
# Indices 1 2 3 4 5 6 
#
# 1 51.7116 -1.1911 23.2433 0.0000 -5.2777 0.0000
# 2 -1.1911 79.1582 23.5548 0.0000 6.3981 0.0000
# 3 23.2433 23.5548 141.3195 0.0000 -18.3420 0.0000
# 4 0.0000 0.0000 0.0000 44.5232 0.0000 4.0799
# 5 -5.2777 6.3981 -18.3420 0.0000 22.4319 0.0000
# 6 0.0000 0.0000 0.0000 4.0799 0.0000 -18.7876
#
#
#
# Elastic Compliance Matrix: (Units=1/GPa)
#
#
# Indices 1 2 3 4 5 6 
#
# 1 0.021094 0.001192 -0.003432 0.000000 0.001816 0.000000
# 2 0.001192 0.014197 -0.003414 0.000000 -0.006560 0.000000
# 3 -0.003432 -0.003414 0.009209 0.000000 0.007696 0.000000
# 4 0.000000 0.000000 0.000000 0.022022 0.000000 0.004782
# 5 0.001816 -0.006560 0.007696 0.000000 0.053170 0.000000
# 6 0.000000 0.000000 0.000000 0.004782 0.000000 -0.052188
#
#
# Mechanical properties :
#
#
# Convention : Reuss Voigt Hill
#
# Bulk Modulus (GPa) = 30.12891 40.37815 35.25353
# Shear Modulus (GPa) = 55.63267 24.73899 40.18583
#
# Velocity S-wave (km/s) = 5.03370 3.35670 4.27818
# Velocity P-wave (km/s) = 6.89249 5.78046 6.36082
#
# Compressibility (1/GPa) = 0.03319072
#
# Stress axis : x y z
#
# Youngs Moduli (GPa) = 47.40780 70.43777 108.59506
#
# Poissons Ratio (x) = -0.08395 0.37272
# Poissons Ratio (y) = -0.05650 0.37072
# Poissons Ratio (z) = 0.16272 0.24046
#
# Static dielectric constant tensor:
#      x y z
#    x 1.840370 0.000000 -0.020010 
#    y 0.000000 1.881740 0.000000 
#    z -0.020010 0.000000 1.896260 
# 
# From -- ./inp_files/6510.got.cif
#   From: 2010.05.17/outbox.cif.g08.bks.cpg/sg9_4_cif.got.tgz:6510.got - 2010.06.03 20:04:27.
