data_PCOD9137867
_publ_section_title
;
Structure prediction by ZEFSAII (Michael W. Deem and Ramdas Pophale) SiO2 
 PCOD9137867
Probable space group: C C
;
_chemical_formula_sum "Si O2"
_cell_formula_units_Z 24
_cell_length_a 11.251646
_cell_length_b 9.433408
_cell_length_c 23.647807
_cell_angle_alpha 90.000000
_cell_angle_beta 150.450081
_cell_angle_gamma 90.000000
_cell_volume 1237.891208
_symmetry_space_group_name_H-M "C C"
_symmetry_group_IT_number 9
_symmetry_cell_setting 'monoclinic'
loop_
_space_group_symop_operation_xyz
x,y,z
x,-y,1/2+z
1/2+x,1/2+y,z
1/2+x,1/2-y,1/2+z
loop_
_atom_site_type_symbol
_atom_site_label
_atom_site_fract_x
_atom_site_fract_y
_atom_site_fract_z
Si Si1 0.879700 0.595056 0.547410
Si Si2 0.238654 0.225106 0.269106
Si Si3 0.006074 0.072444 0.491092
Si Si4 0.198953 0.071819 0.689909
Si Si5 0.804941 0.272453 0.493550
Si Si6 0.186065 0.294109 0.371515
O O1 0.647552 0.600639 0.492661
O O2 0.901206 0.430887 0.539660
O O3 0.834365 0.692478 0.474174
O O4 0.100400 0.657911 0.674682
O O5 0.522773 0.259588 0.388695
O O6 0.138647 0.223061 0.291403
O O7 0.198594 0.072798 0.223828
O O8 0.193159 0.040165 0.619853
O O9 0.861275 0.207976 0.454890
O O10 0.830370 0.938289 0.417407
O O11 0.438909 0.161126 0.799535
O O12 0.960128 0.167583 0.598126
#
# Coordination Sequence:
#
# PCOD9137867 Si02
#       6
#     4   4   4   4   4   4
#     4  12  25  43  69 102 133 175 230 278 328 406
#     4  12  23  44  72  95 139 179 220 280 337 395
#     4  10  22  45  66  93 137 175 220 273 337 394
#     4  10  22  46  66  96 136 180 218 274 340 397
#     4  10  24  41  70 103 125 180 228 265 345 394
#     4  12  24  43  71  97 134 181 222 278 339 394
#
# _framework density 19.387809000000001
#
# number of rings (size 3 to 8) (size 9 to 14) (size 15 to 20)
#    1.000    0.000    6.667    0.000    2.333    1.333 
#    3.000    3.333    0.000    0.000    0.000    0.000 
#    0.000    0.000    0.000    0.000    0.000    0.000 
#
# Total GULP energy -66956.571075 kJ/mol
# GULP energy per Si atom -5579.714256 kJ/mol
# Density = 1.934368 g / cm^3
# Si number density = 19.387809 Si / 1000 Ang^3
#
#
#
# Elastic Constant Matrix: (Units=GPa)
#
#
# Indices 1 2 3 4 5 6 
#
# 1 70.0052 59.8248 17.5370 0.0000 -6.3066 0.0000
# 2 59.8248 134.3733 59.6552 -0.0001 6.8756 0.0000
# 3 17.5370 59.6552 95.2609 -0.0002 10.9254 -0.0001
# 4 0.0000 -0.0001 -0.0002 21.1675 0.0000 5.2255
# 5 -6.3066 6.8756 10.9254 0.0000 35.8376 0.0000
# 6 0.0000 0.0000 -0.0001 5.2255 0.0000 26.3626
#
#
#
# Elastic Compliance Matrix: (Units=1/GPa)
#
#
# Indices 1 2 3 4 5 6 
#
# 1 0.024889 -0.012533 0.002578 0.000000 0.005998 0.000000
# 2 -0.012533 0.016618 -0.007752 0.000000 -0.003030 0.000000
# 3 0.002578 -0.007752 0.015186 0.000000 -0.002688 0.000000
# 4 0.000000 0.000000 0.000000 0.049673 0.000000 -0.009846
# 5 0.005998 -0.003030 -0.002688 0.000000 0.030360 0.000000
# 6 0.000000 0.000000 0.000000 -0.009846 0.000000 0.039884
#
#
# Mechanical properties :
#
#
# Convention : Reuss Voigt Hill
#
# Bulk Modulus (GPa) = 46.99127 63.74149 55.36638
# Shear Modulus (GPa) = 22.81889 27.51502 25.16696
#
# Velocity S-wave (km/s) = 3.43442 3.77130 3.60680
# Velocity P-wave (km/s) = 6.32591 7.20501 6.77972
#
# Compressibility (1/GPa) = 0.02128055
#
# Stress axis : x y z
#
# Youngs Moduli (GPa) = 40.17813 60.17478 65.85116
#
# Poissons Ratio (x) = 0.75415 -0.16979
# Poissons Ratio (y) = 0.50354 0.51049
# Poissons Ratio (z) = -0.10359 0.46648
#
# Static dielectric constant tensor:
#      x y z
#    x 1.674600 0.000000 0.002160 
#    y 0.000000 1.662920 0.000000 
#    z 0.002160 0.000000 1.686390 
# 
# From -- ./inp_files/15846.got.cif
#   From: 2010.05.17/outbox.cif.g08.bks.cpg/sg9_8_cif.got.tgz:15846.got - 2010.06.03 20:04:27.
