data_PCOD9137857
_publ_section_title
;
Structure prediction by ZEFSAII (Michael W. Deem and Ramdas Pophale) SiO2 
 PCOD9137857
Probable space group: C C
;
_chemical_formula_sum "Si O2"
_cell_formula_units_Z 32
_cell_length_a 8.024564
_cell_length_b 12.337779
_cell_length_c 23.225159
_cell_angle_alpha 90.000000
_cell_angle_beta 38.683838
_cell_angle_gamma 90.000000
_cell_volume 1437.185314
_symmetry_space_group_name_H-M "C C"
_symmetry_group_IT_number 9
_symmetry_cell_setting 'monoclinic'
loop_
_space_group_symop_operation_xyz
x,y,z
x,-y,1/2+z
1/2+x,1/2+y,z
1/2+x,1/2-y,1/2+z
loop_
_atom_site_type_symbol
_atom_site_label
_atom_site_fract_x
_atom_site_fract_y
_atom_site_fract_z
Si Si1 0.655810 0.733030 0.538350
Si Si2 0.779891 0.459571 0.371285
Si Si3 0.094511 0.568503 0.375912
Si Si4 0.417739 0.379299 0.565214
Si Si5 0.365768 0.942183 0.736213
Si Si6 0.758952 0.805825 0.237821
Si Si7 0.612590 0.506990 0.695349
Si Si8 0.395581 0.112364 0.015341
O O1 0.771132 0.794902 0.563196
O O2 0.384578 0.685770 0.639566
O O3 0.570700 0.806666 0.506894
O O4 0.898672 0.656413 0.455336
O O5 0.555234 0.454770 0.480177
O O6 0.701274 0.496406 0.329567
O O7 0.979428 0.547546 0.343492
O O8 0.957419 0.350721 0.321072
O O9 0.404924 0.580019 0.278991
O O10 0.058393 0.462637 0.426705
O O11 0.654985 0.337050 0.541934
O O12 0.182564 0.437141 0.663540
O O13 0.276758 0.816968 0.755349
O O14 0.332479 0.007976 0.685838
O O15 0.945853 0.885056 0.226235
O O16 0.747722 0.464997 0.601071
#
# Coordination Sequence:
#
# PCOD9137857 Si02
#       8
#     4   4   4   4   4   4   4   4
#     4  11  23  42  67  99 133 174 221 273 337 402
#     4  10  24  43  66  93 135 173 222 277 328 403
#     4  10  24  41  67  94 133 177 217 281 331 393
#     4  10  23  42  66 100 130 172 226 275 322 409
#     4  11  24  44  67 100 137 177 226 272 340 400
#     4  10  22  45  64  97 135 171 224 278 328 397
#     4  11  22  42  72  95 134 182 218 281 333 393
#     4  11  22  45  67  94 137 174 220 279 335 391
#
# _framework density 22.265744999999999
#
# number of rings (size 3 to 8) (size 9 to 14) (size 15 to 20)
#    0.000    1.500    3.750    1.500    5.250    3.000 
#    4.500    0.000    0.000    0.000    0.000    0.000 
#    0.000    0.000    0.000    0.000    0.000    0.000 
#
# Total GULP energy -89239.829799 kJ/mol
# GULP energy per Si atom -5577.489362 kJ/mol
# Density = 2.221507 g / cm^3
# Si number density = 22.265745 Si / 1000 Ang^3
#
#
#
# Elastic Constant Matrix: (Units=GPa)
#
#
# Indices 1 2 3 4 5 6 
#
# 1 69.1371 25.6224 2.2655 -0.0013 29.0908 0.0029
# 2 25.6224 62.9035 1.1859 -0.0012 9.5503 0.0009
# 3 2.2655 1.1859 94.5166 -0.0037 19.3185 -0.0001
# 4 -0.0013 -0.0012 -0.0037 14.6510 0.0022 5.2622
# 5 29.0908 9.5503 19.3185 0.0022 31.1140 -0.0008
# 6 0.0029 0.0009 -0.0001 5.2622 -0.0008 21.0547
#
#
#
# Elastic Compliance Matrix: (Units=1/GPa)
#
#
# Indices 1 2 3 4 5 6 
#
# 1 0.028785 -0.007611 0.005073 0.000010 -0.027727 -0.000007
# 2 -0.007611 0.018763 -0.000378 0.000000 0.001592 0.000000
# 3 0.005073 -0.000378 0.013067 0.000007 -0.012740 -0.000003
# 4 0.000010 0.000000 0.000007 0.074986 -0.000019 -0.018741
# 5 -0.027727 0.001592 -0.012740 -0.000019 0.065485 0.000011
# 6 -0.000007 0.000000 -0.000003 -0.018741 0.000011 0.052179
#
#
# Mechanical properties :
#
#
# Convention : Reuss Voigt Hill
#
# Bulk Modulus (GPa) = 18.25422 31.63388 24.94405
# Shear Modulus (GPa) = 18.02714 26.52951 22.27833
#
# Velocity S-wave (km/s) = 2.84850 3.45555 3.16660
# Velocity P-wave (km/s) = 4.36288 5.49175 4.95954
#
# Compressibility (1/GPa) = 0.05478184
#
# Stress axis : x y z
#
# Youngs Moduli (GPa) = 34.74028 53.29636 76.52704
#
# Poissons Ratio (x) = 0.40564 -0.38819
# Poissons Ratio (y) = 0.26441 0.02895
# Poissons Ratio (z) = -0.17623 0.02016
#
# Static dielectric constant tensor:
#      x y z
#    x 2.078590 0.000000 -0.074410 
#    y 0.000000 1.891100 0.000000 
#    z -0.074410 0.000000 1.877360 
# 
# From -- ./inp_files/23261.got.cif
#   From: 2010.05.17/outbox.cif.g08.bks.cpg/sg9_12_cif.got.tgz:23261.got - 2010.06.03 20:04:27.
