data_PCOD9137395
_publ_section_title
;
Structure prediction by ZEFSAII (Michael W. Deem and Ramdas Pophale) SiO2 
 PCOD9137395
Probable space group: C C
;
_chemical_formula_sum "Si O2"
_cell_formula_units_Z 32
_cell_length_a 23.774509
_cell_length_b 5.073154
_cell_length_c 19.342304
_cell_angle_alpha 90.000000
_cell_angle_beta 146.239729
_cell_angle_gamma 90.000000
_cell_volume 1296.442525
_symmetry_space_group_name_H-M "C C"
_symmetry_group_IT_number 9
_symmetry_cell_setting 'monoclinic'
loop_
_space_group_symop_operation_xyz
x,y,z
x,-y,1/2+z
1/2+x,1/2+y,z
1/2+x,1/2-y,1/2+z
loop_
_atom_site_type_symbol
_atom_site_label
_atom_site_fract_x
_atom_site_fract_y
_atom_site_fract_z
Si Si1 0.758030 0.098789 0.945430
Si Si2 0.206829 0.073438 0.728627
Si Si3 0.533311 0.150896 0.382612
Si Si4 0.163650 0.834562 0.030549
Si Si5 0.024214 0.737818 0.525907
Si Si6 0.390357 0.641549 0.467781
Si Si7 0.825085 0.408403 0.596262
Si Si8 0.069455 0.371712 0.695418
O O1 0.808779 0.043072 0.922872
O O2 0.637493 0.050737 0.813682
O O3 0.793589 0.878467 0.036574
O O4 0.794172 0.384390 0.005391
O O5 0.185891 0.215598 0.634103
O O6 0.322402 0.125660 0.865620
O O7 0.146161 0.179268 0.733542
O O8 0.144929 0.807907 0.648413
O O9 0.575651 0.448864 0.426891
O O10 0.496129 0.115987 0.423970
O O11 0.622461 0.942011 0.460480
O O12 0.441064 0.100244 0.237476
O O13 0.259907 0.971126 0.093271
O O14 0.018962 0.547583 0.584883
O O15 0.954525 0.988300 0.474603
O O16 0.470172 0.705274 0.611755
#
# Coordination Sequence:
#
# PCOD9137395 Si02
#       8
#     4   4   4   4   4   4   4   4
#     4  11  28  47  66  99 146 185 239 286 334 426
#     4   9  21  40  64 102 142 163 229 282 363 411
#     4  11  25  47  73 105 142 173 240 291 355 419
#     4  11  24  45  73 102 140 189 220 301 350 409
#     4  10  22  41  70 105 134 174 225 303 353 422
#     4  10  24  40  70 104 135 191 225 293 361 419
#     4  12  28  48  70 101 141 195 243 281 342 431
#     4  10  22  42  68  98 136 174 227 291 350 413
#
# _framework density 24.682929000000001
#
# number of rings (size 3 to 8) (size 9 to 14) (size 15 to 20)
#    0.000    1.500    1.250    1.500    8.750    6.000 
#    0.000    0.000    0.000    0.000    0.000    0.000 
#    0.000    0.000    0.000    0.000    0.000    0.000 
#
# Total GULP energy -89397.116022 kJ/mol
# GULP energy per Si atom -5587.319751 kJ/mol
# Density = 2.462675 g / cm^3
# Si number density = 24.682929 Si / 1000 Ang^3
#
#
#
# Elastic Constant Matrix: (Units=GPa)
#
#
# Indices 1 2 3 4 5 6 
#
# 1 64.5446 6.9229 12.4457 0.0002 -4.6193 -0.0003
# 2 6.9229 70.6025 25.0095 0.0002 2.1878 0.0011
# 3 12.4457 25.0095 144.3544 0.0005 8.9108 0.0008
# 4 0.0002 0.0002 0.0005 32.9436 0.0002 3.7256
# 5 -4.6193 2.1878 8.9108 0.0002 32.6325 0.0000
# 6 -0.0003 0.0011 0.0008 3.7256 0.0000 62.2911
#
#
#
# Elastic Compliance Matrix: (Units=1/GPa)
#
#
# Indices 1 2 3 4 5 6 
#
# 1 0.016075 -0.001183 -0.001349 0.000000 0.002723 0.000000
# 2 -0.001183 0.015180 -0.002497 0.000000 -0.000503 0.000000
# 3 -0.001349 -0.002497 0.007606 0.000000 -0.002101 0.000000
# 4 0.000000 0.000000 0.000000 0.030562 0.000000 -0.001828
# 5 0.002723 -0.000503 -0.002101 0.000000 0.031637 0.000000
# 6 0.000000 0.000000 0.000000 -0.001828 0.000000 0.016163
#
#
# Mechanical properties :
#
#
# Convention : Reuss Voigt Hill
#
# Bulk Modulus (GPa) = 34.71810 40.91752 37.81781
# Shear Modulus (GPa) = 36.52806 41.24835 38.88820
#
# Velocity S-wave (km/s) = 3.85111 4.09238 3.97358
# Velocity P-wave (km/s) = 5.81987 6.24046 6.03383
#
# Compressibility (1/GPa) = 0.02880342
#
# Stress axis : x y z
#
# Youngs Moduli (GPa) = 62.20820 65.87689 131.47579
#
# Poissons Ratio (x) = 0.07791 0.17738
# Poissons Ratio (y) = 0.07357 0.32828
# Poissons Ratio (z) = 0.08393 0.16449
#
# Static dielectric constant tensor:
#      x y z
#    x 2.029190 0.000000 0.004490 
#    y 0.000000 1.912420 0.000000 
#    z 0.004490 0.000000 1.916190 
# 
# From -- ./inp_files/34452.got.cif
#   From: 2010.05.17/outbox.cif.g08.bks.cpg/sg9_18_cif.got.tgz:34452.got - 2010.06.03 20:04:27.
