data_PCOD9137369
_publ_section_title
;
Structure prediction by ZEFSAII (Michael W. Deem and Ramdas Pophale) SiO2 
 PCOD9137369
Probable space group: C C
;
_chemical_formula_sum "Si O2"
_cell_formula_units_Z 24
_cell_length_a 9.986906
_cell_length_b 11.171123
_cell_length_c 8.985321
_cell_angle_alpha 90.000000
_cell_angle_beta 114.684818
_cell_angle_gamma 90.000000
_cell_volume 910.842202
_symmetry_space_group_name_H-M "C C"
_symmetry_group_IT_number 9
_symmetry_cell_setting 'monoclinic'
loop_
_space_group_symop_operation_xyz
x,y,z
x,-y,1/2+z
1/2+x,1/2+y,z
1/2+x,1/2-y,1/2+z
loop_
_atom_site_type_symbol
_atom_site_label
_atom_site_fract_x
_atom_site_fract_y
_atom_site_fract_z
Si Si1 0.936440 0.049937 0.462830
Si Si2 0.410458 0.932708 0.461376
Si Si3 0.340869 0.703227 0.875592
Si Si4 0.371976 0.745426 0.227380
Si Si5 0.048347 0.257375 0.708731
Si Si6 0.723924 0.402318 0.662563
O O1 0.935087 0.116489 0.303202
O O2 0.934717 0.166915 0.568498
O O3 0.825510 0.939142 0.393499
O O4 0.080936 0.982982 0.587980
O O5 0.465315 0.846485 0.352572
O O6 0.533694 0.894700 0.642033
O O7 0.279873 0.906059 0.519519
O O8 0.342736 0.040033 0.332898
O O9 0.489325 0.733018 0.847287
O O10 0.213115 0.768754 0.722778
O O11 0.352146 0.757257 0.044854
O O12 0.213645 0.769194 0.233785
#
# Coordination Sequence:
#
# PCOD9137369 Si02
#       6
#     4   4   4   4   4   4
#     4  11  24  44  72 100 143 182 236 299 356 420
#     4  10  22  41  68 100 132 187 231 292 353 416
#     4  11  25  42  69 106 135 195 231 285 366 420
#     4  11  23  44  71 105 136 183 244 292 357 421
#     4  10  23  45  68 102 144 177 242 299 345 428
#     4  11  23  42  70 101 140 184 238 287 357 423
#
# _framework density 26.349240000000002
#
# number of rings (size 3 to 8) (size 9 to 14) (size 15 to 20)
#    0.000    1.333    1.667    3.000    2.333    1.333 
#    9.000    0.000    0.000    0.000    0.000    0.000 
#    0.000    0.000    0.000    0.000    0.000    0.000 
#
# Total GULP energy -66826.340910 kJ/mol
# GULP energy per Si atom -5568.861743 kJ/mol
# Density = 2.628927 g / cm^3
# Si number density = 26.349240 Si / 1000 Ang^3
#
#
#
# Elastic Constant Matrix: (Units=GPa)
#
#
# Indices 1 2 3 4 5 6 
#
# 1 61.1878 22.6726 54.5275 0.0000 -25.6162 0.0000
# 2 22.6726 124.7604 56.2229 0.0000 8.9902 0.0000
# 3 54.5275 56.2229 176.4068 0.0000 -45.0777 0.0000
# 4 0.0000 0.0000 0.0000 63.2961 0.0000 12.1332
# 5 -25.6162 8.9902 -45.0777 0.0000 37.5465 0.0000
# 6 0.0000 0.0000 0.0000 12.1332 0.0000 30.1653
#
#
#
# Elastic Compliance Matrix: (Units=1/GPa)
#
#
# Indices 1 2 3 4 5 6 
#
# 1 0.027631 -0.005076 -0.002590 0.000000 0.016958 0.000000
# 2 -0.005076 0.012577 -0.005905 0.000000 -0.013565 0.000000
# 3 -0.002590 -0.005905 0.011917 0.000000 0.013955 0.000000
# 4 0.000000 0.000000 0.000000 0.017119 0.000000 -0.006885
# 5 0.016958 -0.013565 0.013955 0.000000 0.058205 0.000000
# 6 0.000000 0.000000 0.000000 -0.006885 0.000000 0.035920
#
#
# Mechanical properties :
#
#
# Convention : Reuss Voigt Hill
#
# Bulk Modulus (GPa) = 40.02846 69.91124 54.96985
# Shear Modulus (GPa) = 25.14589 41.46370 33.30479
#
# Velocity S-wave (km/s) = 3.09258 3.97119 3.55910
# Velocity P-wave (km/s) = 5.28928 6.90053 6.14792
#
# Compressibility (1/GPa) = 0.02498223
#
# Stress axis : x y z
#
# Youngs Moduli (GPa) = 36.19079 79.51253 83.91205
#
# Poissons Ratio (x) = 0.40364 0.21730
# Poissons Ratio (y) = 0.18372 0.49554
# Poissons Ratio (z) = 0.09372 0.46956
#
# Static dielectric constant tensor:
#      x y z
#    x 2.173260 0.000000 0.046790 
#    y 0.000000 2.351680 0.000000 
#    z 0.046790 0.000000 2.037790 
# 
# From -- ./inp_files/7013.got.cif
#   From: 2010.05.17/outbox.cif.g08.bks.cpg/sg9_4_cif.got.tgz:7013.got - 2010.06.03 20:04:27.
