data_PCOD9137083
_publ_section_title
;
Structure prediction by ZEFSAII (Michael W. Deem and Ramdas Pophale) SiO2 
 PCOD9137083
Probable space group: C C
;
_chemical_formula_sum "Si O2"
_cell_formula_units_Z 20
_cell_length_a 5.142573
_cell_length_b 17.738813
_cell_length_c 9.812314
_cell_angle_alpha 90.000000
_cell_angle_beta 62.062863
_cell_angle_gamma 90.000000
_cell_volume 790.795894
_symmetry_space_group_name_H-M "C C"
_symmetry_group_IT_number 9
_symmetry_cell_setting 'monoclinic'
loop_
_space_group_symop_operation_xyz
x,y,z
x,-y,1/2+z
1/2+x,1/2+y,z
1/2+x,1/2-y,1/2+z
loop_
_atom_site_type_symbol
_atom_site_label
_atom_site_fract_x
_atom_site_fract_y
_atom_site_fract_z
Si Si1 0.575710 0.530209 0.680650
Si Si2 0.604918 0.216531 0.200330
Si Si3 0.710787 0.287158 0.442332
Si Si4 0.428625 0.058762 0.875416
Si Si5 0.545460 0.668110 0.478304
O O1 0.766711 0.544626 0.770175
O O2 0.732919 0.468032 0.549965
O O3 0.538093 0.598325 0.579971
O O4 0.239203 0.516102 0.806609
O O5 0.620042 0.282953 0.307162
O O6 0.540873 0.257521 0.074586
O O7 0.336872 0.164691 0.313782
O O8 0.934097 0.186465 0.099326
O O9 0.960920 0.350670 0.383430
O O10 0.776987 0.197599 0.451325
#
# Coordination Sequence:
#
# PCOD9137083 Si02
#       5
#     4   4   4   4   4
#     4  12  28  50  76 108 152 199 251 306 372 452
#     4  10  22  38  68  98 140 178 234 298 366 432
#     4  11  23  42  69 104 141 186 242 299 369 432
#     4  12  28  50  76 108 152 199 251 306 372 452
#     4  11  23  42  69 104 141 186 242 299 369 432
#
# _framework density 25.290977000000002
#
# number of rings (size 3 to 8) (size 9 to 14) (size 15 to 20)
#    0.000    0.800    2.000    4.800    8.400    3.200 
#    0.000    0.000    0.000    0.000    0.000    0.000 
#    0.000    0.000    0.000    0.000    0.000    0.000 
#
# Total GULP energy -55874.752135 kJ/mol
# GULP energy per Si atom -5587.475213 kJ/mol
# Density = 2.523341 g / cm^3
# Si number density = 25.290977 Si / 1000 Ang^3
#
#
#
# Elastic Constant Matrix: (Units=GPa)
#
#
# Indices 1 2 3 4 5 6 
#
# 1 91.7658 5.8172 29.7656 0.0000 -14.7042 0.0000
# 2 5.8172 47.9666 13.3375 0.0000 11.6335 0.0000
# 3 29.7656 13.3375 127.4725 0.0000 -18.5201 0.0000
# 4 0.0000 0.0000 0.0000 31.6840 0.0000 -8.5764
# 5 -14.7042 11.6335 -18.5201 0.0000 57.0695 0.0000
# 6 0.0000 0.0000 0.0000 -8.5764 0.0000 13.5919
#
#
#
# Elastic Compliance Matrix: (Units=1/GPa)
#
#
# Indices 1 2 3 4 5 6 
#
# 1 0.012168 -0.001491 -0.002294 0.000000 0.002695 0.000000
# 2 -0.001491 0.023339 -0.002981 0.000000 -0.006109 0.000000
# 3 -0.002294 -0.002981 0.009125 0.000000 0.002978 0.000000
# 4 0.000000 0.000000 0.000000 0.038063 0.000000 0.024017
# 5 0.002695 -0.006109 0.002978 0.000000 0.020429 0.000000
# 6 0.000000 0.000000 0.000000 0.024017 0.000000 0.088728
#
#
# Mechanical properties :
#
#
# Convention : Reuss Voigt Hill
#
# Bulk Modulus (GPa) = 32.15520 40.56060 36.35790
# Shear Modulus (GPa) = 23.17492 35.02140 29.09816
#
# Velocity S-wave (km/s) = 3.03038 3.72525 3.39563
# Velocity P-wave (km/s) = 4.99860 5.88011 5.45718
#
# Compressibility (1/GPa) = 0.03109917
#
# Stress axis : x y z
#
# Youngs Moduli (GPa) = 82.18535 42.84590 109.58877
#
# Poissons Ratio (x) = 0.06390 0.25136
# Poissons Ratio (y) = 0.12257 0.32673
# Poissons Ratio (z) = 0.18850 0.12774
#
# Static dielectric constant tensor:
#      x y z
#    x 2.106370 0.000000 -0.010090 
#    y 0.000000 2.006490 0.000000 
#    z -0.010090 0.000000 1.961680 
# 
# From -- ./inp_files/3748.got.cif
#   From: 2010.05.17/outbox.cif.g08.bks.cpg/sg9_2_cif.got.tgz:3748.got - 2010.06.03 20:04:27.
