data_PCOD9137936
_publ_section_title
;
Structure prediction by ZEFSAII (Michael W. Deem and Ramdas Pophale) SiO2 
 PCOD9137936
Probable space group: C C
;
_chemical_formula_sum "Si O2"
_cell_formula_units_Z 28
_cell_length_a 16.791228
_cell_length_b 11.413911
_cell_length_c 11.080527
_cell_angle_alpha 90.000000
_cell_angle_beta 146.123317
_cell_angle_gamma 90.000000
_cell_volume 1183.722752
_symmetry_space_group_name_H-M "C C"
_symmetry_group_IT_number 9
_symmetry_cell_setting 'monoclinic'
loop_
_space_group_symop_operation_xyz
x,y,z
x,-y,1/2+z
1/2+x,1/2+y,z
1/2+x,1/2-y,1/2+z
loop_
_atom_site_type_symbol
_atom_site_label
_atom_site_fract_x
_atom_site_fract_y
_atom_site_fract_z
Si Si1 0.242690 0.425714 0.521120
Si Si2 0.281426 0.014601 0.786091
Si Si3 0.801705 0.252373 0.898157
Si Si4 0.454101 0.809009 0.667095
Si Si5 0.971723 0.616855 0.819084
Si Si6 0.006552 0.166807 0.505877
Si Si7 0.776663 0.826536 0.118985
O O1 0.213478 0.340619 0.370281
O O2 0.361210 0.367804 0.755892
O O3 0.300721 0.555779 0.571929
O O4 0.101782 0.448252 0.421577
O O5 0.350158 0.046686 0.740914
O O6 0.133143 0.080239 0.628584
O O7 0.255130 0.877274 0.780327
O O8 0.396621 0.077831 0.020712
O O9 0.849601 0.176726 0.842501
O O10 0.909565 0.302712 0.133717
O O11 0.471678 0.698637 0.598630
O O12 0.335725 0.779525 0.615829
O O13 0.607496 0.813926 0.923262
O O14 0.047706 0.705587 0.006763
#
# Coordination Sequence:
#
# PCOD9137936 Si02
#       7
#     4   4   4   4   4   4   4
#     4  11  27  47  73 106 147 193 248 312 367 444
#     4  11  24  46  78 106 150 196 247 310 369 451
#     4  11  28  45  74 109 151 193 251 302 379 441
#     4  11  25  48  72 108 146 197 247 303 376 443
#     4  10  23  47  74 105 145 198 247 299 374 440
#     4  10  22  45  73 104 144 190 245 304 372 434
#     4  12  29  46  72 106 151 193 251 308 373 445
#
# _framework density 23.654187
#
# number of rings (size 3 to 8) (size 9 to 14) (size 15 to 20)
#    0.000    1.143    1.429    3.429   12.000    0.000 
#    2.571    0.000    0.000    0.000    0.000    0.000 
#    0.000    0.000    0.000    0.000    0.000    0.000 
#
# Total GULP energy -78073.797174 kJ/mol
# GULP energy per Si atom -5576.699798 kJ/mol
# Density = 2.360035 g / cm^3
# Si number density = 23.654187 Si / 1000 Ang^3
#
#
#
# Elastic Constant Matrix: (Units=GPa)
#
#
# Indices 1 2 3 4 5 6 
#
# 1 128.3115 64.5888 47.1176 0.0000 -2.2993 0.0000
# 2 64.5888 122.9885 14.9827 0.0000 -0.5564 0.0000
# 3 47.1176 14.9827 63.6297 0.0000 1.4524 0.0000
# 4 0.0000 0.0000 0.0000 24.6192 0.0000 -6.9796
# 5 -2.2993 -0.5564 1.4524 0.0000 27.3205 0.0000
# 6 0.0000 0.0000 0.0000 -6.9796 0.0000 17.1924
#
#
#
# Elastic Compliance Matrix: (Units=1/GPa)
#
#
# Indices 1 2 3 4 5 6 
#
# 1 0.014463 -0.006465 -0.009224 0.000000 0.001576 0.000000
# 2 -0.006465 0.011263 0.002145 0.000000 -0.000429 0.000000
# 3 -0.009224 0.002145 0.022084 0.000000 -0.001907 0.000000
# 4 0.000000 0.000000 0.000000 0.045902 0.000000 0.018635
# 5 0.001576 -0.000429 -0.001907 0.000000 0.036828 0.000000
# 6 0.000000 0.000000 0.000000 0.018635 0.000000 0.065730
#
#
# Mechanical properties :
#
#
# Convention : Reuss Voigt Hill
#
# Bulk Modulus (GPa) = 48.25477 63.14533 55.70005
# Shear Modulus (GPa) = 21.71422 26.37579 24.04500
#
# Velocity S-wave (km/s) = 3.03312 3.34287 3.19175
# Velocity P-wave (km/s) = 5.71933 6.45390 6.09769
#
# Compressibility (1/GPa) = 0.02072334
#
# Stress axis : x y z
#
# Youngs Moduli (GPa) = 69.14247 88.78964 45.28083
#
# Poissons Ratio (x) = 0.57399 0.41765
# Poissons Ratio (y) = 0.44698 -0.09712
# Poissons Ratio (z) = 0.63774 -0.19044
#
# Static dielectric constant tensor:
#      x y z
#    x 1.908660 0.000000 -0.040930 
#    y 0.000000 1.996820 0.000000 
#    z -0.040930 0.000000 1.886280 
# 
# From -- ./inp_files/19343.got.cif
#   From: 2010.05.17/outbox.cif.g08.bks.cpg/sg9_10_cif.got.tgz:19343.got - 2010.06.03 20:04:27.
