data_PCOD9137272
_publ_section_title
;
Structure prediction by ZEFSAII (Michael W. Deem and Ramdas Pophale) SiO2 
 PCOD9137272
Probable space group: C C
;
_chemical_formula_sum "Si O2"
_cell_formula_units_Z 32
_cell_length_a 9.802589
_cell_length_b 14.391470
_cell_length_c 9.227959
_cell_angle_alpha 90.000000
_cell_angle_beta 100.518361
_cell_angle_gamma 90.000000
_cell_volume 1279.946781
_symmetry_space_group_name_H-M "C C"
_symmetry_group_IT_number 9
_symmetry_cell_setting 'monoclinic'
loop_
_space_group_symop_operation_xyz
x,y,z
x,-y,1/2+z
1/2+x,1/2+y,z
1/2+x,1/2-y,1/2+z
loop_
_atom_site_type_symbol
_atom_site_label
_atom_site_fract_x
_atom_site_fract_y
_atom_site_fract_z
Si Si1 0.091810 0.825658 0.313540
Si Si2 0.938279 0.125585 0.328685
Si Si3 0.672619 0.142107 0.445165
Si Si4 0.048050 0.292777 0.509021
Si Si5 0.715316 0.526502 0.355967
Si Si6 0.954834 0.389840 0.101450
Si Si7 0.425030 0.068970 0.199220
Si Si8 0.862858 0.819110 0.507585
O O1 0.180276 0.752864 0.427575
O O2 0.070294 0.777858 0.151857
O O3 0.948210 0.838138 0.376872
O O4 0.172942 0.921508 0.315189
O O5 0.968801 0.232850 0.374494
O O6 0.076857 0.071485 0.391864
O O7 0.806801 0.097587 0.400265
O O8 0.907671 0.117255 0.152272
O O9 0.617589 0.111397 0.588988
O O10 0.535097 0.118185 0.326737
O O11 0.196754 0.321422 0.473438
O O12 0.967341 0.379877 0.560079
O O13 0.767668 0.581553 0.222414
O O14 0.840996 0.548348 0.489340
O O15 0.953030 0.459440 0.235106
O O16 0.902036 0.286218 0.065864
#
# Coordination Sequence:
#
# PCOD9137272 Si02
#       8
#     4   4   4   4   4   4   4   4
#     4  10  23  45  70  96 139 183 226 292 340 420
#     4  12  25  41  71  99 139 180 227 292 347 417
#     4   9  22  44  61  96 136 173 224 284 348 406
#     4  11  24  44  69 101 141 182 233 285 354 417
#     4  11  25  40  69 104 132 178 242 286 348 411
#     4  10  22  42  67  96 134 177 234 281 337 426
#     4  10  22  40  69  92 136 179 229 281 339 417
#     4  11  23  46  68 100 143 180 229 289 355 410
#
# _framework density 25.001038000000001
#
# number of rings (size 3 to 8) (size 9 to 14) (size 15 to 20)
#    0.000    1.500    3.750    1.500    3.500    3.000 
#    2.250    0.000    0.000    0.000    0.000    0.000 
#    0.000    0.000    0.000    0.000    0.000    0.000 
#
# Total GULP energy -89336.023936 kJ/mol
# GULP energy per Si atom -5583.501496 kJ/mol
# Density = 2.494413 g / cm^3
# Si number density = 25.001038 Si / 1000 Ang^3
#
#
#
# Elastic Constant Matrix: (Units=GPa)
#
#
# Indices 1 2 3 4 5 6 
#
# 1 192.8130 38.1017 37.8285 0.0000 -43.9599 0.0000
# 2 38.1017 89.1972 0.3162 0.0000 -7.7182 0.0000
# 3 37.8285 0.3162 72.3643 0.0000 -18.4790 0.0000
# 4 0.0000 0.0000 0.0000 20.9961 0.0000 -1.6723
# 5 -43.9599 -7.7182 -18.4790 0.0000 28.5995 0.0000
# 6 0.0000 0.0000 0.0000 -1.6723 0.0000 34.1498
#
#
#
# Elastic Compliance Matrix: (Units=1/GPa)
#
#
# Indices 1 2 3 4 5 6 
#
# 1 0.008666 -0.002694 -0.001560 0.000000 0.011586 0.000000
# 2 -0.002694 0.012364 0.001376 0.000000 0.000085 0.000000
# 3 -0.001560 0.001376 0.016899 0.000000 0.008893 0.000000
# 4 0.000000 0.000000 0.000000 0.047814 0.000000 0.002341
# 5 0.011586 0.000085 0.008893 0.000000 0.058543 0.000000
# 6 0.000000 0.000000 0.000000 0.002341 0.000000 0.029397
#
#
# Mechanical properties :
#
#
# Convention : Reuss Voigt Hill
#
# Bulk Modulus (GPa) = 31.08088 56.31860 43.69974
# Shear Modulus (GPa) = 26.29293 35.29094 30.79193
#
# Velocity S-wave (km/s) = 3.24647 3.76117 3.51326
# Velocity P-wave (km/s) = 5.14894 6.43718 5.82876
#
# Compressibility (1/GPa) = 0.03217412
#
# Stress axis : x y z
#
# Youngs Moduli (GPa) = 115.39022 80.87791 59.17409
#
# Poissons Ratio (x) = 0.21787 0.09231
# Poissons Ratio (y) = 0.31084 -0.08142
# Poissons Ratio (z) = 0.18000 -0.11128
#
# Static dielectric constant tensor:
#      x y z
#    x 1.949550 0.000000 -0.028340 
#    y 0.000000 1.995650 0.000000 
#    z -0.028340 0.000000 2.251620 
# 
# From -- ./inp_files/14754.got.cif
#   From: 2010.05.17/outbox.cif.g08.bks.cpg/sg9_8_cif.got.tgz:14754.got - 2010.06.03 20:04:27.
