data_PCOD9137578
_publ_section_title
;
Structure prediction by ZEFSAII (Michael W. Deem and Ramdas Pophale) SiO2 
 PCOD9137578
Probable space group: C C
;
_chemical_formula_sum "Si O2"
_cell_formula_units_Z 32
_cell_length_a 9.597342
_cell_length_b 13.070496
_cell_length_c 11.603644
_cell_angle_alpha 90.000000
_cell_angle_beta 56.767053
_cell_angle_gamma 90.000000
_cell_volume 1217.522685
_symmetry_space_group_name_H-M "C C"
_symmetry_group_IT_number 9
_symmetry_cell_setting 'monoclinic'
loop_
_space_group_symop_operation_xyz
x,y,z
x,-y,1/2+z
1/2+x,1/2+y,z
1/2+x,1/2-y,1/2+z
loop_
_atom_site_type_symbol
_atom_site_label
_atom_site_fract_x
_atom_site_fract_y
_atom_site_fract_z
Si Si1 0.572270 0.143824 0.560390
Si Si2 0.915535 0.829106 0.021390
Si Si3 0.405026 0.562656 0.117243
Si Si4 0.258715 0.241344 0.302071
Si Si5 0.132156 0.533084 0.892003
Si Si6 0.767135 0.521544 0.969162
Si Si7 0.235136 0.918246 0.234727
Si Si8 0.440898 0.723916 0.925981
O O1 0.735072 0.180801 0.547876
O O2 0.586805 0.021589 0.532059
O O3 0.388993 0.156982 0.695869
O O4 0.552071 0.200627 0.449683
O O5 0.893330 0.750057 0.138986
O O6 0.924573 0.947338 0.056944
O O7 0.075232 0.805162 0.870929
O O8 0.270578 0.542896 0.276055
O O9 0.597220 0.591023 0.061895
O O10 0.342019 0.649756 0.058468
O O11 0.220157 0.358720 0.354425
O O12 0.340724 0.204871 0.383510
O O13 0.962535 0.549999 0.896175
O O14 0.750168 0.457000 0.096725
O O15 0.747258 0.504025 0.838330
O O16 0.063991 0.856751 0.311353
#
# Coordination Sequence:
#
# PCOD9137578 Si02
#       8
#     4   4   4   4   4   4   4   4
#     4  11  26  43  74 103 145 187 239 298 362 440
#     4  11  26  46  69 101 142 184 240 298 360 431
#     4  10  23  45  72  98 143 185 240 284 369 426
#     4  11  26  46  69 101 142 184 240 298 360 431
#     4  10  23  45  72  98 143 185 240 284 369 426
#     4  10  22  42  74 106 138 190 240 308 346 444
#     4  10  22  44  72 106 148 182 252 290 376 426
#     4  11  26  43  74 103 145 187 239 298 362 440
#
# _framework density 26.282876000000002
#
# number of rings (size 3 to 8) (size 9 to 14) (size 15 to 20)
#    0.000    1.500    0.000    3.750   12.250    2.000 
#    9.000    0.000    0.000    0.000    0.000    0.000 
#    0.000    0.000    0.000    0.000    0.000    0.000 
#
# Total GULP energy -89261.142044 kJ/mol
# GULP energy per Si atom -5578.821378 kJ/mol
# Density = 2.622306 g / cm^3
# Si number density = 26.282876 Si / 1000 Ang^3
#
#
#
# Elastic Constant Matrix: (Units=GPa)
#
#
# Indices 1 2 3 4 5 6 
#
# 1 131.8941 1.8949 25.3783 0.0000 -8.2283 0.0000
# 2 1.8949 53.2152 15.9120 0.0000 3.7778 0.0000
# 3 25.3783 15.9120 91.4558 0.0000 -2.0624 0.0000
# 4 0.0000 0.0000 0.0000 42.4486 0.0000 -6.4966
# 5 -8.2283 3.7778 -2.0624 0.0000 43.5715 0.0000
# 6 0.0000 0.0000 0.0000 -6.4966 0.0000 37.6545
#
#
#
# Elastic Compliance Matrix: (Units=1/GPa)
#
#
# Indices 1 2 3 4 5 6 
#
# 1 0.008101 0.000290 -0.002267 0.000000 0.001397 0.000000
# 2 0.000290 0.019989 -0.003600 0.000000 -0.001849 0.000000
# 3 -0.002267 -0.003600 0.012200 0.000000 0.000462 0.000000
# 4 0.000000 0.000000 0.000000 0.024197 0.000000 0.004175
# 5 0.001397 -0.001849 0.000462 0.000000 0.023397 0.000000
# 6 0.000000 0.000000 0.000000 0.004175 0.000000 0.027278
#
#
# Mechanical properties :
#
#
# Convention : Reuss Voigt Hill
#
# Bulk Modulus (GPa) = 34.32117 40.32615 37.32366
# Shear Modulus (GPa) = 36.75741 40.29358 38.52549
#
# Velocity S-wave (km/s) = 3.74375 3.91970 3.83273
# Velocity P-wave (km/s) = 5.63687 5.98847 5.81533
#
# Compressibility (1/GPa) = 0.02913654
#
# Stress axis : x y z
#
# Youngs Moduli (GPa) = 123.44089 50.02754 81.96681
#
# Poissons Ratio (x) = -0.01452 0.18581
# Poissons Ratio (y) = -0.03582 0.29508
# Poissons Ratio (z) = 0.27983 0.18010
#
# Static dielectric constant tensor:
#      x y z
#    x 2.089000 0.000000 0.052510 
#    y 0.000000 2.169040 0.000000 
#    z 0.052510 0.000000 2.103220 
# 
# From -- ./inp_files/14727.got.cif
#   From: 2010.05.17/outbox.cif.g08.bks.cpg/sg9_8_cif.got.tgz:14727.got - 2010.06.03 20:04:27.
