data_PCOD9137973
_publ_section_title
;
Structure prediction by ZEFSAII (Michael W. Deem and Ramdas Pophale) SiO2 
 PCOD9137973
Probable space group: C C
;
_chemical_formula_sum "Si O2"
_cell_formula_units_Z 16
_cell_length_a 11.804262
_cell_length_b 7.323403
_cell_length_c 9.063056
_cell_angle_alpha 90.000000
_cell_angle_beta 52.290855
_cell_angle_gamma 90.000000
_cell_volume 619.829225
_symmetry_space_group_name_H-M "C C"
_symmetry_group_IT_number 9
_symmetry_cell_setting 'monoclinic'
loop_
_space_group_symop_operation_xyz
x,y,z
x,-y,1/2+z
1/2+x,1/2+y,z
1/2+x,1/2-y,1/2+z
loop_
_atom_site_type_symbol
_atom_site_label
_atom_site_fract_x
_atom_site_fract_y
_atom_site_fract_z
Si Si1 0.597440 0.263277 0.078040
Si Si2 0.791756 0.582639 0.946312
Si Si3 0.803410 0.864938 0.185469
Si Si4 0.831692 0.262959 0.109109
O O1 0.661405 0.463682 0.985501
O O2 0.433165 0.267858 0.168535
O O3 0.662746 0.252296 0.190962
O O4 0.680098 0.119239 0.907248
O O5 0.749216 0.734508 0.098777
O O6 0.881248 0.430314 0.966100
O O7 0.861653 0.679834 0.751869
O O8 0.866755 0.050494 0.067454
#
# Coordination Sequence:
#
# PCOD9137973 Si02
#       4
#     4   4   4   4
#     4  10  25  46  70 102 145 179 236 289 343 419
#     4  10  22  46  68 104 143 179 234 290 342 419
#     4  12  24  48  72 104 139 191 228 291 356 413
#     4  10  23  44  72 102 141 185 232 286 353 411
#
# _framework density 25.813559000000001
#
# number of rings (size 3 to 8) (size 9 to 14) (size 15 to 20)
#    1.500    0.000    2.500    1.500    0.000   10.000 
#    9.000    0.000    0.000    0.000    0.000    0.000 
#    0.000    0.000    0.000    0.000    0.000    0.000 
#
# Total GULP energy -44622.079685 kJ/mol
# GULP energy per Si atom -5577.759961 kJ/mol
# Density = 2.575481 g / cm^3
# Si number density = 25.813559 Si / 1000 Ang^3
#
#
#
# Elastic Constant Matrix: (Units=GPa)
#
#
# Indices 1 2 3 4 5 6 
#
# 1 84.5649 2.2403 21.3188 0.0000 1.0032 0.0000
# 2 2.2403 112.8800 29.9841 0.0000 27.3219 0.0000
# 3 21.3188 29.9841 67.6210 0.0000 34.4940 0.0000
# 4 0.0000 0.0000 0.0000 38.1797 0.0000 21.4201
# 5 1.0032 27.3219 34.4940 0.0000 48.9895 0.0000
# 6 0.0000 0.0000 0.0000 21.4201 0.0000 32.3163
#
#
#
# Elastic Compliance Matrix: (Units=1/GPa)
#
#
# Indices 1 2 3 4 5 6 
#
# 1 0.013402 0.000484 -0.006495 0.000000 0.004029 0.000000
# 2 0.000484 0.010546 -0.002846 0.000000 -0.003888 0.000000
# 3 -0.006495 -0.002846 0.026872 0.000000 -0.017201 0.000000
# 4 0.000000 0.000000 0.000000 0.041698 0.000000 -0.027639
# 5 0.004029 -0.003888 -0.017201 0.000000 0.034610 0.000000
# 6 0.000000 0.000000 0.000000 -0.027639 0.000000 0.049264
#
#
# Mechanical properties :
#
#
# Convention : Reuss Voigt Hill
#
# Bulk Modulus (GPa) = 30.20490 41.35027 35.77758
# Shear Modulus (GPa) = 24.37348 37.99861 31.18605
#
# Velocity S-wave (km/s) = 3.07614 3.84088 3.47958
# Velocity P-wave (km/s) = 4.93390 5.97691 5.48027
#
# Compressibility (1/GPa) = 0.03310721
#
# Stress axis : x y z
#
# Youngs Moduli (GPa) = 74.61569 94.81973 37.21337
#
# Poissons Ratio (x) = -0.04590 0.24170
# Poissons Ratio (y) = -0.03612 0.10590
# Poissons Ratio (z) = 0.48463 0.26983
#
# Static dielectric constant tensor:
#      x y z
#    x 1.953590 0.000000 -0.036260 
#    y 0.000000 2.038550 0.000000 
#    z -0.036260 0.000000 2.127510 
# 
# From -- ./inp_files/6612.got.cif
#   From: 2010.05.17/outbox.cif.g08.bks.cpg/sg9_4_cif.got.tgz:6612.got - 2010.06.03 20:04:27.
