data_PCOD9137579
_publ_section_title
;
Structure prediction by ZEFSAII (Michael W. Deem and Ramdas Pophale) SiO2 
 PCOD9137579
Probable space group: C C
;
_chemical_formula_sum "Si O2"
_cell_formula_units_Z 32
_cell_length_a 11.805523
_cell_length_b 7.167237
_cell_length_c 13.481459
_cell_angle_alpha 90.000000
_cell_angle_beta 76.721539
_cell_angle_gamma 90.000000
_cell_volume 1110.209977
_symmetry_space_group_name_H-M "C C"
_symmetry_group_IT_number 9
_symmetry_cell_setting 'monoclinic'
loop_
_space_group_symop_operation_xyz
x,y,z
x,-y,1/2+z
1/2+x,1/2+y,z
1/2+x,1/2-y,1/2+z
loop_
_atom_site_type_symbol
_atom_site_label
_atom_site_fract_x
_atom_site_fract_y
_atom_site_fract_z
Si Si1 0.532280 0.638825 0.913010
Si Si2 0.426582 0.620965 0.717901
Si Si3 0.702155 0.684544 0.304877
Si Si4 0.852050 0.358378 0.451195
Si Si5 0.049482 0.469870 0.040603
Si Si6 0.783065 0.068543 0.975884
Si Si7 0.860016 0.308449 0.224268
Si Si8 0.662128 0.485707 0.135370
O O1 0.489022 0.671395 0.809251
O O2 0.617170 0.461211 0.883226
O O3 0.595626 0.803104 0.958996
O O4 0.402577 0.657981 0.990272
O O5 0.327836 0.773539 0.720450
O O6 0.371291 0.414245 0.731437
O O7 0.539063 0.596152 0.624774
O O8 0.855028 0.404566 0.334140
O O9 0.734380 0.833717 0.385384
O O10 0.832182 0.139151 0.457029
O O11 0.750836 0.462977 0.531246
O O12 0.971826 0.407835 0.481509
O O13 0.166148 0.558614 0.062635
O O14 0.965213 0.395003 0.141668
O O15 0.738596 0.361096 0.195730
O O16 0.131919 0.162697 0.213854
#
# Coordination Sequence:
#
# PCOD9137579 Si02
#       8
#     4   4   4   4   4   4   4   4
#     4  10  23  42  69 106 148 190 250 307 389 465
#     4  10  22  44  67 108 149 196 243 315 389 460
#     4  10  22  42  74 108 148 191 244 313 386 461
#     4  11  24  48  73 105 152 201 265 323 380 470
#     4  11  27  45  75 106 149 206 250 323 390 454
#     4  11  23  43  71 106 146 198 248 310 386 456
#     4  11  24  49  71 105 152 193 262 323 377 461
#     4  10  25  45  72 104 148 201 252 320 393 463
#
# _framework density 28.823376
#
# number of rings (size 3 to 8) (size 9 to 14) (size 15 to 20)
#    0.000    1.500    2.500    1.500    8.750    1.000 
#    0.000    8.750    0.000    0.000    0.000    0.000 
#    0.000    0.000    0.000    0.000    0.000    0.000 
#
# Total GULP energy -89416.637918 kJ/mol
# GULP energy per Si atom -5588.539870 kJ/mol
# Density = 2.875777 g / cm^3
# Si number density = 28.823376 Si / 1000 Ang^3
#
#
#
# Elastic Constant Matrix: (Units=GPa)
#
#
# Indices 1 2 3 4 5 6 
#
# 1 203.5355 77.2253 53.2725 0.0000 -11.0119 0.0000
# 2 77.2253 127.1876 59.1229 0.0000 -16.9277 0.0000
# 3 53.2725 59.1229 155.7357 0.0000 2.8302 0.0000
# 4 0.0000 0.0000 0.0000 44.0413 0.0000 -2.5524
# 5 -11.0119 -16.9277 2.8302 0.0000 45.3921 0.0000
# 6 0.0000 0.0000 0.0000 -2.5524 0.0000 68.2807
#
#
#
# Elastic Compliance Matrix: (Units=1/GPa)
#
#
# Indices 1 2 3 4 5 6 
#
# 1 0.006486 -0.003472 -0.000907 0.000000 0.000335 0.000000
# 2 -0.003472 0.012105 -0.003479 0.000000 0.003889 0.000000
# 3 -0.000907 -0.003479 0.008089 0.000000 -0.002021 0.000000
# 4 0.000000 0.000000 0.000000 0.022755 0.000000 0.000851
# 5 0.000335 0.003889 -0.002021 0.000000 0.023688 0.000000
# 6 0.000000 0.000000 0.000000 0.000851 0.000000 0.014677
#
#
# Mechanical properties :
#
#
# Convention : Reuss Voigt Hill
#
# Bulk Modulus (GPa) = 91.19739 96.18892 93.69316
# Shear Modulus (GPa) = 46.65507 51.33202 48.99354
#
# Velocity S-wave (km/s) = 4.02761 4.22467 4.12732
# Velocity P-wave (km/s) = 7.30326 7.56580 7.43569
#
# Compressibility (1/GPa) = 0.01096523
#
# Stress axis : x y z
#
# Youngs Moduli (GPa) = 154.17956 82.60960 123.63117
#
# Poissons Ratio (x) = 0.28683 0.11209
# Poissons Ratio (y) = 0.53532 0.43005
# Poissons Ratio (z) = 0.13978 0.28736
#
# Static dielectric constant tensor:
#      x y z
#    x 2.196810 0.000000 -0.097420 
#    y 0.000000 2.455020 0.000000 
#    z -0.097420 0.000000 2.339660 
# 
# From -- ./inp_files/33074.got.cif
#   From: 2010.05.17/outbox.cif.g08.bks.cpg/sg9_17_cif.got.tgz:33074.got - 2010.06.03 20:04:27.
