data_PCOD9137851
_publ_section_title
;
Structure prediction by ZEFSAII (Michael W. Deem and Ramdas Pophale) SiO2 
 PCOD9137851
Probable space group: C C
;
_chemical_formula_sum "Si O2"
_cell_formula_units_Z 28
_cell_length_a 7.233867
_cell_length_b 12.410060
_cell_length_c 18.655927
_cell_angle_alpha 90.000000
_cell_angle_beta 121.865512
_cell_angle_gamma 90.000000
_cell_volume 1422.384624
_symmetry_space_group_name_H-M "C C"
_symmetry_group_IT_number 9
_symmetry_cell_setting 'monoclinic'
loop_
_space_group_symop_operation_xyz
x,y,z
x,-y,1/2+z
1/2+x,1/2+y,z
1/2+x,1/2-y,1/2+z
loop_
_atom_site_type_symbol
_atom_site_label
_atom_site_fract_x
_atom_site_fract_y
_atom_site_fract_z
Si Si1 0.870000 0.259750 0.817930
Si Si2 0.511843 0.552808 0.931636
Si Si3 0.758855 0.851006 0.505151
Si Si4 0.043402 0.174864 0.364876
Si Si5 0.086984 0.680923 0.224330
Si Si6 0.506366 0.030039 0.080162
Si Si7 0.158309 0.292732 0.134538
O O1 0.749922 0.326908 0.854286
O O2 0.691906 0.208870 0.727170
O O3 0.996603 0.160445 0.879864
O O4 0.013095 0.330121 0.792334
O O5 0.485744 0.443624 0.881242
O O6 0.329025 0.569083 0.955281
O O7 0.750155 0.544734 0.015289
O O8 0.609630 0.756492 0.441389
O O9 0.637067 0.907032 0.545438
O O10 0.984520 0.797188 0.577244
O O11 0.834165 0.218918 0.279262
O O12 0.069971 0.577856 0.170499
O O13 0.901781 0.763006 0.157037
O O14 0.572670 0.905859 0.090141
#
# Coordination Sequence:
#
# PCOD9137851 Si02
#       7
#     4   4   4   4   4   4   4
#     4   9  22  41  62  91 130 159 213 263 305 376
#     4  11  22  41  65  97 128 166 215 260 315 379
#     4  11  24  42  63  97 130 167 214 262 311 378
#     4  11  22  42  68  91 129 170 209 262 321 369
#     4  10  23  42  65  93 127 167 210 263 311 377
#     4  12  23  41  68  93 128 172 210 258 324 371
#     4  10  22  45  61  94 130 161 215 264 301 384
#
# _framework density 19.685251000000001
#
# number of rings (size 3 to 8) (size 9 to 14) (size 15 to 20)
#    0.857    0.571    2.857    2.571    0.000    2.286 
#    2.571    4.286    0.000    0.000    0.000    0.000 
#    0.000    0.000    0.000    0.000    0.000    0.000 
#
# Total GULP energy -78083.365968 kJ/mol
# GULP energy per Si atom -5577.383283 kJ/mol
# Density = 1.964045 g / cm^3
# Si number density = 19.685251 Si / 1000 Ang^3
#
#
#
# Elastic Constant Matrix: (Units=GPa)
#
#
# Indices 1 2 3 4 5 6 
#
# 1 77.6802 42.1096 -4.9213 0.0000 -8.5291 0.0000
# 2 42.1096 72.8976 5.8426 0.0000 -9.8165 0.0000
# 3 -4.9213 5.8426 39.0281 0.0000 20.0475 0.0000
# 4 0.0000 0.0000 0.0000 13.0637 0.0000 -12.4884
# 5 -8.5291 -9.8165 20.0475 0.0000 40.3720 0.0000
# 6 0.0000 0.0000 0.0000 -12.4884 0.0000 16.1285
#
#
#
# Elastic Compliance Matrix: (Units=1/GPa)
#
#
# Indices 1 2 3 4 5 6 
#
# 1 0.019427 -0.011759 0.004793 0.000000 -0.001135 0.000000
# 2 -0.011759 0.022142 -0.008440 0.000000 0.007090 0.000000
# 3 0.004793 -0.008440 0.037620 0.000000 -0.019721 0.000000
# 4 0.000000 0.000000 0.000000 0.294641 0.000000 0.228141
# 5 -0.001135 0.007090 -0.019721 0.000000 0.036046 0.000000
# 6 0.000000 0.000000 0.000000 0.228141 0.000000 0.238653
#
#
# Mechanical properties :
#
#
# Convention : Reuss Voigt Hill
#
# Bulk Modulus (GPa) = 20.67060 30.62973 25.65017
# Shear Modulus (GPa) = 7.18943 23.68451 15.43697
#
# Velocity S-wave (km/s) = 1.91314 3.47242 2.80338
# Velocity P-wave (km/s) = 3.92473 5.62765 4.85149
#
# Compressibility (1/GPa) = 0.04837789
#
# Stress axis : x y z
#
# Youngs Moduli (GPa) = 51.47546 45.16363 26.58141
#
# Poissons Ratio (x) = 0.53108 -0.12741
# Poissons Ratio (y) = 0.60530 0.22434
# Poissons Ratio (z) = -0.24673 0.38116
#
# Static dielectric constant tensor:
#      x y z
#    x 1.694930 0.000000 -0.003030 
#    y 0.000000 1.665650 0.000000 
#    z -0.003030 0.000000 1.711320 
# 
# From -- ./inp_files/28727.got.cif
#   From: 2010.05.17/outbox.cif.g08.bks.cpg/sg9_15_cif.got.tgz:28727.got - 2010.06.03 20:04:27.
