data_PCOD9137348
_publ_section_title
;
Structure prediction by ZEFSAII (Michael W. Deem and Ramdas Pophale) SiO2 
 PCOD9137348
Probable space group: C C
;
_chemical_formula_sum "Si O2"
_cell_formula_units_Z 32
_cell_length_a 7.477167
_cell_length_b 15.631477
_cell_length_c 14.428617
_cell_angle_alpha 90.000000
_cell_angle_beta 65.399792
_cell_angle_gamma 90.000000
_cell_volume 1533.337492
_symmetry_space_group_name_H-M "C C"
_symmetry_group_IT_number 9
_symmetry_cell_setting 'monoclinic'
loop_
_space_group_symop_operation_xyz
x,y,z
x,-y,1/2+z
1/2+x,1/2+y,z
1/2+x,1/2-y,1/2+z
loop_
_atom_site_type_symbol
_atom_site_label
_atom_site_fract_x
_atom_site_fract_y
_atom_site_fract_z
Si Si1 0.325480 0.912201 0.886480
Si Si2 0.346033 0.465159 0.648415
Si Si3 0.246519 0.665109 0.326049
Si Si4 0.325613 0.180392 0.681258
Si Si5 0.004533 0.148400 0.604572
Si Si6 0.743254 0.229259 0.517570
Si Si7 0.900333 0.522264 0.178787
Si Si8 0.765556 0.422955 0.502632
O O1 0.514772 0.853966 0.864361
O O2 0.293564 0.925337 0.784116
O O3 0.151857 0.878272 0.989068
O O4 0.368559 0.008499 0.914202
O O5 0.344785 0.405603 0.739229
O O6 0.396198 0.562830 0.661924
O O7 0.529362 0.435258 0.546470
O O8 0.133620 0.461951 0.645261
O O9 0.296383 0.758089 0.274539
O O10 0.298893 0.664713 0.422860
O O11 0.512106 0.216703 0.584741
O O12 0.134227 0.187094 0.657789
O O13 0.360544 0.079889 0.693841
O O14 0.846608 0.209140 0.592063
O O15 0.803925 0.324376 0.476621
O O16 0.829167 0.552234 0.093429
#
# Coordination Sequence:
#
# PCOD9137348 Si02
#       8
#     4   4   4   4   4   4   4   4
#     4  10  23  43  65  95 129 173 226 263 338 395
#     4  10  22  41  66  94 125 177 217 261 335 391
#     4  11  24  44  68  94 139 174 220 277 330 397
#     4  12  23  44  66  97 139 170 220 280 329 390
#     4  11  24  42  68  96 133 173 223 277 331 396
#     4  12  25  41  68 101 133 176 222 274 334 391
#     4  11  22  41  68  94 130 176 214 273 329 401
#     4  11  23  44  65  95 134 173 218 275 332 387
#
# _framework density 20.869509999999998
#
# number of rings (size 3 to 8) (size 9 to 14) (size 15 to 20)
#    0.000    1.000    6.250    0.750    5.250    0.000 
#    0.000    0.000    0.000    0.000    0.000    0.000 
#    0.000    0.000    0.000    0.000    0.000    0.000 
#
# Total GULP energy -89394.457867 kJ/mol
# GULP energy per Si atom -5587.153617 kJ/mol
# Density = 2.082201 g / cm^3
# Si number density = 20.869510 Si / 1000 Ang^3
#
#
#
# Elastic Constant Matrix: (Units=GPa)
#
#
# Indices 1 2 3 4 5 6 
#
# 1 72.3670 1.3857 13.6572 0.0000 9.6727 0.0000
# 2 1.3857 56.1227 9.5827 0.0000 -8.4375 0.0000
# 3 13.6572 9.5827 61.0312 0.0000 12.0250 0.0000
# 4 0.0000 0.0000 0.0000 25.3336 0.0000 -2.5512
# 5 9.6727 -8.4375 12.0250 0.0000 26.1661 0.0000
# 6 0.0000 0.0000 0.0000 -2.5512 0.0000 3.7387
#
#
#
# Elastic Compliance Matrix: (Units=1/GPa)
#
#
# Indices 1 2 3 4 5 6 
#
# 1 0.014890 -0.000674 -0.002308 0.000000 -0.004661 0.000000
# 2 -0.000674 0.019976 -0.004732 0.000000 0.008865 0.000000
# 3 -0.002308 -0.004732 0.019547 0.000000 -0.009656 0.000000
# 4 0.000000 0.000000 0.000000 0.042386 0.000000 0.028923
# 5 -0.004661 0.008865 -0.009656 0.000000 0.047237 0.000000
# 6 0.000000 0.000000 0.000000 0.028923 0.000000 0.287207
#
#
# Mechanical properties :
#
#
# Convention : Reuss Voigt Hill
#
# Bulk Modulus (GPa) = 25.65166 26.53023 26.09094
# Shear Modulus (GPa) = 10.87746 22.04070 16.45908
#
# Velocity S-wave (km/s) = 2.28549 3.25332 2.81137
# Velocity P-wave (km/s) = 4.39121 5.18191 4.80286
#
# Compressibility (1/GPa) = 0.03898383
#
# Stress axis : x y z
#
# Youngs Moduli (GPa) = 67.15965 50.06104 51.15872
#
# Poissons Ratio (x) = 0.03376 0.11806
# Poissons Ratio (y) = 0.04529 0.24210
# Poissons Ratio (z) = 0.15498 0.23690
#
# Static dielectric constant tensor:
#      x y z
#    x 1.733850 0.000000 -0.019510 
#    y 0.000000 1.745230 0.000000 
#    z -0.019510 0.000000 1.734320 
# 
# From -- ./inp_files/23194.got.cif
#   From: 2010.05.17/outbox.cif.g08.bks.cpg/sg9_12_cif.got.tgz:23194.got - 2010.06.03 20:04:27.
