data_PCOD9137679
_publ_section_title
;
Structure prediction by ZEFSAII (Michael W. Deem and Ramdas Pophale) SiO2 
 PCOD9137679
Probable space group: C C
;
_chemical_formula_sum "Si O2"
_cell_formula_units_Z 32
_cell_length_a 25.059758
_cell_length_b 5.310590
_cell_length_c 19.680634
_cell_angle_alpha 90.000000
_cell_angle_beta 151.265965
_cell_angle_gamma 90.000000
_cell_volume 1259.137090
_symmetry_space_group_name_H-M "C C"
_symmetry_group_IT_number 9
_symmetry_cell_setting 'monoclinic'
loop_
_space_group_symop_operation_xyz
x,y,z
x,-y,1/2+z
1/2+x,1/2+y,z
1/2+x,1/2-y,1/2+z
loop_
_atom_site_type_symbol
_atom_site_label
_atom_site_fract_x
_atom_site_fract_y
_atom_site_fract_z
Si Si1 0.070610 0.030846 0.094330
Si Si2 0.225568 0.584437 0.412023
Si Si3 0.156270 0.971272 0.435645
Si Si4 0.513226 0.287134 0.391270
Si Si5 0.446919 0.987267 0.439620
Si Si6 0.797335 0.572270 0.887214
Si Si7 0.993303 0.626499 0.699809
Si Si8 0.859692 0.235122 0.166003
O O1 0.179899 0.067086 0.260227
O O2 0.026654 0.746171 0.046938
O O3 0.982100 0.246468 0.012818
O O4 0.089712 0.098962 0.037228
O O5 0.231353 0.836031 0.463952
O O6 0.269937 0.654850 0.387989
O O7 0.306038 0.393620 0.538812
O O8 0.097977 0.516243 0.282812
O O9 0.098776 0.784560 0.424392
O O10 0.246346 0.154933 0.572044
O O11 0.054447 0.106447 0.282902
O O12 0.456237 0.053307 0.369474
O O13 0.421704 0.506800 0.274103
O O14 0.333300 0.914043 0.349022
O O15 0.893879 0.447086 0.038831
O O16 0.947370 0.578293 0.725956
#
# Coordination Sequence:
#
# PCOD9137679 Si02
#       8
#     4   4   4   4   4   4   4   4
#     4  10  26  49  70 108 142 200 255 315 368 452
#     4  11  25  41  67 112 144 196 243 311 386 468
#     4  10  22  43  70 107 149 192 247 317 379 473
#     4   9  24  45  71 106 150 196 258 319 378 457
#     4  10  26  50  71 109 147 199 255 317 370 455
#     4  12  25  45  76 103 149 201 252 312 393 463
#     4  10  24  41  66 106 150 190 247 314 382 470
#     4  10  22  44  73 111 147 202 247 317 404 460
#
# _framework density 25.41423
#
# number of rings (size 3 to 8) (size 9 to 14) (size 15 to 20)
#    0.750    1.000    1.250    0.750    5.250    9.000 
#    2.250    0.000    0.000    0.000    0.000    0.000 
#    0.000    0.000    0.000    0.000    0.000    0.000 
#
# Total GULP energy -89213.367735 kJ/mol
# GULP energy per Si atom -5575.835483 kJ/mol
# Density = 2.535639 g / cm^3
# Si number density = 25.414230 Si / 1000 Ang^3
#
#
#
# Elastic Constant Matrix: (Units=GPa)
#
#
# Indices 1 2 3 4 5 6 
#
# 1 166.9394 44.2453 24.9768 0.0000 6.6801 0.0000
# 2 44.2453 72.8346 9.0218 0.0004 7.5768 0.0004
# 3 24.9768 9.0218 86.6469 -0.0001 4.9840 0.0000
# 4 0.0000 0.0004 -0.0001 23.8506 0.0001 14.3474
# 5 6.6801 7.5768 4.9840 0.0001 27.0063 0.0001
# 6 0.0000 0.0004 0.0000 14.3474 0.0001 40.3881
#
#
#
# Elastic Compliance Matrix: (Units=1/GPa)
#
#
# Indices 1 2 3 4 5 6 
#
# 1 0.007376 -0.004241 -0.001666 0.000000 -0.000327 0.000000
# 2 -0.004241 0.016717 -0.000312 0.000000 -0.003584 0.000000
# 3 -0.001666 -0.000312 0.012154 0.000000 -0.001743 0.000000
# 4 0.000000 0.000000 0.000000 0.053322 0.000000 -0.018942
# 5 -0.000327 -0.003584 -0.001743 0.000000 0.038437 0.000000
# 6 0.000000 0.000000 0.000000 -0.018942 0.000000 0.031489
#
#
# Mechanical properties :
#
#
# Convention : Reuss Voigt Hill
#
# Bulk Modulus (GPa) = 41.99830 53.65653 47.82741
# Shear Modulus (GPa) = 27.79789 34.79413 31.29601
#
# Velocity S-wave (km/s) = 3.31084 3.70412 3.51299
# Velocity P-wave (km/s) = 5.58363 6.28114 5.94263
#
# Compressibility (1/GPa) = 0.02381049
#
# Stress axis : x y z
#
# Youngs Moduli (GPa) = 135.56607 59.81843 82.27670
#
# Poissons Ratio (x) = 0.25367 0.13707
# Poissons Ratio (y) = 0.57488 0.02568
# Poissons Ratio (z) = 0.22585 0.01867
#
# Static dielectric constant tensor:
#      x y z
#    x 2.023880 0.000000 -0.026010 
#    y 0.000000 2.182220 0.000000 
#    z -0.026010 0.000000 1.997630 
# 
# From -- ./inp_files/34589.got.cif
#   From: 2010.05.17/outbox.cif.g08.bks.cpg/sg9_18_cif.got.tgz:34589.got - 2010.06.03 20:04:27.
