data_PCOD9137913
_publ_section_title
;
Structure prediction by ZEFSAII (Michael W. Deem and Ramdas Pophale) SiO2 
 PCOD9137913
Probable space group: C C
;
_chemical_formula_sum "Si O2"
_cell_formula_units_Z 28
_cell_length_a 11.863202
_cell_length_b 7.623505
_cell_length_c 27.633291
_cell_angle_alpha 90.000000
_cell_angle_beta 156.783730
_cell_angle_gamma 90.000000
_cell_volume 985.165140
_symmetry_space_group_name_H-M "C C"
_symmetry_group_IT_number 9
_symmetry_cell_setting 'monoclinic'
loop_
_space_group_symop_operation_xyz
x,y,z
x,-y,1/2+z
1/2+x,1/2+y,z
1/2+x,1/2-y,1/2+z
loop_
_atom_site_type_symbol
_atom_site_label
_atom_site_fract_x
_atom_site_fract_y
_atom_site_fract_z
Si Si1 0.233490 0.708709 0.148990
Si Si2 0.157855 0.264109 0.234751
Si Si3 0.910725 0.993700 0.962327
Si Si4 0.154883 0.044247 0.907789
Si Si5 0.723845 0.821727 0.481340
Si Si6 0.168096 0.152030 0.814145
Si Si7 0.940484 0.337138 0.635302
O O1 0.523488 0.690829 0.231053
O O2 0.120928 0.727408 0.160069
O O3 0.128872 0.891716 0.083478
O O4 0.993769 0.571717 0.035478
O O5 0.498879 0.279491 0.364983
O O6 0.083000 0.472095 0.201232
O O7 0.001579 0.181387 0.125831
O O8 0.103641 0.115172 0.003871
O O9 0.738441 0.105999 0.932894
O O10 0.737431 0.843718 0.865996
O O11 0.040630 0.034664 0.807342
O O12 0.135846 0.879467 0.935248
O O13 0.471889 0.907770 0.412805
O O14 0.979510 0.200895 0.693998
#
# Coordination Sequence:
#
# PCOD9137913 Si02
#       7
#     4   4   4   4   4   4   4
#     4  10  22  45  70  97 137 179 227 275 337 407
#     4  11  22  41  71 101 135 179 226 282 338 404
#     4  10  24  42  70  94 135 177 221 283 336 401
#     4  11  22  43  73  96 138 181 223 280 343 401
#     4  12  22  42  70 100 138 174 224 285 342 398
#     4  11  23  44  65 100 135 174 230 276 335 408
#     4  11  21  43  67  96 134 180 223 281 339 401
#
# _framework density 28.421634000000001
#
# number of rings (size 3 to 8) (size 9 to 14) (size 15 to 20)
#    0.000    1.143    7.143    0.857    0.000    3.429 
#    0.000    2.857    0.000    0.000    0.000    0.000 
#    0.000    0.000    0.000    0.000    0.000    0.000 
#
# Total GULP energy -78299.075822 kJ/mol
# GULP energy per Si atom -5592.791130 kJ/mol
# Density = 2.835694 g / cm^3
# Si number density = 28.421634 Si / 1000 Ang^3
#
#
#
# Elastic Constant Matrix: (Units=GPa)
#
#
# Indices 1 2 3 4 5 6 
#
# 1 265.0568 54.5419 57.9250 -0.0006 -6.3336 0.0001
# 2 54.5419 45.5288 0.0075 -0.0008 2.0309 0.0005
# 3 57.9250 0.0075 31.5865 0.0002 20.5458 -0.0011
# 4 -0.0006 -0.0008 0.0002 9.2576 -0.0010 0.7054
# 5 -6.3336 2.0309 20.5458 -0.0010 57.3956 -0.0002
# 6 0.0001 0.0005 -0.0011 0.7054 -0.0002 76.7396
#
#
#
# Elastic Compliance Matrix: (Units=1/GPa)
#
#
# Indices 1 2 3 4 5 6 
#
# 1 0.022498 -0.028003 -0.056718 0.000003 0.023777 -0.000001
# 2 -0.028003 0.056865 0.071249 -0.000002 -0.030607 0.000001
# 3 -0.056718 0.071249 0.184271 -0.000010 -0.074743 0.000002
# 4 0.000003 -0.000002 -0.000010 0.108095 0.000006 -0.000994
# 5 0.023777 -0.030607 -0.074743 0.000006 0.047885 -0.000001
# 6 -0.000001 0.000001 0.000002 -0.000994 -0.000001 0.013040
#
#
# Mechanical properties :
#
#
# Convention : Reuss Voigt Hill
#
# Bulk Modulus (GPa) = 4.22492 63.01346 33.61919
# Shear Modulus (GPa) = 9.28513 43.99173 26.63843
#
# Velocity S-wave (km/s) = 1.80942 3.93851 3.06479
# Velocity P-wave (km/s) = 2.41973 6.54993 4.93744
#
# Compressibility (1/GPa) = 0.23669098
#
# Stress axis : x y z
#
# Youngs Moduli (GPa) = 44.44784 17.58560 5.42678
#
# Poissons Ratio (x) = 0.49246 0.30779
# Poissons Ratio (y) = 1.24469 -0.38665
# Poissons Ratio (z) = 2.52098 -1.25296
#
# Static dielectric constant tensor:
#      x y z
#    x 2.228240 0.000000 -0.009110 
#    y 0.000000 2.238240 0.000000 
#    z -0.009110 0.000000 2.424140 
# 
# From -- ./inp_files/20853.got.cif
#   From: 2010.05.17/outbox.cif.g08.bks.cpg/sg9_11_cif.got.tgz:20853.got - 2010.06.03 20:04:27.
