data_PCOD9137879
_publ_section_title
;
Structure prediction by ZEFSAII (Michael W. Deem and Ramdas Pophale) SiO2 
 PCOD9137879
Probable space group: C C
;
_chemical_formula_sum "Si O2"
_cell_formula_units_Z 28
_cell_length_a 17.922916
_cell_length_b 5.231464
_cell_length_c 14.819968
_cell_angle_alpha 90.000000
_cell_angle_beta 109.937643
_cell_angle_gamma 90.000000
_cell_volume 1306.281376
_symmetry_space_group_name_H-M "C C"
_symmetry_group_IT_number 9
_symmetry_cell_setting 'monoclinic'
loop_
_space_group_symop_operation_xyz
x,y,z
x,-y,1/2+z
1/2+x,1/2+y,z
1/2+x,1/2-y,1/2+z
loop_
_atom_site_type_symbol
_atom_site_label
_atom_site_fract_x
_atom_site_fract_y
_atom_site_fract_z
Si Si1 0.866890 0.074864 0.857100
Si Si2 0.447190 0.078092 0.655681
Si Si3 0.346789 0.400250 0.140481
Si Si4 0.025223 0.672175 0.507628
Si Si5 0.226478 0.454728 0.443979
Si Si6 0.127962 0.060842 0.920049
Si Si7 0.994530 0.713097 0.856045
O O1 0.841033 0.157159 0.745322
O O2 0.795043 0.062321 0.896860
O O3 0.909367 0.802695 0.856553
O O4 0.939835 0.230156 0.933091
O O5 0.398788 0.342795 0.647424
O O6 0.512088 0.119774 0.606013
O O7 0.485043 0.026570 0.768592
O O8 0.389772 0.841277 0.611544
O O9 0.265881 0.456034 0.054513
O O10 0.039494 0.415021 0.457299
O O11 0.094920 0.860502 0.505672
O O12 0.188060 0.175519 0.439126
O O13 0.165785 0.683357 0.394550
O O14 0.046597 0.951824 0.842889
#
# Coordination Sequence:
#
# PCOD9137879 Si02
#       7
#     4   4   4   4   4   4   4
#     4  10  23  40  73  95 124 171 218 270 319 371
#     4  11  23  38  73  98 125 162 223 273 314 368
#     4  11  23  41  65 105 125 162 219 273 312 384
#     4  11  21  45  68  95 128 172 216 266 322 374
#     4  12  24  44  64  95 135 175 207 265 324 387
#     4  11  26  43  62  91 139 175 208 260 323 385
#     4  10  22  45  67  99 126 167 223 269 308 389
#
# _framework density 21.434889999999999
#
# number of rings (size 3 to 8) (size 9 to 14) (size 15 to 20)
#    0.000    1.143    4.286    1.714    4.000    0.000 
#    5.143    0.000    0.000    0.000    0.000    0.000 
#    0.000    0.000    0.000    0.000    0.000    0.000 
#
# Total GULP energy -78138.109629 kJ/mol
# GULP energy per Si atom -5581.293545 kJ/mol
# Density = 2.138610 g / cm^3
# Si number density = 21.434890 Si / 1000 Ang^3
#
#
#
# Elastic Constant Matrix: (Units=GPa)
#
#
# Indices 1 2 3 4 5 6 
#
# 1 145.6399 61.6892 28.9391 0.0000 -20.2480 0.0000
# 2 61.6892 125.8349 10.3885 0.0000 -12.8106 0.0000
# 3 28.9391 10.3885 54.5857 0.0000 -22.8982 0.0000
# 4 0.0000 0.0000 0.0000 19.2659 0.0000 6.3978
# 5 -20.2480 -12.8106 -22.8982 0.0000 25.3224 0.0000
# 6 0.0000 0.0000 0.0000 6.3978 0.0000 45.4538
#
#
#
# Elastic Compliance Matrix: (Units=1/GPa)
#
#
# Indices 1 2 3 4 5 6 
#
# 1 0.009652 -0.004192 -0.003176 0.000000 0.002725 0.000000
# 2 -0.004192 0.010202 0.001675 0.000000 0.003324 0.000000
# 3 -0.003176 0.001675 0.030572 0.000000 0.025953 0.000000
# 4 0.000000 0.000000 0.000000 0.054450 0.000000 -0.007664
# 5 0.002725 0.003324 0.025953 0.000000 0.066820 0.000000
# 6 0.000000 0.000000 0.000000 -0.007664 0.000000 0.023079
#
#
# Mechanical properties :
#
#
# Convention : Reuss Voigt Hill
#
# Bulk Modulus (GPa) = 25.61477 58.67711 42.14594
# Shear Modulus (GPa) = 22.81292 33.01134 27.91213
#
# Velocity S-wave (km/s) = 3.26588 3.92864 3.61249
# Velocity P-wave (km/s) = 5.11833 6.92914 6.09140
#
# Compressibility (1/GPa) = 0.03903997
#
# Stress axis : x y z
#
# Youngs Moduli (GPa) = 103.60714 98.01847 32.70983
#
# Poissons Ratio (x) = 0.41090 0.10389
# Poissons Ratio (y) = 0.43433 -0.05480
# Poissons Ratio (z) = 0.32907 -0.16421
#
# Static dielectric constant tensor:
#      x y z
#    x 1.775340 0.000000 0.037760 
#    y 0.000000 1.828530 0.000000 
#    z 0.037760 0.000000 1.802190 
# 
# From -- ./inp_files/25254.got.cif
#   From: 2010.05.17/outbox.cif.g08.bks.cpg/sg9_13_cif.got.tgz:25254.got - 2010.06.03 20:04:27.
