data_PCOD9137796
_publ_section_title
;
Structure prediction by ZEFSAII (Michael W. Deem and Ramdas Pophale) SiO2 
 PCOD9137796
Probable space group: C C
;
_chemical_formula_sum "Si O2"
_cell_formula_units_Z 32
_cell_length_a 7.495890
_cell_length_b 30.856344
_cell_length_c 7.865630
_cell_angle_alpha 90.000000
_cell_angle_beta 134.872693
_cell_angle_gamma 90.000000
_cell_volume 1289.285259
_symmetry_space_group_name_H-M "C C"
_symmetry_group_IT_number 9
_symmetry_cell_setting 'monoclinic'
loop_
_space_group_symop_operation_xyz
x,y,z
x,-y,1/2+z
1/2+x,1/2+y,z
1/2+x,1/2-y,1/2+z
loop_
_atom_site_type_symbol
_atom_site_label
_atom_site_fract_x
_atom_site_fract_y
_atom_site_fract_z
Si Si1 0.748940 0.227462 0.353350
Si Si2 0.496532 0.244854 0.692979
Si Si3 0.877650 0.480692 0.104304
Si Si4 0.518175 0.584967 0.516623
Si Si5 0.252339 0.571802 0.014348
Si Si6 0.254974 0.933335 0.666338
Si Si7 0.141927 0.635248 0.449737
Si Si8 0.919793 0.352848 0.175007
O O1 0.691897 0.181069 0.397140
O O2 0.973453 0.250135 0.621457
O O3 0.886498 0.223435 0.262619
O O4 0.302535 0.249656 0.401735
O O5 0.439374 0.197199 0.729365
O O6 0.153546 0.472599 0.363504
O O7 0.725634 0.451989 0.141595
O O8 0.767766 0.528229 0.039878
O O9 0.863309 0.456389 0.913692
O O10 0.316342 0.564853 0.252069
O O11 0.385577 0.604081 0.592605
O O12 0.643712 0.626634 0.506752
O O13 0.489997 0.582443 0.056623
O O14 0.081163 0.614347 0.895546
O O15 0.419048 0.892960 0.717843
O O16 0.041027 0.642835 0.570570
#
# Coordination Sequence:
#
# PCOD9137796 Si02
#       8
#     4   4   4   4   4   4   4   4
#     4  10  24  46  69 109 146 190 251 312 384 462
#     4  10  23  42  72 103 142 198 237 310 384 448
#     4  10  24  44  66 100 145 195 238 296 374 426
#     4  10  23  45  66 103 139 189 240 304 364 445
#     4  10  22  44  69  96 144 190 238 302 370 436
#     4  11  25  44  65 107 144 190 249 300 360 447
#     4  12  25  45  73 108 144 188 255 305 375 450
#     4  11  24  46  70 100 142 188 244 303 371 444
#
# _framework density 24.819953000000002
#
# number of rings (size 3 to 8) (size 9 to 14) (size 15 to 20)
#    0.000    1.500    3.750    1.500    8.750    4.000 
#    2.250    0.000    0.000    0.000    0.000    0.000 
#    0.000    0.000    0.000    0.000    0.000    0.000 
#
# Total GULP energy -89280.070673 kJ/mol
# GULP energy per Si atom -5580.004417 kJ/mol
# Density = 2.476346 g / cm^3
# Si number density = 24.819953 Si / 1000 Ang^3
#
#
#
# Elastic Constant Matrix: (Units=GPa)
#
#
# Indices 1 2 3 4 5 6 
#
# 1 92.9399 -5.0622 14.9206 0.0000 -10.4901 0.0000
# 2 -5.0622 79.4526 11.6865 0.0000 15.9291 0.0000
# 3 14.9206 11.6865 92.6833 0.0000 10.1051 0.0000
# 4 0.0000 0.0000 0.0000 23.1632 0.0000 3.9338
# 5 -10.4901 15.9291 10.1051 0.0000 35.0094 0.0000
# 6 0.0000 0.0000 0.0000 3.9338 0.0000 35.2318
#
#
#
# Elastic Compliance Matrix: (Units=1/GPa)
#
#
# Indices 1 2 3 4 5 6 
#
# 1 0.011605 0.000276 -0.002342 0.000000 0.004028 0.000000
# 2 0.000276 0.013964 -0.001158 0.000000 -0.005937 0.000000
# 3 -0.002342 -0.001158 0.011700 0.000000 -0.003552 0.000000
# 4 0.000000 0.000000 0.000000 0.044006 0.000000 -0.004914
# 5 0.004028 -0.005937 -0.003552 0.000000 0.033497 0.000000
# 6 0.000000 0.000000 0.000000 -0.004914 0.000000 0.028932
#
#
# Mechanical properties :
#
#
# Convention : Reuss Voigt Hill
#
# Bulk Modulus (GPa) = 32.44464 34.24060 33.34262
# Shear Modulus (GPa) = 31.16694 34.91628 33.04161
#
# Velocity S-wave (km/s) = 3.54746 3.75478 3.65259
# Velocity P-wave (km/s) = 5.46623 5.71169 5.59031
#
# Compressibility (1/GPa) = 0.03082173
#
# Stress axis : x y z
#
# Youngs Moduli (GPa) = 86.16728 71.61131 85.47167
#
# Poissons Ratio (x) = -0.01980 0.20020
# Poissons Ratio (y) = -0.02382 0.09898
# Poissons Ratio (z) = 0.20183 0.08293
#
# Static dielectric constant tensor:
#      x y z
#    x 1.984830 0.000000 0.053640 
#    y 0.000000 1.950940 0.000000 
#    z 0.053640 0.000000 2.128580 
# 
# From -- ./inp_files/6579.got.cif
#   From: 2010.05.17/outbox.cif.g08.bks.cpg/sg9_4_cif.got.tgz:6579.got - 2010.06.03 20:04:27.
