data_PCOD9137843
_publ_section_title
;
Structure prediction by ZEFSAII (Michael W. Deem and Ramdas Pophale) SiO2 
 PCOD9137843
Probable space group: C C
;
_chemical_formula_sum "Si O2"
_cell_formula_units_Z 32
_cell_length_a 13.873407
_cell_length_b 6.009435
_cell_length_c 17.311998
_cell_angle_alpha 90.000000
_cell_angle_beta 112.341394
_cell_angle_gamma 90.000000
_cell_volume 1334.981764
_symmetry_space_group_name_H-M "C C"
_symmetry_group_IT_number 9
_symmetry_cell_setting 'monoclinic'
loop_
_space_group_symop_operation_xyz
x,y,z
x,-y,1/2+z
1/2+x,1/2+y,z
1/2+x,1/2-y,1/2+z
loop_
_atom_site_type_symbol
_atom_site_label
_atom_site_fract_x
_atom_site_fract_y
_atom_site_fract_z
Si Si1 0.808020 0.250416 0.521160
Si Si2 0.810250 0.956863 0.233824
Si Si3 0.000990 0.342844 0.825684
Si Si4 0.526855 0.215420 0.167681
Si Si5 0.863149 0.683239 0.870334
Si Si6 0.165598 0.596918 0.068314
Si Si7 0.662198 0.616902 0.268629
Si Si8 0.136629 0.935832 0.929425
O O1 0.854570 0.200325 0.451002
O O2 0.753338 0.485280 0.486922
O O3 0.906366 0.262935 0.606727
O O4 0.715414 0.095770 0.527918
O O5 0.900294 0.775637 0.257381
O O6 0.713054 0.808835 0.233111
O O7 0.860137 0.117454 0.310758
O O8 0.770111 0.118195 0.153406
O O9 0.956619 0.519135 0.873675
O O10 0.050932 0.404990 0.757376
O O11 0.069238 0.157043 0.890806
O O12 0.579308 0.090478 0.110284
O O13 0.578821 0.461551 0.198189
O O14 0.757359 0.548129 0.820404
O O15 0.117768 0.782806 0.997413
O O16 0.628522 0.689016 0.344921
#
# Coordination Sequence:
#
# PCOD9137843 Si02
#       8
#     4   4   4   4   4   4   4   4
#     4  11  26  46  69 109 145 197 255 313 386 462
#     4  11  22  42  74 101 140 197 247 315 378 467
#     4  10  24  47  71 106 147 202 255 312 394 467
#     4  11  24  45  68 107 147 191 257 314 390 467
#     4  10  22  44  75 103 146 192 253 310 383 466
#     4  12  26  44  70 109 149 188 252 328 382 455
#     4   9  21  46  68  99 144 195 246 306 380 462
#     4  10  25  46  69 102 154 194 249 320 381 464
#
# _framework density 23.970365000000001
#
# number of rings (size 3 to 8) (size 9 to 14) (size 15 to 20)
#    0.000    1.500    2.500    0.750    7.000    0.000 
#    6.750    0.000    0.000    0.000    0.000    0.000 
#    0.000    0.000    0.000    0.000    0.000    0.000 
#
# Total GULP energy -89087.323910 kJ/mol
# GULP energy per Si atom -5567.957744 kJ/mol
# Density = 2.391581 g / cm^3
# Si number density = 23.970365 Si / 1000 Ang^3
#
#
#
# Elastic Constant Matrix: (Units=GPa)
#
#
# Indices 1 2 3 4 5 6 
#
# 1 98.9040 37.9055 57.6146 0.0000 11.1105 0.0000
# 2 37.9055 50.4298 63.0029 0.0000 -5.3295 0.0000
# 3 57.6146 63.0029 165.9794 0.0000 -7.1204 0.0000
# 4 0.0000 0.0000 0.0000 31.8050 0.0000 -1.5183
# 5 11.1105 -5.3295 -7.1204 0.0000 42.6999 0.0000
# 6 0.0000 0.0000 0.0000 -1.5183 0.0000 39.2073
#
#
#
# Elastic Compliance Matrix: (Units=1/GPa)
#
#
# Indices 1 2 3 4 5 6 
#
# 1 0.015688 -0.010047 -0.001874 0.000000 -0.005648 0.000000
# 2 -0.010047 0.044382 -0.013103 0.000000 0.005969 0.000000
# 3 -0.001874 -0.013103 0.011683 0.000000 0.000800 0.000000
# 4 0.000000 0.000000 0.000000 0.031500 0.000000 0.001220
# 5 -0.005648 0.005969 0.000800 0.000000 0.025767 0.000000
# 6 0.000000 0.000000 0.000000 0.001220 0.000000 0.025553
#
#
# Mechanical properties :
#
#
# Convention : Reuss Voigt Hill
#
# Bulk Modulus (GPa) = 46.07330 70.26215 58.16773
# Shear Modulus (GPa) = 23.60080 33.19511 28.39796
#
# Velocity S-wave (km/s) = 3.14121 3.72538 3.44570
# Velocity P-wave (km/s) = 5.69376 6.91956 6.33637
#
# Compressibility (1/GPa) = 0.02170454
#
# Stress axis : x y z
#
# Youngs Moduli (GPa) = 63.74410 22.53148 85.59164
#
# Poissons Ratio (x) = 0.22638 0.16040
# Poissons Ratio (y) = 0.64046 1.12151
# Poissons Ratio (z) = 0.11946 0.29523
#
# Static dielectric constant tensor:
#      x y z
#    x 2.118350 0.000000 -0.098770 
#    y 0.000000 1.934300 0.000000 
#    z -0.098770 0.000000 1.939050 
# 
# From -- ./inp_files/30479.got.cif
#   From: 2010.05.17/outbox.cif.g08.bks.cpg/sg9_16_cif.got.tgz:30479.got - 2010.06.03 20:04:27.
