data_PCOD9137040
_publ_section_title
;
Structure prediction by ZEFSAII (Michael W. Deem and Ramdas Pophale) SiO2 
 PCOD9137040
Probable space group: C C
;
_chemical_formula_sum "Si O2"
_cell_formula_units_Z 32
_cell_length_a 4.913895
_cell_length_b 30.180444
_cell_length_c 8.262329
_cell_angle_alpha 90.000000
_cell_angle_beta 96.990006
_cell_angle_gamma 90.000000
_cell_volume 1216.225166
_symmetry_space_group_name_H-M "C C"
_symmetry_group_IT_number 9
_symmetry_cell_setting 'monoclinic'
loop_
_space_group_symop_operation_xyz
x,y,z
x,-y,1/2+z
1/2+x,1/2+y,z
1/2+x,1/2-y,1/2+z
loop_
_atom_site_type_symbol
_atom_site_label
_atom_site_fract_x
_atom_site_fract_y
_atom_site_fract_z
Si Si1 0.616510 0.438840 0.545170
Si Si2 0.349328 0.788365 0.167236
Si Si3 0.749343 0.514539 0.343777
Si Si4 0.542513 0.364911 0.942780
Si Si5 0.977646 0.336757 0.735807
Si Si6 0.391028 0.261952 0.349637
Si Si7 0.380080 0.066486 0.625289
Si Si8 0.606118 0.111430 0.941410
O O1 0.563409 0.483966 0.443697
O O2 0.570985 0.452688 0.723847
O O3 0.423879 0.400096 0.470890
O O4 0.928969 0.425732 0.527108
O O5 0.185141 0.779783 0.319911
O O6 0.662992 0.792148 0.246525
O O7 0.188642 0.826772 0.061502
O O8 0.347686 0.748131 0.035547
O O9 0.961600 0.544654 0.459951
O O10 0.872582 0.477522 0.233950
O O11 0.240982 0.350560 0.864818
O O12 0.727031 0.364584 0.792945
O O13 0.594719 0.409339 0.051347
O O14 0.893897 0.286377 0.764338
O O15 0.042423 0.347381 0.553696
O O16 0.521173 0.103455 0.748839
#
# Coordination Sequence:
#
# PCOD9137040 Si02
#       8
#     4   4   4   4   4   4   4   4
#     4  10  22  38  59  85 121 163 213 268 329 396
#     4  11  23  42  67  99 137 178 225 277 336 402
#     4   9  20  41  62  89 125 169 217 273 336 398
#     4  11  24  44  67  96 134 177 223 277 335 398
#     4  11  23  43  67  93 133 179 221 271 334 400
#     4  11  23  42  68 100 137 179 224 276 336 404
#     4  10  22  39  65  95 129 172 223 280 337 398
#     4  11  23  39  61  93 124 163 218 272 329 396
#
# _framework density 26.310918999999998
#
# number of rings (size 3 to 8) (size 9 to 14) (size 15 to 20)
#    0.000    1.500    0.000    6.000    0.000    8.000 
#    0.000    7.500    0.000    0.000    0.000    0.000 
#    0.000    0.000    0.000    0.000    0.000    0.000 
#
# Total GULP energy -89374.872736 kJ/mol
# GULP energy per Si atom -5585.929546 kJ/mol
# Density = 2.625103 g / cm^3
# Si number density = 26.310919 Si / 1000 Ang^3
#
#
#
# Elastic Constant Matrix: (Units=GPa)
#
#
# Indices 1 2 3 4 5 6 
#
# 1 89.9144 12.2550 23.3068 0.0000 8.5562 0.0000
# 2 12.2550 86.9568 21.8943 0.0000 8.7770 0.0000
# 3 23.3068 21.8943 124.8126 0.0000 16.7488 0.0000
# 4 0.0000 0.0000 0.0000 50.2529 0.0000 1.7180
# 5 8.5562 8.7770 16.7488 0.0000 28.4068 0.0000
# 6 0.0000 0.0000 0.0000 1.7180 0.0000 21.6003
#
#
#
# Elastic Compliance Matrix: (Units=1/GPa)
#
#
# Indices 1 2 3 4 5 6 
#
# 1 0.011927 -0.001014 -0.001748 0.000000 -0.002249 0.000000
# 2 -0.001014 0.012309 -0.001629 0.000000 -0.002537 0.000000
# 3 -0.001748 -0.001629 0.009215 0.000000 -0.004403 0.000000
# 4 0.000000 0.000000 0.000000 0.019954 0.000000 -0.001587
# 5 -0.002249 -0.002537 -0.004403 0.000000 0.039260 0.000000
# 6 0.000000 0.000000 0.000000 -0.001587 0.000000 0.046422
#
#
# Mechanical properties :
#
#
# Convention : Reuss Voigt Hill
#
# Bulk Modulus (GPa) = 40.53616 46.28847 43.41231
# Shear Modulus (GPa) = 32.03244 36.33386 34.18315
#
# Velocity S-wave (km/s) = 3.49299 3.72013 3.60835
# Velocity P-wave (km/s) = 5.63099 6.00696 5.82201
#
# Compressibility (1/GPa) = 0.02466933
#
# Stress axis : x y z
#
# Youngs Moduli (GPa) = 83.84437 81.24003 108.51787
#
# Poissons Ratio (x) = 0.08237 0.18964
# Poissons Ratio (y) = 0.08501 0.17683
# Poissons Ratio (z) = 0.14652 0.13238
#
# Static dielectric constant tensor:
#      x y z
#    x 1.982950 0.000000 -0.027540 
#    y 0.000000 2.121690 0.000000 
#    z -0.027540 0.000000 2.089590 
# 
# From -- ./inp_files/4524.got.cif
#   From: 2010.05.17/outbox.cif.g08.bks.cpg/sg9_3_cif.got.tgz:4524.got - 2010.06.03 20:04:27.
