data_PCOD9137929
_publ_section_title
;
Structure prediction by ZEFSAII (Michael W. Deem and Ramdas Pophale) SiO2 
 PCOD9137929
Probable space group: C C
;
_chemical_formula_sum "Si O2"
_cell_formula_units_Z 20
_cell_length_a 6.796162
_cell_length_b 17.608420
_cell_length_c 7.710501
_cell_angle_alpha 90.000000
_cell_angle_beta 56.243028
_cell_angle_gamma 90.000000
_cell_volume 767.145558
_symmetry_space_group_name_H-M "C C"
_symmetry_group_IT_number 9
_symmetry_cell_setting 'monoclinic'
loop_
_space_group_symop_operation_xyz
x,y,z
x,-y,1/2+z
1/2+x,1/2+y,z
1/2+x,1/2-y,1/2+z
loop_
_atom_site_type_symbol
_atom_site_label
_atom_site_fract_x
_atom_site_fract_y
_atom_site_fract_z
Si Si1 0.202680 0.157860 0.247820
Si Si2 0.907927 0.874396 0.585342
Si Si3 0.009856 0.199274 0.689557
Si Si4 0.955880 0.386875 0.050307
Si Si5 0.772873 0.498928 0.859510
O O1 0.394894 0.219254 0.211757
O O2 0.289876 0.071831 0.217628
O O3 0.100514 0.171261 0.107380
O O4 0.007962 0.163777 0.497704
O O5 0.866919 0.840370 0.415253
O O6 0.689189 0.876797 0.824121
O O7 0.023500 0.957016 0.493294
O O8 0.279559 0.185580 0.629940
O O9 0.810203 0.449997 0.013564
O O10 0.960983 0.432982 0.228162
#
# Coordination Sequence:
#
# PCOD9137929 Si02
#       5
#     4   4   4   4   4
#     4  11  25  51  75 107 157 204 253 316 390 453
#     4  11  25  50  77 112 155 200 259 320 386 457
#     4  10  27  49  70 110 156 199 257 311 383 462
#     4  10  23  45  76 111 150 200 253 321 382 459
#     4  10  22  45  72 112 146 195 258 318 381 451
#
# _framework density 26.070671999999998
#
# number of rings (size 3 to 8) (size 9 to 14) (size 15 to 20)
#    0.000    1.600    2.000    0.000    8.400    1.600 
#    7.200    0.000    0.000    0.000    0.000    0.000 
#    0.000    0.000    0.000    0.000    0.000    0.000 
#
# Total GULP energy -55792.343692 kJ/mol
# GULP energy per Si atom -5579.234369 kJ/mol
# Density = 2.601133 g / cm^3
# Si number density = 26.070672 Si / 1000 Ang^3
#
#
#
# Elastic Constant Matrix: (Units=GPa)
#
#
# Indices 1 2 3 4 5 6 
#
# 1 46.9032 69.7461 34.6833 0.0000 1.2646 0.0000
# 2 69.7461 137.1773 46.2374 0.0000 -11.0407 0.0000
# 3 34.6833 46.2374 162.6710 0.0000 -13.5601 0.0000
# 4 0.0000 0.0000 0.0000 54.8760 0.0000 5.1638
# 5 1.2646 -11.0407 -13.5601 0.0000 55.6068 0.0000
# 6 0.0000 0.0000 0.0000 5.1638 0.0000 41.7701
#
#
#
# Elastic Compliance Matrix: (Units=1/GPa)
#
#
# Indices 1 2 3 4 5 6 
#
# 1 0.105074 -0.051592 -0.008974 0.000000 -0.014821 0.000000
# 2 -0.051592 0.033456 0.002186 0.000000 0.008349 0.000000
# 3 -0.008974 0.002186 0.007648 0.000000 0.002503 0.000000
# 4 0.000000 0.000000 0.000000 0.018437 0.000000 -0.002279
# 5 -0.014821 0.008349 0.002503 0.000000 0.020589 0.000000
# 6 0.000000 0.000000 0.000000 -0.002279 0.000000 0.024222
#
#
# Mechanical properties :
#
#
# Convention : Reuss Voigt Hill
#
# Bulk Modulus (GPa) = 33.99133 72.00946 53.00039
# Shear Modulus (GPa) = 14.88134 43.52289 29.20212
#
# Velocity S-wave (km/s) = 2.39175 4.09029 3.35044
# Velocity P-wave (km/s) = 4.54904 7.07022 5.94482
#
# Compressibility (1/GPa) = 0.02941927
#
# Stress axis : x y z
#
# Youngs Moduli (GPa) = 9.51711 29.89003 130.75385
#
# Poissons Ratio (x) = 1.54207 1.17340
# Poissons Ratio (y) = 0.49100 -0.28588
# Poissons Ratio (z) = 0.08541 -0.06535
#
# Static dielectric constant tensor:
#      x y z
#    x 2.157880 0.000000 0.068030 
#    y 0.000000 2.077810 0.000000 
#    z 0.068030 0.000000 2.198420 
# 
# From -- ./inp_files/5165.got.cif
#   From: 2010.05.17/outbox.cif.g08.bks.cpg/sg9_3_cif.got.tgz:5165.got - 2010.06.03 20:04:27.
