data_PCOD9137006
_publ_section_title
;
Structure prediction by ZEFSAII (Michael W. Deem and Ramdas Pophale) SiO2 
 PCOD9137006
Probable space group: C C
;
_chemical_formula_sum "Si O2"
_cell_formula_units_Z 28
_cell_length_a 13.757523
_cell_length_b 18.317371
_cell_length_c 5.107607
_cell_angle_alpha 90.000000
_cell_angle_beta 54.986443
_cell_angle_gamma 90.000000
_cell_volume 1054.176694
_symmetry_space_group_name_H-M "C C"
_symmetry_group_IT_number 9
_symmetry_cell_setting 'monoclinic'
loop_
_space_group_symop_operation_xyz
x,y,z
x,-y,1/2+z
1/2+x,1/2+y,z
1/2+x,1/2-y,1/2+z
loop_
_atom_site_type_symbol
_atom_site_label
_atom_site_fract_x
_atom_site_fract_y
_atom_site_fract_z
Si Si1 0.363630 0.084759 0.922490
Si Si2 0.722111 0.714144 0.849494
Si Si3 0.494614 0.654915 0.272656
Si Si4 0.941411 0.704821 0.186438
Si Si5 0.731541 0.873315 0.035850
Si Si6 0.583892 0.098972 0.260535
Si Si7 0.110991 0.960265 0.967562
O O1 0.290533 0.148986 0.890950
O O2 0.466286 0.057639 0.561139
O O3 0.428069 0.127649 0.057371
O O4 0.254735 0.040330 0.217125
O O5 0.816254 0.733851 0.484782
O O6 0.605194 0.675667 0.916995
O O7 0.705707 0.785626 0.054178
O O8 0.472959 0.733482 0.435091
O O9 0.372913 0.623045 0.351799
O O10 0.547648 0.607061 0.427525
O O11 0.029250 0.680345 0.284526
O O12 0.661810 0.913258 0.379273
O O13 0.678336 0.902132 0.847959
O O14 0.075966 0.024528 0.818130
#
# Coordination Sequence:
#
# PCOD9137006 Si02
#       7
#     4   4   4   4   4   4   4
#     4  10  22  44  72  99 143 181 240 309 356 424
#     4  10  22  36  60 101 142 185 231 286 368 437
#     4  11  24  45  68 104 150 199 236 303 362 442
#     4  11  21  41  68 106 142 192 227 309 380 425
#     4  12  23  39  61 102 144 186 221 282 372 449
#     4  11  23  39  64 101 146 169 228 287 374 440
#     4  11  29  50  75 105 141 200 255 298 348 421
#
# _framework density 26.561012000000002
#
# number of rings (size 3 to 8) (size 9 to 14) (size 15 to 20)
#    0.000    1.143    4.286    0.857    8.000    2.286 
#    2.571    0.000    0.000    5.143    0.000    0.000 
#    0.000    0.000    0.000    0.000    0.000    0.000 
#
# Total GULP energy -78269.378412 kJ/mol
# GULP energy per Si atom -5590.669887 kJ/mol
# Density = 2.650056 g / cm^3
# Si number density = 26.561012 Si / 1000 Ang^3
#
#
#
# Elastic Constant Matrix: (Units=GPa)
#
#
# Indices 1 2 3 4 5 6 
#
# 1 165.3558 24.4622 42.9806 0.0000 -18.1852 0.0000
# 2 24.4622 28.3030 6.8195 0.0000 0.4406 0.0000
# 3 42.9806 6.8195 85.8985 0.0000 -0.3145 0.0000
# 4 0.0000 0.0000 0.0000 27.1791 0.0000 -2.0139
# 5 -18.1852 0.4406 -0.3145 0.0000 45.3339 0.0000
# 6 0.0000 0.0000 0.0000 -2.0139 0.0000 33.1791
#
#
#
# Elastic Compliance Matrix: (Units=1/GPa)
#
#
# Indices 1 2 3 4 5 6 
#
# 1 0.008303 -0.006352 -0.003638 0.000000 0.003367 0.000000
# 2 -0.006352 0.040887 -0.000078 0.000000 -0.002946 0.000000
# 3 -0.003638 -0.000078 0.013463 0.000000 -0.001365 0.000000
# 4 0.000000 0.000000 0.000000 0.036959 0.000000 0.002243
# 5 0.003367 -0.002946 -0.001365 0.000000 0.023428 0.000000
# 6 0.000000 0.000000 0.000000 0.002243 0.000000 0.030276
#
#
# Mechanical properties :
#
#
# Convention : Reuss Voigt Hill
#
# Bulk Modulus (GPa) = 23.52049 47.56466 35.54257
# Shear Modulus (GPa) = 26.64872 34.82474 30.73673
#
# Velocity S-wave (km/s) = 3.17093 3.62487 3.40547
# Velocity P-wave (km/s) = 4.72026 5.95535 5.37341
#
# Compressibility (1/GPa) = 0.04251612
#
# Stress axis : x y z
#
# Youngs Moduli (GPa) = 120.43475 24.45762 74.27655
#
# Poissons Ratio (x) = 0.15536 0.27022
# Poissons Ratio (y) = 0.76504 0.00582
# Poissons Ratio (z) = 0.43814 0.00192
#
# Static dielectric constant tensor:
#      x y z
#    x 2.091690 0.000000 0.011300 
#    y 0.000000 2.140460 0.000000 
#    z 0.011300 0.000000 2.177600 
# 
# From -- ./inp_files/2685.got.cif
#   From: 2010.05.17/outbox.cif.g08.bks.cpg/sg9_2_cif.got.tgz:2685.got - 2010.06.03 20:04:27.
