data_PCOD9137494
_publ_section_title
;
Structure prediction by ZEFSAII (Michael W. Deem and Ramdas Pophale) SiO2 
 PCOD9137494
Probable space group: C C
;
_chemical_formula_sum "Si O2"
_cell_formula_units_Z 24
_cell_length_a 12.438958
_cell_length_b 7.396784
_cell_length_c 13.893992
_cell_angle_alpha 90.000000
_cell_angle_beta 42.561585
_cell_angle_gamma 90.000000
_cell_volume 864.661673
_symmetry_space_group_name_H-M "C C"
_symmetry_group_IT_number 9
_symmetry_cell_setting 'monoclinic'
loop_
_space_group_symop_operation_xyz
x,y,z
x,-y,1/2+z
1/2+x,1/2+y,z
1/2+x,1/2-y,1/2+z
loop_
_atom_site_type_symbol
_atom_site_label
_atom_site_fract_x
_atom_site_fract_y
_atom_site_fract_z
Si Si1 0.946110 0.878832 0.741480
Si Si2 0.956037 0.702212 0.919518
Si Si3 0.238557 0.948859 0.173575
Si Si4 0.102633 0.591109 0.218648
Si Si5 0.267449 0.312106 0.436294
Si Si6 0.071993 0.006003 0.972717
O O1 0.879901 0.733342 0.862771
O O2 0.828783 0.049049 0.815673
O O3 0.097903 0.951151 0.704758
O O4 0.002748 0.853128 0.594973
O O5 0.106633 0.584634 0.782239
O O6 0.960259 0.893346 0.971947
O O7 0.883729 0.567602 0.045332
O O8 0.237434 0.743208 0.141854
O O9 0.202004 0.931443 0.309901
O O10 0.935387 0.699336 0.347284
O O11 0.150379 0.557152 0.077332
O O12 0.152086 0.152951 0.480939
#
# Coordination Sequence:
#
# PCOD9137494 Si02
#       6
#     4   4   4   4   4   4
#     4  10  23  42  67  98 136 180 235 284 348 415
#     4  11  24  43  73 101 139 189 232 292 359 413
#     4  10  22  42  67  96 139 181 235 290 343 417
#     4  11  22  45  69  96 140 189 226 291 353 413
#     4  11  21  43  70  93 139 183 227 288 348 409
#     4  11  22  43  70 102 137 184 233 291 347 425
#
# _framework density 27.756519999999998
#
# number of rings (size 3 to 8) (size 9 to 14) (size 15 to 20)
#    0.000    1.333    5.000    1.000    4.667    0.000 
#    6.000    0.000    0.000    0.000    0.000    0.000 
#    0.000    0.000    0.000    0.000    0.000    0.000 
#
# Total GULP energy -66875.656751 kJ/mol
# GULP energy per Si atom -5572.971396 kJ/mol
# Density = 2.769334 g / cm^3
# Si number density = 27.756520 Si / 1000 Ang^3
#
#
#
# Elastic Constant Matrix: (Units=GPa)
#
#
# Indices 1 2 3 4 5 6 
#
# 1 72.5425 -16.9070 27.2539 0.0000 2.3558 0.0000
# 2 -16.9070 77.7157 23.5255 0.0000 0.8029 0.0000
# 3 27.2539 23.5255 195.3959 0.0000 28.8747 0.0000
# 4 0.0000 0.0000 0.0000 44.9811 0.0000 -3.4758
# 5 2.3558 0.8029 28.8747 0.0000 31.5637 0.0000
# 6 0.0000 0.0000 0.0000 -3.4758 0.0000 1.9240
#
#
#
# Elastic Compliance Matrix: (Units=1/GPa)
#
#
# Indices 1 2 3 4 5 6 
#
# 1 0.015851 0.004323 -0.002937 0.000000 0.001394 0.000000
# 2 0.004323 0.014580 -0.002609 0.000000 0.001693 0.000000
# 3 -0.002937 -0.002609 0.006706 0.000000 -0.005849 0.000000
# 4 0.000000 0.000000 0.000000 0.025838 0.000000 0.046678
# 5 0.001394 0.001693 -0.005849 0.000000 0.036886 0.000000
# 6 0.000000 0.000000 0.000000 0.046678 0.000000 0.604067
#
#
# Mechanical properties :
#
#
# Convention : Reuss Voigt Hill
#
# Bulk Modulus (GPa) = 28.82573 45.93320 37.37946
# Shear Modulus (GPa) = 6.96439 36.47920 21.72180
#
# Velocity S-wave (km/s) = 1.58573 3.62920 2.80050
# Velocity P-wave (km/s) = 3.70951 5.84346 4.89421
#
# Compressibility (1/GPa) = 0.03469123
#
# Stress axis : x y z
#
# Youngs Moduli (GPa) = 63.08792 68.58673 149.12135
#
# Poissons Ratio (x) = -0.29651 0.43803
# Poissons Ratio (y) = -0.27274 0.38900
# Poissons Ratio (z) = 0.18532 0.17891
#
# Static dielectric constant tensor:
#      x y z
#    x 2.511580 0.000000 0.165810 
#    y 0.000000 2.165570 0.000000 
#    z 0.165810 0.000000 2.444520 
# 
# From -- ./inp_files/19974.got.cif
#   From: 2010.05.17/outbox.cif.g08.bks.cpg/sg9_10_cif.got.tgz:19974.got - 2010.06.03 20:04:27.
