data_PCOD9137495
_publ_section_title
;
Structure prediction by ZEFSAII (Michael W. Deem and Ramdas Pophale) SiO2 
 PCOD9137495
Probable space group: C C
;
_chemical_formula_sum "Si O2"
_cell_formula_units_Z 32
_cell_length_a 16.411675
_cell_length_b 9.278641
_cell_length_c 15.042684
_cell_angle_alpha 90.000000
_cell_angle_beta 38.246259
_cell_angle_gamma 90.000000
_cell_volume 1418.022753
_symmetry_space_group_name_H-M "C C"
_symmetry_group_IT_number 9
_symmetry_cell_setting 'monoclinic'
loop_
_space_group_symop_operation_xyz
x,y,z
x,-y,1/2+z
1/2+x,1/2+y,z
1/2+x,1/2-y,1/2+z
loop_
_atom_site_type_symbol
_atom_site_label
_atom_site_fract_x
_atom_site_fract_y
_atom_site_fract_z
Si Si1 0.382810 0.844464 0.725610
Si Si2 0.637161 0.346193 0.042926
Si Si3 0.653193 0.825389 0.120569
Si Si4 0.493520 0.939910 0.407605
Si Si5 0.369540 0.671949 0.572890
Si Si6 0.041614 0.065170 0.980403
Si Si7 0.539459 0.889724 0.033433
Si Si8 0.180772 0.993317 0.674944
O O1 0.524254 0.767639 0.615701
O O2 0.286524 0.809218 0.888656
O O3 0.310274 0.770961 0.702313
O O4 0.420179 0.010970 0.674270
O O5 0.610742 0.487010 0.004296
O O6 0.631650 0.384334 0.150241
O O7 0.552299 0.929150 0.259655
O O8 0.791228 0.853978 0.050166
O O9 0.640714 0.863523 0.027980
O O10 0.634552 0.657654 0.167025
O O11 0.491428 0.774254 0.442837
O O12 0.340885 0.988263 0.537201
O O13 0.574292 0.027148 0.412216
O O14 0.408104 0.522525 0.581036
O O15 0.124678 0.032394 0.819832
O O16 0.008954 0.229048 0.028162
#
# Coordination Sequence:
#
# PCOD9137495 Si02
#       8
#     4   4   4   4   4   4   4   4
#     4  10  24  45  74 104 146 190 241 296 366 427
#     4  11  23  48  73 103 140 196 241 293 358 449
#     4  11  21  44  69 100 131 192 237 285 356 434
#     4  10  22  42  67  96 141 181 236 293 360 421
#     4   9  21  40  69  95 135 188 230 284 352 428
#     4  11  22  44  66 105 141 181 236 295 356 422
#     4  11  24  43  69 108 139 182 233 304 353 425
#     4  11  23  42  73  99 139 190 234 298 361 428
#
# _framework density 22.566632999999999
#
# number of rings (size 3 to 8) (size 9 to 14) (size 15 to 20)
#    0.000    1.500    2.500    3.000    3.500    2.000 
#    9.000    0.000    0.000    0.000    0.000    0.000 
#    0.000    0.000    0.000    0.000    0.000    0.000 
#
# Total GULP energy -89242.775486 kJ/mol
# GULP energy per Si atom -5577.673468 kJ/mol
# Density = 2.251527 g / cm^3
# Si number density = 22.566633 Si / 1000 Ang^3
#
#
#
# Elastic Constant Matrix: (Units=GPa)
#
#
# Indices 1 2 3 4 5 6 
#
# 1 125.4524 57.4176 22.3203 0.0000 23.2504 0.0000
# 2 57.4176 101.2716 41.2729 0.0000 -4.5478 0.0000
# 3 22.3203 41.2729 51.9150 0.0000 6.2023 0.0000
# 4 0.0000 0.0000 0.0000 13.8373 0.0000 9.7106
# 5 23.2504 -4.5478 6.2023 0.0000 37.0522 0.0000
# 6 0.0000 0.0000 0.0000 9.7106 0.0000 34.1192
#
#
#
# Elastic Compliance Matrix: (Units=1/GPa)
#
#
# Indices 1 2 3 4 5 6 
#
# 1 0.013617 -0.009296 0.002748 0.000000 -0.010146 0.000000
# 2 -0.009296 0.021501 -0.014397 0.000000 0.010882 0.000000
# 3 0.002748 -0.014397 0.030555 0.000000 -0.008606 0.000000
# 4 0.000000 0.000000 0.000000 0.090305 0.000000 -0.025702
# 5 -0.010146 0.010882 -0.008606 0.000000 0.036132 0.000000
# 6 0.000000 0.000000 0.000000 -0.025702 0.000000 0.036624
#
#
# Mechanical properties :
#
#
# Convention : Reuss Voigt Hill
#
# Bulk Modulus (GPa) = 42.04688 57.85119 49.94904
# Shear Modulus (GPa) = 17.94998 27.51029 22.73013
#
# Velocity S-wave (km/s) = 2.82338 3.49530 3.17716
# Velocity P-wave (km/s) = 5.41308 6.47927 5.97002
#
# Compressibility (1/GPa) = 0.02378298
#
# Stress axis : x y z
#
# Youngs Moduli (GPa) = 73.43614 46.50912 32.72822
#
# Poissons Ratio (x) = 0.43235 -0.08994
# Poissons Ratio (y) = 0.68267 0.47119
# Poissons Ratio (z) = -0.20180 0.66959
#
# Static dielectric constant tensor:
#      x y z
#    x 1.866000 0.000000 -0.016230 
#    y 0.000000 1.853560 0.000000 
#    z -0.016230 0.000000 1.924280 
# 
# From -- ./inp_files/26729.got.cif
#   From: 2010.05.17/outbox.cif.g08.bks.cpg/sg9_14_cif.got.tgz:26729.got - 2010.06.03 20:04:27.
