data_PCOD9137658
_publ_section_title
;
Structure prediction by ZEFSAII (Michael W. Deem and Ramdas Pophale) SiO2 
 PCOD9137658
Probable space group: C C
;
_chemical_formula_sum "Si O2"
_cell_formula_units_Z 32
_cell_length_a 11.243074
_cell_length_b 9.411219
_cell_length_c 13.117847
_cell_angle_alpha 90.000000
_cell_angle_beta 90.257699
_cell_angle_gamma 90.000000
_cell_volume 1387.998885
_symmetry_space_group_name_H-M "C C"
_symmetry_group_IT_number 9
_symmetry_cell_setting 'monoclinic'
loop_
_space_group_symop_operation_xyz
x,y,z
x,-y,1/2+z
1/2+x,1/2+y,z
1/2+x,1/2-y,1/2+z
loop_
_atom_site_type_symbol
_atom_site_label
_atom_site_fract_x
_atom_site_fract_y
_atom_site_fract_z
Si Si1 0.370960 0.830148 0.465970
Si Si2 0.217403 0.622607 0.852906
Si Si3 0.623569 0.606440 0.907034
Si Si4 0.063727 0.380206 0.768947
Si Si5 0.107596 0.695958 0.055189
Si Si6 0.436344 0.416396 0.813778
Si Si7 0.796552 0.339065 0.685819
Si Si8 0.568950 0.480167 0.617422
O O1 0.263152 0.922084 0.422460
O O2 0.493498 0.889650 0.510454
O O3 0.403243 0.725936 0.373298
O O4 0.316709 0.769061 0.573134
O O5 0.107063 0.520630 0.824920
O O6 0.334299 0.525801 0.845562
O O7 0.232116 0.736185 0.764124
O O8 0.201783 0.687977 0.965106
O O9 0.595294 0.743269 0.838101
O O10 0.559178 0.472137 0.860317
O O11 0.568114 0.620531 0.019090
O O12 0.139560 0.367664 0.664532
O O13 0.925365 0.376887 0.734328
O O14 0.062805 0.856270 0.080636
O O15 0.466479 0.430775 0.694511
O O16 0.702231 0.464668 0.664914
#
# Coordination Sequence:
#
# PCOD9137658 Si02
#       8
#     4   4   4   4   4   4   4   4
#     4  10  22  43  69 100 139 182 230 291 345 420
#     4  12  26  41  70 101 143 186 232 293 362 419
#     4  11  22  41  71 102 135 184 235 287 350 419
#     4  11  24  46  66 101 146 180 236 299 349 425
#     4  11  24  45  67 102 139 183 235 298 355 423
#     4  12  22  41  71  99 140 187 235 288 352 421
#     4  10  24  46  69 103 146 184 235 300 353 420
#     4  11  24  43  75 100 138 188 238 294 360 425
#
# _framework density 23.054773000000001
#
# number of rings (size 3 to 8) (size 9 to 14) (size 15 to 20)
#    0.000    1.000    5.000    1.500    1.750    1.000 
#    4.500    2.500    0.000    0.000    0.000    0.000 
#    0.000    0.000    0.000    0.000    0.000    0.000 
#
# Total GULP energy -89341.457614 kJ/mol
# GULP energy per Si atom -5583.841101 kJ/mol
# Density = 2.300230 g / cm^3
# Si number density = 23.054773 Si / 1000 Ang^3
#
#
#
# Elastic Constant Matrix: (Units=GPa)
#
#
# Indices 1 2 3 4 5 6 
#
# 1 68.7436 19.0424 28.4749 0.0000 -4.0565 0.0000
# 2 19.0424 40.2134 25.8286 0.0000 -11.2141 0.0000
# 3 28.4749 25.8286 163.8198 0.0000 -43.4652 0.0000
# 4 0.0000 0.0000 0.0000 37.5670 0.0000 -0.5219
# 5 -4.0565 -11.2141 -43.4652 0.0000 46.9696 0.0000
# 6 0.0000 0.0000 0.0000 -0.5219 0.0000 39.5279
#
#
#
# Elastic Compliance Matrix: (Units=1/GPa)
#
#
# Indices 1 2 3 4 5 6 
#
# 1 0.017500 -0.007365 -0.002580 0.000000 -0.002634 0.000000
# 2 -0.007365 0.031186 -0.002426 0.000000 0.004565 0.000000
# 3 -0.002580 -0.002426 0.008910 0.000000 0.007443 0.000000
# 4 0.000000 0.000000 0.000000 0.026624 0.000000 0.000352
# 5 -0.002634 0.004565 0.007443 0.000000 0.029041 0.000000
# 6 0.000000 0.000000 0.000000 0.000352 0.000000 0.025303
#
#
# Mechanical properties :
#
#
# Convention : Reuss Voigt Hill
#
# Bulk Modulus (GPa) = 30.43565 46.60760 38.52163
# Shear Modulus (GPa) = 28.69362 38.10827 33.40095
#
# Velocity S-wave (km/s) = 3.53169 4.07005 3.81039
# Velocity P-wave (km/s) = 5.46449 6.50746 6.00865
#
# Compressibility (1/GPa) = 0.03285621
#
# Stress axis : x y z
#
# Youngs Moduli (GPa) = 57.14322 32.06605 112.23416
#
# Poissons Ratio (x) = 0.23615 0.28951
# Poissons Ratio (y) = 0.42083 0.27223
# Poissons Ratio (z) = 0.14740 0.07778
#
# Static dielectric constant tensor:
#      x y z
#    x 1.911980 0.000000 -0.000660 
#    y 0.000000 1.909640 0.000000 
#    z -0.000660 0.000000 1.970350 
# 
# From -- ./inp_files/16444.got.cif
#   From: 2010.05.17/outbox.cif.g08.bks.cpg/sg9_9_cif.got.tgz:16444.got - 2010.06.03 20:04:27.
