data_PCOD9137194
_publ_section_title
;
Structure prediction by ZEFSAII (Michael W. Deem and Ramdas Pophale) SiO2 
 PCOD9137194
Probable space group: C C
;
_chemical_formula_sum "Si O2"
_cell_formula_units_Z 28
_cell_length_a 10.634836
_cell_length_b 11.207785
_cell_length_c 15.623308
_cell_angle_alpha 90.000000
_cell_angle_beta 135.942625
_cell_angle_gamma 90.000000
_cell_volume 1294.925407
_symmetry_space_group_name_H-M "C C"
_symmetry_group_IT_number 9
_symmetry_cell_setting 'monoclinic'
loop_
_space_group_symop_operation_xyz
x,y,z
x,-y,1/2+z
1/2+x,1/2+y,z
1/2+x,1/2-y,1/2+z
loop_
_atom_site_type_symbol
_atom_site_label
_atom_site_fract_x
_atom_site_fract_y
_atom_site_fract_z
Si Si1 0.551490 0.683045 0.199850
Si Si2 0.411526 0.105256 0.294090
Si Si3 0.395030 0.112827 0.900600
Si Si4 0.222560 0.772375 0.475346
Si Si5 0.179902 0.221799 0.449341
Si Si6 0.149610 0.008981 0.039140
Si Si7 0.508663 0.581905 0.642529
O O1 0.608618 0.737837 0.318360
O O2 0.497198 0.543075 0.187332
O O3 0.731984 0.678213 0.231133
O O4 0.386022 0.743155 0.069830
O O5 0.578566 0.189192 0.356669
O O6 0.343717 0.023650 0.182362
O O7 0.446780 0.020129 0.393935
O O8 0.553814 0.198221 0.948235
O O9 0.205994 0.135529 0.758362
O O10 0.342001 0.143953 0.971583
O O11 0.113979 0.860380 0.484305
O O12 0.356850 0.678606 0.585371
O O13 0.155894 0.085974 0.467111
O O14 0.013697 0.960908 0.045652
#
# Coordination Sequence:
#
# PCOD9137194 Si02
#       7
#     4   4   4   4   4   4   4
#     4  10  24  40  71  96 140 176 229 282 339 404
#     4  10  24  43  63  97 136 177 229 282 332 409
#     4  10  22  41  66  93 135 174 223 281 336 399
#     4  12  22  42  71  95 133 182 223 283 341 400
#     4  12  22  43  69 100 134 183 223 284 345 402
#     4  10  22  40  63  94 134 170 229 274 334 405
#     4  10  22  43  61  97 136 176 228 282 329 411
#
# _framework density 21.622866999999999
#
# number of rings (size 3 to 8) (size 9 to 14) (size 15 to 20)
#    0.000    1.714    1.429    5.143    4.000    0.000 
#    0.000    0.000    0.000    0.000    0.000    0.000 
#    0.000    0.000    0.000    0.000    0.000    0.000 
#
# Total GULP energy -78147.920352 kJ/mol
# GULP energy per Si atom -5581.994311 kJ/mol
# Density = 2.157365 g / cm^3
# Si number density = 21.622867 Si / 1000 Ang^3
#
#
#
# Elastic Constant Matrix: (Units=GPa)
#
#
# Indices 1 2 3 4 5 6 
#
# 1 45.2846 15.8769 8.3225 0.0000 -2.4934 0.0000
# 2 15.8769 61.2076 19.0599 0.0000 10.8420 0.0000
# 3 8.3225 19.0599 72.9110 0.0000 2.6687 0.0000
# 4 0.0000 0.0000 0.0000 35.5773 0.0000 -5.5596
# 5 -2.4934 10.8420 2.6687 0.0000 29.3290 0.0000
# 6 0.0000 0.0000 0.0000 -5.5596 0.0000 20.9146
#
#
#
# Elastic Compliance Matrix: (Units=1/GPa)
#
#
# Indices 1 2 3 4 5 6 
#
# 1 0.025011 -0.006963 -0.001211 0.000000 0.004810 0.000000
# 2 -0.006963 0.020912 -0.004382 0.000000 -0.007924 0.000000
# 3 -0.001211 -0.004382 0.014993 0.000000 0.000153 0.000000
# 4 0.000000 0.000000 0.000000 0.029326 0.000000 0.007796
# 5 0.004810 -0.007924 0.000153 0.000000 0.037420 0.000000
# 6 0.000000 0.000000 0.000000 0.007796 0.000000 0.049886
#
#
# Mechanical properties :
#
#
# Convention : Reuss Voigt Hill
#
# Bulk Modulus (GPa) = 27.92857 29.54687 28.73772
# Shear Modulus (GPa) = 23.29974 26.24044 24.77009
#
# Velocity S-wave (km/s) = 3.28617 3.48738 3.38827
# Velocity P-wave (km/s) = 5.22903 5.46901 5.35037
#
# Compressibility (1/GPa) = 0.03580563
#
# Stress axis : x y z
#
# Youngs Moduli (GPa) = 39.98217 47.81938 66.69577
#
# Poissons Ratio (x) = 0.33296 0.08076
# Poissons Ratio (y) = 0.27839 0.29225
# Poissons Ratio (z) = 0.04841 0.20954
#
# Static dielectric constant tensor:
#      x y z
#    x 1.792610 0.000000 -0.052420 
#    y 0.000000 1.805560 0.000000 
#    z -0.052420 0.000000 1.818280 
# 
# From -- ./inp_files/24474.got.cif
#   From: 2010.05.17/outbox.cif.g08.bks.cpg/sg9_13_cif.got.tgz:24474.got - 2010.06.03 20:04:27.
