data_PCOD9137109
_publ_section_title
;
Structure prediction by ZEFSAII (Michael W. Deem and Ramdas Pophale) SiO2 
 PCOD9137109
Probable space group: C C
;
_chemical_formula_sum "Si O2"
_cell_formula_units_Z 28
_cell_length_a 19.597873
_cell_length_b 4.978698
_cell_length_c 18.511628
_cell_angle_alpha 90.000000
_cell_angle_beta 32.461889
_cell_angle_gamma 90.000000
_cell_volume 969.464884
_symmetry_space_group_name_H-M "C C"
_symmetry_group_IT_number 9
_symmetry_cell_setting 'monoclinic'
loop_
_space_group_symop_operation_xyz
x,y,z
x,-y,1/2+z
1/2+x,1/2+y,z
1/2+x,1/2-y,1/2+z
loop_
_atom_site_type_symbol
_atom_site_label
_atom_site_fract_x
_atom_site_fract_y
_atom_site_fract_z
Si Si1 0.238800 0.751067 0.857870
Si Si2 0.725114 0.307836 0.186329
Si Si3 0.531248 0.512925 0.261030
Si Si4 0.894948 0.497126 0.420151
Si Si5 0.653186 0.245916 0.516993
Si Si6 0.919146 0.824736 0.627454
Si Si7 0.556176 0.057976 0.905693
O O1 0.208502 0.544243 0.950293
O O2 0.354026 0.607761 0.710282
O O3 0.114320 0.729774 0.917638
O O4 0.238195 0.041012 0.895190
O O5 0.606931 0.494693 0.269778
O O6 0.801764 0.339791 0.193469
O O7 0.667152 0.015997 0.251326
O O8 0.797107 0.301379 0.045540
O O9 0.413378 0.719451 0.362039
O O10 0.482391 0.207795 0.296903
O O11 0.634264 0.630411 0.112727
O O12 0.937735 0.376785 0.461845
O O13 0.508767 0.248820 0.614307
O O14 0.018287 0.731371 0.475963
#
# Coordination Sequence:
#
# PCOD9137109 Si02
#       7
#     4   4   4   4   4   4   4
#     4  10  22  39  63  91 126 170 213 266 328 390
#     4   9  20  41  65  92 126 168 212 262 324 389
#     4  11  24  41  62  93 129 167 218 272 323 390
#     4  10  22  39  63  91 126 170 213 266 328 390
#     4  11  24  41  62  93 129 167 218 272 323 390
#     4   9  20  41  65  92 126 168 212 262 324 389
#     4   8  18  38  62  94 126 162 216 270 318 386
#
# _framework density 28.881910999999999
#
# number of rings (size 3 to 8) (size 9 to 14) (size 15 to 20)
#    0.000    2.286    0.000    0.857    0.000   13.714 
#    0.000   21.429    0.000    0.000    0.000    0.000 
#    0.000    0.000    0.000    0.000    0.000    0.000 
#
# Total GULP energy -77949.138100 kJ/mol
# GULP energy per Si atom -5567.795579 kJ/mol
# Density = 2.881617 g / cm^3
# Si number density = 28.881911 Si / 1000 Ang^3
#
#
#
# Elastic Constant Matrix: (Units=GPa)
#
#
# Indices 1 2 3 4 5 6 
#
# 1 107.5115 16.4070 -6.3439 -0.0013 21.1008 0.0015
# 2 16.4070 124.5678 13.9870 -0.0028 -1.1935 0.0064
# 3 -6.3439 13.9870 61.2005 -0.0042 -2.3391 -0.0016
# 4 -0.0013 -0.0028 -0.0042 36.4395 0.0017 1.8376
# 5 21.1008 -1.1935 -2.3391 0.0017 36.1041 -0.0023
# 6 0.0015 0.0064 -0.0016 1.8376 -0.0023 32.0651
#
#
#
# Elastic Compliance Matrix: (Units=1/GPa)
#
#
# Indices 1 2 3 4 5 6 
#
# 1 0.010866 -0.001633 0.001258 0.000001 -0.006323 -0.000001
# 2 -0.001633 0.008485 -0.002066 0.000000 0.001101 -0.000002
# 3 0.001258 -0.002066 0.016954 0.000002 0.000295 0.000001
# 4 0.000001 0.000000 0.000002 0.027522 -0.000002 -0.001577
# 5 -0.006323 0.001101 0.000295 -0.000002 0.031449 0.000002
# 6 -0.000001 -0.000002 0.000001 -0.001577 0.000002 0.031277
#
#
# Mechanical properties :
#
#
# Convention : Reuss Voigt Hill
#
# Bulk Modulus (GPa) = 31.82519 37.93111 34.87815
# Shear Modulus (GPa) = 35.23369 38.87039 37.05204
#
# Velocity S-wave (km/s) = 3.49653 3.67255 3.58562
# Velocity P-wave (km/s) = 5.22914 5.58078 5.40782
#
# Compressibility (1/GPa) = 0.03142165
#
# Stress axis : x y z
#
# Youngs Moduli (GPa) = 92.03259 117.84922 58.98423
#
# Poissons Ratio (x) = 0.19244 -0.07419
# Poissons Ratio (y) = 0.15029 0.12189
# Poissons Ratio (z) = -0.11576 0.24353
#
# Static dielectric constant tensor:
#      x y z
#    x 2.381170 -0.000020 -0.128200 
#    y -0.000020 2.317960 -0.000020 
#    z -0.128200 -0.000020 2.443740 
# 
# From -- ./inp_files/34429.got.cif
#   From: 2010.05.17/outbox.cif.g08.bks.cpg/sg9_18_cif.got.tgz:34429.got - 2010.06.03 20:04:27.
