data_PCOD9137477
_publ_section_title
;
Structure prediction by ZEFSAII (Michael W. Deem and Ramdas Pophale) SiO2 
 PCOD9137477
Probable space group: C C
;
_chemical_formula_sum "Si O2"
_cell_formula_units_Z 32
_cell_length_a 7.186744
_cell_length_b 14.444259
_cell_length_c 13.828813
_cell_angle_alpha 90.000000
_cell_angle_beta 56.680559
_cell_angle_gamma 90.000000
_cell_volume 1199.559252
_symmetry_space_group_name_H-M "C C"
_symmetry_group_IT_number 9
_symmetry_cell_setting 'monoclinic'
loop_
_space_group_symop_operation_xyz
x,y,z
x,-y,1/2+z
1/2+x,1/2+y,z
1/2+x,1/2-y,1/2+z
loop_
_atom_site_type_symbol
_atom_site_label
_atom_site_fract_x
_atom_site_fract_y
_atom_site_fract_z
Si Si1 0.577380 0.198179 0.389610
Si Si2 0.818554 0.517949 0.694729
Si Si3 0.789746 0.234726 0.653343
Si Si4 0.518365 0.540309 0.570746
Si Si5 0.852949 0.283319 0.142221
Si Si6 0.948163 0.408561 0.502490
Si Si7 0.528652 0.627869 0.354020
Si Si8 0.090953 0.495072 0.795069
O O1 0.660552 0.246313 0.267688
O O2 0.419381 0.248787 0.514045
O O3 0.793833 0.170633 0.391592
O O4 0.502061 0.098782 0.369915
O O5 0.795681 0.610018 0.642624
O O6 0.004644 0.459396 0.585921
O O7 0.599966 0.456024 0.763068
O O8 0.907078 0.535545 0.775575
O O9 0.931169 0.143432 0.634760
O O10 0.567574 0.217223 0.652561
O O11 0.917869 0.303690 0.542759
O O12 0.710570 0.294050 0.770131
O O13 0.723771 0.466402 0.532062
O O14 0.523792 0.576763 0.458038
O O15 0.309583 0.479839 0.669386
O O16 0.122045 0.430609 0.370701
#
# Coordination Sequence:
#
# PCOD9137477 Si02
#       8
#     4   4   4   4   4   4   4   4
#     4  11  24  44  69 103 142 190 250 304 371 463
#     4  11  22  44  67  96 137 183 227 310 363 429
#     4  10  23  41  71  99 137 192 246 292 372 445
#     4  12  23  42  74 103 139 196 245 295 380 446
#     4  11  22  41  70 100 140 185 244 304 366 447
#     4  11  26  46  67 101 148 183 245 305 363 447
#     4  10  22  42  67 100 140 181 246 302 362 454
#     4  12  24  42  73 100 137 196 239 298 383 445
#
# _framework density 26.676463999999999
#
# number of rings (size 3 to 8) (size 9 to 14) (size 15 to 20)
#    0.000    1.000    5.000    2.250    3.500    1.000 
#    4.500    0.000    2.750    0.000    0.000    0.000 
#    0.000    0.000    0.000    0.000    0.000    0.000 
#
# Total GULP energy -89259.906019 kJ/mol
# GULP energy per Si atom -5578.744126 kJ/mol
# Density = 2.661575 g / cm^3
# Si number density = 26.676464 Si / 1000 Ang^3
#
#
#
# Elastic Constant Matrix: (Units=GPa)
#
#
# Indices 1 2 3 4 5 6 
#
# 1 52.1794 0.2235 23.2230 0.0000 -5.8338 0.0000
# 2 0.2235 44.5652 13.6794 0.0000 6.2771 0.0000
# 3 23.2230 13.6794 201.7397 0.0000 21.8446 0.0000
# 4 0.0000 0.0000 0.0000 47.2994 0.0000 12.2595
# 5 -5.8338 6.2771 21.8446 0.0000 21.3825 0.0000
# 6 0.0000 0.0000 0.0000 12.2595 0.0000 17.9825
#
#
#
# Elastic Compliance Matrix: (Units=1/GPa)
#
#
# Indices 1 2 3 4 5 6 
#
# 1 0.021821 -0.000388 -0.003533 0.000000 0.009677 0.000000
# 2 -0.000388 0.023576 -0.000892 0.000000 -0.006116 0.000000
# 3 -0.003533 -0.000892 0.006184 0.000000 -0.007020 0.000000
# 4 0.000000 0.000000 0.000000 0.025680 0.000000 -0.017507
# 5 0.009677 -0.006116 -0.007020 0.000000 0.058375 0.000000
# 6 0.000000 0.000000 0.000000 -0.017507 0.000000 0.067545
#
#
# Mechanical properties :
#
#
# Convention : Reuss Voigt Hill
#
# Bulk Modulus (GPa) = 23.83496 41.41511 32.62503
# Shear Modulus (GPa) = 22.04667 34.75677 28.40172
#
# Velocity S-wave (km/s) = 2.87792 3.61349 3.26647
# Velocity P-wave (km/s) = 4.47185 5.74181 5.14615
#
# Compressibility (1/GPa) = 0.04195518
#
# Stress axis : x y z
#
# Youngs Moduli (GPa) = 45.82775 42.41574 161.70111
#
# Poissons Ratio (x) = 0.01645 0.57136
# Poissons Ratio (y) = 0.01778 0.14420
# Poissons Ratio (z) = 0.16193 0.03782
#
# Static dielectric constant tensor:
#      x y z
#    x 2.146680 0.000000 -0.032870 
#    y 0.000000 2.099380 0.000000 
#    z -0.032870 0.000000 2.152250 
# 
# From -- ./inp_files/23367.got.cif
#   From: 2010.05.17/outbox.cif.g08.bks.cpg/sg9_12_cif.got.tgz:23367.got - 2010.06.03 20:04:27.
