data_PCOD9137587
_publ_section_title
;
Structure prediction by ZEFSAII (Michael W. Deem and Ramdas Pophale) SiO2 
 PCOD9137587
Probable space group: C C
;
_chemical_formula_sum "Si O2"
_cell_formula_units_Z 32
_cell_length_a 7.015961
_cell_length_b 18.552741
_cell_length_c 13.150810
_cell_angle_alpha 90.000000
_cell_angle_beta 62.525842
_cell_angle_gamma 90.000000
_cell_volume 1518.723060
_symmetry_space_group_name_H-M "C C"
_symmetry_group_IT_number 9
_symmetry_cell_setting 'monoclinic'
loop_
_space_group_symop_operation_xyz
x,y,z
x,-y,1/2+z
1/2+x,1/2+y,z
1/2+x,1/2-y,1/2+z
loop_
_atom_site_type_symbol
_atom_site_label
_atom_site_fract_x
_atom_site_fract_y
_atom_site_fract_z
Si Si1 0.668350 0.068870 0.284040
Si Si2 0.910697 0.666053 0.975782
Si Si3 0.934212 0.801924 0.641489
Si Si4 0.095740 0.230397 0.587715
Si Si5 0.363481 0.464399 0.094632
Si Si6 0.149041 0.677193 0.715244
Si Si7 0.991442 0.542616 0.118739
Si Si8 0.312310 0.926111 0.034615
O O1 0.836550 0.134235 0.233927
O O2 0.492639 0.070633 0.234353
O O3 0.533480 0.069838 0.419073
O O4 0.801616 0.997568 0.220728
O O5 0.018808 0.647887 0.842793
O O6 0.656108 0.678262 0.031572
O O7 0.938453 0.603270 0.051365
O O8 0.027006 0.736934 0.995379
O O9 0.748612 0.785693 0.606955
O O10 0.996969 0.731886 0.691937
O O11 0.226159 0.155429 0.561790
O O12 0.864393 0.219181 0.697801
O O13 0.250744 0.386329 0.121350
O O14 0.239704 0.516851 0.049175
O O15 0.616390 0.463460 0.022468
O O16 0.849672 0.472053 0.128119
#
# Coordination Sequence:
#
# PCOD9137587 Si02
#       8
#     4   4   4   4   4   4   4   4
#     4  10  23  41  65  93 127 164 216 256 324 376
#     4  11  23  40  66  90 128 167 211 265 325 372
#     4  11  23  42  60  94 128 163 212 269 311 389
#     4  10  23  41  61  95 128 162 212 268 308 395
#     4   9  21  44  58  96 125 161 218 256 308 397
#     4  10  23  40  65  91 125 169 212 256 326 381
#     4  10  22  43  60  93 126 159 213 265 302 388
#     4  11  22  41  67  88 131 167 208 263 324 372
#
# _framework density 21.070332000000001
#
# number of rings (size 3 to 8) (size 9 to 14) (size 15 to 20)
#    0.750    1.000    1.250    2.250    3.500    0.000 
#    9.000    0.000    0.000    0.000    0.000    0.000 
#    0.000    0.000    0.000    0.000    0.000    0.000 
#
# Total GULP energy -89178.440481 kJ/mol
# GULP energy per Si atom -5573.652530 kJ/mol
# Density = 2.102237 g / cm^3
# Si number density = 21.070332 Si / 1000 Ang^3
#
#
#
# Elastic Constant Matrix: (Units=GPa)
#
#
# Indices 1 2 3 4 5 6 
#
# 1 80.4725 3.5878 3.7903 0.0000 -8.2968 0.0000
# 2 3.5878 51.1709 -15.3048 0.0000 -0.8452 0.0000
# 3 3.7903 -15.3048 52.6831 0.0000 -12.0437 0.0000
# 4 0.0000 0.0000 0.0000 12.5602 0.0000 -3.0168
# 5 -8.2968 -0.8452 -12.0437 0.0000 21.0786 0.0000
# 6 0.0000 0.0000 0.0000 -3.0168 0.0000 28.1391
#
#
#
# Elastic Compliance Matrix: (Units=1/GPa)
#
#
# Indices 1 2 3 4 5 6 
#
# 1 0.012987 -0.000832 -0.000017 0.000000 0.005069 0.000000
# 2 -0.000832 0.021938 0.007545 0.000000 0.004863 0.000000
# 3 -0.000017 0.007545 0.024434 0.000000 0.014256 0.000000
# 4 0.000000 0.000000 0.000000 0.081721 0.000000 0.008761
# 5 0.005069 0.004863 0.014256 0.000000 0.057777 0.000000
# 6 0.000000 0.000000 0.000000 0.008761 0.000000 0.036477
#
#
# Mechanical properties :
#
#
# Convention : Reuss Voigt Hill
#
# Bulk Modulus (GPa) = 13.74598 18.71923 16.23261
# Shear Modulus (GPa) = 20.30929 25.17245 22.74087
#
# Velocity S-wave (km/s) = 3.10801 3.46017 3.28881
# Velocity P-wave (km/s) = 4.40655 4.98670 4.70557
#
# Compressibility (1/GPa) = 0.07274852
#
# Stress axis : x y z
#
# Youngs Moduli (GPa) = 76.99949 45.58391 40.92734
#
# Poissons Ratio (x) = 0.03793 0.00071
# Poissons Ratio (y) = 0.06407 -0.30878
# Poissons Ratio (z) = 0.00134 -0.34391
#
# Static dielectric constant tensor:
#      x y z
#    x 1.758820 0.000000 0.031260 
#    y 0.000000 1.829980 0.000000 
#    z 0.031260 0.000000 1.730440 
# 
# From -- ./inp_files/13483.got.cif
#   From: 2010.05.17/outbox.cif.g08.bks.cpg/sg9_7_cif.got.tgz:13483.got - 2010.06.03 20:04:27.
