data_PCOD9137484
_publ_section_title
;
Structure prediction by ZEFSAII (Michael W. Deem and Ramdas Pophale) SiO2 
 PCOD9137484
Probable space group: C C
;
_chemical_formula_sum "Si O2"
_cell_formula_units_Z 32
_cell_length_a 9.669428
_cell_length_b 11.302345
_cell_length_c 15.999673
_cell_angle_alpha 90.000000
_cell_angle_beta 135.666961
_cell_angle_gamma 90.000000
_cell_volume 1221.942203
_symmetry_space_group_name_H-M "C C"
_symmetry_group_IT_number 9
_symmetry_cell_setting 'monoclinic'
loop_
_space_group_symop_operation_xyz
x,y,z
x,-y,1/2+z
1/2+x,1/2+y,z
1/2+x,1/2-y,1/2+z
loop_
_atom_site_type_symbol
_atom_site_label
_atom_site_fract_x
_atom_site_fract_y
_atom_site_fract_z
Si Si1 0.902560 0.267155 0.208530
Si Si2 0.992782 0.071354 0.913552
Si Si3 0.731094 0.773121 0.924297
Si Si4 0.063381 0.381538 0.501453
Si Si5 0.321006 0.234696 0.432188
Si Si6 0.085960 0.432327 0.154537
Si Si7 0.898296 0.577319 0.306198
Si Si8 0.070266 0.924192 0.091580
O O1 0.785545 0.174622 0.097059
O O2 0.714207 0.315007 0.175712
O O3 0.085545 0.220717 0.342316
O O4 0.989659 0.386072 0.200146
O O5 0.149870 0.164192 0.944782
O O6 0.882537 0.131133 0.944978
O O7 0.820437 0.058378 0.771127
O O8 0.071404 0.953833 0.991981
O O9 0.546500 0.849992 0.809725
O O10 0.890151 0.716229 0.931242
O O11 0.858182 0.874622 0.027132
O O12 0.040186 0.453033 0.579285
O O13 0.008769 0.471725 0.403680
O O14 0.489706 0.171018 0.557240
O O15 0.342652 0.175183 0.350492
O O16 0.691226 0.531350 0.182990
#
# Coordination Sequence:
#
# PCOD9137484 Si02
#       8
#     4   4   4   4   4   4   4   4
#     4  10  23  39  65  98 125 174 211 269 331 380
#     4  10  23  42  67  94 131 173 212 274 324 387
#     4  10  24  45  63  97 131 170 218 270 323 385
#     4  10  23  44  64  96 132 166 217 267 325 388
#     4   9  22  41  65  96 123 173 218 263 331 384
#     4  10  22  42  67  93 130 172 217 270 326 385
#     4  10  24  42  66  98 126 174 216 265 330 389
#     4  11  25  41  65 100 128 172 219 264 334 390
#
# _framework density 26.187819000000001
#
# number of rings (size 3 to 8) (size 9 to 14) (size 15 to 20)
#    0.000    2.000    0.000    0.750   12.250    4.000 
#    9.000    0.000    0.000    0.000    0.000    0.000 
#    0.000    0.000    0.000    0.000    0.000    0.000 
#
# Total GULP energy -89238.354701 kJ/mol
# GULP energy per Si atom -5577.397169 kJ/mol
# Density = 2.612821 g / cm^3
# Si number density = 26.187819 Si / 1000 Ang^3
#
#
#
# Elastic Constant Matrix: (Units=GPa)
#
#
# Indices 1 2 3 4 5 6 
#
# 1 62.2306 33.9274 38.1475 0.0000 15.6661 0.0000
# 2 33.9274 108.4427 48.1445 0.0000 9.0605 0.0000
# 3 38.1475 48.1445 177.4272 0.0000 14.0792 0.0000
# 4 0.0000 0.0000 0.0000 50.9096 0.0000 18.8243
# 5 15.6661 9.0605 14.0792 0.0000 36.4183 0.0000
# 6 0.0000 0.0000 0.0000 18.8243 0.0000 41.4149
#
#
#
# Elastic Compliance Matrix: (Units=1/GPa)
#
#
# Indices 1 2 3 4 5 6 
#
# 1 0.022459 -0.005152 -0.002853 0.000000 -0.007276 0.000000
# 2 -0.005152 0.011752 -0.002089 0.000000 0.000100 0.000000
# 3 -0.002853 -0.002089 0.006889 0.000000 -0.000916 0.000000
# 4 0.000000 0.000000 0.000000 0.023611 0.000000 -0.010732
# 5 -0.007276 0.000100 -0.000916 0.000000 0.030918 0.000000
# 6 0.000000 0.000000 0.000000 -0.010732 0.000000 0.029024
#
#
# Mechanical properties :
#
#
# Convention : Reuss Voigt Hill
#
# Bulk Modulus (GPa) = 47.82030 65.39326 56.60678
# Shear Modulus (GPa) = 32.93532 40.94064 36.93798
#
# Velocity S-wave (km/s) = 3.55019 3.95821 3.75974
# Velocity P-wave (km/s) = 5.92498 6.77606 6.36476
#
# Compressibility (1/GPa) = 0.02091162
#
# Stress axis : x y z
#
# Youngs Moduli (GPa) = 44.52593 85.08870 145.15394
#
# Poissons Ratio (x) = 0.43835 0.41419
# Poissons Ratio (y) = 0.22938 0.30327
# Poissons Ratio (z) = 0.12705 0.17778
#
# Static dielectric constant tensor:
#      x y z
#    x 2.146330 0.000000 0.000540 
#    y 0.000000 2.122740 0.000000 
#    z 0.000540 0.000000 2.121250 
# 
# From -- ./inp_files/33369.got.cif
#   From: 2010.05.17/outbox.cif.g08.bks.cpg/sg9_17_cif.got.tgz:33369.got - 2010.06.03 20:04:27.
