data_PCOD9137854
_publ_section_title
;
Structure prediction by ZEFSAII (Michael W. Deem and Ramdas Pophale) SiO2 
 PCOD9137854
Probable space group: C C
;
_chemical_formula_sum "Si O2"
_cell_formula_units_Z 28
_cell_length_a 11.397047
_cell_length_b 9.225837
_cell_length_c 13.681242
_cell_angle_alpha 90.000000
_cell_angle_beta 122.310526
_cell_angle_gamma 90.000000
_cell_volume 1215.806476
_symmetry_space_group_name_H-M "C C"
_symmetry_group_IT_number 9
_symmetry_cell_setting 'monoclinic'
loop_
_space_group_symop_operation_xyz
x,y,z
x,-y,1/2+z
1/2+x,1/2+y,z
1/2+x,1/2-y,1/2+z
loop_
_atom_site_type_symbol
_atom_site_label
_atom_site_fract_x
_atom_site_fract_y
_atom_site_fract_z
Si Si1 0.202090 0.497061 0.831720
Si Si2 0.439138 0.324200 0.515906
Si Si3 0.350552 0.994890 0.470684
Si Si4 0.544367 0.440982 0.760561
Si Si5 0.879722 0.833022 0.281225
Si Si6 0.370972 0.767770 0.326631
Si Si7 0.874630 0.523554 0.202442
O O1 0.239495 0.586060 0.749955
O O2 0.264983 0.338781 0.836068
O O3 0.041057 0.498594 0.780473
O O4 0.292567 0.585849 0.952047
O O5 0.419111 0.152628 0.510636
O O6 0.528498 0.375979 0.645961
O O7 0.479506 0.355648 0.421082
O O8 0.199496 0.022024 0.358371
O O9 0.426278 0.878748 0.434318
O O10 0.335531 0.942469 0.574540
O O11 0.453406 0.587477 0.725738
O O12 0.477156 0.332831 0.812392
O O13 0.850037 0.666663 0.253401
O O14 0.308461 0.877845 0.217363
#
# Coordination Sequence:
#
# PCOD9137854 Si02
#       7
#     4   4   4   4   4   4   4
#     4   9  23  45  65  99 130 170 226 274 326 408
#     4  10  22  45  63  94 137 172 224 279 325 407
#     4  12  26  41  68 105 131 176 229 281 328 414
#     4  11  24  46  68  95 141 178 220 281 345 391
#     4   9  23  44  66 101 128 182 221 271 349 386
#     4  11  23  45  66 100 131 175 225 269 347 388
#     4  12  23  44  68 100 136 171 223 281 334 396
#
# _framework density 23.029980999999999
#
# number of rings (size 3 to 8) (size 9 to 14) (size 15 to 20)
#    0.857    0.571    2.857    1.714    2.000    2.286 
#    7.714    0.000    0.000    0.000    0.000    0.000 
#    0.000    0.000    0.000    0.000    0.000    0.000 
#
# Total GULP energy -78184.423133 kJ/mol
# GULP energy per Si atom -5584.601652 kJ/mol
# Density = 2.297756 g / cm^3
# Si number density = 23.029981 Si / 1000 Ang^3
#
#
#
# Elastic Constant Matrix: (Units=GPa)
#
#
# Indices 1 2 3 4 5 6 
#
# 1 48.2006 33.7995 25.5565 0.0000 3.9001 0.0000
# 2 33.7995 128.8707 16.7843 0.0000 4.9752 0.0000
# 3 25.5565 16.7843 109.0483 0.0000 -8.7936 0.0000
# 4 0.0000 0.0000 0.0000 29.3316 0.0000 -11.9272
# 5 3.9001 4.9752 -8.7936 0.0000 31.4887 0.0000
# 6 0.0000 0.0000 0.0000 -11.9272 0.0000 22.8715
#
#
#
# Elastic Compliance Matrix: (Units=1/GPa)
#
#
# Indices 1 2 3 4 5 6 
#
# 1 0.028991 -0.006643 -0.006114 0.000000 -0.004249 0.000000
# 2 -0.006643 0.009523 0.000037 0.000000 -0.000672 0.000000
# 3 -0.006114 0.000037 0.010904 0.000000 0.003796 0.000000
# 4 0.000000 0.000000 0.000000 0.043268 0.000000 0.022564
# 5 -0.004249 -0.000672 0.003796 0.000000 0.033450 0.000000
# 6 0.000000 0.000000 0.000000 0.022564 0.000000 0.055489
#
#
# Mechanical properties :
#
#
# Convention : Reuss Voigt Hill
#
# Bulk Modulus (GPa) = 41.70771 48.71114 45.20942
# Shear Modulus (GPa) = 23.24954 30.73699 26.99327
#
# Velocity S-wave (km/s) = 3.18076 3.65725 3.42730
# Velocity P-wave (km/s) = 5.62487 6.24749 5.94434
#
# Compressibility (1/GPa) = 0.02397638
#
# Stress axis : x y z
#
# Youngs Moduli (GPa) = 34.49393 105.00719 91.71235
#
# Poissons Ratio (x) = 0.69758 0.56076
# Poissons Ratio (y) = 0.22915 -0.00339
# Poissons Ratio (z) = 0.21091 -0.00388
#
# Static dielectric constant tensor:
#      x y z
#    x 1.879190 0.000000 -0.035680 
#    y 0.000000 1.905950 0.000000 
#    z -0.035680 0.000000 1.880940 
# 
# From -- ./inp_files/24319.got.cif
#   From: 2010.05.17/outbox.cif.g08.bks.cpg/sg9_13_cif.got.tgz:24319.got - 2010.06.03 20:04:27.
