data_PCOD9137979
_publ_section_title
;
Structure prediction by ZEFSAII (Michael W. Deem and Ramdas Pophale) SiO2 
 PCOD9137979
Probable space group: C C
;
_chemical_formula_sum "Si O2"
_cell_formula_units_Z 32
_cell_length_a 24.388061
_cell_length_b 5.450951
_cell_length_c 14.880966
_cell_angle_alpha 90.000000
_cell_angle_beta 139.029239
_cell_angle_gamma 90.000000
_cell_volume 1297.085209
_symmetry_space_group_name_H-M "C C"
_symmetry_group_IT_number 9
_symmetry_cell_setting 'monoclinic'
loop_
_space_group_symop_operation_xyz
x,y,z
x,-y,1/2+z
1/2+x,1/2+y,z
1/2+x,1/2-y,1/2+z
loop_
_atom_site_type_symbol
_atom_site_label
_atom_site_fract_x
_atom_site_fract_y
_atom_site_fract_z
Si Si1 0.065610 0.852035 0.891290
Si Si2 0.673517 0.496984 0.815255
Si Si3 0.038732 0.508442 0.501404
Si Si4 0.353089 0.587733 0.884120
Si Si5 0.766154 0.975915 0.957554
Si Si6 0.690485 0.368854 0.636623
Si Si7 0.018177 0.689350 0.660535
Si Si8 0.416372 0.600112 0.779419
O O1 0.045714 0.639384 0.795865
O O2 0.049597 0.748874 0.970119
O O3 0.987645 0.034358 0.793156
O O4 0.156595 0.971771 0.011041
O O5 0.701872 0.753329 0.890626
O O6 0.689872 0.516236 0.729068
O O7 0.577510 0.426316 0.715580
O O8 0.725218 0.248659 0.907566
O O9 0.117909 0.667385 0.564606
O O10 0.041863 0.503308 0.612079
O O11 0.954049 0.643044 0.363770
O O12 0.307946 0.446203 0.909735
O O13 0.280661 0.745926 0.745368
O O14 0.398651 0.464362 0.854416
O O15 0.422413 0.745343 0.023956
O O16 0.833823 0.936532 0.118982
#
# Coordination Sequence:
#
# PCOD9137979 Si02
#       8
#     4   4   4   4   4   4   4   4
#     4  11  22  43  70 101 143 189 250 295 378 446
#     4  10  25  45  71 103 150 190 241 302 369 442
#     4   9  22  43  65  97 145 184 238 306 368 438
#     4  10  22  46  69 103 143 186 247 307 376 433
#     4  11  24  47  71 106 148 192 243 305 370 439
#     4   9  22  41  67  96 137 186 235 300 361 436
#     4  10  22  46  69 105 140 195 245 305 379 442
#     4  10  23  43  66 103 142 186 243 302 365 442
#
# _framework density 24.6707
#
# number of rings (size 3 to 8) (size 9 to 14) (size 15 to 20)
#    0.000    2.000    1.250    0.750    8.750    1.000 
#   13.500    0.000    0.000    0.000    0.000    0.000 
#    0.000    0.000    0.000    0.000    0.000    0.000 
#
# Total GULP energy -89247.102915 kJ/mol
# GULP energy per Si atom -5577.943932 kJ/mol
# Density = 2.461455 g / cm^3
# Si number density = 24.670700 Si / 1000 Ang^3
#
#
#
# Elastic Constant Matrix: (Units=GPa)
#
#
# Indices 1 2 3 4 5 6 
#
# 1 96.0552 18.7350 37.5537 0.0000 -1.6842 0.0000
# 2 18.7350 40.8927 39.5594 -0.0001 4.0173 -0.0001
# 3 37.5537 39.5594 181.2932 0.0001 7.7876 0.0001
# 4 0.0000 -0.0001 0.0001 10.0358 0.0000 4.3322
# 5 -1.6842 4.0173 7.7876 0.0000 37.9002 0.0000
# 6 0.0000 -0.0001 0.0001 4.3322 0.0000 18.6802
#
#
#
# Elastic Compliance Matrix: (Units=1/GPa)
#
#
# Indices 1 2 3 4 5 6 
#
# 1 0.011849 -0.003964 -0.001645 0.000000 0.001285 0.000000
# 2 -0.003964 0.032462 -0.006161 0.000000 -0.002351 0.000000
# 3 -0.001645 -0.006161 0.007240 0.000000 -0.000908 0.000000
# 4 0.000000 0.000000 0.000000 0.110728 0.000000 -0.025680
# 5 0.001285 -0.002351 -0.000908 0.000000 0.026878 0.000000
# 6 0.000000 0.000000 0.000000 -0.025680 0.000000 0.059488
#
#
# Mechanical properties :
#
#
# Convention : Reuss Voigt Hill
#
# Bulk Modulus (GPa) = 35.69990 56.65967 46.17979
# Shear Modulus (GPa) = 17.76058 28.14945 22.95502
#
# Velocity S-wave (km/s) = 2.68602 3.38154 3.05365
# Velocity P-wave (km/s) = 4.91137 6.18568 5.58499
#
# Compressibility (1/GPa) = 0.02801128
#
# Stress axis : x y z
#
# Youngs Moduli (GPa) = 84.39272 30.80560 138.12063
#
# Poissons Ratio (x) = 0.12211 0.22718
# Poissons Ratio (y) = 0.33452 0.85100
# Poissons Ratio (z) = 0.13881 0.18980
#
# Static dielectric constant tensor:
#      x y z
#    x 2.129500 0.000000 0.013810 
#    y 0.000000 1.962130 0.000000 
#    z 0.013810 0.000000 1.998970 
# 
# From -- ./inp_files/27896.got.cif
#   From: 2010.05.17/outbox.cif.g08.bks.cpg/sg9_14_cif.got.tgz:27896.got - 2010.06.03 20:04:27.
