data_PCOD9137889
_publ_section_title
;
Structure prediction by ZEFSAII (Michael W. Deem and Ramdas Pophale) SiO2 
 PCOD9137889
Probable space group: C C
;
_chemical_formula_sum "Si O2"
_cell_formula_units_Z 32
_cell_length_a 27.705474
_cell_length_b 11.878130
_cell_length_c 14.665196
_cell_angle_alpha 90.000000
_cell_angle_beta 162.866752
_cell_angle_gamma 90.000000
_cell_volume 1421.761564
_symmetry_space_group_name_H-M "C C"
_symmetry_group_IT_number 9
_symmetry_cell_setting 'monoclinic'
loop_
_space_group_symop_operation_xyz
x,y,z
x,-y,1/2+z
1/2+x,1/2+y,z
1/2+x,1/2-y,1/2+z
loop_
_atom_site_type_symbol
_atom_site_label
_atom_site_fract_x
_atom_site_fract_y
_atom_site_fract_z
Si Si1 0.487110 0.783808 0.145160
Si Si2 0.638430 0.737803 0.665001
Si Si3 0.611130 0.000356 0.091647
Si Si4 0.459978 0.852053 0.662718
Si Si5 0.630617 0.994803 0.334031
Si Si6 0.371223 0.692742 0.743800
Si Si7 0.483064 0.419085 0.764061
Si Si8 0.141133 0.845447 0.577389
O O1 0.623368 0.880263 0.379013
O O2 0.532060 0.667253 0.273473
O O3 0.418378 0.754093 0.921169
O O4 0.334721 0.829576 0.930129
O O5 0.495041 0.650497 0.381460
O O6 0.595087 0.865171 0.560523
O O7 0.728468 0.746792 0.925593
O O8 0.780605 0.694090 0.854587
O O9 0.577865 0.967938 0.136051
O O10 0.799215 0.963157 0.414521
O O11 0.502182 0.935447 0.822664
O O12 0.501201 0.920065 0.646813
O O13 0.576833 0.744172 0.886901
O O14 0.796922 0.068173 0.630113
O O15 0.531698 0.682287 0.969114
O O16 0.596484 0.527885 0.972021
#
# Coordination Sequence:
#
# PCOD9137889 Si02
#       8
#     4   4   4   4   4   4   4   4
#     4  12  25  41  72 100 134 181 230 278 337 409
#     4  10  23  41  67  98 132 173 221 277 336 393
#     4  11  22  43  68  94 132 178 220 275 342 405
#     4  11  20  42  68  91 139 178 214 283 339 394
#     4  11  21  40  69  95 127 173 226 271 332 406
#     4  10  22  45  68  97 136 186 216 275 350 401
#     4  12  23  42  67 102 131 176 228 279 332 398
#     4  11  22  42  69  97 139 177 225 274 342 402
#
# _framework density 22.507290999999999
#
# number of rings (size 3 to 8) (size 9 to 14) (size 15 to 20)
#    0.000    1.000    6.250    3.000    0.000    0.000 
#    2.250    7.500    2.750    0.000    0.000    0.000 
#    0.000    0.000    0.000    0.000    0.000    0.000 
#
# Total GULP energy -89455.063335 kJ/mol
# GULP energy per Si atom -5590.941458 kJ/mol
# Density = 2.245606 g / cm^3
# Si number density = 22.507291 Si / 1000 Ang^3
#
#
#
# Elastic Constant Matrix: (Units=GPa)
#
#
# Indices 1 2 3 4 5 6 
#
# 1 77.8144 17.3546 12.4403 0.0000 -0.1320 0.0000
# 2 17.3546 120.3347 7.0743 0.0000 -13.6149 0.0000
# 3 12.4403 7.0743 36.9070 0.0000 -7.1866 0.0000
# 4 0.0000 0.0000 0.0000 26.9409 0.0000 7.0299
# 5 -0.1320 -13.6149 -7.1866 0.0000 29.6561 0.0000
# 6 0.0000 0.0000 0.0000 7.0299 0.0000 34.8466
#
#
#
# Elastic Compliance Matrix: (Units=1/GPa)
#
#
# Indices 1 2 3 4 5 6 
#
# 1 0.014046 -0.001972 -0.004745 0.000000 -0.001993 0.000000
# 2 -0.001972 0.009074 -0.000278 0.000000 0.004089 0.000000
# 3 -0.004745 -0.000278 0.030141 0.000000 0.007155 0.000000
# 4 0.000000 0.000000 0.000000 0.039181 0.000000 -0.007904
# 5 -0.001993 0.004089 0.007155 0.000000 0.037322 0.000000
# 6 0.000000 0.000000 0.000000 -0.007904 0.000000 0.030292
#
#
# Mechanical properties :
#
#
# Convention : Reuss Voigt Hill
#
# Bulk Modulus (GPa) = 25.46415 34.31050 29.88732
# Shear Modulus (GPa) = 26.71857 31.50119 29.10988
#
# Velocity S-wave (km/s) = 3.44918 3.74518 3.60022
# Velocity P-wave (km/s) = 5.21543 5.82916 5.53082
#
# Compressibility (1/GPa) = 0.03927090
#
# Stress axis : x y z
#
# Youngs Moduli (GPa) = 71.19420 110.20951 33.17740
#
# Poissons Ratio (x) = 0.21736 0.15741
# Poissons Ratio (y) = 0.14041 0.00923
# Poissons Ratio (z) = 0.33778 0.03065
#
# Static dielectric constant tensor:
#      x y z
#    x 1.847370 0.000000 -0.008150 
#    y 0.000000 1.875250 0.000000 
#    z -0.008150 0.000000 1.881180 
# 
# From -- ./inp_files/22876.got.cif
#   From: 2010.05.17/outbox.cif.g08.bks.cpg/sg9_12_cif.got.tgz:22876.got - 2010.06.03 20:04:27.
