data_PCOD9137515
_publ_section_title
;
Structure prediction by ZEFSAII (Michael W. Deem and Ramdas Pophale) SiO2 
 PCOD9137515
Probable space group: C C
;
_chemical_formula_sum "Si O2"
_cell_formula_units_Z 32
_cell_length_a 5.406148
_cell_length_b 17.775554
_cell_length_c 13.390835
_cell_angle_alpha 90.000000
_cell_angle_beta 77.331682
_cell_angle_gamma 90.000000
_cell_volume 1255.496298
_symmetry_space_group_name_H-M "C C"
_symmetry_group_IT_number 9
_symmetry_cell_setting 'monoclinic'
loop_
_space_group_symop_operation_xyz
x,y,z
x,-y,1/2+z
1/2+x,1/2+y,z
1/2+x,1/2-y,1/2+z
loop_
_atom_site_type_symbol
_atom_site_label
_atom_site_fract_x
_atom_site_fract_y
_atom_site_fract_z
Si Si1 0.654570 0.186900 0.047920
Si Si2 0.655968 0.519599 0.033195
Si Si3 0.319661 0.986881 0.216967
Si Si4 0.787586 0.263036 0.842995
Si Si5 0.482445 0.610795 0.881281
Si Si6 0.710407 0.900452 0.053517
Si Si7 0.528485 0.080094 0.366005
Si Si8 0.619660 0.263975 0.647403
O O1 0.379826 0.189223 0.116966
O O2 0.875439 0.203177 0.110382
O O3 0.675571 0.252980 0.963557
O O4 0.719892 0.115383 0.968915
O O5 0.718248 0.540903 0.140299
O O6 0.405662 0.467134 0.063538
O O7 0.654526 0.592441 0.961713
O O8 0.841769 0.462982 0.958760
O O9 0.458439 0.924875 0.137972
O O10 0.079934 0.952369 0.297501
O O11 0.523491 0.023839 0.273142
O O12 0.977379 0.190304 0.825051
O O13 0.924186 0.342326 0.832794
O O14 0.591012 0.254554 0.769687
O O15 0.710060 0.814878 0.090691
O O16 0.739957 0.900183 0.929284
#
# Coordination Sequence:
#
# PCOD9137515 Si02
#       8
#     4   4   4   4   4   4   4   4
#     4  10  26  46  67 106 142 185 237 305 349 437
#     4  10  22  42  68  97 140 186 238 304 363 437
#     4  10  23  41  70 101 142 189 247 295 376 447
#     4  10  23  42  70  99 145 191 242 303 372 442
#     4   9  22  45  64 103 141 184 242 298 367 430
#     4  11  23  40  71  95 142 187 244 300 368 442
#     4  10  22  44  63 102 141 183 239 304 367 434
#     4  12  25  44  73 103 145 187 243 291 374 429
#
# _framework density 25.487929000000001
#
# number of rings (size 3 to 8) (size 9 to 14) (size 15 to 20)
#    0.750    1.000    1.250    1.500    5.250    6.000 
#    6.750    0.000    0.000    0.000    0.000    0.000 
#    0.000    0.000    0.000    0.000    0.000    0.000 
#
# Total GULP energy -89099.396044 kJ/mol
# GULP energy per Si atom -5568.712253 kJ/mol
# Density = 2.542992 g / cm^3
# Si number density = 25.487929 Si / 1000 Ang^3
#
#
#
# Elastic Constant Matrix: (Units=GPa)
#
#
# Indices 1 2 3 4 5 6 
#
# 1 84.4297 27.5772 48.8883 0.0000 29.6087 0.0000
# 2 27.5772 111.0767 38.8300 0.0000 22.5036 0.0000
# 3 48.8883 38.8300 181.4816 0.0000 50.4438 0.0000
# 4 0.0000 0.0000 0.0000 19.0127 0.0000 -1.2800
# 5 29.6087 22.5036 50.4438 0.0000 21.6676 0.0000
# 6 0.0000 0.0000 0.0000 -1.2800 0.0000 17.3875
#
#
#
# Elastic Compliance Matrix: (Units=1/GPa)
#
#
# Indices 1 2 3 4 5 6 
#
# 1 0.026992 0.002360 0.008947 0.000000 -0.060164 0.000000
# 2 0.002360 0.011994 0.003278 0.000000 -0.023313 0.000000
# 3 0.008947 0.003278 0.019108 0.000000 -0.060115 0.000000
# 4 0.000000 0.000000 0.000000 0.052858 0.000000 0.003891
# 5 -0.060164 -0.023313 -0.060115 0.000000 0.292532 0.000000
# 6 0.000000 0.000000 0.000000 0.003891 0.000000 0.057799
#
#
# Mechanical properties :
#
#
# Convention : Reuss Voigt Hill
#
# Bulk Modulus (GPa) = 11.45951 67.50876 39.48413
# Shear Modulus (GPa) = 10.84126 29.05973 19.95050
#
# Velocity S-wave (km/s) = 2.06464 3.38025 2.80079
# Velocity P-wave (km/s) = 3.19209 6.46366 5.09747
#
# Compressibility (1/GPa) = 0.08726376
#
# Stress axis : x y z
#
# Youngs Moduli (GPa) = 37.04840 83.37438 52.33388
#
# Poissons Ratio (x) = -0.19677 -0.46822
# Poissons Ratio (y) = -0.08744 -0.17155
# Poissons Ratio (z) = -0.33147 -0.27331
#
# Static dielectric constant tensor:
#      x y z
#    x 2.208260 0.000000 0.093680 
#    y 0.000000 2.125640 0.000000 
#    z 0.093680 0.000000 2.035200 
# 
# From -- ./inp_files/13348.got.cif
#   From: 2010.05.17/outbox.cif.g08.bks.cpg/sg9_7_cif.got.tgz:13348.got - 2010.06.03 20:04:27.
