data_PCOD9137895
_publ_section_title
;
Structure prediction by ZEFSAII (Michael W. Deem and Ramdas Pophale) SiO2 
 PCOD9137895
Probable space group: C C
;
_chemical_formula_sum "Si O2"
_cell_formula_units_Z 20
_cell_length_a 7.252002
_cell_length_b 12.135463
_cell_length_c 15.583054
_cell_angle_alpha 90.000000
_cell_angle_beta 140.178369
_cell_angle_gamma 90.000000
_cell_volume 878.249609
_symmetry_space_group_name_H-M "C C"
_symmetry_group_IT_number 9
_symmetry_cell_setting 'monoclinic'
loop_
_space_group_symop_operation_xyz
x,y,z
x,-y,1/2+z
1/2+x,1/2+y,z
1/2+x,1/2-y,1/2+z
loop_
_atom_site_type_symbol
_atom_site_label
_atom_site_fract_x
_atom_site_fract_y
_atom_site_fract_z
Si Si1 0.601230 0.039878 0.488510
Si Si2 0.995515 0.740179 0.667133
Si Si3 0.122248 0.180420 0.386250
Si Si4 0.168885 0.496884 0.202655
Si Si5 0.725928 0.478894 0.694495
O O1 0.602181 0.975720 0.579671
O O2 0.934925 0.049314 0.583850
O O3 0.429438 0.150985 0.451533
O O4 0.425693 0.988297 0.346827
O O5 0.963017 0.746362 0.758337
O O6 0.198722 0.635210 0.719840
O O7 0.124055 0.854466 0.678992
O O8 0.703413 0.723209 0.508508
O O9 0.943429 0.067411 0.327983
O O10 0.908223 0.521268 0.173343
#
# Coordination Sequence:
#
# PCOD9137895 Si02
#       5
#     4   4   4   4   4
#     4  10  22  45  69 100 145 175 232 297 335 423
#     4  10  24  45  67 102 145 176 242 286 352 426
#     4  10  23  47  69 107 140 184 239 293 348 422
#     4  11  24  46  73  99 142 188 228 295 352 406
#     4  11  25  45  72 106 142 187 235 287 363 411
#
# _framework density 22.772568
#
# number of rings (size 3 to 8) (size 9 to 14) (size 15 to 20)
#    0.000    1.600    4.000    0.000    8.400    0.000 
#   10.800    0.000    0.000    0.000    0.000    0.000 
#    0.000    0.000    0.000    0.000    0.000    0.000 
#
# Total GULP energy -55835.330075 kJ/mol
# GULP energy per Si atom -5583.533008 kJ/mol
# Density = 2.272074 g / cm^3
# Si number density = 22.772568 Si / 1000 Ang^3
#
#
#
# Elastic Constant Matrix: (Units=GPa)
#
#
# Indices 1 2 3 4 5 6 
#
# 1 118.0687 25.3432 53.5374 0.0000 -4.9630 0.0000
# 2 25.3432 70.7924 37.0306 0.0000 -7.7744 0.0000
# 3 53.5374 37.0306 176.9683 0.0001 -18.0971 0.0001
# 4 0.0000 0.0000 0.0001 38.2824 0.0001 0.1561
# 5 -4.9630 -7.7744 -18.0971 0.0001 34.7664 0.0000
# 6 0.0000 0.0000 0.0001 0.1561 0.0000 28.6600
#
#
#
# Elastic Compliance Matrix: (Units=1/GPa)
#
#
# Indices 1 2 3 4 5 6 
#
# 1 0.010138 -0.002301 -0.002630 0.000000 -0.000436 0.000000
# 2 -0.002301 0.016507 -0.002550 0.000000 0.002036 0.000000
# 3 -0.002630 -0.002550 0.007270 0.000000 0.002839 0.000000
# 4 0.000000 0.000000 0.000000 0.026122 0.000000 -0.000142
# 5 -0.000436 0.002036 0.002839 0.000000 0.030634 0.000000
# 6 0.000000 0.000000 0.000000 -0.000142 0.000000 0.034893
#
#
# Mechanical properties :
#
#
# Convention : Reuss Voigt Hill
#
# Bulk Modulus (GPa) = 52.76299 66.40578 59.58439
# Shear Modulus (GPa) = 34.04981 37.00298 35.52639
#
# Velocity S-wave (km/s) = 3.87099 4.03537 3.95403
# Velocity P-wave (km/s) = 6.57262 7.13695 6.86059
#
# Compressibility (1/GPa) = 0.01895268
#
# Stress axis : x y z
#
# Youngs Moduli (GPa) = 98.64008 60.58048 137.54785
#
# Poissons Ratio (x) = 0.13943 0.36175
# Poissons Ratio (y) = 0.22702 0.35070
# Poissons Ratio (z) = 0.25942 0.15446
#
# Static dielectric constant tensor:
#      x y z
#    x 1.825140 0.000000 -0.030490 
#    y 0.000000 1.892790 0.000000 
#    z -0.030490 0.000000 1.895230 
# 
# From -- ./inp_files/4698.got.cif
#   From: 2010.05.17/outbox.cif.g08.bks.cpg/sg9_3_cif.got.tgz:4698.got - 2010.06.03 20:04:27.
