data_PCOD9137951
_publ_section_title
;
Structure prediction by ZEFSAII (Michael W. Deem and Ramdas Pophale) SiO2 
 PCOD9137951
Probable space group: C C
;
_chemical_formula_sum "Si O2"
_cell_formula_units_Z 20
_cell_length_a 11.047711
_cell_length_b 11.323560
_cell_length_c 7.302174
_cell_angle_alpha 90.000000
_cell_angle_beta 54.160746
_cell_angle_gamma 90.000000
_cell_volume 740.538681
_symmetry_space_group_name_H-M "C C"
_symmetry_group_IT_number 9
_symmetry_cell_setting 'monoclinic'
loop_
_space_group_symop_operation_xyz
x,y,z
x,-y,1/2+z
1/2+x,1/2+y,z
1/2+x,1/2-y,1/2+z
loop_
_atom_site_type_symbol
_atom_site_label
_atom_site_fract_x
_atom_site_fract_y
_atom_site_fract_z
Si Si1 0.408340 0.823473 0.659300
Si Si2 0.712945 0.802445 0.913684
Si Si3 0.502614 0.036567 0.414193
Si Si4 0.187196 0.892081 0.155266
Si Si5 0.520944 0.640314 0.318156
O O1 0.510232 0.889642 0.720758
O O2 0.447784 0.689336 0.573452
O O3 0.463523 0.898320 0.433927
O O4 0.250868 0.851301 0.900242
O O5 0.634423 0.924959 0.929490
O O6 0.648350 0.721251 0.806667
O O7 0.885065 0.834800 0.795661
O O8 0.658561 0.723799 0.133614
O O9 0.339244 0.074845 0.632704
O O10 0.078489 0.004793 0.256757
#
# Coordination Sequence:
#
# PCOD9137951 Si02
#       5
#     4   4   4   4   4
#     4  10  23  47  81 113 158 221 275 341 432 492
#     4  12  25  49  77 124 168 217 287 355 420 518
#     4  10  22  45  75 107 172 211 266 360 406 493
#     4  10  25  48  81 114 164 216 279 351 417 514
#     4  12  25  49  86 118 168 223 281 353 433 505
#
# _framework density 27.007366000000001
#
# number of rings (size 3 to 8) (size 9 to 14) (size 15 to 20)
#    1.200    0.000    2.000    3.600    0.000    4.800 
#    7.200    2.000    0.000    0.000    0.000    0.000 
#    0.000    0.000    0.000    0.000    0.000    0.000 
#
# Total GULP energy -55700.466091 kJ/mol
# GULP energy per Si atom -5570.046609 kJ/mol
# Density = 2.694590 g / cm^3
# Si number density = 27.007366 Si / 1000 Ang^3
#
#
#
# Elastic Constant Matrix: (Units=GPa)
#
#
# Indices 1 2 3 4 5 6 
#
# 1 116.0566 58.8299 50.1312 0.0000 -23.1438 0.0000
# 2 58.8299 171.8378 87.1843 0.0000 -12.6134 0.0000
# 3 50.1312 87.1843 132.5817 0.0000 16.2433 0.0000
# 4 0.0000 0.0000 0.0000 45.9213 0.0000 -10.8208
# 5 -23.1438 -12.6134 16.2433 0.0000 51.1594 0.0000
# 6 0.0000 0.0000 0.0000 -10.8208 0.0000 47.6570
#
#
#
# Elastic Compliance Matrix: (Units=1/GPa)
#
#
# Indices 1 2 3 4 5 6 
#
# 1 0.012776 -0.001480 -0.004704 0.000000 0.006908 0.000000
# 2 -0.001480 0.009836 -0.006371 0.000000 0.003778 0.000000
# 3 -0.004704 -0.006371 0.014529 0.000000 -0.008312 0.000000
# 4 0.000000 0.000000 0.000000 0.023007 0.000000 0.005224
# 5 0.006908 0.003778 -0.008312 0.000000 0.026243 0.000000
# 6 0.000000 0.000000 0.000000 0.005224 0.000000 0.022169
#
#
# Mechanical properties :
#
#
# Convention : Reuss Voigt Hill
#
# Bulk Modulus (GPa) = 83.12123 90.30744 86.71433
# Shear Modulus (GPa) = 36.31547 43.90292 40.10919
#
# Velocity S-wave (km/s) = 3.67093 4.03624 3.85791
# Velocity P-wave (km/s) = 6.98653 7.43184 7.21262
#
# Compressibility (1/GPa) = 0.01203062
#
# Stress axis : x y z
#
# Youngs Moduli (GPa) = 78.26918 101.66532 68.82726
#
# Poissons Ratio (x) = 0.15051 0.32375
# Poissons Ratio (y) = 0.11587 0.43852
# Poissons Ratio (z) = 0.36816 0.64774
#
# Static dielectric constant tensor:
#      x y z
#    x 2.282840 0.000000 0.083450 
#    y 0.000000 2.237770 0.000000 
#    z 0.083450 0.000000 2.179450 
# 
# From -- ./inp_files/6920.got.cif
#   From: 2010.05.17/outbox.cif.g08.bks.cpg/sg9_4_cif.got.tgz:6920.got - 2010.06.03 20:04:27.
