data_PCOD9137619
_publ_section_title
;
Structure prediction by ZEFSAII (Michael W. Deem and Ramdas Pophale) SiO2 
 PCOD9137619
Probable space group: C C
;
_chemical_formula_sum "Si O2"
_cell_formula_units_Z 20
_cell_length_a 18.851791
_cell_length_b 5.199635
_cell_length_c 13.626558
_cell_angle_alpha 90.000000
_cell_angle_beta 146.790954
_cell_angle_gamma 90.000000
_cell_volume 731.561227
_symmetry_space_group_name_H-M "C C"
_symmetry_group_IT_number 9
_symmetry_cell_setting 'monoclinic'
loop_
_space_group_symop_operation_xyz
x,y,z
x,-y,1/2+z
1/2+x,1/2+y,z
1/2+x,1/2-y,1/2+z
loop_
_atom_site_type_symbol
_atom_site_label
_atom_site_fract_x
_atom_site_fract_y
_atom_site_fract_z
Si Si1 0.955360 0.142237 0.178950
Si Si2 0.322571 0.094301 0.689465
Si Si3 0.108748 0.419070 0.508477
Si Si4 0.221842 0.708744 0.793984
Si Si5 0.156499 0.196999 0.841802
O O1 0.854270 0.164931 0.151935
O O2 0.875133 0.225262 0.991564
O O3 0.062175 0.344109 0.344160
O O4 0.021273 0.867278 0.240571
O O5 0.217502 0.196805 0.644388
O O6 0.467923 0.054855 0.897449
O O7 0.266019 0.881918 0.548899
O O8 0.184483 0.660821 0.638685
O O9 0.158179 0.954542 0.768962
O O10 0.179292 0.448416 0.803445
#
# Coordination Sequence:
#
# PCOD9137619 Si02
#       5
#     4   4   4   4   4
#     4   8  20  41  66  94 133 172 221 272 332 392
#     4   8  18  41  62  94 130 172 214 274 327 393
#     4   9  19  40  66  96 133 172 224 269 333 394
#     4  11  23  41  66  97 129 175 216 276 327 396
#     4  10  22  43  66  95 129 173 219 271 331 393
#
# _framework density 27.338792000000002
#
# number of rings (size 3 to 8) (size 9 to 14) (size 15 to 20)
#    1.200    1.600    0.000    0.000    2.800    3.200 
#    3.600    6.000    0.000    0.000    0.000    0.000 
#    0.000    0.000    0.000    0.000    0.000    0.000 
#
# Total GULP energy -55729.667031 kJ/mol
# GULP energy per Si atom -5572.966703 kJ/mol
# Density = 2.727657 g / cm^3
# Si number density = 27.338792 Si / 1000 Ang^3
#
#
#
# Elastic Constant Matrix: (Units=GPa)
#
#
# Indices 1 2 3 4 5 6 
#
# 1 109.3705 57.0968 43.8824 -0.0001 -12.2509 -0.0001
# 2 57.0968 137.8138 -6.0223 0.0007 -28.0985 0.0001
# 3 43.8824 -6.0223 148.3772 0.0001 7.6668 0.0000
# 4 -0.0001 0.0007 0.0001 27.3778 -0.0001 -21.4372
# 5 -12.2509 -28.0985 7.6668 -0.0001 23.7526 -0.0001
# 6 -0.0001 0.0001 0.0000 -21.4372 -0.0001 47.9895
#
#
#
# Elastic Compliance Matrix: (Units=1/GPa)
#
#
# Indices 1 2 3 4 5 6 
#
# 1 0.014123 -0.005622 -0.004513 0.000000 0.002090 0.000000
# 2 -0.005622 0.011807 0.001597 0.000000 0.010552 0.000000
# 3 -0.004513 0.001597 0.008300 0.000000 -0.003118 0.000000
# 4 0.000000 0.000000 0.000000 0.056175 0.000000 0.025094
# 5 0.002090 0.010552 -0.003118 0.000000 0.056667 0.000000
# 6 0.000000 0.000000 0.000000 0.025094 0.000000 0.032047
#
#
# Mechanical properties :
#
#
# Convention : Reuss Voigt Hill
#
# Bulk Modulus (GPa) = 58.29981 65.05281 61.67631
# Shear Modulus (GPa) = 24.76298 39.86429 32.31364
#
# Velocity S-wave (km/s) = 3.01289 3.82273 3.44171
# Velocity P-wave (km/s) = 5.78572 6.58263 6.19700
#
# Compressibility (1/GPa) = 0.01715272
#
# Stress axis : x y z
#
# Youngs Moduli (GPa) = 70.80482 84.69788 120.47821
#
# Poissons Ratio (x) = 0.47621 0.54374
# Poissons Ratio (y) = 0.39810 -0.19238
# Poissons Ratio (z) = 0.31955 -0.13525
#
# Static dielectric constant tensor:
#      x y z
#    x 2.220010 0.000000 0.015020 
#    y 0.000000 2.121910 0.000000 
#    z 0.015020 0.000000 2.168990 
# 
# From -- ./inp_files/17329.got.cif
#   From: 2010.05.17/outbox.cif.g08.bks.cpg/sg9_9_cif.got.tgz:17329.got - 2010.06.03 20:04:27.
