data_PCOD9137192
_publ_section_title
;
Structure prediction by ZEFSAII (Michael W. Deem and Ramdas Pophale) SiO2 
 PCOD9137192
Probable space group: C C
;
_chemical_formula_sum "Si O2"
_cell_formula_units_Z 32
_cell_length_a 7.061961
_cell_length_b 25.095165
_cell_length_c 11.664885
_cell_angle_alpha 90.000000
_cell_angle_beta 123.108165
_cell_angle_gamma 90.000000
_cell_volume 1731.624409
_symmetry_space_group_name_H-M "C C"
_symmetry_group_IT_number 9
_symmetry_cell_setting 'monoclinic'
loop_
_space_group_symop_operation_xyz
x,y,z
x,-y,1/2+z
1/2+x,1/2+y,z
1/2+x,1/2-y,1/2+z
loop_
_atom_site_type_symbol
_atom_site_label
_atom_site_fract_x
_atom_site_fract_y
_atom_site_fract_z
Si Si1 0.824210 0.864584 0.485400
Si Si2 0.864171 0.595589 0.827915
Si Si3 0.408918 0.319243 0.757296
Si Si4 0.678161 0.892604 0.858048
Si Si5 0.484612 0.803722 0.243627
Si Si6 0.390419 0.864806 0.983493
Si Si7 0.141561 0.954581 0.045534
Si Si8 0.766283 0.576325 0.059454
O O1 0.635251 0.910126 0.399624
O O2 0.807225 0.847057 0.611185
O O3 0.733281 0.815963 0.377436
O O4 0.071203 0.884566 0.539813
O O5 0.828700 0.655315 0.765750
O O6 0.719518 0.556807 0.701542
O O7 0.815972 0.590643 0.944708
O O8 0.276015 0.340742 0.824168
O O9 0.409881 0.256222 0.738158
O O10 0.666585 0.338915 0.854969
O O11 0.569775 0.877791 0.944331
O O12 0.484432 0.917321 0.712658
O O13 0.889468 0.932514 0.942600
O O14 0.475177 0.824717 0.110656
O O15 0.306448 0.918530 0.020268
O O16 0.174382 0.016260 0.031839
#
# Coordination Sequence:
#
# PCOD9137192 Si02
#       8
#     4   4   4   4   4   4   4   4
#     4  10  22  40  63  91 129 160 210 266 303 377
#     4   9  23  45  59  94 128 165 213 262 308 383
#     4  11  20  43  64  92 129 169 202 266 320 365
#     4  11  24  42  64  98 126 162 219 261 306 391
#     4   9  21  42  66  86 132 168 200 265 315 368
#     4  10  22  42  59  95 128 161 215 256 311 382
#     4  10  26  39  65  90 131 171 205 266 321 365
#     4  12  24  41  66  94 127 170 212 260 320 373
#
# _framework density 18.479759000000001
#
# number of rings (size 3 to 8) (size 9 to 14) (size 15 to 20)
#    0.750    1.000    2.500    0.750    5.250    0.000 
#    4.500    0.000    0.000    0.000    0.000    0.000 
#    0.000    0.000    0.000    0.000    0.000    0.000 
#
# Total GULP energy -89218.372383 kJ/mol
# GULP energy per Si atom -5576.148274 kJ/mol
# Density = 1.843770 g / cm^3
# Si number density = 18.479759 Si / 1000 Ang^3
#
#
#
# Elastic Constant Matrix: (Units=GPa)
#
#
# Indices 1 2 3 4 5 6 
#
# 1 118.7313 43.2563 56.8007 0.0000 -8.3426 0.0000
# 2 43.2563 91.1096 37.4591 0.0000 -9.3835 0.0000
# 3 56.8007 37.4591 129.4575 0.0000 -10.0669 0.0000
# 4 0.0000 0.0000 0.0000 13.4293 0.0000 1.5096
# 5 -8.3426 -9.3835 -10.0669 0.0000 26.3712 0.0000
# 6 0.0000 0.0000 0.0000 1.5096 0.0000 12.1149
#
#
#
# Elastic Compliance Matrix: (Units=1/GPa)
#
#
# Indices 1 2 3 4 5 6 
#
# 1 0.011803 -0.003877 -0.003992 0.000000 0.000830 0.000000
# 2 -0.003877 0.013990 -0.002118 0.000000 0.002943 0.000000
# 3 -0.003992 -0.002118 0.010236 0.000000 0.001891 0.000000
# 4 0.000000 0.000000 0.000000 0.075522 0.000000 -0.009411
# 5 0.000830 0.002943 0.001891 0.000000 0.039952 0.000000
# 6 0.000000 0.000000 0.000000 -0.009411 0.000000 0.083716
#
#
# Mechanical properties :
#
#
# Convention : Reuss Voigt Hill
#
# Bulk Modulus (GPa) = 62.28713 68.25896 65.27305
# Shear Modulus (GPa) = 19.19049 23.83524 21.51286
#
# Velocity S-wave (km/s) = 3.22601 3.59528 3.41564
# Velocity P-wave (km/s) = 6.90326 7.36560 7.13817
#
# Compressibility (1/GPa) = 0.01605468
#
# Stress axis : x y z
#
# Youngs Moduli (GPa) = 84.72376 71.47735 97.69232
#
# Poissons Ratio (x) = 0.27710 0.39002
# Poissons Ratio (y) = 0.32846 0.20695
# Poissons Ratio (z) = 0.33825 0.15141
#
# Static dielectric constant tensor:
#      x y z
#    x 1.624810 0.000000 0.006080 
#    y 0.000000 1.623270 0.000000 
#    z 0.006080 0.000000 1.651970 
# 
# From -- ./inp_files/13768.got.cif
#   From: 2010.05.17/outbox.cif.g08.bks.cpg/sg9_7_cif.got.tgz:13768.got - 2010.06.03 20:04:27.
