data_PCOD9137183
_publ_section_title
;
Structure prediction by ZEFSAII (Michael W. Deem and Ramdas Pophale) SiO2 
 PCOD9137183
Probable space group: C C
;
_chemical_formula_sum "Si O2"
_cell_formula_units_Z 32
_cell_length_a 10.441390
_cell_length_b 12.158022
_cell_length_c 10.600146
_cell_angle_alpha 90.000000
_cell_angle_beta 96.500544
_cell_angle_gamma 90.000000
_cell_volume 1337.001519
_symmetry_space_group_name_H-M "C C"
_symmetry_group_IT_number 9
_symmetry_cell_setting 'monoclinic'
loop_
_space_group_symop_operation_xyz
x,y,z
x,-y,1/2+z
1/2+x,1/2+y,z
1/2+x,1/2-y,1/2+z
loop_
_atom_site_type_symbol
_atom_site_label
_atom_site_fract_x
_atom_site_fract_y
_atom_site_fract_z
Si Si1 0.052670 0.885829 0.992290
Si Si2 0.422854 0.921621 0.722956
Si Si3 0.054789 0.739591 0.512232
Si Si4 0.730267 0.578380 0.006303
Si Si5 0.598330 0.739590 0.717026
Si Si6 0.367373 0.758140 0.329207
Si Si7 0.100450 0.385828 0.236968
Si Si8 0.785747 0.741860 0.400051
O O1 0.162286 0.798657 0.962544
O O2 0.918698 0.842794 0.920496
O O3 0.113758 0.999574 0.952736
O O4 0.060859 0.873818 0.144966
O O5 0.326560 0.980848 0.614629
O O6 0.495197 0.826094 0.652228
O O7 0.341319 0.861731 0.823538
O O8 0.539363 0.000426 0.776521
O O9 0.092260 0.626183 0.584292
O O10 0.905660 0.770867 0.501991
O O11 0.157923 0.826095 0.577030
O O12 0.076560 0.750001 0.364629
O O13 0.811802 0.638269 0.905721
O O14 0.747459 0.770866 0.727267
O O15 0.490833 0.798657 0.266714
O O16 0.234422 0.342793 0.308761
#
# Coordination Sequence:
#
# PCOD9137183 Si02
#       8
#     4   4   4   4   4   4   4   4
#     4  11  22  39  66  94 125 169 219 271 321 394
#     4  11  21  39  66  91 130 171 213 264 335 382
#     4  10  22  40  62  90 135 168 213 276 318 390
#     4  11  21  39  66  91 130 171 213 264 335 382
#     4  10  22  40  62  90 135 168 213 276 318 390
#     4  10  22  40  64  92 132 162 220 274 322 387
#     4  11  22  39  66  94 125 169 219 271 321 394
#     4  10  22  40  64  92 132 162 220 274 322 387
#
# _framework density 23.934153999999999
#
# number of rings (size 3 to 8) (size 9 to 14) (size 15 to 20)
#    0.000    1.500    2.500    3.000    0.000    3.000 
#    0.000    0.000   11.000    0.000    0.000    0.000 
#    0.000    0.000    0.000    0.000    0.000    0.000 
#
# Total GULP energy -89179.959483 kJ/mol
# GULP energy per Si atom -5573.747468 kJ/mol
# Density = 2.387968 g / cm^3
# Si number density = 23.934154 Si / 1000 Ang^3
#
#
#
# Elastic Constant Matrix: (Units=GPa)
#
#
# Indices 1 2 3 4 5 6 
#
# 1 53.6934 5.7043 15.9764 0.0000 2.1317 0.0000
# 2 5.7043 50.2127 18.5381 0.0000 2.8230 0.0000
# 3 15.9764 18.5381 79.1836 0.0000 5.3062 0.0000
# 4 0.0000 0.0000 0.0000 17.5116 0.0000 -3.0681
# 5 2.1317 2.8230 5.3062 0.0000 32.3115 0.0000
# 6 0.0000 0.0000 0.0000 -3.0681 0.0000 55.1541
#
#
#
# Elastic Compliance Matrix: (Units=1/GPa)
#
#
# Indices 1 2 3 4 5 6 
#
# 1 0.019859 -0.000829 -0.003771 0.000000 -0.000618 0.000000
# 2 -0.000829 0.021871 -0.004883 0.000000 -0.001054 0.000000
# 3 -0.003771 -0.004883 0.014649 0.000000 -0.001730 0.000000
# 4 0.000000 0.000000 0.000000 0.057667 0.000000 0.003208
# 5 -0.000618 -0.001054 -0.001730 0.000000 0.031366 0.000000
# 6 0.000000 0.000000 0.000000 0.003208 0.000000 0.018309
#
#
# Mechanical properties :
#
#
# Convention : Reuss Voigt Hill
#
# Bulk Modulus (GPa) = 26.72826 29.28084 28.00455
# Shear Modulus (GPa) = 25.62022 30.52015 28.07018
#
# Velocity S-wave (km/s) = 3.27532 3.57483 3.42834
# Velocity P-wave (km/s) = 5.04928 5.41292 5.23426
#
# Compressibility (1/GPa) = 0.03741358
#
# Stress axis : x y z
#
# Youngs Moduli (GPa) = 50.35495 45.72202 68.26490
#
# Poissons Ratio (x) = 0.03790 0.25745
# Poissons Ratio (y) = 0.04174 0.33330
# Poissons Ratio (z) = 0.18991 0.22324
#
# Static dielectric constant tensor:
#      x y z
#    x 1.953970 0.000000 -0.023120 
#    y 0.000000 1.966960 0.000000 
#    z -0.023120 0.000000 2.013290 
# 
# From -- ./inp_files/16191.got.cif
#   From: 2010.05.17/outbox.cif.g08.bks.cpg/sg9_9_cif.got.tgz:16191.got - 2010.06.03 20:04:27.
