data_PCOD9137303
_publ_section_title
;
Structure prediction by ZEFSAII (Michael W. Deem and Ramdas Pophale) SiO2 
 PCOD9137303
Probable space group: C C
;
_chemical_formula_sum "Si O2"
_cell_formula_units_Z 32
_cell_length_a 5.051277
_cell_length_b 30.909509
_cell_length_c 8.170807
_cell_angle_alpha 90.000000
_cell_angle_beta 85.598003
_cell_angle_gamma 90.000000
_cell_volume 1271.965158
_symmetry_space_group_name_H-M "C C"
_symmetry_group_IT_number 9
_symmetry_cell_setting 'monoclinic'
loop_
_space_group_symop_operation_xyz
x,y,z
x,-y,1/2+z
1/2+x,1/2+y,z
1/2+x,1/2-y,1/2+z
loop_
_atom_site_type_symbol
_atom_site_label
_atom_site_fract_x
_atom_site_fract_y
_atom_site_fract_z
Si Si1 0.721410 0.976726 0.312400
Si Si2 0.059556 0.131955 0.979774
Si Si3 0.699403 0.937176 0.661976
Si Si4 0.508584 0.676988 0.302869
Si Si5 0.799585 0.740691 0.643528
Si Si6 0.755971 0.426067 0.209231
Si Si7 0.974130 0.628434 0.398980
Si Si8 0.773988 0.796443 0.307933
O O1 0.650259 0.964181 0.500593
O O2 0.456371 0.965121 0.228101
O O3 0.961320 0.946668 0.233818
O O4 0.783321 0.027296 0.291188
O O5 0.128831 0.166795 0.114127
O O6 0.845421 0.156231 0.874219
O O7 0.929291 0.094425 0.092141
O O8 0.270782 0.109009 0.855427
O O9 0.478704 0.904950 0.744348
O O10 0.359349 0.721360 0.274432
O O11 0.773430 0.668752 0.392618
O O12 0.277598 0.645555 0.384799
O O13 0.780893 0.764953 0.468625
O O14 0.022953 0.707162 0.699270
O O15 0.518215 0.719460 0.688125
O O16 0.856276 0.400388 0.048234
#
# Coordination Sequence:
#
# PCOD9137303 Si02
#       8
#     4   4   4   4   4   4   4   4
#     4  11  24  41  63  88 123 163 209 263 315 378
#     4   9  23  43  65  91 130 174 215 262 325 391
#     4  10  23  43  65  92 126 168 214 262 321 384
#     4  10  22  41  63  90 125 169 210 261 320 386
#     4  11  24  42  65  96 131 170 222 272 330 392
#     4  11  24  41  62  95 126 161 208 261 319 382
#     4  11  22  38  65  93 126 165 208 261 322 385
#     4  11  24  43  68  97 133 176 222 276 332 394
#
# _framework density 25.157921000000002
#
# number of rings (size 3 to 8) (size 9 to 14) (size 15 to 20)
#    0.000    1.500    0.000    3.750    0.000   17.000 
#    0.000    0.000    0.000    0.000    0.000    0.000 
#    0.000    0.000    0.000    0.000    0.000    0.000 
#
# Total GULP energy -89441.111769 kJ/mol
# GULP energy per Si atom -5590.069486 kJ/mol
# Density = 2.510066 g / cm^3
# Si number density = 25.157921 Si / 1000 Ang^3
#
#
#
# Elastic Constant Matrix: (Units=GPa)
#
#
# Indices 1 2 3 4 5 6 
#
# 1 85.7624 7.0608 42.8901 0.0000 -15.9532 0.0000
# 2 7.0608 77.7491 8.3627 0.0000 -11.2048 0.0000
# 3 42.8901 8.3627 103.9990 0.0000 -18.2144 0.0000
# 4 0.0000 0.0000 0.0000 6.0687 0.0000 -6.5103
# 5 -15.9532 -11.2048 -18.2144 0.0000 31.9999 0.0000
# 6 0.0000 0.0000 0.0000 -6.5103 0.0000 30.6409
#
#
#
# Elastic Compliance Matrix: (Units=1/GPa)
#
#
# Indices 1 2 3 4 5 6 
#
# 1 0.015246 -0.000157 -0.005502 0.000000 0.004414 0.000000
# 2 -0.000157 0.013555 -0.000231 0.000000 0.004537 0.000000
# 3 -0.005502 -0.000231 0.012672 0.000000 0.004389 0.000000
# 4 0.000000 0.000000 0.000000 0.213429 0.000000 0.045348
# 5 0.004414 0.004537 0.004389 0.000000 0.037538 0.000000
# 6 0.000000 0.000000 0.000000 0.045348 0.000000 0.042271
#
#
# Mechanical properties :
#
#
# Convention : Reuss Voigt Hill
#
# Bulk Modulus (GPa) = 33.67716 42.68195 38.17955
# Shear Modulus (GPa) = 14.02972 27.68834 20.85903
#
# Velocity S-wave (km/s) = 2.36406 3.32110 2.88257
# Velocity P-wave (km/s) = 4.56805 5.63105 5.12717
#
# Compressibility (1/GPa) = 0.02969372
#
# Stress axis : x y z
#
# Youngs Moduli (GPa) = 65.59303 73.77488 78.91598
#
# Poissons Ratio (x) = 0.01156 0.43417
# Poissons Ratio (y) = 0.01027 0.01821
# Poissons Ratio (z) = 0.36087 0.01703
#
# Static dielectric constant tensor:
#      x y z
#    x 1.961930 0.000000 0.067570 
#    y 0.000000 2.028000 0.000000 
#    z 0.067570 0.000000 2.055950 
# 
# From -- ./inp_files/4312.got.cif
#   From: 2010.05.17/outbox.cif.g08.bks.cpg/sg9_3_cif.got.tgz:4312.got - 2010.06.03 20:04:27.
