data_PCOD9137938
_publ_section_title
;
Structure prediction by ZEFSAII (Michael W. Deem and Ramdas Pophale) SiO2 
 PCOD9137938
Probable space group: C C
;
_chemical_formula_sum "Si O2"
_cell_formula_units_Z 32
_cell_length_a 5.449342
_cell_length_b 14.213809
_cell_length_c 17.194551
_cell_angle_alpha 90.000000
_cell_angle_beta 113.593339
_cell_angle_gamma 90.000000
_cell_volume 1220.491761
_symmetry_space_group_name_H-M "C C"
_symmetry_group_IT_number 9
_symmetry_cell_setting 'monoclinic'
loop_
_space_group_symop_operation_xyz
x,y,z
x,-y,1/2+z
1/2+x,1/2+y,z
1/2+x,1/2-y,1/2+z
loop_
_atom_site_type_symbol
_atom_site_label
_atom_site_fract_x
_atom_site_fract_y
_atom_site_fract_z
Si Si1 0.243790 0.967826 0.665440
Si Si2 0.887842 0.778278 0.008382
Si Si3 0.057854 0.536297 0.461324
Si Si4 0.676584 0.325103 0.196071
Si Si5 0.138004 0.826459 0.895693
Si Si6 0.683881 0.412193 0.483318
Si Si7 0.248446 0.488764 0.820276
Si Si8 0.747460 0.268727 0.752441
O O1 0.150144 0.956480 0.564667
O O2 0.561040 0.992595 0.720481
O O3 0.190959 0.867594 0.700835
O O4 0.120726 0.063130 0.685519
O O5 0.788415 0.886201 0.995093
O O6 0.670527 0.698749 0.996189
O O7 0.015800 0.756356 0.941156
O O8 0.089951 0.776147 0.104929
O O9 0.814024 0.598430 0.464570
O O10 0.989157 0.440688 0.496992
O O11 0.043709 0.513107 0.367792
O O12 0.483891 0.283211 0.237478
O O13 0.989081 0.296849 0.238530
O O14 0.324640 0.795478 0.849578
O O15 0.897738 0.888854 0.830575
O O16 0.478004 0.443014 0.387808
#
# Coordination Sequence:
#
# PCOD9137938 Si02
#       8
#     4   4   4   4   4   4   4   4
#     4  12  26  52  82 113 170 220 275 354 413 502
#     4  11  26  47  76 113 159 215 274 343 414 501
#     4  10  22  45  73 104 155 200 266 333 409 480
#     4  12  30  49  81 123 160 216 283 335 420 502
#     4  10  23  46  77 105 161 208 265 343 410 491
#     4  11  26  47  78 116 157 216 282 341 413 499
#     4  10  23  49  73 117 154 217 271 335 425 488
#     4  12  28  53  78 121 162 214 278 344 418 499
#
# _framework density 26.218941999999998
#
# number of rings (size 3 to 8) (size 9 to 14) (size 15 to 20)
#    0.000    1.000    2.500    3.000    5.250    7.000 
#    0.000    1.250    0.000    0.000    0.000    0.000 
#    0.000    0.000    0.000    0.000    0.000    0.000 
#
# Total GULP energy -89319.429731 kJ/mol
# GULP energy per Si atom -5582.464358 kJ/mol
# Density = 2.615927 g / cm^3
# Si number density = 26.218942 Si / 1000 Ang^3
#
#
#
# Elastic Constant Matrix: (Units=GPa)
#
#
# Indices 1 2 3 4 5 6 
#
# 1 113.9916 44.6191 19.6209 0.0000 -22.5631 0.0000
# 2 44.6191 153.4002 26.6849 0.0000 -19.7992 0.0000
# 3 19.6209 26.6849 79.4446 0.0000 -1.9011 0.0000
# 4 0.0000 0.0000 0.0000 36.1304 0.0000 0.4209
# 5 -22.5631 -19.7992 -1.9011 0.0000 32.6343 0.0000
# 6 0.0000 0.0000 0.0000 0.4209 0.0000 27.0593
#
#
#
# Elastic Compliance Matrix: (Units=1/GPa)
#
#
# Indices 1 2 3 4 5 6 
#
# 1 0.011178 -0.002102 -0.001903 0.000000 0.006343 0.000000
# 2 -0.002102 0.007904 -0.002059 0.000000 0.003222 0.000000
# 3 -0.001903 -0.002059 0.013707 0.000000 -0.001766 0.000000
# 4 0.000000 0.000000 0.000000 0.027683 0.000000 -0.000431
# 5 0.006343 0.003222 -0.001766 0.000000 0.036880 0.000000
# 6 0.000000 0.000000 0.000000 -0.000431 0.000000 0.036963
#
#
# Mechanical properties :
#
#
# Convention : Reuss Voigt Hill
#
# Bulk Modulus (GPa) = 48.39784 58.74292 53.57038
# Shear Modulus (GPa) = 32.60970 36.22558 34.41764
#
# Velocity S-wave (km/s) = 3.53050 3.72110 3.62705
# Velocity P-wave (km/s) = 5.92608 6.39652 6.16579
#
# Compressibility (1/GPa) = 0.02066208
#
# Stress axis : x y z
#
# Youngs Moduli (GPa) = 89.45964 126.51377 72.95724
#
# Poissons Ratio (x) = 0.26590 0.13884
# Poissons Ratio (y) = 0.18802 0.15020
# Poissons Ratio (z) = 0.17024 0.26047
#
# Static dielectric constant tensor:
#      x y z
#    x 2.081710 0.000000 0.086750 
#    y 0.000000 2.158500 0.000000 
#    z 0.086750 0.000000 2.077420 
# 
# From -- ./inp_files/28710.got.cif
#   From: 2010.05.17/outbox.cif.g08.bks.cpg/sg9_15_cif.got.tgz:28710.got - 2010.06.03 20:04:27.
