data_PCOD9137555
_publ_section_title
;
Structure prediction by ZEFSAII (Michael W. Deem and Ramdas Pophale) SiO2 
 PCOD9137555
Probable space group: C C
;
_chemical_formula_sum "Si O2"
_cell_formula_units_Z 28
_cell_length_a 19.615602
_cell_length_b 10.549701
_cell_length_c 14.002351
_cell_angle_alpha 90.000000
_cell_angle_beta 157.363442
_cell_angle_gamma 90.000000
_cell_volume 1115.251855
_symmetry_space_group_name_H-M "C C"
_symmetry_group_IT_number 9
_symmetry_cell_setting 'monoclinic'
loop_
_space_group_symop_operation_xyz
x,y,z
x,-y,1/2+z
1/2+x,1/2+y,z
1/2+x,1/2-y,1/2+z
loop_
_atom_site_type_symbol
_atom_site_label
_atom_site_fract_x
_atom_site_fract_y
_atom_site_fract_z
Si Si1 0.714800 0.311372 0.296890
Si Si2 0.942465 0.660157 0.737726
Si Si3 0.312295 0.446339 0.017243
Si Si4 0.363575 0.317669 0.285490
Si Si5 0.724335 0.574041 0.998970
Si Si6 0.839670 0.180073 0.276521
Si Si7 0.231305 0.698023 0.815024
O O1 0.707267 0.167371 0.328240
O O2 0.807851 0.381993 0.504329
O O3 0.803067 0.291449 0.308502
O O4 0.523735 0.380043 0.049532
O O5 0.817057 0.559391 0.626991
O O6 0.909043 0.778171 0.763454
O O7 0.878135 0.707862 0.551177
O O8 0.146406 0.622894 0.011399
O O9 0.336072 0.408377 0.159089
O O10 0.513597 0.444400 0.236572
O O11 0.218596 0.577725 0.869000
O O12 0.278013 0.183421 0.141985
O O13 0.276233 0.361592 0.270513
O O14 0.561761 0.283638 0.573806
#
# Coordination Sequence:
#
# PCOD9137555 Si02
#       7
#     4   4   4   4   4   4   4
#     4  10  22  42  71 103 140 187 247 307 379 441
#     4  11  25  45  67 105 147 194 252 301 377 459
#     4  11  24  46  73 109 145 196 250 308 377 458
#     4  11  26  48  75 111 149 194 256 311 383 449
#     4  11  23  44  71 104 151 190 250 310 367 463
#     4  10  22  43  66 101 140 183 246 303 360 446
#     4  12  26  50  73 105 152 202 245 312 381 450
#
# _framework density 25.106438000000001
#
# number of rings (size 3 to 8) (size 9 to 14) (size 15 to 20)
#    0.000    1.143    2.857    2.571    4.000    2.286 
#   12.857    0.000    0.000    0.000    0.000    0.000 
#    0.000    0.000    0.000    0.000    0.000    0.000 
#
# Total GULP energy -78186.499154 kJ/mol
# GULP energy per Si atom -5584.749940 kJ/mol
# Density = 2.504929 g / cm^3
# Si number density = 25.106438 Si / 1000 Ang^3
#
#
#
# Elastic Constant Matrix: (Units=GPa)
#
#
# Indices 1 2 3 4 5 6 
#
# 1 118.4364 5.0562 23.1245 0.0000 -24.3415 0.0000
# 2 5.0562 71.9286 24.3710 0.0000 -13.6663 0.0000
# 3 23.1245 24.3710 111.9540 0.0000 -4.5421 0.0000
# 4 0.0000 0.0000 0.0000 28.9063 0.0000 -0.0018
# 5 -24.3415 -13.6663 -4.5421 0.0000 36.0289 0.0000
# 6 0.0000 0.0000 0.0000 -0.0018 0.0000 25.6528
#
#
#
# Elastic Compliance Matrix: (Units=1/GPa)
#
#
# Indices 1 2 3 4 5 6 
#
# 1 0.010279 0.001366 -0.002129 0.000000 0.007194 0.000000
# 2 0.001366 0.016274 -0.003555 0.000000 0.006648 0.000000
# 3 -0.002129 -0.003555 0.010084 0.000000 -0.001515 0.000000
# 4 0.000000 0.000000 0.000000 0.034595 0.000000 0.000002
# 5 0.007194 0.006648 -0.001515 0.000000 0.034947 0.000000
# 6 0.000000 0.000000 0.000000 0.000002 0.000000 0.038982
#
#
# Mechanical properties :
#
#
# Convention : Reuss Voigt Hill
#
# Bulk Modulus (GPa) = 35.71216 45.26916 40.49066
# Shear Modulus (GPa) = 30.65015 34.76873 32.70944
#
# Velocity S-wave (km/s) = 3.49780 3.72540 3.61339
# Velocity P-wave (km/s) = 5.52883 6.04771 5.79408
#
# Compressibility (1/GPa) = 0.02800167
#
# Stress axis : x y z
#
# Youngs Moduli (GPa) = 97.28292 61.44679 99.16376
#
# Poissons Ratio (x) = -0.08391 0.21108
# Poissons Ratio (y) = -0.13285 0.35253
# Poissons Ratio (z) = 0.20708 0.21845
#
# Static dielectric constant tensor:
#      x y z
#    x 1.951140 0.000000 -0.026380 
#    y 0.000000 2.045740 0.000000 
#    z -0.026380 0.000000 2.007600 
# 
# From -- ./inp_files/6989.got.cif
#   From: 2010.05.17/outbox.cif.g08.bks.cpg/sg9_4_cif.got.tgz:6989.got - 2010.06.03 20:04:27.
