data_PCOD9137911
_publ_section_title
;
Structure prediction by ZEFSAII (Michael W. Deem and Ramdas Pophale) SiO2 
 PCOD9137911
Probable space group: C C
;
_chemical_formula_sum "Si O2"
_cell_formula_units_Z 28
_cell_length_a 14.430934
_cell_length_b 11.779392
_cell_length_c 8.347465
_cell_angle_alpha 90.000000
_cell_angle_beta 62.936178
_cell_angle_gamma 90.000000
_cell_volume 1263.589409
_symmetry_space_group_name_H-M "C C"
_symmetry_group_IT_number 9
_symmetry_cell_setting 'monoclinic'
loop_
_space_group_symop_operation_xyz
x,y,z
x,-y,1/2+z
1/2+x,1/2+y,z
1/2+x,1/2-y,1/2+z
loop_
_atom_site_type_symbol
_atom_site_label
_atom_site_fract_x
_atom_site_fract_y
_atom_site_fract_z
Si Si1 0.697490 0.771001 0.382510
Si Si2 0.723764 0.837334 0.826761
Si Si3 0.768889 0.569496 0.122964
Si Si4 0.613980 0.359409 0.259780
Si Si5 0.415050 0.032634 0.285213
Si Si6 0.137769 0.452910 0.198890
Si Si7 0.389404 0.717259 0.949096
O O1 0.720514 0.685978 0.218880
O O2 0.644454 0.700794 0.567303
O O3 0.632683 0.872220 0.358333
O O4 0.805824 0.812139 0.375941
O O5 0.650543 0.727221 0.869516
O O6 0.833347 0.797672 0.664841
O O7 0.680897 0.929050 0.732148
O O8 0.713260 0.896473 0.006827
O O9 0.680729 0.473630 0.217154
O O10 0.876773 0.562665 0.139055
O O11 0.817694 0.546392 0.912895
O O12 0.490056 0.361603 0.362278
O O13 0.415175 0.149708 0.390125
O O14 0.524952 0.972419 0.211654
#
# Coordination Sequence:
#
# PCOD9137911 Si02
#       7
#     4   4   4   4   4   4   4
#     4  10  25  42  67  98 130 176 228 285 329 415
#     4  11  23  42  67 101 135 176 229 284 335 404
#     4  11  22  43  66  98 134 169 222 282 337 405
#     4  11  22  45  67  93 140 175 225 282 348 389
#     4  11  23  39  73  98 125 177 227 275 330 403
#     4  12  25  42  70 102 138 175 232 282 342 400
#     4  10  22  45  70  92 134 184 219 278 347 394
#
# _framework density 22.159099000000001
#
# number of rings (size 3 to 8) (size 9 to 14) (size 15 to 20)
#    0.000    1.143    5.714    2.571    6.000    0.000 
#    5.143    0.000    3.143    0.000    0.000    0.000 
#    0.000    0.000    0.000    0.000    0.000    0.000 
#
# Total GULP energy -78215.672275 kJ/mol
# GULP energy per Si atom -5586.833734 kJ/mol
# Density = 2.210866 g / cm^3
# Si number density = 22.159099 Si / 1000 Ang^3
#
#
#
# Elastic Constant Matrix: (Units=GPa)
#
#
# Indices 1 2 3 4 5 6 
#
# 1 94.9511 38.9761 32.0846 0.0000 -25.1256 0.0000
# 2 38.9761 90.3191 13.7355 0.0000 -5.0121 0.0000
# 3 32.0846 13.7355 62.7344 0.0000 -9.2937 0.0000
# 4 0.0000 0.0000 0.0000 26.9458 0.0000 9.3229
# 5 -25.1256 -5.0121 -9.2937 0.0000 22.7555 0.0000
# 6 0.0000 0.0000 0.0000 9.3229 0.0000 19.3769
#
#
#
# Elastic Compliance Matrix: (Units=1/GPa)
#
#
# Indices 1 2 3 4 5 6 
#
# 1 0.020254 -0.006786 -0.006153 0.000000 0.018355 0.000000
# 2 -0.006786 0.013781 -0.000221 0.000000 -0.004547 0.000000
# 3 -0.006153 -0.000221 0.019289 0.000000 0.001035 0.000000
# 4 0.000000 0.000000 0.000000 0.044523 0.000000 -0.021422
# 5 0.018355 -0.004547 0.001035 0.000000 0.063634 0.000000
# 6 0.000000 0.000000 0.000000 -0.021422 0.000000 0.061915
#
#
# Mechanical properties :
#
#
# Convention : Reuss Voigt Hill
#
# Bulk Modulus (GPa) = 37.03108 46.39969 41.71539
# Shear Modulus (GPa) = 19.32615 24.69619 22.01117
#
# Velocity S-wave (km/s) = 2.95643 3.34203 3.15512
# Velocity P-wave (km/s) = 5.32932 5.98974 5.66916
#
# Compressibility (1/GPa) = 0.02700434
#
# Stress axis : x y z
#
# Youngs Moduli (GPa) = 49.37372 72.56160 51.84319
#
# Poissons Ratio (x) = 0.49239 0.31902
# Poissons Ratio (y) = 0.33504 0.01143
# Poissons Ratio (z) = 0.30382 0.01600
#
# Static dielectric constant tensor:
#      x y z
#    x 1.789340 0.000000 0.023380 
#    y 0.000000 1.830070 0.000000 
#    z 0.023380 0.000000 1.864480 
# 
# From -- ./inp_files/8910.got.cif
#   From: 2010.05.17/outbox.cif.g08.bks.cpg/sg9_5_cif.got.tgz:8910.got - 2010.06.03 20:04:27.
