data_PCOD9137343
_publ_section_title
;
Structure prediction by ZEFSAII (Michael W. Deem and Ramdas Pophale) SiO2 
 PCOD9137343
Probable space group: C C
;
_chemical_formula_sum "Si O2"
_cell_formula_units_Z 32
_cell_length_a 31.598122
_cell_length_b 5.907220
_cell_length_c 9.317976
_cell_angle_alpha 90.000000
_cell_angle_beta 131.502875
_cell_angle_gamma 90.000000
_cell_volume 1302.575382
_symmetry_space_group_name_H-M "C C"
_symmetry_group_IT_number 9
_symmetry_cell_setting 'monoclinic'
loop_
_space_group_symop_operation_xyz
x,y,z
x,-y,1/2+z
1/2+x,1/2+y,z
1/2+x,1/2-y,1/2+z
loop_
_atom_site_type_symbol
_atom_site_label
_atom_site_fract_x
_atom_site_fract_y
_atom_site_fract_z
Si Si1 0.943520 0.297427 0.078230
Si Si2 0.822945 0.526410 0.784206
Si Si3 0.884419 0.907545 0.072708
Si Si4 0.693041 0.827887 0.743280
Si Si5 0.790538 0.202410 0.950850
Si Si6 0.661541 0.499877 0.425614
Si Si7 0.485744 0.100317 0.396501
Si Si8 0.604825 0.213145 0.544268
O O1 0.919590 0.046059 0.033496
O O2 0.966374 0.361640 0.287749
O O3 0.887913 0.444059 0.912375
O O4 0.992736 0.373455 0.081524
O O5 0.791326 0.600952 0.570544
O O6 0.793101 0.326259 0.803684
O O7 0.833788 0.753511 0.899212
O O8 0.851362 0.081782 0.099257
O O9 0.930992 0.756310 0.250860
O O10 0.697578 0.656124 0.617810
O O11 0.634989 0.970082 0.594862
O O12 0.689120 0.688163 0.882537
O O13 0.741063 0.021604 0.855253
O O14 0.619727 0.364568 0.439103
O O15 0.632073 0.666263 0.245270
O O16 0.539257 0.187674 0.430911
#
# Coordination Sequence:
#
# PCOD9137343 Si02
#       8
#     4   4   4   4   4   4   4   4
#     4  10  22  41  66 103 147 191 246 307 362 445
#     4  10  22  44  71 108 147 195 251 298 372 453
#     4  10  22  42  69 103 149 197 254 301 379 434
#     4  11  26  50  78 107 146 195 252 318 386 452
#     4  11  25  46  76 109 152 200 246 315 374 456
#     4  10  26  51  73 109 141 192 253 310 376 462
#     4  11  25  40  68 103 142 192 248 308 376 443
#     4  11  26  46  75 104 150 190 254 313 379 441
#
# _framework density 24.566718999999999
#
# number of rings (size 3 to 8) (size 9 to 14) (size 15 to 20)
#    0.000    1.500    0.000    3.750    5.250    8.000 
#    0.000    7.500    0.000    0.000    0.000    0.000 
#    0.000    0.000    0.000    0.000    0.000    0.000 
#
# Total GULP energy -89545.103813 kJ/mol
# GULP energy per Si atom -5596.568988 kJ/mol
# Density = 2.451080 g / cm^3
# Si number density = 24.566719 Si / 1000 Ang^3
#
#
#
# Elastic Constant Matrix: (Units=GPa)
#
#
# Indices 1 2 3 4 5 6 
#
# 1 116.0207 32.2216 35.3283 0.0000 -16.3843 0.0000
# 2 32.2216 72.4405 14.7104 0.0000 -16.1436 0.0000
# 3 35.3283 14.7104 60.7107 0.0000 -21.7519 0.0000
# 4 0.0000 0.0000 0.0000 36.1088 0.0000 -7.0132
# 5 -16.3843 -16.1436 -21.7519 0.0000 33.9893 0.0000
# 6 0.0000 0.0000 0.0000 -7.0132 0.0000 39.6225
#
#
#
# Elastic Compliance Matrix: (Units=1/GPa)
#
#
# Indices 1 2 3 4 5 6 
#
# 1 0.011450 -0.003934 -0.005711 0.000000 -0.000004 0.000000
# 2 -0.003934 0.016889 0.000508 0.000000 0.006450 0.000000
# 3 -0.005711 0.000508 0.024357 0.000000 0.013076 0.000000
# 4 0.000000 0.000000 0.000000 0.028680 0.000000 0.005076
# 5 -0.000004 0.006450 0.013076 0.000000 0.040851 0.000000
# 6 0.000000 0.000000 0.000000 0.005076 0.000000 0.026137
#
#
# Mechanical properties :
#
#
# Convention : Reuss Voigt Hill
#
# Bulk Modulus (GPa) = 29.05189 45.96585 37.50887
# Shear Modulus (GPa) = 28.07235 33.07155 30.57195
#
# Velocity S-wave (km/s) = 3.38405 3.67303 3.53150
# Velocity P-wave (km/s) = 5.20773 6.06131 5.65066
#
# Compressibility (1/GPa) = 0.03442117
#
# Stress axis : x y z
#
# Youngs Moduli (GPa) = 87.33420 59.21140 41.05648
#
# Poissons Ratio (x) = 0.23295 0.23448
# Poissons Ratio (y) = 0.34359 -0.02087
# Poissons Ratio (z) = 0.49879 -0.03009
#
# Static dielectric constant tensor:
#      x y z
#    x 2.008800 0.000000 -0.083970 
#    y 0.000000 1.944130 0.000000 
#    z -0.083970 0.000000 2.017540 
# 
# From -- ./inp_files/12656.got.cif
#   From: 2010.05.17/outbox.cif.g08.bks.cpg/sg9_7_cif.got.tgz:12656.got - 2010.06.03 20:04:27.
