data_PCOD9137914
_publ_section_title
;
Structure prediction by ZEFSAII (Michael W. Deem and Ramdas Pophale) SiO2 
 PCOD9137914
Probable space group: C C
;
_chemical_formula_sum "Si O2"
_cell_formula_units_Z 32
_cell_length_a 9.401742
_cell_length_b 16.236953
_cell_length_c 10.313497
_cell_angle_alpha 90.000000
_cell_angle_beta 117.432633
_cell_angle_gamma 90.000000
_cell_volume 1397.375648
_symmetry_space_group_name_H-M "C C"
_symmetry_group_IT_number 9
_symmetry_cell_setting 'monoclinic'
loop_
_space_group_symop_operation_xyz
x,y,z
x,-y,1/2+z
1/2+x,1/2+y,z
1/2+x,1/2-y,1/2+z
loop_
_atom_site_type_symbol
_atom_site_label
_atom_site_fract_x
_atom_site_fract_y
_atom_site_fract_z
Si Si1 0.064320 0.185319 0.739870
Si Si2 0.404838 0.103949 0.839101
Si Si3 0.963261 0.907305 0.809553
Si Si4 0.501589 0.235037 0.491039
Si Si5 0.897905 0.034180 0.571915
Si Si6 0.104487 0.354921 0.654852
Si Si7 0.137408 0.744862 0.824224
Si Si8 0.039299 0.560955 0.396369
O O1 0.228276 0.138804 0.775985
O O2 0.053664 0.260386 0.635724
O O3 0.062673 0.221766 0.884382
O O4 0.923088 0.122116 0.651877
O O5 0.521254 0.169432 0.816184
O O6 0.415412 0.009349 0.801222
O O7 0.482164 0.098375 0.013401
O O8 0.114230 0.754678 0.659787
O O9 0.791347 0.865624 0.706420
O O10 0.084363 0.831242 0.865606
O O11 0.991032 0.968668 0.700402
O O12 0.322158 0.269446 0.436322
O O13 0.489531 0.134955 0.471422
O O14 0.708058 0.017552 0.503012
O O15 0.949644 0.045085 0.442695
O O16 0.084166 0.388931 0.788466
#
# Coordination Sequence:
#
# PCOD9137914 Si02
#       8
#     4   4   4   4   4   4   4   4
#     4  11  26  45  73 102 137 190 234 291 356 435
#     4  12  25  44  75  99 141 184 235 289 362 429
#     4  11  24  45  72 105 142 186 240 294 360 427
#     4  11  28  46  73 105 146 185 244 301 360 428
#     4  11  25  45  74 102 145 187 239 292 362 432
#     4  10  22  45  70  97 137 183 236 282 360 429
#     4  12  27  46  73 104 148 188 244 297 366 431
#     4  10  25  44  70 104 140 181 232 298 356 429
#
# _framework density 22.900071000000001
#
# number of rings (size 3 to 8) (size 9 to 14) (size 15 to 20)
#    0.000    1.000    2.500    2.250   14.000    1.000 
#    2.250    0.000    0.000    0.000    0.000    0.000 
#    0.000    0.000    0.000    0.000    0.000    0.000 
#
# Total GULP energy -89440.994187 kJ/mol
# GULP energy per Si atom -5590.062137 kJ/mol
# Density = 2.284795 g / cm^3
# Si number density = 22.900071 Si / 1000 Ang^3
#
#
#
# Elastic Constant Matrix: (Units=GPa)
#
#
# Indices 1 2 3 4 5 6 
#
# 1 62.4700 31.8002 -5.0574 0.0000 -2.6162 0.0000
# 2 31.8002 109.2697 -4.7229 0.0000 -11.7821 0.0000
# 3 -5.0574 -4.7229 58.7029 0.0000 -16.6304 0.0000
# 4 0.0000 0.0000 0.0000 34.9815 0.0000 2.3252
# 5 -2.6162 -11.7821 -16.6304 0.0000 24.3737 0.0000
# 6 0.0000 0.0000 0.0000 2.3252 0.0000 25.7073
#
#
#
# Elastic Compliance Matrix: (Units=1/GPa)
#
#
# Indices 1 2 3 4 5 6 
#
# 1 0.018875 -0.005408 0.001270 0.000000 0.000278 0.000000
# 2 -0.005408 0.011536 0.002327 0.000000 0.006584 0.000000
# 3 0.001270 0.002327 0.021927 0.000000 0.016223 0.000000
# 4 0.000000 0.000000 0.000000 0.028759 0.000000 -0.002601
# 5 0.000278 0.006584 0.016223 0.000000 0.055309 0.000000
# 6 0.000000 0.000000 0.000000 -0.002601 0.000000 0.039135
#
#
# Mechanical properties :
#
#
# Convention : Reuss Voigt Hill
#
# Bulk Modulus (GPa) = 20.52687 30.49804 25.51245
# Shear Modulus (GPa) = 25.58814 30.90736 28.24775
#
# Velocity S-wave (km/s) = 3.34635 3.67776 3.51596
# Velocity P-wave (km/s) = 4.89019 5.60191 5.25810
#
# Compressibility (1/GPa) = 0.04871663
#
# Stress axis : x y z
#
# Youngs Moduli (GPa) = 52.97959 86.68413 45.60503
#
# Poissons Ratio (x) = 0.46881 -0.05791
# Poissons Ratio (y) = 0.28653 -0.10614
# Poissons Ratio (z) = -0.06727 -0.20175
#
# Static dielectric constant tensor:
#      x y z
#    x 1.868640 0.000000 -0.027450 
#    y 0.000000 1.903450 0.000000 
#    z -0.027450 0.000000 1.832240 
# 
# From -- ./inp_files/14807.got.cif
#   From: 2010.05.17/outbox.cif.g08.bks.cpg/sg9_8_cif.got.tgz:14807.got - 2010.06.03 20:04:27.
