data_PCOD9137127
_publ_section_title
;
Structure prediction by ZEFSAII (Michael W. Deem and Ramdas Pophale) SiO2 
 PCOD9137127
Probable space group: C C
;
_chemical_formula_sum "Si O2"
_cell_formula_units_Z 32
_cell_length_a 25.292520
_cell_length_b 13.742264
_cell_length_c 9.591224
_cell_angle_alpha 90.000000
_cell_angle_beta 28.807005
_cell_angle_gamma 90.000000
_cell_volume 1606.371639
_symmetry_space_group_name_H-M "C C"
_symmetry_group_IT_number 9
_symmetry_cell_setting 'monoclinic'
loop_
_space_group_symop_operation_xyz
x,y,z
x,-y,1/2+z
1/2+x,1/2+y,z
1/2+x,1/2-y,1/2+z
loop_
_atom_site_type_symbol
_atom_site_label
_atom_site_fract_x
_atom_site_fract_y
_atom_site_fract_z
Si Si1 0.579890 0.553724 0.799330
Si Si2 0.939955 0.957483 0.354467
Si Si3 0.197750 0.236589 0.619363
Si Si4 0.819516 0.549959 0.317754
Si Si5 0.775575 0.776401 0.743902
Si Si6 0.645790 0.898820 0.253721
Si Si7 0.728197 0.928666 0.374603
Si Si8 0.403576 0.081489 0.413790
O O1 0.535120 0.558015 0.747409
O O2 0.597531 0.662533 0.821061
O O3 0.702312 0.510594 0.533482
O O4 0.495142 0.492394 0.085357
O O5 0.865694 0.861311 0.513785
O O6 0.854949 0.040749 0.600261
O O7 0.303047 0.166454 0.344425
O O8 0.206512 0.267467 0.760134
O O9 0.199224 0.327561 0.514589
O O10 0.837616 0.533014 0.438446
O O11 0.912388 0.498971 0.013282
O O12 0.838049 0.674963 0.619617
O O13 0.701790 0.808408 0.045207
O O14 0.704717 0.923930 0.263907
O O15 0.519413 0.885242 0.584711
O O16 0.661021 0.987707 0.110527
#
# Coordination Sequence:
#
# PCOD9137127 Si02
#       8
#     4   4   4   4   4   4   4   4
#     4  10  22  39  65  94 126 170 213 267 331 378
#     4  11  21  40  67  93 126 174 216 263 334 385
#     4   9  22  41  58  89 134 164 208 276 320 375
#     4   9  22  39  58  90 132 164 213 271 317 385
#     4  10  23  42  63  94 130 165 224 270 319 393
#     4  11  24  40  69  92 125 180 213 273 326 386
#     4  11  22  43  62  94 133 163 223 270 317 394
#     4  11  22  42  62  92 128 174 214 264 338 384
#
# _framework density 19.920670999999999
#
# number of rings (size 3 to 8) (size 9 to 14) (size 15 to 20)
#    0.750    1.000    0.000    5.250    1.750    2.000 
#    6.750    0.000    0.000    0.000    0.000    0.000 
#    0.000    0.000    0.000    0.000    0.000    0.000 
#
# Total GULP energy -89258.102319 kJ/mol
# GULP energy per Si atom -5578.631395 kJ/mol
# Density = 1.987533 g / cm^3
# Si number density = 19.920671 Si / 1000 Ang^3
#
#
#
# Elastic Constant Matrix: (Units=GPa)
#
#
# Indices 1 2 3 4 5 6 
#
# 1 92.7190 32.3819 25.8161 0.0000 17.6471 0.0000
# 2 32.3819 63.6296 39.6732 0.0000 19.6923 0.0000
# 3 25.8161 39.6732 96.6534 0.0000 10.8650 0.0000
# 4 0.0000 0.0000 0.0000 29.2716 0.0000 9.5164
# 5 17.6471 19.6923 10.8650 0.0000 30.1444 0.0000
# 6 0.0000 0.0000 0.0000 9.5164 0.0000 27.4139
#
#
#
# Elastic Compliance Matrix: (Units=1/GPa)
#
#
# Indices 1 2 3 4 5 6 
#
# 1 0.013641 -0.004863 -0.001153 0.000000 -0.004393 0.000000
# 2 -0.004863 0.027165 -0.008522 0.000000 -0.011827 0.000000
# 3 -0.001153 -0.008522 0.014018 0.000000 0.001189 0.000000
# 4 0.000000 0.000000 0.000000 0.038509 0.000000 -0.013368
# 5 -0.004393 -0.011827 0.001189 0.000000 0.043043 0.000000
# 6 0.000000 0.000000 0.000000 -0.013368 0.000000 0.041118
#
#
# Mechanical properties :
#
#
# Convention : Reuss Voigt Hill
#
# Bulk Modulus (GPa) = 38.83938 49.86049 44.34994
# Shear Modulus (GPa) = 23.23923 27.70804 25.47363
#
# Velocity S-wave (km/s) = 3.41924 3.73355 3.57985
# Velocity P-wave (km/s) = 5.92686 6.60831 6.27684
#
# Compressibility (1/GPa) = 0.02574706
#
# Stress axis : x y z
#
# Youngs Moduli (GPa) = 73.30814 36.81270 71.33431
#
# Poissons Ratio (x) = 0.17904 0.08228
# Poissons Ratio (y) = 0.35653 0.60789
# Poissons Ratio (z) = 0.08456 0.31371
#
# Static dielectric constant tensor:
#      x y z
#    x 1.710800 0.000000 -0.026370 
#    y 0.000000 1.699280 0.000000 
#    z -0.026370 0.000000 1.702060 
# 
# From -- ./inp_files/12529.got.cif
#   From: 2010.05.17/outbox.cif.g08.bks.cpg/sg9_7_cif.got.tgz:12529.got - 2010.06.03 20:04:27.
