data_PCOD9137067
_publ_section_title
;
Structure prediction by ZEFSAII (Michael W. Deem and Ramdas Pophale) SiO2 
 PCOD9137067
Probable space group: C C
;
_chemical_formula_sum "Si O2"
_cell_formula_units_Z 32
_cell_length_a 19.986130
_cell_length_b 5.662577
_cell_length_c 15.238377
_cell_angle_alpha 90.000000
_cell_angle_beta 51.262072
_cell_angle_gamma 90.000000
_cell_volume 1345.195005
_symmetry_space_group_name_H-M "C C"
_symmetry_group_IT_number 9
_symmetry_cell_setting 'monoclinic'
loop_
_space_group_symop_operation_xyz
x,y,z
x,-y,1/2+z
1/2+x,1/2+y,z
1/2+x,1/2-y,1/2+z
loop_
_atom_site_type_symbol
_atom_site_label
_atom_site_fract_x
_atom_site_fract_y
_atom_site_fract_z
Si Si1 0.337050 0.470294 0.238320
Si Si2 0.580439 0.773013 0.661425
Si Si3 0.168547 0.388678 0.293827
Si Si4 0.517778 0.225844 0.397436
Si Si5 0.376904 0.029873 0.633187
Si Si6 0.203769 0.354957 0.982062
Si Si7 0.091371 0.973375 0.980499
Si Si8 0.723829 0.540079 0.122034
O O1 0.266732 0.460192 0.217225
O O2 0.379588 0.728814 0.188872
O O3 0.277583 0.491998 0.373946
O O4 0.379348 0.210882 0.188922
O O5 0.511377 0.757774 0.797261
O O6 0.551029 0.606079 0.605619
O O7 0.671036 0.668457 0.622019
O O8 0.617729 0.017577 0.591400
O O9 0.110575 0.609771 0.327713
O O10 0.154316 0.198857 0.230120
O O11 0.141037 0.253359 0.403588
O O12 0.452874 0.051936 0.499876
O O13 0.526506 0.446950 0.456773
O O14 0.292843 0.024594 0.639115
O O15 0.162858 0.169823 0.945992
O O16 0.251386 0.208344 0.019656
#
# Coordination Sequence:
#
# PCOD9137067 Si02
#       8
#     4   4   4   4   4   4   4   4
#     4  11  23  45  68 100 135 188 236 294 348 437
#     4  11  22  39  72 105 134 178 249 302 350 421
#     4  11  20  39  74  92 132 177 245 287 341 430
#     4  12  24  43  70 102 143 191 232 297 375 437
#     4  11  28  44  68  99 149 190 235 283 378 442
#     4  11  21  38  69 104 135 173 249 305 342 413
#     4  11  22  40  67 110 133 180 238 310 356 420
#     4  10  22  38  66 104 131 187 236 296 354 422
#
# _framework density 23.788371000000001
#
# number of rings (size 3 to 8) (size 9 to 14) (size 15 to 20)
#    0.000    1.000    5.000    2.250    5.250    0.000 
#    0.000    3.750    0.000    0.000    0.000    0.000 
#    0.000    0.000    0.000    0.000    0.000    0.000 
#
# Total GULP energy -89205.338862 kJ/mol
# GULP energy per Si atom -5575.333679 kJ/mol
# Density = 2.373423 g / cm^3
# Si number density = 23.788371 Si / 1000 Ang^3
#
#
#
# Elastic Constant Matrix: (Units=GPa)
#
#
# Indices 1 2 3 4 5 6 
#
# 1 26.1953 14.0812 8.2420 -0.0106 9.3646 0.0058
# 2 14.0812 108.8388 53.6125 -0.0232 9.0758 0.0381
# 3 8.2420 53.6125 156.3780 -0.0115 20.7829 0.0050
# 4 -0.0106 -0.0232 -0.0115 53.8801 0.0137 8.0013
# 5 9.3646 9.0758 20.7829 0.0137 31.7250 -0.0089
# 6 0.0058 0.0381 0.0050 8.0013 -0.0089 25.7392
#
#
#
# Elastic Compliance Matrix: (Units=1/GPa)
#
#
# Indices 1 2 3 4 5 6 
#
# 1 0.045182 -0.005351 0.001120 0.000012 -0.012540 -0.000010
# 2 -0.005351 0.011705 -0.003829 0.000005 0.000740 -0.000017
# 3 0.001120 -0.003829 0.008267 0.000001 -0.004651 0.000002
# 4 0.000012 0.000005 0.000001 0.019458 -0.000016 -0.006049
# 5 -0.012540 0.000740 -0.004651 -0.000016 0.038057 0.000021
# 6 -0.000010 -0.000017 0.000002 -0.006049 0.000021 0.040732
#
#
# Mechanical properties :
#
#
# Convention : Reuss Voigt Hill
#
# Bulk Modulus (GPa) = 20.39490 49.25371 34.82431
# Shear Modulus (GPa) = 25.52772 36.63395 31.08084
#
# Velocity S-wave (km/s) = 3.27940 3.92853 3.61855
# Velocity P-wave (km/s) = 4.78867 6.42866 5.66829
#
# Compressibility (1/GPa) = 0.04903187
#
# Stress axis : x y z
#
# Youngs Moduli (GPa) = 22.13273 85.43542 120.96925
#
# Poissons Ratio (x) = 0.45721 -0.13547
# Poissons Ratio (y) = 0.11844 0.46320
# Poissons Ratio (z) = -0.02479 0.32714
#
# Static dielectric constant tensor:
#      x y z
#    x 1.937610 -0.000010 0.033850 
#    y -0.000010 1.998790 0.000010 
#    z 0.033850 0.000010 2.007800 
# 
# From -- ./inp_files/27136.got.cif
#   From: 2010.05.17/outbox.cif.g08.bks.cpg/sg9_14_cif.got.tgz:27136.got - 2010.06.03 20:04:27.
