data_PCOD9137106
_publ_section_title
;
Structure prediction by ZEFSAII (Michael W. Deem and Ramdas Pophale) SiO2 
 PCOD9137106
Probable space group: C C
;
_chemical_formula_sum "Si O2"
_cell_formula_units_Z 32
_cell_length_a 27.648669
_cell_length_b 6.184292
_cell_length_c 25.047088
_cell_angle_alpha 90.000000
_cell_angle_beta 18.384790
_cell_angle_gamma 90.000000
_cell_volume 1350.763134
_symmetry_space_group_name_H-M "C C"
_symmetry_group_IT_number 9
_symmetry_cell_setting 'monoclinic'
loop_
_space_group_symop_operation_xyz
x,y,z
x,-y,1/2+z
1/2+x,1/2+y,z
1/2+x,1/2-y,1/2+z
loop_
_atom_site_type_symbol
_atom_site_label
_atom_site_fract_x
_atom_site_fract_y
_atom_site_fract_z
Si Si1 0.880250 0.975997 0.642630
Si Si2 0.392649 0.808022 0.033942
Si Si3 0.565712 0.120258 0.927558
Si Si4 0.453847 0.434089 0.675316
Si Si5 0.999443 0.635347 0.833811
Si Si6 0.691022 0.722469 0.478286
Si Si7 0.761565 0.072248 0.625008
Si Si8 0.924703 0.449647 0.291330
O O1 0.696866 0.006430 0.826642
O O2 0.975226 0.194399 0.552463
O O3 0.942579 0.889650 0.520694
O O4 0.924508 0.835011 0.647513
O O5 0.249018 0.675279 0.158476
O O6 0.429376 0.988549 0.040500
O O7 0.448457 0.927947 0.922343
O O8 0.673717 0.197211 0.764510
O O9 0.614720 0.556949 0.516142
O O10 0.321500 0.616523 0.820014
O O11 0.437005 0.252107 0.738140
O O12 0.179136 0.625548 0.655936
O O13 0.949590 0.621262 0.825671
O O14 0.930122 0.843598 0.936408
O O15 0.766491 0.574435 0.445133
O O16 0.557225 0.876917 0.639541
#
# Coordination Sequence:
#
# PCOD9137106 Si02
#       8
#     4   4   4   4   4   4   4   4
#     4  11  24  41  70 100 139 182 227 281 349 423
#     4  10  22  39  62  98 136 176 221 268 340 417
#     4  10  22  42  64 101 141 178 224 281 343 420
#     4  11  24  45  72 103 142 188 235 300 363 426
#     4  11  26  41  68  95 134 178 232 295 344 411
#     4  10  25  46  68 102 138 178 244 297 359 436
#     4  10  23  42  64  98 134 180 224 285 346 415
#     4  11  26  46  70  99 138 188 243 303 360 418
#
# _framework density 23.690311999999999
#
# number of rings (size 3 to 8) (size 9 to 14) (size 15 to 20)
#    0.000    1.500    0.000    4.500    5.250   14.000 
#    0.000    0.000    0.000    0.000    0.000    0.000 
#    0.000    0.000    0.000    0.000    0.000    0.000 
#
# Total GULP energy -89114.357286 kJ/mol
# GULP energy per Si atom -5569.647330 kJ/mol
# Density = 2.363639 g / cm^3
# Si number density = 23.690312 Si / 1000 Ang^3
#
#
#
# Elastic Constant Matrix: (Units=GPa)
#
#
# Indices 1 2 3 4 5 6 
#
# 1 206.7063 47.7935 26.3086 -0.0168 0.5633 0.0135
# 2 47.7935 73.3261 34.3809 -0.1023 -2.4560 0.0619
# 3 26.3086 34.3809 43.3390 -0.0731 -9.7873 0.0561
# 4 -0.0168 -0.1023 -0.0731 33.7396 0.0422 -7.3141
# 5 0.5633 -2.4560 -9.7873 0.0422 29.1775 -0.0258
# 6 0.0135 0.0619 0.0561 -7.3141 -0.0258 34.5862
#
#
#
# Elastic Compliance Matrix: (Units=1/GPa)
#
#
# Indices 1 2 3 4 5 6 
#
# 1 0.005729 -0.003264 -0.001055 -0.000008 -0.000739 0.000003
# 2 -0.003264 0.024079 -0.018013 0.000036 -0.003952 -0.000008
# 3 -0.001055 -0.018013 0.040754 0.000013 0.012175 -0.000022
# 4 -0.000008 0.000036 0.000013 0.031063 -0.000032 0.006569
# 5 -0.000739 -0.003952 0.012175 -0.000032 0.038038 0.000009
# 6 0.000003 -0.000008 -0.000022 0.006569 0.000009 0.030303
#
#
# Mechanical properties :
#
#
# Convention : Reuss Voigt Hill
#
# Bulk Modulus (GPa) = 38.61466 60.03749 49.32608
# Shear Modulus (GPa) = 22.39531 33.82656 28.11093
#
# Velocity S-wave (km/s) = 3.07797 3.78281 3.44844
# Velocity P-wave (km/s) = 5.38210 6.66912 6.05988
#
# Compressibility (1/GPa) = 0.02589690
#
# Stress axis : x y z
#
# Youngs Moduli (GPa) = 174.55719 41.53074 24.53775
#
# Poissons Ratio (x) = 0.13555 0.02589
# Poissons Ratio (y) = 0.56975 0.44199
# Poissons Ratio (z) = 0.18421 0.74808
#
# Static dielectric constant tensor:
#      x y z
#    x 1.904510 -0.000010 -0.064550 
#    y -0.000010 1.954580 0.000050 
#    z -0.064550 0.000050 1.968420 
# 
# From -- ./inp_files/37063.got.cif
#   From: 2010.05.17/outbox.cif.g08.bks.cpg/sg9_19_cif.got.tgz:37063.got - 2010.06.03 20:04:27.
