data_PCOD9137009
_publ_section_title
;
Structure prediction by ZEFSAII (Michael W. Deem and Ramdas Pophale) SiO2 
 PCOD9137009
Probable space group: C C
;
_chemical_formula_sum "Si O2"
_cell_formula_units_Z 28
_cell_length_a 18.786375
_cell_length_b 7.647592
_cell_length_c 9.039868
_cell_angle_alpha 90.000000
_cell_angle_beta 107.550825
_cell_angle_gamma 90.000000
_cell_volume 1238.305016
_symmetry_space_group_name_H-M "C C"
_symmetry_group_IT_number 9
_symmetry_cell_setting 'monoclinic'
loop_
_space_group_symop_operation_xyz
x,y,z
x,-y,1/2+z
1/2+x,1/2+y,z
1/2+x,1/2-y,1/2+z
loop_
_atom_site_type_symbol
_atom_site_label
_atom_site_fract_x
_atom_site_fract_y
_atom_site_fract_z
Si Si1 0.530860 0.165968 0.167600
Si Si2 0.384853 0.481304 0.305668
Si Si3 0.640803 0.344151 0.830087
Si Si4 0.868886 0.244456 0.529366
Si Si5 0.050714 0.965100 0.519473
Si Si6 0.257224 0.237820 0.191209
Si Si7 0.126050 0.479081 0.984460
O O1 0.441923 0.141886 0.110359
O O2 0.541675 0.357187 0.107446
O O3 0.574918 0.139131 0.346466
O O4 0.572229 0.042616 0.079163
O O5 0.366772 0.672900 0.360638
O O6 0.378984 0.440721 0.126633
O O7 0.469609 0.432532 0.399986
O O8 0.322070 0.343269 0.318301
O O9 0.577501 0.333230 0.662548
O O10 0.713768 0.386199 0.777452
O O11 0.650378 0.155662 0.912845
O O12 0.612316 0.481871 0.934375
O O13 0.798828 0.330136 0.569360
O O14 0.197007 0.377260 0.092066
#
# Coordination Sequence:
#
# PCOD9137009 Si02
#       7
#     4   4   4   4   4   4   4
#     4  10  22  39  61  94 121 163 211 248 312 362
#     4   9  19  37  60  89 117 160 210 247 288 367
#     4  11  23  40  63  97 122 167 203 263 305 367
#     4   9  20  36  58  88 119 156 202 251 294 366
#     4  10  22  39  67  91 122 163 216 248 306 365
#     4  10  22  36  64  91 128 154 209 250 314 362
#     4  11  22  39  65  92 125 163 205 261 303 371
#
# _framework density 22.611554000000002
#
# number of rings (size 3 to 8) (size 9 to 14) (size 15 to 20)
#    0.857    1.143    1.429    2.571    4.000    0.000 
#    0.000    1.429    0.000    0.000    0.000    0.000 
#    0.000    0.000    0.000    0.000    0.000    0.000 
#
# Total GULP energy -78047.576864 kJ/mol
# GULP energy per Si atom -5574.826919 kJ/mol
# Density = 2.256009 g / cm^3
# Si number density = 22.611554 Si / 1000 Ang^3
#
#
#
# Elastic Constant Matrix: (Units=GPa)
#
#
# Indices 1 2 3 4 5 6 
#
# 1 154.1413 12.7781 25.9424 0.0000 -18.5900 0.0000
# 2 12.7781 30.5132 15.4797 0.0000 3.7272 0.0000
# 3 25.9424 15.4797 85.9335 0.0000 -4.1811 0.0000
# 4 0.0000 0.0000 0.0000 31.4963 0.0000 0.4658
# 5 -18.5900 3.7272 -4.1811 0.0000 29.1873 0.0000
# 6 0.0000 0.0000 0.0000 0.4658 0.0000 25.4972
#
#
#
# Elastic Compliance Matrix: (Units=1/GPa)
#
#
# Indices 1 2 3 4 5 6 
#
# 1 0.007596 -0.003030 -0.001504 0.000000 0.005010 0.000000
# 2 -0.003030 0.038202 -0.006342 0.000000 -0.007717 0.000000
# 3 -0.001504 -0.006342 0.013319 0.000000 0.001760 0.000000
# 4 0.000000 0.000000 0.000000 0.031758 0.000000 -0.000580
# 5 0.005010 -0.007717 0.001760 0.000000 0.038690 0.000000
# 6 0.000000 0.000000 0.000000 -0.000580 0.000000 0.039231
#
#
# Mechanical properties :
#
#
# Convention : Reuss Voigt Hill
#
# Bulk Modulus (GPa) = 26.76317 42.10983 34.43650
# Shear Modulus (GPa) = 24.63032 31.66201 28.14617
#
# Velocity S-wave (km/s) = 3.30401 3.74606 3.53196
# Velocity P-wave (km/s) = 5.13975 6.11345 5.64762
#
# Compressibility (1/GPa) = 0.03736478
#
# Stress axis : x y z
#
# Youngs Moduli (GPa) = 131.64861 26.17691 75.08127
#
# Poissons Ratio (x) = 0.07932 0.11289
# Poissons Ratio (y) = 0.39891 0.47618
# Poissons Ratio (z) = 0.19794 0.16602
#
# Static dielectric constant tensor:
#      x y z
#    x 1.886630 0.000000 -0.019950 
#    y 0.000000 1.864750 0.000000 
#    z -0.019950 0.000000 1.921960 
# 
# From -- ./inp_files/11250.got.cif
#   From: 2010.05.17/outbox.cif.g08.bks.cpg/sg9_6_cif.got.tgz:11250.got - 2010.06.03 20:04:27.
