data_PCOD9137425
_publ_section_title
;
Structure prediction by ZEFSAII (Michael W. Deem and Ramdas Pophale) SiO2 
 PCOD9137425
Probable space group: C C
;
_chemical_formula_sum "Si O2"
_cell_formula_units_Z 32
_cell_length_a 16.772524
_cell_length_b 14.051780
_cell_length_c 15.665183
_cell_angle_alpha 90.000000
_cell_angle_beta 153.689838
_cell_angle_gamma 90.000000
_cell_volume 1636.419197
_symmetry_space_group_name_H-M "C C"
_symmetry_group_IT_number 9
_symmetry_cell_setting 'monoclinic'
loop_
_space_group_symop_operation_xyz
x,y,z
x,-y,1/2+z
1/2+x,1/2+y,z
1/2+x,1/2-y,1/2+z
loop_
_atom_site_type_symbol
_atom_site_label
_atom_site_fract_x
_atom_site_fract_y
_atom_site_fract_z
Si Si1 0.020990 0.804442 0.979370
Si Si2 0.371252 0.137286 0.260192
Si Si3 0.691985 0.864071 0.758163
Si Si4 0.190112 0.577133 0.443366
Si Si5 0.294809 0.195559 0.616314
Si Si6 0.625682 0.922869 0.152314
Si Si7 0.623812 0.864072 0.337520
Si Si8 0.444541 0.637285 0.835487
O O1 0.893332 0.867845 0.914081
O O2 0.907900 0.750001 0.797842
O O3 0.103004 0.723985 0.121521
O O4 0.157901 0.858652 0.047843
O O5 0.501716 0.094848 0.311854
O O6 0.459423 0.100476 0.431997
O O7 0.407896 0.250000 0.297840
O O8 0.157897 0.119560 0.047840
O O9 0.691538 0.858424 0.859718
O O10 0.605688 0.965823 0.655183
O O11 0.210106 0.465824 0.440496
O O12 0.356371 0.600478 0.663682
O O13 0.422465 0.132156 0.681601
O O14 0.212795 0.276017 0.474163
O O15 0.624258 0.858425 0.235963
O O16 0.814078 0.905154 0.283825
#
# Coordination Sequence:
#
# PCOD9137425 Si02
#       8
#     4   4   4   4   4   4   4   4
#     4   9  20  36  63  86 122 164 206 243 315 362
#     4  11  23  41  66  92 124 167 205 254 321 368
#     4  10  22  42  61  93 125 167 202 265 302 371
#     4  10  24  42  65  93 129 158 213 259 308 369
#     4   9  20  36  63  86 122 164 206 243 315 362
#     4  10  24  42  65  93 129 158 213 259 308 369
#     4  10  22  42  61  93 125 167 202 265 302 371
#     4  11  23  41  66  92 124 167 205 254 321 368
#
# _framework density 19.55489
#
# number of rings (size 3 to 8) (size 9 to 14) (size 15 to 20)
#    0.000    2.000    2.500    0.000   14.000    1.000 
#    9.000    2.500    0.000    0.000    0.000    0.000 
#    0.000    0.000    0.000    0.000    0.000    0.000 
#
# Total GULP energy -89147.384773 kJ/mol
# GULP energy per Si atom -5571.711548 kJ/mol
# Density = 1.951038 g / cm^3
# Si number density = 19.554890 Si / 1000 Ang^3
#
#
#
# Elastic Constant Matrix: (Units=GPa)
#
#
# Indices 1 2 3 4 5 6 
#
# 1 144.9122 18.5632 85.5602 0.0000 -27.1996 0.0000
# 2 18.5632 38.0069 17.1162 -0.0008 -10.2885 -0.0004
# 3 85.5602 17.1162 143.5101 -0.0018 1.3178 -0.0011
# 4 0.0000 -0.0008 -0.0018 29.0624 -0.0006 2.9498
# 5 -27.1996 -10.2885 1.3178 -0.0006 27.1815 -0.0004
# 6 0.0000 -0.0004 -0.0011 2.9498 -0.0004 21.9133
#
#
#
# Elastic Compliance Matrix: (Units=1/GPa)
#
#
# Indices 1 2 3 4 5 6 
#
# 1 0.015409 0.001158 -0.009475 0.000000 0.016317 0.000000
# 2 0.001158 0.031386 -0.004555 0.000001 0.013260 0.000000
# 3 -0.009475 -0.004555 0.013269 0.000000 -0.011849 0.000000
# 4 0.000000 0.000001 0.000000 0.034885 0.000001 -0.004696
# 5 0.016317 0.013260 -0.011849 0.000001 0.058711 0.000001
# 6 0.000000 0.000000 0.000000 -0.004696 0.000001 0.046267
#
#
# Mechanical properties :
#
#
# Convention : Reuss Voigt Hill
#
# Bulk Modulus (GPa) = 29.13762 63.21204 46.17483
# Shear Modulus (GPa) = 21.08696 29.31072 25.19884
#
# Velocity S-wave (km/s) = 3.28738 3.87576 3.59363
# Velocity P-wave (km/s) = 5.41682 7.24046 6.39399
#
# Compressibility (1/GPa) = 0.03431989
#
# Stress axis : x y z
#
# Youngs Moduli (GPa) = 64.89548 31.86094 75.36246
#
# Poissons Ratio (x) = -0.03689 0.71406
# Poissons Ratio (y) = -0.07514 0.34331
# Poissons Ratio (z) = 0.61488 0.14514
#
# Static dielectric constant tensor:
#      x y z
#    x 1.727260 0.000000 0.048370 
#    y 0.000000 1.681460 0.000000 
#    z 0.048370 0.000000 1.741440 
# 
# From -- ./inp_files/26029.got.cif
#   From: 2010.05.17/outbox.cif.g08.bks.cpg/sg9_14_cif.got.tgz:26029.got - 2010.06.03 20:04:27.
