data_PCOD9137842
_publ_section_title
;
Structure prediction by ZEFSAII (Michael W. Deem and Ramdas Pophale) SiO2 
 PCOD9137842
Probable space group: C C
;
_chemical_formula_sum "Si O2"
_cell_formula_units_Z 32
_cell_length_a 10.243572
_cell_length_b 11.350982
_cell_length_c 11.620937
_cell_angle_alpha 90.000000
_cell_angle_beta 73.887929
_cell_angle_gamma 90.000000
_cell_volume 1298.144860
_symmetry_space_group_name_H-M "C C"
_symmetry_group_IT_number 9
_symmetry_cell_setting 'monoclinic'
loop_
_space_group_symop_operation_xyz
x,y,z
x,-y,1/2+z
1/2+x,1/2+y,z
1/2+x,1/2-y,1/2+z
loop_
_atom_site_type_symbol
_atom_site_label
_atom_site_fract_x
_atom_site_fract_y
_atom_site_fract_z
Si Si1 0.984350 0.076972 0.791120
Si Si2 0.096485 0.252414 0.181936
Si Si3 0.860312 0.682312 0.573722
Si Si4 0.195997 0.969729 0.573008
Si Si5 0.564549 0.825629 0.812975
Si Si6 0.189194 0.442081 0.315389
Si Si7 0.587115 0.180135 0.062018
Si Si8 0.559411 0.391434 0.925795
O O1 0.836221 0.115685 0.792259
O O2 0.082234 0.184823 0.799424
O O3 0.055050 0.003539 0.672587
O O4 0.959665 0.991216 0.905231
O O5 0.197145 0.171154 0.079625
O O6 0.133440 0.384138 0.211943
O O7 0.097638 0.185076 0.304874
O O8 0.953481 0.262474 0.150471
O O9 0.804954 0.550387 0.611501
O O10 0.735475 0.768256 0.566904
O O11 0.955500 0.664931 0.439591
O O12 0.180307 0.031003 0.452502
O O13 0.517256 0.860358 0.695904
O O14 0.685247 0.916600 0.809446
O O15 0.106030 0.406722 0.450700
O O16 0.513992 0.295987 0.029267
#
# Coordination Sequence:
#
# PCOD9137842 Si02
#       8
#     4   4   4   4   4   4   4   4
#     4  11  22  41  75 104 137 192 241 300 374 437
#     4  10  24  45  68 104 145 188 246 296 369 443
#     4  11  23  46  72 108 144 194 249 310 366 450
#     4  10  22  44  75 102 141 192 244 304 363 439
#     4  12  25  44  73 106 148 199 241 302 386 429
#     4  11  27  45  68 108 149 190 245 305 367 455
#     4  10  23  48  68  98 149 189 242 306 369 441
#     4   9  20  41  69 102 133 180 244 299 358 434
#
# _framework density 24.650561
#
# number of rings (size 3 to 8) (size 9 to 14) (size 15 to 20)
#    0.000    1.500    3.750    0.750    5.250    1.000 
#    4.500    0.000    0.000    0.000    0.000    0.000 
#    0.000    0.000    0.000    0.000    0.000    0.000 
#
# Total GULP energy -89251.967163 kJ/mol
# GULP energy per Si atom -5578.247948 kJ/mol
# Density = 2.459446 g / cm^3
# Si number density = 24.650561 Si / 1000 Ang^3
#
#
#
# Elastic Constant Matrix: (Units=GPa)
#
#
# Indices 1 2 3 4 5 6 
#
# 1 62.7424 45.9573 25.5798 0.0000 19.6005 0.0000
# 2 45.9573 107.2401 20.8797 0.0000 17.2281 0.0000
# 3 25.5798 20.8797 97.5382 0.0000 10.4200 0.0000
# 4 0.0000 0.0000 0.0000 17.5127 0.0000 5.7624
# 5 19.6005 17.2281 10.4200 0.0000 29.7079 0.0000
# 6 0.0000 0.0000 0.0000 5.7624 0.0000 38.0704
#
#
#
# Elastic Compliance Matrix: (Units=1/GPa)
#
#
# Indices 1 2 3 4 5 6 
#
# 1 0.028138 -0.009379 -0.004124 0.000000 -0.011679 0.000000
# 2 -0.009379 0.013663 -0.000291 0.000000 -0.001633 0.000000
# 3 -0.004124 -0.000291 0.011519 0.000000 -0.001151 0.000000
# 4 0.000000 0.000000 0.000000 0.060094 0.000000 -0.009096
# 5 -0.011679 -0.001633 -0.001151 0.000000 0.042718 0.000000
# 6 0.000000 0.000000 0.000000 -0.009096 0.000000 0.027644
#
#
# Mechanical properties :
#
#
# Convention : Reuss Voigt Hill
#
# Bulk Modulus (GPa) = 38.86066 50.26159 44.56112
# Shear Modulus (GPa) = 22.73332 28.73179 25.73255
#
# Velocity S-wave (km/s) = 3.04011 3.41774 3.23444
# Velocity P-wave (km/s) = 5.30300 6.00071 5.66261
#
# Compressibility (1/GPa) = 0.02573296
#
# Stress axis : x y z
#
# Youngs Moduli (GPa) = 35.53908 73.18869 86.81269
#
# Poissons Ratio (x) = 0.68646 0.35800
# Poissons Ratio (y) = 0.33333 0.02523
# Poissons Ratio (z) = 0.14656 0.02127
#
# Static dielectric constant tensor:
#      x y z
#    x 1.948340 0.000000 0.026990 
#    y 0.000000 2.018860 0.000000 
#    z 0.026990 0.000000 2.018290 
# 
# From -- ./inp_files/16574.got.cif
#   From: 2010.05.17/outbox.cif.g08.bks.cpg/sg9_9_cif.got.tgz:16574.got - 2010.06.03 20:04:27.
