data_PCOD9137305
_publ_section_title
;
Structure prediction by ZEFSAII (Michael W. Deem and Ramdas Pophale) SiO2 
 PCOD9137305
Probable space group: C C
;
_chemical_formula_sum "Si O2"
_cell_formula_units_Z 32
_cell_length_a 13.721866
_cell_length_b 8.418284
_cell_length_c 13.388648
_cell_angle_alpha 90.000000
_cell_angle_beta 73.259958
_cell_angle_gamma 90.000000
_cell_volume 1481.041845
_symmetry_space_group_name_H-M "C C"
_symmetry_group_IT_number 9
_symmetry_cell_setting 'monoclinic'
loop_
_space_group_symop_operation_xyz
x,y,z
x,-y,1/2+z
1/2+x,1/2+y,z
1/2+x,1/2-y,1/2+z
loop_
_atom_site_type_symbol
_atom_site_label
_atom_site_fract_x
_atom_site_fract_y
_atom_site_fract_z
Si Si1 0.818100 0.166019 0.854280
Si Si2 0.017160 0.164963 0.661251
Si Si3 0.255520 0.685244 0.423453
Si Si4 0.642809 0.363772 0.834060
Si Si5 0.576971 0.613030 0.019356
Si Si6 0.400350 0.831484 0.009247
Si Si7 0.716564 0.326071 0.213784
Si Si8 0.957071 0.683954 0.965098
O O1 0.925376 0.162087 0.766467
O O2 0.729099 0.230923 0.811395
O O3 0.829813 0.297205 0.936036
O O4 0.783881 0.999449 0.911163
O O5 0.979954 0.248001 0.569470
O O6 0.120771 0.240050 0.677152
O O7 0.039131 0.982617 0.625398
O O8 0.154788 0.742878 0.511071
O O9 0.235176 0.739190 0.314260
O O10 0.347825 0.772800 0.451824
O O11 0.678859 0.494837 0.745484
O O12 0.630328 0.477743 0.935853
O O13 0.537683 0.266935 0.866831
O O14 0.479364 0.686711 0.993624
O O15 0.323416 0.832312 0.124861
O O16 0.460483 0.994466 0.975064
#
# Coordination Sequence:
#
# PCOD9137305 Si02
#       8
#     4   4   4   4   4   4   4   4
#     4  12  23  40  68 100 134 176 222 273 329 396
#     4  11  23  43  66  96 134 175 219 275 332 392
#     4  11  23  42  68  99 133 175 221 273 333 392
#     4  10  22  41  63  91 131 170 212 269 327 386
#     4  10  22  41  63  91 131 170 212 269 327 386
#     4  12  23  40  68 100 134 176 222 273 329 396
#     4  11  23  43  66  96 134 175 219 275 332 392
#     4  11  23  42  68  99 133 175 221 273 333 392
#
# _framework density 21.606411000000001
#
# number of rings (size 3 to 8) (size 9 to 14) (size 15 to 20)
#    0.000    1.000    0.000    9.750    0.000    0.000 
#    0.000    1.250    0.000    3.000    0.000    0.000 
#    0.000    0.000    0.000    0.000    0.000    0.000 
#
# Total GULP energy -89352.155507 kJ/mol
# GULP energy per Si atom -5584.509719 kJ/mol
# Density = 2.155723 g / cm^3
# Si number density = 21.606411 Si / 1000 Ang^3
#
#
#
# Elastic Constant Matrix: (Units=GPa)
#
#
# Indices 1 2 3 4 5 6 
#
# 1 111.5038 14.6641 10.5514 0.0000 4.4967 0.0000
# 2 14.6641 91.9279 21.9687 0.0000 -2.4459 0.0000
# 3 10.5514 21.9687 52.5730 0.0000 -6.3053 0.0000
# 4 0.0000 0.0000 0.0000 9.3118 0.0000 23.3108
# 5 4.4967 -2.4459 -6.3053 0.0000 39.8318 0.0000
# 6 0.0000 0.0000 0.0000 23.3108 0.0000 42.6227
#
#
#
# Elastic Compliance Matrix: (Units=1/GPa)
#
#
# Indices 1 2 3 4 5 6 
#
# 1 0.009322 -0.001152 -0.001554 0.000000 -0.001369 0.000000
# 2 -0.001152 0.012227 -0.004865 0.000000 0.000111 0.000000
# 3 -0.001554 -0.004865 0.021764 0.000000 0.003322 0.000000
# 4 0.000000 0.000000 0.000000 -0.290938 0.000000 0.159117
# 5 -0.001369 0.000111 0.003322 0.000000 0.025793 0.000000
# 6 0.000000 0.000000 0.000000 0.159117 0.000000 -0.063561
#
#
# Mechanical properties :
#
#
# Convention : Reuss Voigt Hill
#
# Bulk Modulus (GPa) = 35.49594 38.93034 37.21314
# Shear Modulus (GPa) = -19.16735 32.27464 6.55364
#
# Velocity S-wave (km/s) = -2.98168 3.86910 1.74350
# Velocity P-wave (km/s) = 2.14714 6.16579 4.61667
#
# Compressibility (1/GPa) = 0.02817223
#
# Stress axis : x y z
#
# Youngs Moduli (GPa) = 107.27245 81.78324 45.94674
#
# Poissons Ratio (x) = 0.09423 0.07139
# Poissons Ratio (y) = 0.12360 0.22353
# Poissons Ratio (z) = 0.16667 0.39787
#
# Static dielectric constant tensor:
#      x y z
#    x 1.781460 0.000000 0.027070 
#    y 0.000000 1.777400 0.000000 
#    z 0.027070 0.000000 1.797940 
# 
# From -- ./inp_files/24198.got.cif
#   From: 2010.05.17/outbox.cif.g08.bks.cpg/sg9_13_cif.got.tgz:24198.got - 2010.06.03 20:04:27.
