data_PCOD9137976
_publ_section_title
;
Structure prediction by ZEFSAII (Michael W. Deem and Ramdas Pophale) SiO2 
 PCOD9137976
Probable space group: C C
;
_chemical_formula_sum "Si O2"
_cell_formula_units_Z 32
_cell_length_a 11.472887
_cell_length_b 10.818619
_cell_length_c 11.402570
_cell_angle_alpha 90.000000
_cell_angle_beta 71.830593
_cell_angle_gamma 90.000000
_cell_volume 1344.727515
_symmetry_space_group_name_H-M "C C"
_symmetry_group_IT_number 9
_symmetry_cell_setting 'monoclinic'
loop_
_space_group_symop_operation_xyz
x,y,z
x,-y,1/2+z
1/2+x,1/2+y,z
1/2+x,1/2-y,1/2+z
loop_
_atom_site_type_symbol
_atom_site_label
_atom_site_fract_x
_atom_site_fract_y
_atom_site_fract_z
Si Si1 0.456020 0.656332 0.034920
Si Si2 0.031397 0.845886 0.774478
Si Si3 0.082067 0.605487 0.517898
Si Si4 0.138156 0.095601 0.786052
Si Si5 0.835177 0.912028 0.036611
Si Si6 0.052757 0.376342 0.409422
Si Si7 0.963530 0.745792 0.176485
Si Si8 0.895364 0.484251 0.270142
O O1 0.468998 0.669250 0.169350
O O2 0.487950 0.797678 0.989035
O O3 0.343689 0.563286 0.041687
O O4 0.570853 0.591129 0.933570
O O5 0.098597 0.726084 0.805142
O O6 0.929640 0.875405 0.904303
O O7 0.117206 0.963105 0.734106
O O8 0.208190 0.649589 0.535891
O O9 0.126060 0.500891 0.412540
O O10 0.007490 0.545146 0.647848
O O11 0.281838 0.097639 0.761652
O O12 0.066141 0.195610 0.730172
O O13 0.881807 0.855821 0.145636
O O14 0.027509 0.310682 0.540466
O O15 0.930517 0.433060 0.387072
O O16 0.887440 0.633563 0.260935
#
# Coordination Sequence:
#
# PCOD9137976 Si02
#       8
#     4   4   4   4   4   4   4   4
#     4  11  23  43  73 105 139 194 244 294 376 434
#     4  10  22  46  68  98 141 184 236 304 361 429
#     4  11  25  42  71 105 142 193 235 299 376 436
#     4  11  25  44  72 109 140 191 250 302 366 453
#     4  10  24  43  71 105 142 185 247 303 360 446
#     4  10  23  46  62 106 142 182 239 298 368 434
#     4  10  23  45  70 104 144 187 246 306 362 436
#     4  11  25  43  69 106 148 192 237 306 375 442
#
# _framework density 23.796641999999999
#
# number of rings (size 3 to 8) (size 9 to 14) (size 15 to 20)
#    0.000    1.500    2.500    0.750    5.250    4.000 
#    6.750    0.000    0.000    0.000    0.000    0.000 
#    0.000    0.000    0.000    0.000    0.000    0.000 
#
# Total GULP energy -89188.296525 kJ/mol
# GULP energy per Si atom -5574.268533 kJ/mol
# Density = 2.374248 g / cm^3
# Si number density = 23.796642 Si / 1000 Ang^3
#
#
#
# Elastic Constant Matrix: (Units=GPa)
#
#
# Indices 1 2 3 4 5 6 
#
# 1 88.5224 13.0176 28.2708 0.0000 15.1791 0.0000
# 2 13.0176 130.7665 29.5066 0.0000 20.9364 0.0000
# 3 28.2708 29.5066 99.4719 0.0000 23.5666 0.0000
# 4 0.0000 0.0000 0.0000 34.9644 0.0000 7.5891
# 5 15.1791 20.9364 23.5666 0.0000 29.0450 0.0000
# 6 0.0000 0.0000 0.0000 7.5891 0.0000 20.6019
#
#
#
# Elastic Compliance Matrix: (Units=1/GPa)
#
#
# Indices 1 2 3 4 5 6 
#
# 1 0.012917 0.000047 -0.002572 0.000000 -0.004697 0.000000
# 2 0.000047 0.008793 -0.001379 0.000000 -0.005244 0.000000
# 3 -0.002572 -0.001379 0.013171 0.000000 -0.008348 0.000000
# 4 0.000000 0.000000 0.000000 0.031086 0.000000 -0.011451
# 5 -0.004697 -0.005244 -0.008348 0.000000 0.047437 0.000000
# 6 0.000000 0.000000 0.000000 -0.011451 0.000000 0.052757
#
#
# Mechanical properties :
#
#
# Convention : Reuss Voigt Hill
#
# Bulk Modulus (GPa) = 36.93934 51.15008 44.04471
# Shear Modulus (GPa) = 27.32312 33.45333 30.38822
#
# Velocity S-wave (km/s) = 3.39217 3.75347 3.57739
# Velocity P-wave (km/s) = 5.55869 6.35028 5.96763
#
# Compressibility (1/GPa) = 0.02707141
#
# Stress axis : x y z
#
# Youngs Moduli (GPa) = 77.42018 113.72228 75.92369
#
# Poissons Ratio (x) = -0.00529 0.19528
# Poissons Ratio (y) = -0.00360 0.10472
# Poissons Ratio (z) = 0.19913 0.15686
#
# Static dielectric constant tensor:
#      x y z
#    x 1.882300 0.000000 0.020130 
#    y 0.000000 2.077510 0.000000 
#    z 0.020130 0.000000 1.896820 
# 
# From -- ./inp_files/16422.got.cif
#   From: 2010.05.17/outbox.cif.g08.bks.cpg/sg9_9_cif.got.tgz:16422.got - 2010.06.03 20:04:27.
