data_PCOD9137340
_publ_section_title
;
Structure prediction by ZEFSAII (Michael W. Deem and Ramdas Pophale) SiO2 
 PCOD9137340
Probable space group: C C
;
_chemical_formula_sum "Si O2"
_cell_formula_units_Z 20
_cell_length_a 6.636724
_cell_length_b 16.602533
_cell_length_c 8.318384
_cell_angle_alpha 90.000000
_cell_angle_beta 116.366379
_cell_angle_gamma 90.000000
_cell_volume 821.224244
_symmetry_space_group_name_H-M "C C"
_symmetry_group_IT_number 9
_symmetry_cell_setting 'monoclinic'
loop_
_space_group_symop_operation_xyz
x,y,z
x,-y,1/2+z
1/2+x,1/2+y,z
1/2+x,1/2-y,1/2+z
loop_
_atom_site_type_symbol
_atom_site_label
_atom_site_fract_x
_atom_site_fract_y
_atom_site_fract_z
Si Si1 0.469060 0.355889 0.636330
Si Si2 0.356847 0.726301 0.424380
Si Si3 0.730705 0.992338 0.184935
Si Si4 0.484196 0.101331 0.350318
Si Si5 0.546540 0.650323 0.817691
O O1 0.447211 0.296764 0.781200
O O2 0.302641 0.430326 0.605714
O O3 0.722297 0.389854 0.730961
O O4 0.434113 0.319693 0.446330
O O5 0.482557 0.685640 0.619395
O O6 0.114032 0.682949 0.353080
O O7 0.305633 0.820979 0.425099
O O8 0.963018 0.941995 0.290132
O O9 0.606703 0.033131 0.289188
O O10 0.557041 0.927176 0.052811
#
# Coordination Sequence:
#
# PCOD9137340 Si02
#       5
#     4   4   4   4   4
#     4  11  24  45  70 101 148 187 233 300 353 419
#     4  10  25  44  66 105 140 189 240 285 359 432
#     4  10  22  42  68 106 138 183 240 288 354 433
#     4  10  22  41  66 101 138 183 234 287 358 417
#     4  11  23  46  72  99 148 184 241 296 354 427
#
# _framework density 24.353884999999998
#
# number of rings (size 3 to 8) (size 9 to 14) (size 15 to 20)
#    0.000    1.600    2.000    1.200    2.800    3.200 
#    0.000    6.000    0.000    0.000    0.000    0.000 
#    0.000    0.000    0.000    0.000    0.000    0.000 
#
# Total GULP energy -55801.783063 kJ/mol
# GULP energy per Si atom -5580.178306 kJ/mol
# Density = 2.429845 g / cm^3
# Si number density = 24.353885 Si / 1000 Ang^3
#
#
#
# Elastic Constant Matrix: (Units=GPa)
#
#
# Indices 1 2 3 4 5 6 
#
# 1 69.6891 48.1985 27.2726 0.0000 -10.0877 0.0000
# 2 48.1985 84.4125 26.1086 0.0000 -14.5323 0.0000
# 3 27.2726 26.1086 97.2873 0.0000 -34.5190 0.0000
# 4 0.0000 0.0000 0.0000 27.1516 0.0000 9.2424
# 5 -10.0877 -14.5323 -34.5190 0.0000 50.6502 0.0000
# 6 0.0000 0.0000 0.0000 9.2424 0.0000 39.3769
#
#
#
# Elastic Compliance Matrix: (Units=1/GPa)
#
#
# Indices 1 2 3 4 5 6 
#
# 1 0.024810 -0.013208 -0.003959 0.000000 -0.001547 0.000000
# 2 -0.013208 0.020072 -0.000757 0.000000 0.002612 0.000000
# 3 -0.003959 -0.000757 0.014818 0.000000 0.009093 0.000000
# 4 0.000000 0.000000 0.000000 0.040028 0.000000 -0.009395
# 5 -0.001547 0.002612 0.009093 0.000000 0.026382 0.000000
# 6 0.000000 0.000000 0.000000 -0.009395 0.000000 0.027601
#
#
# Mechanical properties :
#
#
# Convention : Reuss Voigt Hill
#
# Bulk Modulus (GPa) = 41.92544 50.50538 46.21541
# Shear Modulus (GPa) = 25.31518 33.42304 29.36911
#
# Velocity S-wave (km/s) = 3.22758 3.70860 3.47642
# Velocity P-wave (km/s) = 5.58052 6.25471 5.92721
#
# Compressibility (1/GPa) = 0.02385187
#
# Stress axis : x y z
#
# Youngs Moduli (GPa) = 40.30675 49.82067 67.48406
#
# Poissons Ratio (x) = 0.65802 0.26718
# Poissons Ratio (y) = 0.53236 0.05110
# Poissons Ratio (z) = 0.15958 0.03772
#
# Static dielectric constant tensor:
#      x y z
#    x 1.883270 0.000000 0.000770 
#    y 0.000000 1.977790 0.000000 
#    z 0.000770 0.000000 2.064540 
# 
# From -- ./inp_files/3594.got.cif
#   From: 2010.05.17/outbox.cif.g08.bks.cpg/sg9_2_cif.got.tgz:3594.got - 2010.06.03 20:04:27.
