data_PCOD9137318
_publ_section_title
;
Structure prediction by ZEFSAII (Michael W. Deem and Ramdas Pophale) SiO2 
 PCOD9137318
Probable space group: C C
;
_chemical_formula_sum "Si O2"
_cell_formula_units_Z 24
_cell_length_a 8.231541
_cell_length_b 27.462174
_cell_length_c 8.713369
_cell_angle_alpha 90.000000
_cell_angle_beta 146.140776
_cell_angle_gamma 90.000000
_cell_volume 1097.432022
_symmetry_space_group_name_H-M "C C"
_symmetry_group_IT_number 9
_symmetry_cell_setting 'monoclinic'
loop_
_space_group_symop_operation_xyz
x,y,z
x,-y,1/2+z
1/2+x,1/2+y,z
1/2+x,1/2-y,1/2+z
loop_
_atom_site_type_symbol
_atom_site_label
_atom_site_fract_x
_atom_site_fract_y
_atom_site_fract_z
Si Si1 0.000000 0.470537 0.274330
Si Si2 0.903786 0.970450 0.292035
Si Si3 0.610160 0.876231 0.572590
Si Si4 0.894132 0.779274 0.270848
Si Si5 0.474646 0.625362 0.664723
Si Si6 0.674316 0.779965 0.449750
O O1 0.225739 0.464006 0.310360
O O2 0.142860 0.514742 0.476198
O O3 0.035884 0.423365 0.410557
O O4 0.663542 0.488631 0.987160
O O5 0.018277 0.920131 0.312894
O O6 0.739890 0.832079 0.575619
O O7 0.296562 0.857167 0.377441
O O8 0.804409 0.887772 0.874428
O O9 0.827456 0.830090 0.137531
O O10 0.782177 0.781762 0.358251
O O11 0.227029 0.763255 0.549455
O O12 0.843625 0.737925 0.675009
#
# Coordination Sequence:
#
# PCOD9137318 Si02
#       6
#     4   4   4   4   4   4
#     4  12  25  44  68  94 128 168 214 266 323 383
#     4  12  25  44  68  94 128 168 214 266 323 383
#     4  12  25  41  64  95 130 167 213 263 320 383
#     4  10  22  41  64  91 126 168 213 261 317 378
#     4  12  25  41  64  95 130 167 213 263 320 383
#     4  10  22  41  64  91 126 168 213 261 317 378
#
# _framework density 21.869235
#
# number of rings (size 3 to 8) (size 9 to 14) (size 15 to 20)
#    0.000    0.667    0.000    9.000    0.000    4.000 
#    0.000   10.000    0.000    0.000    0.000    0.000 
#    0.000    0.000    0.000    0.000    0.000    0.000 
#
# Total GULP energy -66997.285326 kJ/mol
# GULP energy per Si atom -5583.107111 kJ/mol
# Density = 2.181946 g / cm^3
# Si number density = 21.869235 Si / 1000 Ang^3
#
#
#
# Elastic Constant Matrix: (Units=GPa)
#
#
# Indices 1 2 3 4 5 6 
#
# 1 72.4881 30.6863 37.2746 0.0000 -17.6544 0.0000
# 2 30.6863 104.6728 11.1201 0.0000 -20.2909 0.0000
# 3 37.2746 11.1201 108.7281 0.0000 -0.4373 0.0000
# 4 0.0000 0.0000 0.0000 36.3424 0.0000 -6.2083
# 5 -17.6544 -20.2909 -0.4373 0.0000 31.1090 0.0000
# 6 0.0000 0.0000 0.0000 -6.2083 0.0000 33.6462
#
#
#
# Elastic Compliance Matrix: (Units=1/GPa)
#
#
# Indices 1 2 3 4 5 6 
#
# 1 0.021183 -0.003629 -0.006853 0.000000 0.009558 0.000000
# 2 -0.003629 0.011689 0.000071 0.000000 0.005565 0.000000
# 3 -0.006853 0.000071 0.011524 0.000000 -0.003680 0.000000
# 4 0.000000 0.000000 0.000000 0.028412 0.000000 0.005242
# 5 0.009558 0.005565 -0.003680 0.000000 0.041147 0.000000
# 6 0.000000 0.000000 0.000000 0.005242 0.000000 0.030688
#
#
# Mechanical properties :
#
#
# Convention : Reuss Voigt Hill
#
# Bulk Modulus (GPa) = 42.41765 49.33900 45.87832
# Shear Modulus (GPa) = 28.84773 34.00672 31.42722
#
# Velocity S-wave (km/s) = 3.63588 3.94763 3.79496
# Velocity P-wave (km/s) = 6.08805 6.58698 6.34242
#
# Compressibility (1/GPa) = 0.02357509
#
# Stress axis : x y z
#
# Youngs Moduli (GPa) = 47.20700 85.55134 86.77256
#
# Poissons Ratio (x) = 0.31050 0.59461
# Poissons Ratio (y) = 0.17133 -0.00617
# Poissons Ratio (z) = 0.32349 -0.00609
#
# Static dielectric constant tensor:
#      x y z
#    x 2.083020 0.000000 -0.028610 
#    y 0.000000 1.780850 0.000000 
#    z -0.028610 0.000000 1.765790 
# 
# From -- ./inp_files/890.got.cif
#   From: 2010.05.17/outbox.cif.g08.bks.cpg/sg9_1_cif.got.tgz:890.got - 2010.06.03 20:04:27.
