data_PCOD9137995
_publ_section_title
;
Structure prediction by ZEFSAII (Michael W. Deem and Ramdas Pophale) SiO2 
 PCOD9137995
Probable space group: C C
;
_chemical_formula_sum "Si O2"
_cell_formula_units_Z 28
_cell_length_a 5.625876
_cell_length_b 24.215567
_cell_length_c 9.632040
_cell_angle_alpha 90.000000
_cell_angle_beta 60.412376
_cell_angle_gamma 90.000000
_cell_volume 1141.099215
_symmetry_space_group_name_H-M "C C"
_symmetry_group_IT_number 9
_symmetry_cell_setting 'monoclinic'
loop_
_space_group_symop_operation_xyz
x,y,z
x,-y,1/2+z
1/2+x,1/2+y,z
1/2+x,1/2-y,1/2+z
loop_
_atom_site_type_symbol
_atom_site_label
_atom_site_fract_x
_atom_site_fract_y
_atom_site_fract_z
Si Si1 0.333090 0.434465 0.558780
Si Si2 0.901493 0.596888 0.789217
Si Si3 0.882778 0.654571 0.249160
Si Si4 0.660237 0.626679 0.604189
Si Si5 0.397738 0.199871 0.961434
Si Si6 0.007311 0.234592 0.828432
Si Si7 0.795689 0.980122 0.283483
O O1 0.585268 0.399651 0.427991
O O2 0.072521 0.396057 0.649293
O O3 0.288134 0.479475 0.450721
O O4 0.397218 0.464700 0.683457
O O5 0.924359 0.607385 0.619205
O O6 0.020732 0.647272 0.842279
O O7 0.000553 0.537046 0.808514
O O8 0.067193 0.704505 0.254939
O O9 0.699320 0.636203 0.430793
O O10 0.757564 0.678995 0.143711
O O11 0.592048 0.684600 0.700836
O O12 0.467667 0.573273 0.682473
O O13 0.179424 0.227345 0.920909
O O14 0.673609 0.232382 0.925439
#
# Coordination Sequence:
#
# PCOD9137995 Si02
#       7
#     4   4   4   4   4   4   4
#     4  11  27  43  72 105 147 200 249 314 375 452
#     4  10  22  46  71  94 148 191 243 306 376 446
#     4  12  25  46  71 115 147 188 261 305 388 448
#     4  10  24  44  70 105 141 190 246 315 368 452
#     4  11  23  48  75 103 152 197 250 301 384 444
#     4  11  25  48  75 108 152 205 244 315 382 459
#     4  11  24  47  68 102 141 195 251 302 381 435
#
# _framework density 24.537747
#
# number of rings (size 3 to 8) (size 9 to 14) (size 15 to 20)
#    0.000    1.143    2.857    2.571    4.000    6.857 
#    5.143    0.000    0.000    0.000    0.000    0.000 
#    0.000    0.000    0.000    0.000    0.000    0.000 
#
# Total GULP energy -78217.828216 kJ/mol
# GULP energy per Si atom -5586.987730 kJ/mol
# Density = 2.448190 g / cm^3
# Si number density = 24.537747 Si / 1000 Ang^3
#
#
#
# Elastic Constant Matrix: (Units=GPa)
#
#
# Indices 1 2 3 4 5 6 
#
# 1 90.9997 9.2930 44.0935 0.0000 23.7454 0.0000
# 2 9.2930 64.6288 15.7179 0.0000 11.4963 0.0000
# 3 44.0935 15.7179 113.4103 0.0000 32.8346 0.0000
# 4 0.0000 0.0000 0.0000 39.5992 0.0000 15.8195
# 5 23.7454 11.4963 32.8346 0.0000 33.3390 0.0000
# 6 0.0000 0.0000 0.0000 15.8195 0.0000 21.0565
#
#
#
# Elastic Compliance Matrix: (Units=1/GPa)
#
#
# Indices 1 2 3 4 5 6 
#
# 1 0.014535 0.000004 -0.003713 0.000000 -0.006697 0.000000
# 2 0.000004 0.016549 -0.000898 0.000000 -0.004825 0.000000
# 3 -0.003713 -0.000898 0.013332 0.000000 -0.010176 0.000000
# 4 0.000000 0.000000 0.000000 0.036083 0.000000 -0.027108
# 5 -0.006697 -0.004825 -0.010176 0.000000 0.046451 0.000000
# 6 0.000000 0.000000 0.000000 -0.027108 0.000000 0.067857
#
#
# Mechanical properties :
#
#
# Convention : Reuss Voigt Hill
#
# Bulk Modulus (GPa) = 28.40722 45.24973 36.82847
# Shear Modulus (GPa) = 23.17447 32.12790 27.65119
#
# Velocity S-wave (km/s) = 3.07651 3.62239 3.36055
# Velocity P-wave (km/s) = 4.92158 5.99804 5.48628
#
# Compressibility (1/GPa) = 0.03520232
#
# Stress axis : x y z
#
# Youngs Moduli (GPa) = 68.79827 60.42621 75.00941
#
# Poissons Ratio (x) = -0.00026 0.27849
# Poissons Ratio (y) = -0.00030 0.06739
# Poissons Ratio (z) = 0.25543 0.05428
#
# Static dielectric constant tensor:
#      x y z
#    x 2.093420 0.000000 -0.007590 
#    y 0.000000 1.953950 0.000000 
#    z -0.007590 0.000000 1.954410 
# 
# From -- ./inp_files/4444.got.cif
#   From: 2010.05.17/outbox.cif.g08.bks.cpg/sg9_3_cif.got.tgz:4444.got - 2010.06.03 20:04:27.
