data_PCOD9137743
_publ_section_title
;
Structure prediction by ZEFSAII (Michael W. Deem and Ramdas Pophale) SiO2 
 PCOD9137743
Probable space group: C C
;
_chemical_formula_sum "Si O2"
_cell_formula_units_Z 32
_cell_length_a 12.463749
_cell_length_b 8.555929
_cell_length_c 13.601810
_cell_angle_alpha 90.000000
_cell_angle_beta 114.793721
_cell_angle_gamma 90.000000
_cell_volume 1316.782247
_symmetry_space_group_name_H-M "C C"
_symmetry_group_IT_number 9
_symmetry_cell_setting 'monoclinic'
loop_
_space_group_symop_operation_xyz
x,y,z
x,-y,1/2+z
1/2+x,1/2+y,z
1/2+x,1/2-y,1/2+z
loop_
_atom_site_type_symbol
_atom_site_label
_atom_site_fract_x
_atom_site_fract_y
_atom_site_fract_z
Si Si1 0.854800 0.234877 0.744180
Si Si2 0.532749 0.937696 0.696989
Si Si3 0.461702 0.198555 0.794895
Si Si4 0.308249 0.551477 0.327598
Si Si5 0.207868 0.805447 0.981710
Si Si6 0.782912 0.506564 0.837208
Si Si7 0.591581 0.362601 0.138281
Si Si8 0.844184 0.021654 0.557536
O O1 0.767810 0.363838 0.753983
O O2 0.807888 0.133241 0.634189
O O3 0.972221 0.323402 0.754514
O O4 0.875162 0.112858 0.839472
O O5 0.670326 0.976713 0.759850
O O6 0.534525 0.812364 0.609300
O O7 0.467173 0.101042 0.695371
O O8 0.369653 0.339821 0.769862
O O9 0.589471 0.258721 0.875646
O O10 0.407630 0.082041 0.856434
O O11 0.322506 0.606196 0.444449
O O12 0.273995 0.933663 0.940762
O O13 0.165581 0.880013 0.067751
O O14 0.278768 0.644214 0.026458
O O15 0.680200 0.625558 0.765106
O O16 0.486720 0.484431 0.116326
#
# Coordination Sequence:
#
# PCOD9137743 Si02
#       8
#     4   4   4   4   4   4   4   4
#     4  10  24  44  69 100 137 175 230 280 349 410
#     4  10  22  44  66  96 139 175 219 281 337 409
#     4  11  24  41  72  98 132 185 225 276 349 406
#     4  12  21  44  70  98 138 180 221 281 349 405
#     4  12  25  45  69 101 142 178 232 285 341 411
#     4  11  25  47  68 105 136 185 231 282 350 415
#     4  11  25  43  70 103 141 180 234 285 343 413
#     4  11  24  42  68 101 133 182 226 288 340 409
#
# _framework density 24.301665
#
# number of rings (size 3 to 8) (size 9 to 14) (size 15 to 20)
#    0.000    1.000    5.000    0.750    3.500    1.000 
#    6.750    0.000    0.000    0.000    0.000    0.000 
#    0.000    0.000    0.000    0.000    0.000    0.000 
#
# Total GULP energy -89349.855666 kJ/mol
# GULP energy per Si atom -5584.365979 kJ/mol
# Density = 2.424635 g / cm^3
# Si number density = 24.301665 Si / 1000 Ang^3
#
#
#
# Elastic Constant Matrix: (Units=GPa)
#
#
# Indices 1 2 3 4 5 6 
#
# 1 81.1247 12.5019 6.2968 0.0000 -3.7495 0.0000
# 2 12.5019 81.5273 -0.6477 0.0000 -9.1881 0.0000
# 3 6.2968 -0.6477 66.6835 0.0000 -15.2547 0.0000
# 4 0.0000 0.0000 0.0000 35.3608 0.0000 -8.7428
# 5 -3.7495 -9.1881 -15.2547 0.0000 37.0694 0.0000
# 6 0.0000 0.0000 0.0000 -8.7428 0.0000 50.4846
#
#
#
# Elastic Compliance Matrix: (Units=1/GPa)
#
#
# Indices 1 2 3 4 5 6 
#
# 1 0.012727 -0.001922 -0.001143 0.000000 0.000341 0.000000
# 2 -0.001922 0.012961 0.001102 0.000000 0.003471 0.000000
# 3 -0.001143 0.001102 0.016725 0.000000 0.007040 0.000000
# 4 0.000000 0.000000 0.000000 0.029545 0.000000 0.005117
# 5 0.000341 0.003471 0.007040 0.000000 0.030768 0.000000
# 6 0.000000 0.000000 0.000000 0.005117 0.000000 0.020694
#
#
# Mechanical properties :
#
#
# Convention : Reuss Voigt Hill
#
# Bulk Modulus (GPa) = 25.98316 29.51528 27.74922
# Shear Modulus (GPa) = 35.66933 38.66193 37.16563
#
# Velocity S-wave (km/s) = 3.83531 3.99296 3.91493
# Velocity P-wave (km/s) = 5.50708 5.78187 5.64615
#
# Compressibility (1/GPa) = 0.03848647
#
# Stress axis : x y z
#
# Youngs Moduli (GPa) = 78.57073 77.15707 59.78949
#
# Poissons Ratio (x) = 0.14832 0.06831
# Poissons Ratio (y) = 0.15104 -0.06586
# Poissons Ratio (z) = 0.08977 -0.08499
#
# Static dielectric constant tensor:
#      x y z
#    x 1.903920 0.000000 -0.022770 
#    y 0.000000 2.008100 0.000000 
#    z -0.022770 0.000000 1.948180 
# 
# From -- ./inp_files/24204.got.cif
#   From: 2010.05.17/outbox.cif.g08.bks.cpg/sg9_13_cif.got.tgz:24204.got - 2010.06.03 20:04:27.
