data_PCOD9137302
_publ_section_title
;
Structure prediction by ZEFSAII (Michael W. Deem and Ramdas Pophale) SiO2 
 PCOD9137302
Probable space group: C C
;
_chemical_formula_sum "Si O2"
_cell_formula_units_Z 24
_cell_length_a 22.876631
_cell_length_b 9.438324
_cell_length_c 10.259796
_cell_angle_alpha 90.000000
_cell_angle_beta 28.718537
_cell_angle_gamma 90.000000
_cell_volume 1064.450880
_symmetry_space_group_name_H-M "C C"
_symmetry_group_IT_number 9
_symmetry_cell_setting 'monoclinic'
loop_
_space_group_symop_operation_xyz
x,y,z
x,-y,1/2+z
1/2+x,1/2+y,z
1/2+x,1/2-y,1/2+z
loop_
_atom_site_type_symbol
_atom_site_label
_atom_site_fract_x
_atom_site_fract_y
_atom_site_fract_z
Si Si1 0.633990 0.754240 0.535720
Si Si2 0.524993 0.251077 0.540947
Si Si3 0.767673 0.727863 0.928402
Si Si4 0.191181 0.993275 0.758620
Si Si5 0.694024 0.062868 0.368144
Si Si6 0.872713 0.288868 0.948758
O O1 0.586936 0.756204 0.776066
O O2 0.699447 0.610175 0.366665
O O3 0.514032 0.765016 0.678686
O O4 0.705414 0.896912 0.362582
O O5 0.380757 0.257319 0.802982
O O6 0.583605 0.393501 0.486833
O O7 0.571927 0.120066 0.536924
O O8 0.704200 0.866367 0.992240
O O9 0.831143 0.664823 0.675626
O O10 0.676749 0.617207 0.169297
O O11 0.310029 0.087504 0.490013
O O12 0.800999 0.139963 0.076276
#
# Coordination Sequence:
#
# PCOD9137302 Si02
#       6
#     4   4   4   4   4   4
#     4  11  22  38  65  88 114 164 201 236 308 352
#     4  10  22  41  63  85 128 156 195 256 291 353
#     4   9  20  40  59  86 123 154 198 247 295 348
#     4  11  21  38  63  88 117 160 198 246 300 353
#     4   9  21  39  61  87 120 157 198 246 293 355
#     4   8  20  40  55  88 120 147 202 243 287 359
#
# _framework density 22.546838999999999
#
# number of rings (size 3 to 8) (size 9 to 14) (size 15 to 20)
#    1.000    1.333    0.000    2.000    2.333    1.333 
#    3.000    1.667    0.000    0.000    0.000    0.000 
#    0.000    0.000    0.000    0.000    0.000    0.000 
#
# Total GULP energy -66875.761376 kJ/mol
# GULP energy per Si atom -5572.980115 kJ/mol
# Density = 2.249552 g / cm^3
# Si number density = 22.546839 Si / 1000 Ang^3
#
#
#
# Elastic Constant Matrix: (Units=GPa)
#
#
# Indices 1 2 3 4 5 6 
#
# 1 67.9281 25.9245 6.7590 0.0000 -13.8887 0.0000
# 2 25.9245 151.4921 20.4230 0.0000 -0.6577 0.0000
# 3 6.7590 20.4230 25.0187 0.0000 5.8621 0.0000
# 4 0.0000 0.0000 0.0000 13.1757 0.0000 -2.6840
# 5 -13.8887 -0.6577 5.8621 0.0000 32.5719 0.0000
# 6 0.0000 0.0000 0.0000 -2.6840 0.0000 30.2544
#
#
#
# Elastic Compliance Matrix: (Units=1/GPa)
#
#
# Indices 1 2 3 4 5 6 
#
# 1 0.017830 -0.002358 -0.004867 0.000000 0.008431 0.000000
# 2 -0.002358 0.007782 -0.005759 0.000000 0.000188 0.000000
# 3 -0.004867 -0.005759 0.048547 0.000000 -0.010929 0.000000
# 4 0.000000 0.000000 0.000000 0.077294 0.000000 0.006857
# 5 0.008431 0.000188 -0.010929 0.000000 0.036267 0.000000
# 6 0.000000 0.000000 0.000000 0.006857 0.000000 0.033661
#
#
# Mechanical properties :
#
#
# Convention : Reuss Voigt Hill
#
# Bulk Modulus (GPa) = 20.75164 38.96131 29.85647
# Shear Modulus (GPa) = 18.98156 27.95589 23.46872
#
# Velocity S-wave (km/s) = 2.90465 3.52505 3.22978
# Velocity P-wave (km/s) = 4.52472 5.82113 5.21338
#
# Compressibility (1/GPa) = 0.04818896
#
# Stress axis : x y z
#
# Youngs Moduli (GPa) = 56.08651 128.50449 20.59859
#
# Poissons Ratio (x) = 0.30306 0.10025
# Poissons Ratio (y) = 0.13227 0.11863
# Poissons Ratio (z) = 0.27298 0.74009
#
# Static dielectric constant tensor:
#      x y z
#    x 1.914590 0.000000 -0.035370 
#    y 0.000000 1.823870 0.000000 
#    z -0.035370 0.000000 1.833770 
# 
# From -- ./inp_files/8725.got.cif
#   From: 2010.05.17/outbox.cif.g08.bks.cpg/sg9_5_cif.got.tgz:8725.got - 2010.06.03 20:04:27.
