data_PCOD9137478
_publ_section_title
;
Structure prediction by ZEFSAII (Michael W. Deem and Ramdas Pophale) SiO2 
 PCOD9137478
Probable space group: C C
;
_chemical_formula_sum "Si O2"
_cell_formula_units_Z 28
_cell_length_a 6.857565
_cell_length_b 12.128779
_cell_length_c 14.085885
_cell_angle_alpha 90.000000
_cell_angle_beta 70.158318
_cell_angle_gamma 90.000000
_cell_volume 1102.026072
_symmetry_space_group_name_H-M "C C"
_symmetry_group_IT_number 9
_symmetry_cell_setting 'monoclinic'
loop_
_space_group_symop_operation_xyz
x,y,z
x,-y,1/2+z
1/2+x,1/2+y,z
1/2+x,1/2-y,1/2+z
loop_
_atom_site_type_symbol
_atom_site_label
_atom_site_fract_x
_atom_site_fract_y
_atom_site_fract_z
Si Si1 0.992230 0.004282 0.098310
Si Si2 0.711298 0.661500 0.204161
Si Si3 0.597779 0.903315 0.197564
Si Si4 0.147590 0.759590 0.123616
Si Si5 0.577687 0.821029 0.983638
Si Si6 0.185375 0.161548 0.816458
Si Si7 0.413507 0.479601 0.887125
O O1 0.076224 0.885921 0.117820
O O2 0.758921 0.001501 0.177424
O O3 0.120589 0.102556 0.124073
O O4 0.976177 0.995148 0.987652
O O5 0.661128 0.788819 0.234892
O O6 0.580431 0.598864 0.307339
O O7 0.959842 0.673215 0.143037
O O8 0.598676 0.861917 0.087870
O O9 0.368263 0.926525 0.270683
O O10 0.349624 0.763783 0.022668
O O11 0.209555 0.755841 0.224164
O O12 0.707101 0.725043 0.911312
O O13 0.682127 0.929411 0.916185
O O14 0.966098 0.100730 0.840207
#
# Coordination Sequence:
#
# PCOD9137478 Si02
#       7
#     4   4   4   4   4   4   4
#     4  10  22  43  65 100 142 180 240 292 350 429
#     4  11  21  44  68  99 139 189 233 286 366 410
#     4   9  21  42  68  95 144 181 225 308 344 417
#     4  10  24  41  67 101 147 180 230 301 351 421
#     4  10  22  42  67 100 142 183 233 286 357 425
#     4  11  21  43  65 104 139 183 241 288 356 429
#     4  11  23  41  72  99 135 190 234 289 356 423
#
# _framework density 25.407748000000002
#
# number of rings (size 3 to 8) (size 9 to 14) (size 15 to 20)
#    0.000    1.714    2.857    0.857    2.000    1.143 
#   10.286    0.000    0.000    0.000    0.000    0.000 
#    0.000    0.000    0.000    0.000    0.000    0.000 
#
# Total GULP energy -77997.535036 kJ/mol
# GULP energy per Si atom -5571.252503 kJ/mol
# Density = 2.534992 g / cm^3
# Si number density = 25.407748 Si / 1000 Ang^3
#
#
#
# Elastic Constant Matrix: (Units=GPa)
#
#
# Indices 1 2 3 4 5 6 
#
# 1 99.0589 29.7878 53.9725 0.0000 -29.7732 0.0000
# 2 29.7878 63.3567 39.5378 0.0000 -19.2138 0.0000
# 3 53.9725 39.5378 140.3775 0.0000 -20.4419 0.0000
# 4 0.0000 0.0000 0.0000 32.1653 0.0000 -12.2077
# 5 -29.7732 -19.2138 -20.4419 0.0000 45.2007 0.0000
# 6 0.0000 0.0000 0.0000 -12.2077 0.0000 57.1693
#
#
#
# Elastic Compliance Matrix: (Units=1/GPa)
#
#
# Indices 1 2 3 4 5 6 
#
# 1 0.015214 -0.002413 -0.004132 0.000000 0.007127 0.000000
# 2 -0.002413 0.021245 -0.004252 0.000000 0.005518 0.000000
# 3 -0.004132 -0.004252 0.009903 0.000000 -0.000051 0.000000
# 4 0.000000 0.000000 0.000000 0.033831 0.000000 0.007224
# 5 0.007127 0.005518 -0.000051 0.000000 0.029141 0.000000
# 6 0.000000 0.000000 0.000000 0.007224 0.000000 0.019035
#
#
# Mechanical properties :
#
#
# Convention : Reuss Voigt Hill
#
# Bulk Modulus (GPa) = 40.37649 61.04326 50.70987
# Shear Modulus (GPa) = 31.60171 38.87342 35.23757
#
# Velocity S-wave (km/s) = 3.53056 3.91574 3.72813
# Velocity P-wave (km/s) = 5.70488 6.67246 6.20755
#
# Compressibility (1/GPa) = 0.02476689
#
# Stress axis : x y z
#
# Youngs Moduli (GPa) = 65.72870 47.06893 100.98312
#
# Poissons Ratio (x) = 0.11358 0.41727
# Poissons Ratio (y) = 0.15861 0.42943
# Poissons Ratio (z) = 0.27159 0.20016
#
# Static dielectric constant tensor:
#      x y z
#    x 2.158240 0.000000 -0.045830 
#    y 0.000000 2.010820 0.000000 
#    z -0.045830 0.000000 2.033980 
# 
# From -- ./inp_files/23034.got.cif
#   From: 2010.05.17/outbox.cif.g08.bks.cpg/sg9_12_cif.got.tgz:23034.got - 2010.06.03 20:04:27.
