data_PCOD9137005
_publ_section_title
;
Structure prediction by ZEFSAII (Michael W. Deem and Ramdas Pophale) SiO2 
 PCOD9137005
Probable space group: C C
;
_chemical_formula_sum "Si O2"
_cell_formula_units_Z 24
_cell_length_a 10.895425
_cell_length_b 17.875035
_cell_length_c 5.160244
_cell_angle_alpha 90.000000
_cell_angle_beta 96.471681
_cell_angle_gamma 90.000000
_cell_volume 998.584908
_symmetry_space_group_name_H-M "C C"
_symmetry_group_IT_number 9
_symmetry_cell_setting 'monoclinic'
loop_
_space_group_symop_operation_xyz
x,y,z
x,-y,1/2+z
1/2+x,1/2+y,z
1/2+x,1/2-y,1/2+z
loop_
_atom_site_type_symbol
_atom_site_label
_atom_site_fract_x
_atom_site_fract_y
_atom_site_fract_z
Si Si1 0.571040 0.122651 0.216870
Si Si2 0.714130 0.329777 0.943923
Si Si3 0.475890 0.706361 0.673707
Si Si4 0.433209 0.931595 0.173137
Si Si5 0.321507 0.319415 0.619972
Si Si6 0.196155 0.036157 0.110540
O O1 0.521050 0.208372 0.246851
O O2 0.529431 0.076022 0.458675
O O3 0.717133 0.123516 0.192963
O O4 0.506897 0.089450 0.947282
O O5 0.592893 0.337154 0.085898
O O6 0.832086 0.366220 0.107492
O O7 0.741936 0.242765 0.941714
O O8 0.701749 0.376657 0.676834
O O9 0.383751 0.708923 0.402781
O O10 0.423438 0.666831 0.921021
O O11 0.336357 0.001524 0.148831
O O12 0.136426 0.994618 0.339733
#
# Coordination Sequence:
#
# PCOD9137005 Si02
#       6
#     4   4   4   4   4   4
#     4  11  21  36  57  86 126 169 193 253 296 378
#     4  10  22  38  60  90 129 150 207 252 306 364
#     4  11  22  37  57  88 127 170 190 247 308 373
#     4  11  20  38  59  88 122 154 206 252 308 343
#     4  11  23  37  58  89 129 166 198 234 319 370
#     4  10  22  36  59  91 115 153 192 258 305 336
#
# _framework density 24.034008
#
# number of rings (size 3 to 8) (size 9 to 14) (size 15 to 20)
#    0.000    1.333    3.333    3.000    0.000    8.000 
#    0.000    0.000    0.000    0.000    0.000   93.333 
#    0.000    0.000    0.000    0.000    0.000    0.000 
#
# Total GULP energy -66987.266683 kJ/mol
# GULP energy per Si atom -5582.272224 kJ/mol
# Density = 2.397931 g / cm^3
# Si number density = 24.034008 Si / 1000 Ang^3
#
#
#
# Elastic Constant Matrix: (Units=GPa)
#
#
# Indices 1 2 3 4 5 6 
#
# 1 68.4366 4.7572 36.0998 0.0000 -31.4221 0.0000
# 2 4.7572 48.1133 5.3400 0.0000 -14.6795 0.0000
# 3 36.0998 5.3400 172.9194 0.0000 -20.8340 0.0000
# 4 0.0000 0.0000 0.0000 37.7903 0.0000 -13.1134
# 5 -31.4221 -14.6795 -20.8340 0.0000 45.7072 0.0000
# 6 0.0000 0.0000 0.0000 -13.1134 0.0000 25.4669
#
#
#
# Elastic Compliance Matrix: (Units=1/GPa)
#
#
# Indices 1 2 3 4 5 6 
#
# 1 0.023084 0.002742 -0.003053 0.000000 0.015358 0.000000
# 2 0.002742 0.023374 -0.000172 0.000000 0.009314 0.000000
# 3 -0.003053 -0.000172 0.006525 0.000000 0.000820 0.000000
# 4 0.000000 0.000000 0.000000 0.032219 0.000000 0.016590
# 5 0.015358 0.009314 0.000820 0.000000 0.035801 0.000000
# 6 0.000000 0.000000 0.000000 0.016590 0.000000 0.047809
#
#
# Mechanical properties :
#
#
# Convention : Reuss Voigt Hill
#
# Bulk Modulus (GPa) = 19.22498 42.42923 30.82710
# Shear Modulus (GPa) = 26.72136 38.01104 32.36620
#
# Velocity S-wave (km/s) = 3.33801 3.98119 3.67370
# Velocity P-wave (km/s) = 4.78255 6.23099 5.55419
#
# Compressibility (1/GPa) = 0.05201567
#
# Stress axis : x y z
#
# Youngs Moduli (GPa) = 43.32068 42.78282 153.26731
#
# Poissons Ratio (x) = -0.11733 0.46798
# Poissons Ratio (y) = -0.11880 0.02639
# Poissons Ratio (z) = 0.13227 0.00737
#
# Static dielectric constant tensor:
#      x y z
#    x 1.939610 0.000000 -0.041220 
#    y 0.000000 2.003310 0.000000 
#    z -0.041220 0.000000 2.140990 
# 
# From -- ./inp_files/1677.got.cif
#   From: 2010.05.17/outbox.cif.g08.bks.cpg/sg9_1_cif.got.tgz:1677.got - 2010.06.03 20:04:27.
