data_PCOD9137773
_publ_section_title
;
Structure prediction by ZEFSAII (Michael W. Deem and Ramdas Pophale) SiO2 
 PCOD9137773
Probable space group: C C
;
_chemical_formula_sum "Si O2"
_cell_formula_units_Z 32
_cell_length_a 8.997840
_cell_length_b 10.939915
_cell_length_c 18.291754
_cell_angle_alpha 90.000000
_cell_angle_beta 133.347396
_cell_angle_gamma 90.000000
_cell_volume 1309.376478
_symmetry_space_group_name_H-M "C C"
_symmetry_group_IT_number 9
_symmetry_cell_setting 'monoclinic'
loop_
_space_group_symop_operation_xyz
x,y,z
x,-y,1/2+z
1/2+x,1/2+y,z
1/2+x,1/2-y,1/2+z
loop_
_atom_site_type_symbol
_atom_site_label
_atom_site_fract_x
_atom_site_fract_y
_atom_site_fract_z
Si Si1 0.826110 0.785772 0.371410
Si Si2 0.496936 0.100173 0.134884
Si Si3 0.742437 0.556188 0.822723
Si Si4 0.963612 0.142172 0.616117
Si Si5 0.037354 0.552127 0.518922
Si Si6 0.975413 0.860225 0.812189
Si Si7 0.444585 0.132627 0.285692
Si Si8 0.912687 0.061831 0.447953
O O1 0.590545 0.754294 0.313331
O O2 0.873978 0.757756 0.302044
O O3 0.942931 0.678644 0.456395
O O4 0.891846 0.920376 0.416919
O O5 0.394522 0.222378 0.068904
O O6 0.740415 0.122646 0.212111
O O7 0.428620 0.104007 0.195238
O O8 0.465531 0.980124 0.076185
O O9 0.625620 0.658398 0.737579
O O10 0.589572 0.481845 0.822701
O O11 0.803723 0.464116 0.779079
O O12 0.947669 0.560511 0.939892
O O13 0.777545 0.066393 0.587884
O O14 0.030736 0.079198 0.563590
O O15 0.991350 0.861645 0.905306
O O16 0.681060 0.107891 0.384798
#
# Coordination Sequence:
#
# PCOD9137773 Si02
#       8
#     4   4   4   4   4   4   4   4
#     4  10  23  44  75  96 142 184 224 299 341 403
#     4  11  24  40  73 101 140 183 232 284 351 423
#     4  10  22  44  68  92 143 176 229 288 342 401
#     4  12  25  40  71 105 137 190 226 285 357 412
#     4  10  23  46  64 103 143 179 230 292 346 407
#     4   9  22  44  68 105 132 183 228 285 350 410
#     4   9  22  44  66 103 133 179 234 283 346 414
#     4  11  23  44  71 103 140 180 239 280 351 422
#
# _framework density 24.439112000000002
#
# number of rings (size 3 to 8) (size 9 to 14) (size 15 to 20)
#    0.000    2.000    3.750    0.000    3.500    8.000 
#    0.000    5.000    2.750    0.000    0.000    0.000 
#    0.000    0.000    0.000    0.000    0.000    0.000 
#
# Total GULP energy -89360.810507 kJ/mol
# GULP energy per Si atom -5585.050657 kJ/mol
# Density = 2.438349 g / cm^3
# Si number density = 24.439112 Si / 1000 Ang^3
#
#
#
# Elastic Constant Matrix: (Units=GPa)
#
#
# Indices 1 2 3 4 5 6 
#
# 1 117.7320 33.9561 34.5999 0.0000 -27.4738 0.0000
# 2 33.9561 61.2824 14.0832 0.0000 -12.1714 0.0000
# 3 34.5999 14.0832 79.4767 0.0000 -13.4621 0.0000
# 4 0.0000 0.0000 0.0000 30.3402 0.0000 -12.2338
# 5 -27.4738 -12.1714 -13.4621 0.0000 43.9903 0.0000
# 6 0.0000 0.0000 0.0000 -12.2338 0.0000 11.2653
#
#
#
# Elastic Compliance Matrix: (Units=1/GPa)
#
#
# Indices 1 2 3 4 5 6 
#
# 1 0.012150 -0.004894 -0.003550 0.000000 0.005148 0.000000
# 2 -0.004894 0.019673 -0.001003 0.000000 0.002080 0.000000
# 3 -0.003550 -0.001003 0.014642 0.000000 0.001986 0.000000
# 4 0.000000 0.000000 0.000000 0.058635 0.000000 0.063677
# 5 0.005148 0.002080 0.001986 0.000000 0.027130 0.000000
# 6 0.000000 0.000000 0.000000 0.063677 0.000000 0.157920
#
#
# Mechanical properties :
#
#
# Convention : Reuss Voigt Hill
#
# Bulk Modulus (GPa) = 36.27096 47.08550 41.67823
# Shear Modulus (GPa) = 15.71161 28.84262 22.27711
#
# Velocity S-wave (km/s) = 2.53827 3.43911 3.02244
# Velocity P-wave (km/s) = 4.84397 5.92269 5.41028
#
# Compressibility (1/GPa) = 0.02757027
#
# Stress axis : x y z
#
# Youngs Moduli (GPa) = 82.30444 50.83057 68.29636
#
# Poissons Ratio (x) = 0.24876 0.24247
# Poissons Ratio (y) = 0.40279 0.06852
# Poissons Ratio (z) = 0.29221 0.05099
#
# Static dielectric constant tensor:
#      x y z
#    x 1.962380 0.000000 0.016460 
#    y 0.000000 1.931810 0.000000 
#    z 0.016460 0.000000 2.059970 
# 
# From -- ./inp_files/29270.got.cif
#   From: 2010.05.17/outbox.cif.g08.bks.cpg/sg9_15_cif.got.tgz:29270.got - 2010.06.03 20:04:27.
