data_PCOD9137358
_publ_section_title
;
Structure prediction by ZEFSAII (Michael W. Deem and Ramdas Pophale) SiO2 
 PCOD9137358
Probable space group: C C
;
_chemical_formula_sum "Si O2"
_cell_formula_units_Z 32
_cell_length_a 6.731368
_cell_length_b 22.540782
_cell_length_c 10.027656
_cell_angle_alpha 90.000000
_cell_angle_beta 65.811736
_cell_angle_gamma 90.000000
_cell_volume 1387.917787
_symmetry_space_group_name_H-M "C C"
_symmetry_group_IT_number 9
_symmetry_cell_setting 'monoclinic'
loop_
_space_group_symop_operation_xyz
x,y,z
x,-y,1/2+z
1/2+x,1/2+y,z
1/2+x,1/2-y,1/2+z
loop_
_atom_site_type_symbol
_atom_site_label
_atom_site_fract_x
_atom_site_fract_y
_atom_site_fract_z
Si Si1 0.489530 0.436118 0.719750
Si Si2 0.297712 0.508979 0.520844
Si Si3 0.984585 0.412320 0.509243
Si Si4 0.174667 0.802903 0.287344
Si Si5 0.596806 0.869695 0.180835
Si Si6 0.764576 0.183165 0.015910
Si Si7 0.434001 0.699424 0.252245
Si Si8 0.390848 0.257964 0.126164
O O1 0.378765 0.472283 0.628127
O O2 0.734014 0.423187 0.604686
O O3 0.390556 0.370382 0.780513
O O4 0.478078 0.473073 0.860770
O O5 0.181648 0.568932 0.601336
O O6 0.119685 0.472044 0.487387
O O7 0.036302 0.381399 0.353119
O O8 0.092740 0.368629 0.588318
O O9 0.375258 0.841982 0.180887
O O10 0.283590 0.752513 0.354229
O O11 0.987367 0.845799 0.399147
O O12 0.005960 0.770390 0.235716
O O13 0.785985 0.820443 0.113082
O O14 0.601945 0.231234 0.992309
O O15 0.868116 0.212118 0.117450
O O16 0.687989 0.713741 0.195030
#
# Coordination Sequence:
#
# PCOD9137358 Si02
#       8
#     4   4   4   4   4   4   4   4
#     4  12  27  48  74 107 148 195 258 315 373 454
#     4  12  29  49  73 107 147 201 257 314 375 447
#     4  12  25  45  77 101 146 198 252 303 382 445
#     4  10  23  39  72 105 146 188 239 304 381 452
#     4  11  25  47  73 109 148 196 246 316 378 450
#     4  11  21  40  71 104 144 191 239 297 379 453
#     4  10  22  41  67 104 141 185 241 302 369 447
#     4  10  22  41  67 109 144 188 236 303 379 452
#
# _framework density 23.056121000000001
#
# number of rings (size 3 to 8) (size 9 to 14) (size 15 to 20)
#    0.000    1.000    5.000    0.750    1.750    5.000 
#    0.000    0.000    0.000    0.000    0.000    0.000 
#    0.000    0.000    0.000    0.000    0.000    0.000 
#
# Total GULP energy -89146.764210 kJ/mol
# GULP energy per Si atom -5571.672763 kJ/mol
# Density = 2.300364 g / cm^3
# Si number density = 23.056121 Si / 1000 Ang^3
#
#
#
# Elastic Constant Matrix: (Units=GPa)
#
#
# Indices 1 2 3 4 5 6 
#
# 1 152.6776 58.8216 33.6169 0.0000 -16.2042 0.0000
# 2 58.8216 142.1684 32.6384 0.0000 -12.8093 0.0000
# 3 33.6169 32.6384 74.2935 0.0000 -6.8174 0.0000
# 4 0.0000 0.0000 0.0000 29.2631 0.0000 -7.7588
# 5 -16.2042 -12.8093 -6.8174 0.0000 36.1483 0.0000
# 6 0.0000 0.0000 0.0000 -7.7588 0.0000 45.6802
#
#
#
# Elastic Compliance Matrix: (Units=1/GPa)
#
#
# Indices 1 2 3 4 5 6 
#
# 1 0.008364 -0.002703 -0.002382 0.000000 0.002342 0.000000
# 2 -0.002703 0.008866 -0.002539 0.000000 0.001451 0.000000
# 3 -0.002382 -0.002539 0.015745 0.000000 0.001002 0.000000
# 4 0.000000 0.000000 0.000000 0.035784 0.000000 0.006078
# 5 0.002342 0.001451 0.001002 0.000000 0.029417 0.000000
# 6 0.000000 0.000000 0.000000 0.006078 0.000000 0.022924
#
#
# Mechanical properties :
#
#
# Convention : Reuss Voigt Hill
#
# Bulk Modulus (GPa) = 56.40914 68.81036 62.60975
# Shear Modulus (GPa) = 35.14761 38.48916 36.81838
#
# Velocity S-wave (km/s) = 3.90864 4.09022 4.00046
# Velocity P-wave (km/s) = 6.69993 7.22607 6.96797
#
# Compressibility (1/GPa) = 0.01772762
#
# Stress axis : x y z
#
# Youngs Moduli (GPa) = 119.55782 112.79397 63.51058
#
# Poissons Ratio (x) = 0.30484 0.15131
# Poissons Ratio (y) = 0.32312 0.16124
# Poissons Ratio (z) = 0.28484 0.28636
#
# Static dielectric constant tensor:
#      x y z
#    x 1.842100 0.000000 -0.045170 
#    y 0.000000 1.972570 0.000000 
#    z -0.045170 0.000000 2.280630 
# 
# From -- ./inp_files/13803.got.cif
#   From: 2010.05.17/outbox.cif.g08.bks.cpg/sg9_7_cif.got.tgz:13803.got - 2010.06.03 20:04:27.
