data_PCOD9137157
_publ_section_title
;
Structure prediction by ZEFSAII (Michael W. Deem and Ramdas Pophale) SiO2 
 PCOD9137157
Probable space group: C C
;
_chemical_formula_sum "Si O2"
_cell_formula_units_Z 32
_cell_length_a 9.236178
_cell_length_b 27.127665
_cell_length_c 6.994444
_cell_angle_alpha 90.000000
_cell_angle_beta 49.771136
_cell_angle_gamma 90.000000
_cell_volume 1337.982147
_symmetry_space_group_name_H-M "C C"
_symmetry_group_IT_number 9
_symmetry_cell_setting 'monoclinic'
loop_
_space_group_symop_operation_xyz
x,y,z
x,-y,1/2+z
1/2+x,1/2+y,z
1/2+x,1/2-y,1/2+z
loop_
_atom_site_type_symbol
_atom_site_label
_atom_site_fract_x
_atom_site_fract_y
_atom_site_fract_z
Si Si1 0.990980 0.299903 0.586060
Si Si2 0.840444 0.554597 0.779850
Si Si3 0.274518 0.558041 0.455675
Si Si4 0.420028 0.686393 0.679426
Si Si5 0.703875 0.632570 0.172659
Si Si6 0.371287 0.396773 0.495228
Si Si7 0.016659 0.027226 0.596122
Si Si8 0.950530 0.397025 0.792517
O O1 0.983469 0.242787 0.640092
O O2 0.846363 0.320318 0.550894
O O3 0.948173 0.336612 0.802822
O O4 0.197619 0.312120 0.334678
O O5 0.052222 0.552507 0.696947
O O6 0.707447 0.506142 0.913932
O O7 0.898839 0.571112 0.518075
O O8 0.721794 0.600470 0.968491
O O9 0.432697 0.557566 0.487727
O O10 0.312135 0.601083 0.267483
O O11 0.343204 0.511077 0.275740
O O12 0.523121 0.657840 0.421535
O O13 0.447244 0.654890 0.850156
O O14 0.169516 0.407704 0.561680
O O15 0.508301 0.438331 0.290809
O O16 0.302028 0.096335 0.248044
#
# Coordination Sequence:
#
# PCOD9137157 Si02
#       8
#     4   4   4   4   4   4   4   4
#     4   9  19  39  70 102 137 188 230 292 364 422
#     4  11  26  45  72 104 141 190 242 302 360 426
#     4  11  26  48  66 100 140 183 246 299 356 422
#     4  11  20  39  73 101 141 186 231 291 361 431
#     4  10  22  39  71 100 142 180 235 289 362 426
#     4  10  23  44  67  98 139 185 234 300 353 422
#     4  12  26  45  68 102 142 188 245 291 365 431
#     4   8  20  43  69  97 140 180 237 298 353 420
#
# _framework density 23.916613000000002
#
# number of rings (size 3 to 8) (size 9 to 14) (size 15 to 20)
#    0.750    1.000    2.500    0.750    3.500    2.000 
#    2.250    0.000   13.750    0.000    0.000    0.000 
#    0.000    0.000    0.000    0.000    0.000    0.000 
#
# Total GULP energy -89299.106685 kJ/mol
# GULP energy per Si atom -5581.194168 kJ/mol
# Density = 2.386218 g / cm^3
# Si number density = 23.916613 Si / 1000 Ang^3
#
#
#
# Elastic Constant Matrix: (Units=GPa)
#
#
# Indices 1 2 3 4 5 6 
#
# 1 95.9887 29.1231 48.5648 0.0000 -21.3592 0.0000
# 2 29.1231 175.7957 70.1963 0.0000 -7.3457 0.0000
# 3 48.5648 70.1963 141.3217 0.0000 -31.4892 0.0000
# 4 0.0000 0.0000 0.0000 24.3680 0.0000 -6.6502
# 5 -21.3592 -7.3457 -31.4892 0.0000 50.3881 0.0000
# 6 0.0000 0.0000 0.0000 -6.6502 0.0000 23.9853
#
#
#
# Elastic Compliance Matrix: (Units=1/GPa)
#
#
# Indices 1 2 3 4 5 6 
#
# 1 0.013091 -0.000659 -0.003435 0.000000 0.003307 0.000000
# 2 -0.000659 0.007210 -0.003698 0.000000 -0.001539 0.000000
# 3 -0.003435 -0.003698 0.011209 0.000000 0.005010 0.000000
# 4 0.000000 0.000000 0.000000 0.044397 0.000000 0.012309
# 5 0.003307 -0.001539 0.005010 0.000000 0.024154 0.000000
# 6 0.000000 0.000000 0.000000 0.012309 0.000000 0.045105
#
#
# Mechanical properties :
#
#
# Convention : Reuss Voigt Hill
#
# Bulk Modulus (GPa) = 62.78308 78.76384 70.77346
# Shear Modulus (GPa) = 30.10982 37.42975 33.76979
#
# Velocity S-wave (km/s) = 3.55202 3.96031 3.76171
# Velocity P-wave (km/s) = 6.56736 7.34277 6.96586
#
# Compressibility (1/GPa) = 0.01592786
#
# Stress axis : x y z
#
# Youngs Moduli (GPa) = 76.38584 138.70031 89.21125
#
# Poissons Ratio (x) = 0.09142 0.30640
# Poissons Ratio (y) = 0.05035 0.32987
# Poissons Ratio (z) = 0.26235 0.51286
#
# Static dielectric constant tensor:
#      x y z
#    x 2.064910 0.000000 -0.012220 
#    y 0.000000 1.964710 0.000000 
#    z -0.012220 0.000000 1.930660 
# 
# From -- ./inp_files/8570.got.cif
#   From: 2010.05.17/outbox.cif.g08.bks.cpg/sg9_5_cif.got.tgz:8570.got - 2010.06.03 20:04:27.
