data_PCOD9137556
_publ_section_title
;
Structure prediction by ZEFSAII (Michael W. Deem and Ramdas Pophale) SiO2 
 PCOD9137556
Probable space group: C C
;
_chemical_formula_sum "Si O2"
_cell_formula_units_Z 28
_cell_length_a 17.314141
_cell_length_b 5.167634
_cell_length_c 19.483506
_cell_angle_alpha 90.000000
_cell_angle_beta 141.527499
_cell_angle_gamma 90.000000
_cell_volume 1084.544062
_symmetry_space_group_name_H-M "C C"
_symmetry_group_IT_number 9
_symmetry_cell_setting 'monoclinic'
loop_
_space_group_symop_operation_xyz
x,y,z
x,-y,1/2+z
1/2+x,1/2+y,z
1/2+x,1/2-y,1/2+z
loop_
_atom_site_type_symbol
_atom_site_label
_atom_site_fract_x
_atom_site_fract_y
_atom_site_fract_z
Si Si1 0.059500 0.607110 0.308600
Si Si2 0.819246 0.037182 0.940186
Si Si3 0.875244 0.958379 0.236441
Si Si4 0.070944 0.232034 0.445543
Si Si5 0.818226 0.665934 0.580898
Si Si6 0.720077 0.707731 0.238261
Si Si7 0.065556 0.292715 0.603323
O O1 0.187358 0.605007 0.358063
O O2 0.077159 0.454971 0.392276
O O3 0.000689 0.879480 0.284787
O O4 0.944281 0.478100 0.187768
O O5 0.806347 0.210711 0.862522
O O6 0.827908 0.227030 0.011479
O O7 0.929741 0.828942 0.021696
O O8 0.797333 0.740597 0.221027
O O9 0.805576 0.104958 0.128250
O O10 0.930898 0.128105 0.336447
O O11 0.184831 0.036972 0.504163
O O12 0.077622 0.300724 0.529489
O O13 0.660260 0.425040 0.198340
O O14 0.610059 0.924431 0.158592
#
# Coordination Sequence:
#
# PCOD9137556 Si02
#       7
#     4   4   4   4   4   4   4
#     4  10  24  44  73 107 145 190 250 306 364 450
#     4  11  26  48  71 108 151 194 241 309 377 435
#     4  11  23  42  74 108 137 196 252 307 351 455
#     4  10  22  42  71 104 143 189 248 297 372 426
#     4  10  22  46  69 103 146 192 244 305 371 435
#     4  12  28  48  75 110 149 191 255 300 366 439
#     4  12  27  48  75 108 149 198 238 308 369 440
#
# _framework density 25.817299999999999
#
# number of rings (size 3 to 8) (size 9 to 14) (size 15 to 20)
#    0.000    1.143    2.857    1.714    6.000    3.429 
#   10.286    0.000    0.000    0.000    0.000    0.000 
#    0.000    0.000    0.000    0.000    0.000    0.000 
#
# Total GULP energy -78345.927039 kJ/mol
# GULP energy per Si atom -5596.137646 kJ/mol
# Density = 2.575854 g / cm^3
# Si number density = 25.817300 Si / 1000 Ang^3
#
#
#
# Elastic Constant Matrix: (Units=GPa)
#
#
# Indices 1 2 3 4 5 6 
#
# 1 90.1062 -3.1725 39.0269 0.0023 -6.2815 0.0014
# 2 -3.1725 56.2837 21.3481 0.0041 -6.0256 0.0069
# 3 39.0269 21.3481 141.7929 0.0015 -16.4746 0.0007
# 4 0.0023 0.0041 0.0015 10.6790 -0.0002 2.7346
# 5 -6.2815 -6.0256 -16.4746 -0.0002 60.0445 0.0003
# 6 0.0014 0.0069 0.0007 2.7346 0.0003 27.0675
#
#
#
# Elastic Compliance Matrix: (Units=1/GPa)
#
#
# Indices 1 2 3 4 5 6 
#
# 1 0.012866 0.002229 -0.003816 -0.000003 0.000523 -0.000001
# 2 0.002229 0.019306 -0.003376 -0.000006 0.001244 -0.000004
# 3 -0.003816 -0.003376 0.008806 0.000001 0.001678 0.000001
# 4 -0.000003 -0.000006 0.000001 0.096129 0.000000 -0.009712
# 5 0.000523 0.001244 0.001678 0.000000 0.017294 -0.000001
# 6 -0.000001 -0.000004 0.000001 -0.009712 -0.000001 0.037926
#
#
# Mechanical properties :
#
#
# Convention : Reuss Voigt Hill
#
# Bulk Modulus (GPa) = 32.20394 44.73198 38.46796
# Shear Modulus (GPa) = 23.51794 34.95687 29.23740
#
# Velocity S-wave (km/s) = 3.02145 3.68368 3.36888
# Velocity P-wave (km/s) = 4.96720 5.95455 5.48314
#
# Compressibility (1/GPa) = 0.03105210
#
# Stress axis : x y z
#
# Youngs Moduli (GPa) = 77.72622 51.79660 113.55853
#
# Poissons Ratio (x) = -0.11543 0.43333
# Poissons Ratio (y) = -0.17321 0.38332
# Poissons Ratio (z) = 0.29660 0.17484
#
# Static dielectric constant tensor:
#      x y z
#    x 2.013790 0.000000 0.094680 
#    y 0.000000 2.087730 0.000000 
#    z 0.094680 0.000000 2.219640 
# 
# From -- ./inp_files/18831.got.cif
#   From: 2010.05.17/outbox.cif.g08.bks.cpg/sg9_10_cif.got.tgz:18831.got - 2010.06.03 20:04:27.
