data_PCOD9137858
_publ_section_title
;
Structure prediction by ZEFSAII (Michael W. Deem and Ramdas Pophale) SiO2 
 PCOD9137858
Probable space group: C C
;
_chemical_formula_sum "Si O2"
_cell_formula_units_Z 32
_cell_length_a 9.737720
_cell_length_b 12.120885
_cell_length_c 10.761393
_cell_angle_alpha 90.000000
_cell_angle_beta 88.903962
_cell_angle_gamma 90.000000
_cell_volume 1269.932501
_symmetry_space_group_name_H-M "C C"
_symmetry_group_IT_number 9
_symmetry_cell_setting 'monoclinic'
loop_
_space_group_symop_operation_xyz
x,y,z
x,-y,1/2+z
1/2+x,1/2+y,z
1/2+x,1/2-y,1/2+z
loop_
_atom_site_type_symbol
_atom_site_label
_atom_site_fract_x
_atom_site_fract_y
_atom_site_fract_z
Si Si1 0.258820 0.016965 0.660050
Si Si2 0.996182 0.305211 0.788166
Si Si3 0.846783 0.966109 0.558214
Si Si4 0.155244 0.641873 0.581295
Si Si5 0.505634 0.549502 0.802257
Si Si6 0.037082 0.550141 0.808829
Si Si7 0.873203 0.676133 0.024318
Si Si8 0.845623 0.287166 0.018043
O O1 0.406160 0.030478 0.720676
O O2 0.241547 0.130856 0.586302
O O3 0.147809 0.992835 0.765324
O O4 0.266441 0.920801 0.560187
O O5 0.043752 0.179894 0.814107
O O6 0.076479 0.419017 0.821616
O O7 0.965676 0.306258 0.643680
O O8 0.853725 0.306280 0.870325
O O9 0.935313 0.985793 0.431688
O O10 0.827166 0.835717 0.565436
O O11 0.697388 0.018688 0.542489
O O12 0.914888 0.019098 0.680721
O O13 0.275512 0.716812 0.520827
O O14 0.145763 0.624827 0.731571
O O15 0.005599 0.683931 0.546868
O O16 0.969800 0.625994 0.916481
#
# Coordination Sequence:
#
# PCOD9137858 Si02
#       8
#     4   4   4   4   4   4   4   4
#     4  10  23  41  69  99 136 191 232 300 364 440
#     4  10  22  45  64  98 142 179 242 294 359 445
#     4  11  26  47  72 109 147 193 248 306 382 439
#     4  11  25  45  73 105 144 188 245 311 364 455
#     4  11  25  45  70 107 146 189 244 309 367 450
#     4  10  24  43  69 102 132 194 239 295 377 439
#     4  11  22  44  67  97 144 181 242 293 373 442
#     4  10  23  46  70 105 143 191 246 300 374 442
#
# _framework density 25.19819
#
# number of rings (size 3 to 8) (size 9 to 14) (size 15 to 20)
#    0.000    1.500    2.500    0.750    7.000    4.000 
#    2.250    0.000    0.000    0.000    0.000    0.000 
#    0.000    0.000    0.000    0.000    0.000    0.000 
#
# Total GULP energy -89345.400852 kJ/mol
# GULP energy per Si atom -5584.087553 kJ/mol
# Density = 2.514084 g / cm^3
# Si number density = 25.198190 Si / 1000 Ang^3
#
#
#
# Elastic Constant Matrix: (Units=GPa)
#
#
# Indices 1 2 3 4 5 6 
#
# 1 60.3950 35.3005 5.3871 0.0000 -6.1299 0.0000
# 2 35.3005 139.1639 37.5529 0.0000 -8.1466 0.0000
# 3 5.3871 37.5529 94.3831 0.0000 -21.3805 0.0000
# 4 0.0000 0.0000 0.0000 35.7023 0.0000 -5.1473
# 5 -6.1299 -8.1466 -21.3805 0.0000 41.5254 0.0000
# 6 0.0000 0.0000 0.0000 -5.1473 0.0000 30.1673
#
#
#
# Elastic Compliance Matrix: (Units=1/GPa)
#
#
# Indices 1 2 3 4 5 6 
#
# 1 0.019781 -0.005288 0.001586 0.000000 0.002699 0.000000
# 2 -0.005288 0.009464 -0.003645 0.000000 -0.000801 0.000000
# 3 0.001586 -0.003645 0.013410 0.000000 0.006424 0.000000
# 4 0.000000 0.000000 0.000000 0.028716 0.000000 0.004900
# 5 0.002699 -0.000801 0.006424 0.000000 0.027630 0.000000
# 6 0.000000 0.000000 0.000000 0.004900 0.000000 0.033984
#
#
# Mechanical properties :
#
#
# Convention : Reuss Voigt Hill
#
# Bulk Modulus (GPa) = 35.76305 50.04699 42.90502
# Shear Modulus (GPa) = 31.84746 35.85911 33.85329
#
# Velocity S-wave (km/s) = 3.55896 3.77647 3.66933
# Velocity P-wave (km/s) = 5.57780 6.23860 5.91743
#
# Compressibility (1/GPa) = 0.02796182
#
# Stress axis : x y z
#
# Youngs Moduli (GPa) = 50.55425 105.66623 74.57140
#
# Poissons Ratio (x) = 0.55873 -0.11829
# Poissons Ratio (y) = 0.26731 0.27181
# Poissons Ratio (z) = -0.08019 0.38515
#
# Static dielectric constant tensor:
#      x y z
#    x 2.009270 0.000000 0.056600 
#    y 0.000000 2.036360 0.000000 
#    z 0.056600 0.000000 2.111860 
# 
# From -- ./inp_files/16499.got.cif
#   From: 2010.05.17/outbox.cif.g08.bks.cpg/sg9_9_cif.got.tgz:16499.got - 2010.06.03 20:04:27.
