data_PCOD9137388
_publ_section_title
;
Structure prediction by ZEFSAII (Michael W. Deem and Ramdas Pophale) SiO2 
 PCOD9137388
Probable space group: C C
;
_chemical_formula_sum "Si O2"
_cell_formula_units_Z 32
_cell_length_a 4.802555
_cell_length_b 29.378909
_cell_length_c 8.906697
_cell_angle_alpha 90.000000
_cell_angle_beta 74.513953
_cell_angle_gamma 90.000000
_cell_volume 1211.056827
_symmetry_space_group_name_H-M "C C"
_symmetry_group_IT_number 9
_symmetry_cell_setting 'monoclinic'
loop_
_space_group_symop_operation_xyz
x,y,z
x,-y,1/2+z
1/2+x,1/2+y,z
1/2+x,1/2-y,1/2+z
loop_
_atom_site_type_symbol
_atom_site_label
_atom_site_fract_x
_atom_site_fract_y
_atom_site_fract_z
Si Si1 0.190280 0.813906 0.522970
Si Si2 0.994930 0.565851 0.313175
Si Si3 0.186103 0.503614 0.038752
Si Si4 0.700041 0.242228 0.277050
Si Si5 0.521610 0.369995 0.809206
Si Si6 0.706426 0.309936 0.024407
Si Si7 0.941451 0.938227 0.246701
Si Si8 0.925595 0.377735 0.235973
O O1 0.324865 0.772189 0.401154
O O2 0.245372 0.846612 0.659206
O O3 0.232783 0.852792 0.390445
O O4 0.913628 0.788626 0.643092
O O5 0.061064 0.530946 0.435451
O O6 0.246694 0.604852 0.276886
O O7 0.693509 0.590894 0.370303
O O8 0.977314 0.535540 0.166046
O O9 0.363319 0.539658 0.916001
O O10 0.372506 0.475061 0.130278
O O11 0.575219 0.277044 0.169858
O O12 0.437364 0.215310 0.386723
O O13 0.479129 0.332119 0.943636
O O14 0.883878 0.346393 0.097093
O O15 0.742389 0.893192 0.243734
O O16 0.269940 0.924238 0.215837
#
# Coordination Sequence:
#
# PCOD9137388 Si02
#       8
#     4   4   4   4   4   4   4   4
#     4  10  22  41  69  98 137 179 226 283 338 405
#     4  11  25  42  65  96 129 172 219 268 329 394
#     4  10  24  42  66  94 134 174 218 274 330 398
#     4   9  21  44  67 101 136 180 230 279 345 406
#     4  12  24  41  67  97 131 172 221 273 331 393
#     4  10  22  41  69  98 137 179 226 283 338 405
#     4  11  24  42  66  98 133 176 223 274 338 400
#     4  11  24  43  69  98 135 178 225 278 337 401
#
# _framework density 26.423203999999998
#
# number of rings (size 3 to 8) (size 9 to 14) (size 15 to 20)
#    0.000    1.500    0.000    3.750    0.000    9.000 
#    0.000    8.750    0.000    0.000    0.000    0.000 
#    0.000    0.000    0.000    0.000    0.000    0.000 
#
# Total GULP energy -89432.183886 kJ/mol
# GULP energy per Si atom -5589.511493 kJ/mol
# Density = 2.636306 g / cm^3
# Si number density = 26.423204 Si / 1000 Ang^3
#
#
#
# Elastic Constant Matrix: (Units=GPa)
#
#
# Indices 1 2 3 4 5 6 
#
# 1 81.3272 17.0732 16.3620 0.0000 -1.1506 0.0000
# 2 17.0732 108.5358 55.0495 0.0000 -2.1410 0.0000
# 3 16.3620 55.0495 180.7945 0.0000 -4.9340 0.0000
# 4 0.0000 0.0000 0.0000 76.9869 0.0000 1.9702
# 5 -1.1506 -2.1410 -4.9340 0.0000 27.4417 0.0000
# 6 0.0000 0.0000 0.0000 1.9702 0.0000 14.5275
#
#
#
# Elastic Compliance Matrix: (Units=1/GPa)
#
#
# Indices 1 2 3 4 5 6 
#
# 1 0.012781 -0.001682 -0.000637 0.000000 0.000290 0.000000
# 2 -0.001682 0.011119 -0.003228 0.000000 0.000217 0.000000
# 3 -0.000637 -0.003228 0.006596 0.000000 0.000908 0.000000
# 4 0.000000 0.000000 0.000000 0.013034 0.000000 -0.001768
# 5 0.000290 0.000217 0.000908 0.000000 0.036633 0.000000
# 6 0.000000 0.000000 0.000000 -0.001768 0.000000 0.069075
#
#
# Mechanical properties :
#
#
# Convention : Reuss Voigt Hill
#
# Bulk Modulus (GPa) = 51.53403 60.84744 56.19074
# Shear Modulus (GPa) = 29.97606 42.60274 36.28940
#
# Velocity S-wave (km/s) = 3.37183 4.01973 3.70995
# Velocity P-wave (km/s) = 5.89106 6.68000 6.29790
#
# Compressibility (1/GPa) = 0.01940465
#
# Stress axis : x y z
#
# Youngs Moduli (GPa) = 78.23938 89.93261 151.60040
#
# Poissons Ratio (x) = 0.15126 0.09652
# Poissons Ratio (y) = 0.13159 0.48930
# Poissons Ratio (z) = 0.04981 0.29027
#
# Static dielectric constant tensor:
#      x y z
#    x 2.041390 0.000000 0.016830 
#    y 0.000000 2.159830 0.000000 
#    z 0.016830 0.000000 2.057320 
# 
# From -- ./inp_files/4353.got.cif
#   From: 2010.05.17/outbox.cif.g08.bks.cpg/sg9_3_cif.got.tgz:4353.got - 2010.06.03 20:04:27.
