data_PCOD9137474
_publ_section_title
;
Structure prediction by ZEFSAII (Michael W. Deem and Ramdas Pophale) SiO2 
 PCOD9137474
Probable space group: C C
;
_chemical_formula_sum "Si O2"
_cell_formula_units_Z 32
_cell_length_a 7.592419
_cell_length_b 12.642728
_cell_length_c 15.807937
_cell_angle_alpha 90.000000
_cell_angle_beta 56.757094
_cell_angle_gamma 90.000000
_cell_volume 1269.072154
_symmetry_space_group_name_H-M "C C"
_symmetry_group_IT_number 9
_symmetry_cell_setting 'monoclinic'
loop_
_space_group_symop_operation_xyz
x,y,z
x,-y,1/2+z
1/2+x,1/2+y,z
1/2+x,1/2-y,1/2+z
loop_
_atom_site_type_symbol
_atom_site_label
_atom_site_fract_x
_atom_site_fract_y
_atom_site_fract_z
Si Si1 0.760580 0.394012 0.137860
Si Si2 0.366101 0.290607 0.307742
Si Si3 0.272658 0.009764 0.972153
Si Si4 0.483480 0.201060 0.994512
Si Si5 0.332978 0.555092 0.074871
Si Si6 0.198022 0.481359 0.799394
Si Si7 0.238908 0.368698 0.969102
Si Si8 0.363201 0.122941 0.178118
O O1 0.612421 0.315210 0.229895
O O2 0.766700 0.507375 0.186394
O O3 0.686232 0.421865 0.060865
O O4 0.994881 0.351312 0.059009
O O5 0.267390 0.397080 0.293299
O O6 0.306801 0.183580 0.276560
O O7 0.234767 0.283260 0.429028
O O8 0.428718 0.078581 0.990249
O O9 0.443143 0.973843 0.858837
O O10 0.077862 0.081243 0.994692
O O11 0.383215 0.267453 0.945256
O O12 0.335111 0.214355 0.114489
O O13 0.305726 0.552345 0.183880
O O14 0.117128 0.612276 0.106908
O O15 0.317971 0.450601 0.019994
O O16 0.254743 0.415218 0.869483
#
# Coordination Sequence:
#
# PCOD9137474 Si02
#       8
#     4   4   4   4   4   4   4   4
#     4   9  20  41  64  90 137 179 218 288 346 414
#     4  11  21  39  68  93 132 175 226 287 337 420
#     4   9  20  39  62  93 132 167 223 283 334 419
#     4  10  23  41  64  97 131 175 227 283 346 425
#     4  11  21  42  66  96 133 178 221 285 344 417
#     4  10  22  42  66  99 130 181 229 273 361 414
#     4  10  23  42  68  96 137 181 222 282 353 418
#     4  10  24  42  62  98 134 178 230 277 361 411
#
# _framework density 25.215271999999999
#
# number of rings (size 3 to 8) (size 9 to 14) (size 15 to 20)
#    0.000    2.000    1.250    3.000    3.500    1.000 
#    9.000    1.250    0.000    0.000    0.000    0.000 
#    0.000    0.000    0.000    0.000    0.000    0.000 
#
# Total GULP energy -89155.510282 kJ/mol
# GULP energy per Si atom -5572.219393 kJ/mol
# Density = 2.515788 g / cm^3
# Si number density = 25.215272 Si / 1000 Ang^3
#
#
#
# Elastic Constant Matrix: (Units=GPa)
#
#
# Indices 1 2 3 4 5 6 
#
# 1 66.8452 3.5922 27.9035 0.0000 -15.7071 0.0000
# 2 3.5922 60.9751 18.4280 0.0000 15.3963 0.0000
# 3 27.9035 18.4280 103.7735 0.0000 -10.7679 0.0000
# 4 0.0000 0.0000 0.0000 18.2528 0.0000 5.7916
# 5 -15.7071 15.3963 -10.7679 0.0000 43.9130 0.0000
# 6 0.0000 0.0000 0.0000 5.7916 0.0000 23.4073
#
#
#
# Elastic Compliance Matrix: (Units=1/GPa)
#
#
# Indices 1 2 3 4 5 6 
#
# 1 0.018110 -0.001364 -0.004007 0.000000 0.005973 0.000000
# 2 -0.001364 0.019826 -0.004028 0.000000 -0.008427 0.000000
# 3 -0.004007 -0.004028 0.011725 0.000000 0.002854 0.000000
# 4 0.000000 0.000000 0.000000 0.059454 0.000000 -0.014711
# 5 0.005973 -0.008427 0.002854 0.000000 0.028563 0.000000
# 6 0.000000 0.000000 0.000000 -0.014711 0.000000 0.046362
#
#
# Mechanical properties :
#
#
# Convention : Reuss Voigt Hill
#
# Bulk Modulus (GPa) = 32.40298 36.82679 34.61488
# Shear Modulus (GPa) = 23.46034 29.22597 26.34315
#
# Velocity S-wave (km/s) = 3.05356 3.40819 3.23574
# Velocity P-wave (km/s) = 5.03098 5.48856 5.26474
#
# Compressibility (1/GPa) = 0.03086136
#
# Stress axis : x y z
#
# Youngs Moduli (GPa) = 55.21921 50.43970 85.28483
#
# Poissons Ratio (x) = 0.06880 0.34178
# Poissons Ratio (y) = 0.07532 0.34355
# Poissons Ratio (z) = 0.22129 0.20318
#
# Static dielectric constant tensor:
#      x y z
#    x 2.061880 0.000000 0.027810 
#    y 0.000000 2.002710 0.000000 
#    z 0.027810 0.000000 2.089260 
# 
# From -- ./inp_files/29383.got.cif
#   From: 2010.05.17/outbox.cif.g08.bks.cpg/sg9_15_cif.got.tgz:29383.got - 2010.06.03 20:04:27.
