data_PCOD9137325
_publ_section_title
;
Structure prediction by ZEFSAII (Michael W. Deem and Ramdas Pophale) SiO2 
 PCOD9137325
Probable space group: C C
;
_chemical_formula_sum "Si O2"
_cell_formula_units_Z 24
_cell_length_a 12.998774
_cell_length_b 7.530476
_cell_length_c 9.337008
_cell_angle_alpha 90.000000
_cell_angle_beta 102.172074
_cell_angle_gamma 90.000000
_cell_volume 893.424096
_symmetry_space_group_name_H-M "C C"
_symmetry_group_IT_number 9
_symmetry_cell_setting 'monoclinic'
loop_
_space_group_symop_operation_xyz
x,y,z
x,-y,1/2+z
1/2+x,1/2+y,z
1/2+x,1/2-y,1/2+z
loop_
_atom_site_type_symbol
_atom_site_label
_atom_site_fract_x
_atom_site_fract_y
_atom_site_fract_z
Si Si1 0.860830 0.914376 0.585160
Si Si2 0.556702 0.511544 0.805519
Si Si3 0.227262 0.493895 0.282608
Si Si4 0.908507 0.519127 0.614220
Si Si5 0.686988 0.367619 0.594695
Si Si6 0.531933 0.107248 0.905010
O O1 0.821195 0.994200 0.426050
O O2 0.910206 0.723922 0.566859
O O3 0.945079 0.036539 0.693001
O O4 0.764292 0.876354 0.666887
O O5 0.642029 0.497051 0.704196
O O6 0.547565 0.314008 0.872972
O O7 0.599531 0.634752 0.944075
O O8 0.211130 0.313676 0.185749
O O9 0.128386 0.494562 0.359631
O O10 0.795389 0.434284 0.557670
O O11 0.931513 0.531425 0.789536
O O12 0.004037 0.424070 0.560564
#
# Coordination Sequence:
#
# PCOD9137325 Si02
#       6
#     4   4   4   4   4   4
#     4  11  24  44  68 102 140 182 236 296 355 422
#     4  10  23  42  66 101 140 183 236 290 350 422
#     4  11  24  43  67  99 141 185 233 291 355 421
#     4  11  22  41  68  98 136 182 233 287 350 419
#     4  11  23  43  69 101 140 186 236 289 350 423
#     4  10  22  41  64  97 137 184 230 285 350 421
#
# _framework density 26.862942
#
# number of rings (size 3 to 8) (size 9 to 14) (size 15 to 20)
#    0.000    1.333    0.000    6.000    0.000    5.333 
#    0.000    8.333    0.000    0.000    0.000    0.000 
#    0.000    0.000    0.000    0.000    0.000    0.000 
#
# Total GULP energy -67246.696270 kJ/mol
# GULP energy per Si atom -5603.891356 kJ/mol
# Density = 2.680180 g / cm^3
# Si number density = 26.862942 Si / 1000 Ang^3
#
#
#
# Elastic Constant Matrix: (Units=GPa)
#
#
# Indices 1 2 3 4 5 6 
#
# 1 143.7185 39.7801 46.0671 0.0000 -15.7221 0.0000
# 2 39.7801 64.6182 47.8738 0.0000 -2.4865 0.0000
# 3 46.0671 47.8738 166.7222 0.0000 2.9901 0.0000
# 4 0.0000 0.0000 0.0000 34.3143 0.0000 -12.0363
# 5 -15.7221 -2.4865 2.9901 0.0000 55.8709 0.0000
# 6 0.0000 0.0000 0.0000 -12.0363 0.0000 29.2768
#
#
#
# Elastic Compliance Matrix: (Units=1/GPa)
#
#
# Indices 1 2 3 4 5 6 
#
# 1 0.008835 -0.004457 -0.001204 0.000000 0.002352 0.000000
# 2 -0.004457 0.021983 -0.005081 0.000000 -0.000004 0.000000
# 3 -0.001204 -0.005081 0.007807 0.000000 -0.000983 0.000000
# 4 0.000000 0.000000 0.000000 0.034053 0.000000 0.014000
# 5 0.002352 -0.000004 -0.000983 0.000000 0.018613 0.000000
# 6 0.000000 0.000000 0.000000 0.014000 0.000000 0.039912
#
#
# Mechanical properties :
#
#
# Convention : Reuss Voigt Hill
#
# Bulk Modulus (GPa) = 58.33338 71.38900 64.86119
# Shear Modulus (GPa) = 31.56570 39.98161 35.77365
#
# Velocity S-wave (km/s) = 3.43164 3.86211 3.65322
# Velocity P-wave (km/s) = 6.12077 6.82061 6.48015
#
# Compressibility (1/GPa) = 0.01714284
#
# Stress axis : x y z
#
# Youngs Moduli (GPa) = 113.18992 45.48919 128.08716
#
# Poissons Ratio (x) = 0.20273 0.15417
# Poissons Ratio (y) = 0.50444 0.65081
# Poissons Ratio (z) = 0.13624 0.23113
#
# Static dielectric constant tensor:
#      x y z
#    x 2.168440 0.000000 0.060680 
#    y 0.000000 2.047780 0.000000 
#    z 0.060680 0.000000 2.043140 
# 
# From -- ./inp_files/8770.got.cif
#   From: 2010.05.17/outbox.cif.g08.bks.cpg/sg9_5_cif.got.tgz:8770.got - 2010.06.03 20:04:27.
