data_PCOD9137864
_publ_section_title
;
Structure prediction by ZEFSAII (Michael W. Deem and Ramdas Pophale) SiO2 
 PCOD9137864
Probable space group: C C
;
_chemical_formula_sum "Si O2"
_cell_formula_units_Z 32
_cell_length_a 18.342461
_cell_length_b 13.822220
_cell_length_c 10.939640
_cell_angle_alpha 90.000000
_cell_angle_beta 154.935244
_cell_angle_gamma 90.000000
_cell_volume 1174.999709
_symmetry_space_group_name_H-M "C C"
_symmetry_group_IT_number 9
_symmetry_cell_setting 'monoclinic'
loop_
_space_group_symop_operation_xyz
x,y,z
x,-y,1/2+z
1/2+x,1/2+y,z
1/2+x,1/2-y,1/2+z
loop_
_atom_site_type_symbol
_atom_site_label
_atom_site_fract_x
_atom_site_fract_y
_atom_site_fract_z
Si Si1 0.700580 0.152234 0.255330
Si Si2 0.788816 0.451411 0.076086
Si Si3 0.101185 0.766142 0.860954
Si Si4 0.626903 0.027796 0.508948
Si Si5 0.220564 0.904174 0.644968
Si Si6 0.978192 0.021697 0.436524
Si Si7 0.215623 0.290433 0.281697
Si Si8 0.043274 0.207161 0.680045
O O1 0.700001 0.039113 0.231346
O O2 0.594126 0.189907 0.206939
O O3 0.889178 0.198306 0.542002
O O4 0.628024 0.199985 0.019472
O O5 0.844696 0.514174 0.279486
O O6 0.937076 0.481718 0.204094
O O7 0.753193 0.344132 0.071700
O O8 0.606330 0.480542 0.737655
O O9 0.113444 0.705928 0.753602
O O10 0.916843 0.817532 0.594766
O O11 0.628499 0.138815 0.552006
O O12 0.780653 0.010194 0.646754
O O13 0.229391 0.822060 0.761182
O O14 0.198447 0.839728 0.489508
O O15 0.062529 0.973729 0.446206
O O16 0.994693 0.136144 0.492070
#
# Coordination Sequence:
#
# PCOD9137864 Si02
#       8
#     4   4   4   4   4   4   4   4
#     4  11  24  45  66 106 137 195 243 291 361 435
#     4  11  22  43  69 100 143 190 233 300 360 429
#     4  12  24  44  76 101 151 189 247 303 357 444
#     4  11  24  44  67 102 148 188 245 295 362 430
#     4  11  24  43  73 102 145 189 235 304 371 427
#     4  10  22  45  66 103 141 188 244 294 363 433
#     4  12  24  44  69 112 141 192 241 305 364 435
#     4  10  24  44  70 100 144 187 242 302 364 431
#
# _framework density 27.234048000000001
#
# number of rings (size 3 to 8) (size 9 to 14) (size 15 to 20)
#    0.000    1.000    2.500    3.750    0.000    5.000 
#    2.250    0.000    0.000    0.000    0.000    0.000 
#    0.000    0.000    0.000    0.000    0.000    0.000 
#
# Total GULP energy -89473.172426 kJ/mol
# GULP energy per Si atom -5592.073277 kJ/mol
# Density = 2.717206 g / cm^3
# Si number density = 27.234048 Si / 1000 Ang^3
#
#
#
# Elastic Constant Matrix: (Units=GPa)
#
#
# Indices 1 2 3 4 5 6 
#
# 1 94.8286 3.1596 19.0462 0.0000 6.1371 0.0000
# 2 3.1596 85.6443 15.5161 0.0000 0.5509 0.0000
# 3 19.0462 15.5161 66.7559 0.0000 22.5037 0.0000
# 4 0.0000 0.0000 0.0000 38.3432 0.0000 4.1854
# 5 6.1371 0.5509 22.5037 0.0000 48.8020 0.0000
# 6 0.0000 0.0000 0.0000 4.1854 0.0000 39.8101
#
#
#
# Elastic Compliance Matrix: (Units=1/GPa)
#
#
# Indices 1 2 3 4 5 6 
#
# 1 0.011189 0.000178 -0.003267 0.000000 0.000097 0.000000
# 2 0.000178 0.012272 -0.003373 0.000000 0.001395 0.000000
# 3 -0.003267 -0.003373 0.019590 0.000000 -0.008584 0.000000
# 4 0.000000 0.000000 0.000000 0.026383 0.000000 -0.002774
# 5 0.000097 0.001395 -0.008584 0.000000 0.024421 0.000000
# 6 0.000000 0.000000 0.000000 -0.002774 0.000000 0.025411
#
#
# Mechanical properties :
#
#
# Convention : Reuss Voigt Hill
#
# Bulk Modulus (GPa) = 33.19204 35.85250 34.52227
# Shear Modulus (GPa) = 35.15384 39.35818 37.25601
#
# Velocity S-wave (km/s) = 3.59667 3.80568 3.70265
# Velocity P-wave (km/s) = 5.42791 5.70124 5.56625
#
# Compressibility (1/GPa) = 0.03012770
#
# Stress axis : x y z
#
# Youngs Moduli (GPa) = 89.37182 81.48770 51.04681
#
# Poissons Ratio (x) = -0.01454 0.16675
# Poissons Ratio (y) = -0.01594 0.17220
# Poissons Ratio (z) = 0.29194 0.27489
#
# Static dielectric constant tensor:
#      x y z
#    x 2.106480 0.000000 0.005520 
#    y 0.000000 2.102100 0.000000 
#    z 0.005520 0.000000 2.200700 
# 
# From -- ./inp_files/7478.got.cif
#   From: 2010.05.17/outbox.cif.g08.bks.cpg/sg9_4_cif.got.tgz:7478.got - 2010.06.03 20:04:27.
