data_PCOD9137035
_publ_section_title
;
Structure prediction by ZEFSAII (Michael W. Deem and Ramdas Pophale) SiO2 
 PCOD9137035
Probable space group: C C
;
_chemical_formula_sum "Si O2"
_cell_formula_units_Z 28
_cell_length_a 5.152989
_cell_length_b 26.541716
_cell_length_c 9.663197
_cell_angle_alpha 90.000000
_cell_angle_beta 111.914884
_cell_angle_gamma 90.000000
_cell_volume 1226.125754
_symmetry_space_group_name_H-M "C C"
_symmetry_group_IT_number 9
_symmetry_cell_setting 'monoclinic'
loop_
_space_group_symop_operation_xyz
x,y,z
x,-y,1/2+z
1/2+x,1/2+y,z
1/2+x,1/2-y,1/2+z
loop_
_atom_site_type_symbol
_atom_site_label
_atom_site_fract_x
_atom_site_fract_y
_atom_site_fract_z
Si Si1 0.136330 0.781984 0.894810
Si Si2 0.984486 0.699632 0.204089
Si Si3 0.462721 0.307739 0.142824
Si Si4 0.201002 0.396421 0.224317
Si Si5 0.463047 0.530280 0.962024
Si Si6 0.097842 0.493163 0.649798
Si Si7 0.462997 0.171548 0.913588
O O1 0.335404 0.806169 0.820397
O O2 0.813777 0.791264 0.788540
O O3 0.155672 0.721310 0.920753
O O4 0.159508 0.808164 0.048239
O O5 0.839322 0.751588 0.118505
O O6 0.969132 0.659937 0.077082
O O7 0.269663 0.355473 0.122542
O O8 0.652487 0.310796 0.315778
O O9 0.462063 0.421103 0.360453
O O10 0.070517 0.445880 0.130502
O O11 0.034480 0.370827 0.316854
O O12 0.299663 0.490123 0.826827
O O13 0.774968 0.523085 0.081192
O O14 0.260959 0.531783 0.054619
#
# Coordination Sequence:
#
# PCOD9137035 Si02
#       7
#     4   4   4   4   4   4   4
#     4  10  22  39  61  94 139 179 222 271 329 379
#     4  10  22  39  61  94 139 179 222 271 329 379
#     4  10  22  37  66  94 132 181 227 270 326 406
#     4  10  24  38  74  94 138 170 246 262 356 414
#     4  10  23  43  72  99 132 176 221 289 358 416
#     4  10  23  43  72  99 132 176 221 289 358 416
#     4  10  22  37  66  94 132 181 227 270 326 406
#
# _framework density 22.836158999999999
#
# number of rings (size 3 to 8) (size 9 to 14) (size 15 to 20)
#    0.857    1.143    1.429    0.857    8.000    3.429 
#    0.000    1.429    6.286    0.000    0.000    0.000 
#    0.000    0.000    0.000    0.000    0.000    0.000 
#
# Total GULP energy -77993.566358 kJ/mol
# GULP energy per Si atom -5570.969026 kJ/mol
# Density = 2.278418 g / cm^3
# Si number density = 22.836159 Si / 1000 Ang^3
#
#
#
# Elastic Constant Matrix: (Units=GPa)
#
#
# Indices 1 2 3 4 5 6 
#
# 1 108.8970 14.9493 22.6531 0.0000 -12.3166 0.0000
# 2 14.9493 52.8465 -7.9010 0.0000 -4.6526 0.0000
# 3 22.6531 -7.9010 75.9442 0.0000 -17.0269 0.0000
# 4 0.0000 0.0000 0.0000 30.8484 0.0000 -2.8385
# 5 -12.3166 -4.6526 -17.0269 0.0000 42.0240 0.0000
# 6 0.0000 0.0000 0.0000 -2.8385 0.0000 23.1672
#
#
#
# Elastic Compliance Matrix: (Units=1/GPa)
#
#
# Indices 1 2 3 4 5 6 
#
# 1 0.010451 -0.003300 -0.003141 0.000000 0.001425 0.000000
# 2 -0.003300 0.020672 0.003774 0.000000 0.002850 0.000000
# 3 -0.003141 0.003774 0.015822 0.000000 0.005908 0.000000
# 4 0.000000 0.000000 0.000000 0.032786 0.000000 0.004017
# 5 0.001425 0.002850 0.005908 0.000000 0.026923 0.000000
# 6 0.000000 0.000000 0.000000 0.004017 0.000000 0.043657
#
#
# Mechanical properties :
#
#
# Convention : Reuss Voigt Hill
#
# Bulk Modulus (GPa) = 24.03331 33.01005 28.52168
# Shear Modulus (GPa) = 29.49607 33.07370 31.28488
#
# Velocity S-wave (km/s) = 3.59784 3.80979 3.70533
# Velocity P-wave (km/s) = 5.27317 5.81715 5.55182
#
# Compressibility (1/GPa) = 0.04160891
#
# Stress axis : x y z
#
# Youngs Moduli (GPa) = 95.68765 48.37556 63.20429
#
# Poissons Ratio (x) = 0.15966 0.19854
# Poissons Ratio (y) = 0.31582 -0.23854
# Poissons Ratio (z) = 0.30058 -0.18258
#
# Static dielectric constant tensor:
#      x y z
#    x 1.880340 0.000000 0.029310 
#    y 0.000000 1.928400 0.000000 
#    z 0.029310 0.000000 1.895250 
# 
# From -- ./inp_files/4254.got.cif
#   From: 2010.05.17/outbox.cif.g08.bks.cpg/sg9_3_cif.got.tgz:4254.got - 2010.06.03 20:04:27.
