data_PCOD9137298
_publ_section_title
;
Structure prediction by ZEFSAII (Michael W. Deem and Ramdas Pophale) SiO2 
 PCOD9137298
Probable space group: C C
;
_chemical_formula_sum "Si O2"
_cell_formula_units_Z 28
_cell_length_a 5.144170
_cell_length_b 13.524701
_cell_length_c 17.161304
_cell_angle_alpha 90.000000
_cell_angle_beta 70.545372
_cell_angle_gamma 90.000000
_cell_volume 1125.800544
_symmetry_space_group_name_H-M "C C"
_symmetry_group_IT_number 9
_symmetry_cell_setting 'monoclinic'
loop_
_space_group_symop_operation_xyz
x,y,z
x,-y,1/2+z
1/2+x,1/2+y,z
1/2+x,1/2-y,1/2+z
loop_
_atom_site_type_symbol
_atom_site_label
_atom_site_fract_x
_atom_site_fract_y
_atom_site_fract_z
Si Si1 0.563740 0.156978 0.130180
Si Si2 0.794358 0.901222 0.439553
Si Si3 0.530905 0.465400 0.666335
Si Si4 0.212530 0.144080 0.545533
Si Si5 0.253765 0.352578 0.278898
Si Si6 0.718737 0.269176 0.317229
Si Si7 0.838360 0.131527 0.440387
O O1 0.576006 0.275202 0.116206
O O2 0.798761 0.110418 0.161030
O O3 0.279767 0.099863 0.174616
O O4 0.645894 0.123604 0.033804
O O5 0.866554 0.015135 0.431572
O O6 0.629352 0.877984 0.376905
O O7 0.066494 0.836880 0.397254
O O8 0.634029 0.534807 0.583905
O O9 0.406281 0.548849 0.735684
O O10 0.542229 0.153608 0.510257
O O11 0.084656 0.164209 0.472784
O O12 0.473413 0.265968 0.278698
O O13 0.990675 0.321002 0.255261
O O14 0.821997 0.176189 0.355622
#
# Coordination Sequence:
#
# PCOD9137298 Si02
#       7
#     4   4   4   4   4   4   4
#     4  12  24  42  71  94 132 170 221 274 324 382
#     4  10  23  39  68  92 125 169 217 272 317 380
#     4  12  25  46  63  98 135 179 210 274 334 393
#     4  12  24  40  66  99 128 167 219 269 334 386
#     4  10  24  44  64  88 140 170 216 266 331 389
#     4  10  22  41  62  91 128 165 213 273 314 387
#     4  12  22  38  68  98 124 162 222 272 326 381
#
# _framework density 24.871188
#
# number of rings (size 3 to 8) (size 9 to 14) (size 15 to 20)
#    0.857    0.000    4.286    3.429    4.000    0.000 
#    5.143    0.000    0.000    0.000    0.000    0.000 
#    0.000    0.000    0.000    0.000    0.000    0.000 
#
# Total GULP energy -78307.699765 kJ/mol
# GULP energy per Si atom -5593.407126 kJ/mol
# Density = 2.481458 g / cm^3
# Si number density = 24.871188 Si / 1000 Ang^3
#
#
#
# Elastic Constant Matrix: (Units=GPa)
#
#
# Indices 1 2 3 4 5 6 
#
# 1 120.5010 17.9716 -3.1980 0.0000 -7.2722 0.0000
# 2 17.9716 127.8993 -14.4540 0.0000 -5.7323 0.0000
# 3 -3.1980 -14.4540 53.3100 0.0000 -3.7257 0.0000
# 4 0.0000 0.0000 0.0000 45.1181 0.0000 0.0585
# 5 -7.2722 -5.7323 -3.7257 0.0000 35.9340 0.0000
# 6 0.0000 0.0000 0.0000 0.0585 0.0000 10.4303
#
#
#
# Elastic Compliance Matrix: (Units=1/GPa)
#
#
# Indices 1 2 3 4 5 6 
#
# 1 0.008567 -0.001095 0.000328 0.000000 0.001593 0.000000
# 2 -0.001095 0.008290 0.002275 0.000000 0.001337 0.000000
# 3 0.000328 0.002275 0.019567 0.000000 0.002458 0.000000
# 4 0.000000 0.000000 0.000000 0.022164 0.000000 -0.000124
# 5 0.001593 0.001337 0.002458 0.000000 0.028619 0.000000
# 6 0.000000 0.000000 0.000000 -0.000124 0.000000 0.095875
#
#
# Mechanical properties :
#
#
# Convention : Reuss Voigt Hill
#
# Bulk Modulus (GPa) = 25.35519 33.59439 29.47479
# Shear Modulus (GPa) = 25.87837 38.38918 32.13378
#
# Velocity S-wave (km/s) = 3.22917 3.93303 3.59835
# Velocity P-wave (km/s) = 4.91123 5.84479 5.39823
#
# Compressibility (1/GPa) = 0.03943966
#
# Stress axis : x y z
#
# Youngs Moduli (GPa) = 116.72844 120.63324 51.10756
#
# Poissons Ratio (x) = 0.13213 -0.01678
# Poissons Ratio (y) = 0.12785 -0.11628
# Poissons Ratio (z) = -0.03832 -0.27447
#
# Static dielectric constant tensor:
#      x y z
#    x 2.031480 0.000000 0.007440 
#    y 0.000000 2.010370 0.000000 
#    z 0.007440 0.000000 2.048960 
# 
# From -- ./inp_files/28516.got.cif
#   From: 2010.05.17/outbox.cif.g08.bks.cpg/sg9_15_cif.got.tgz:28516.got - 2010.06.03 20:04:27.
