data_PCOD9137949
_publ_section_title
;
Structure prediction by ZEFSAII (Michael W. Deem and Ramdas Pophale) SiO2 
 PCOD9137949
Probable space group: C C
;
_chemical_formula_sum "Si O2"
_cell_formula_units_Z 32
_cell_length_a 10.504790
_cell_length_b 9.457965
_cell_length_c 14.102625
_cell_angle_alpha 90.000000
_cell_angle_beta 81.402137
_cell_angle_gamma 90.000000
_cell_volume 1385.405106
_symmetry_space_group_name_H-M "C C"
_symmetry_group_IT_number 9
_symmetry_cell_setting 'monoclinic'
loop_
_space_group_symop_operation_xyz
x,y,z
x,-y,1/2+z
1/2+x,1/2+y,z
1/2+x,1/2-y,1/2+z
loop_
_atom_site_type_symbol
_atom_site_label
_atom_site_fract_x
_atom_site_fract_y
_atom_site_fract_z
Si Si1 0.594650 0.641635 0.208730
Si Si2 0.795592 0.294657 0.827155
Si Si3 0.709692 0.645414 0.624175
Si Si4 0.649550 0.949196 0.147531
Si Si5 0.797220 0.864603 0.765885
Si Si6 0.912855 0.515150 0.470224
Si Si7 0.957200 0.682312 0.119694
Si Si8 0.723205 0.991962 0.441424
O O1 0.653300 0.664856 0.306898
O O2 0.666053 0.509863 0.156620
O O3 0.622728 0.785404 0.150078
O O4 0.444505 0.615789 0.225375
O O5 0.858915 0.428354 0.875266
O O6 0.873917 0.266608 0.719269
O O7 0.781936 0.153973 0.893299
O O8 0.742217 0.731478 0.715781
O O9 0.835927 0.627409 0.545711
O O10 0.584355 0.720864 0.591458
O O11 0.712896 0.004977 0.236030
O O12 0.517642 0.034064 0.149227
O O13 0.742263 0.997054 0.051812
O O14 0.782750 0.875743 0.879343
O O15 0.890783 0.364592 0.528161
O O16 0.068246 0.511905 0.446429
#
# Coordination Sequence:
#
# PCOD9137949 Si02
#       8
#     4   4   4   4   4   4   4   4
#     4  12  26  44  71 106 141 188 238 291 358 425
#     4  12  24  43  72 111 142 189 244 289 357 426
#     4  11  24  45  71 102 140 191 232 297 357 417
#     4  10  23  47  72 105 139 193 237 290 363 417
#     4  11  23  46  70  99 150 181 234 298 352 425
#     4  11  22  43  73 102 140 184 241 289 354 420
#     4  10  22  45  75 100 142 194 234 291 363 416
#     4  11  24  45  76 105 138 194 236 297 358 426
#
# _framework density 23.097936000000001
#
# number of rings (size 3 to 8) (size 9 to 14) (size 15 to 20)
#    0.000    1.000    2.500    6.000    0.000    0.000 
#    6.750    0.000    0.000    0.000    0.000    0.000 
#    0.000    0.000    0.000    0.000    0.000    0.000 
#
# Total GULP energy -89310.760901 kJ/mol
# GULP energy per Si atom -5581.922556 kJ/mol
# Density = 2.304536 g / cm^3
# Si number density = 23.097936 Si / 1000 Ang^3
#
#
#
# Elastic Constant Matrix: (Units=GPa)
#
#
# Indices 1 2 3 4 5 6 
#
# 1 70.0632 10.9830 5.9138 0.0000 -13.3438 0.0000
# 2 10.9830 92.4312 26.9905 0.0000 -12.5470 0.0000
# 3 5.9138 26.9905 93.9972 0.0000 -19.4050 0.0000
# 4 0.0000 0.0000 0.0000 37.6767 0.0000 5.8336
# 5 -13.3438 -12.5470 -19.4050 0.0000 38.4029 0.0000
# 6 0.0000 0.0000 0.0000 5.8336 0.0000 32.3803
#
#
#
# Elastic Compliance Matrix: (Units=1/GPa)
#
#
# Indices 1 2 3 4 5 6 
#
# 1 0.015418 -0.001264 0.000462 0.000000 0.005178 0.000000
# 2 -0.001264 0.012113 -0.002984 0.000000 0.002011 0.000000
# 3 0.000462 -0.002984 0.012614 0.000000 0.005560 0.000000
# 4 0.000000 0.000000 0.000000 0.027303 0.000000 -0.004919
# 5 0.005178 0.002011 0.005560 0.000000 0.031305 0.000000
# 6 0.000000 0.000000 0.000000 -0.004919 0.000000 0.031769
#
#
# Mechanical properties :
#
#
# Convention : Reuss Voigt Hill
#
# Bulk Modulus (GPa) = 30.69957 38.25181 34.47569
# Shear Modulus (GPa) = 33.56780 35.86558 34.71669
#
# Velocity S-wave (km/s) = 3.81633 3.94478 3.88109
# Velocity P-wave (km/s) = 5.72180 6.11106 5.91963
#
# Compressibility (1/GPa) = 0.03257375
#
# Stress axis : x y z
#
# Youngs Moduli (GPa) = 64.85880 82.55435 79.27707
#
# Poissons Ratio (x) = 0.10435 -0.03661
# Poissons Ratio (y) = 0.08199 0.23653
# Poissons Ratio (z) = -0.02995 0.24631
#
# Static dielectric constant tensor:
#      x y z
#    x 1.878830 0.000000 0.015820 
#    y 0.000000 1.880220 0.000000 
#    z 0.015820 0.000000 1.926490 
# 
# From -- ./inp_files/24191.got.cif
#   From: 2010.05.17/outbox.cif.g08.bks.cpg/sg9_13_cif.got.tgz:24191.got - 2010.06.03 20:04:27.
