data_PCOD9137135
_publ_section_title
;
Structure prediction by ZEFSAII (Michael W. Deem and Ramdas Pophale) SiO2 
 PCOD9137135
Probable space group: C C
;
_chemical_formula_sum "Si O2"
_cell_formula_units_Z 24
_cell_length_a 4.781992
_cell_length_b 21.730931
_cell_length_c 9.778388
_cell_angle_alpha 90.000000
_cell_angle_beta 59.802781
_cell_angle_gamma 90.000000
_cell_volume 878.250818
_symmetry_space_group_name_H-M "C C"
_symmetry_group_IT_number 9
_symmetry_cell_setting 'monoclinic'
loop_
_space_group_symop_operation_xyz
x,y,z
x,-y,1/2+z
1/2+x,1/2+y,z
1/2+x,1/2-y,1/2+z
loop_
_atom_site_type_symbol
_atom_site_label
_atom_site_fract_x
_atom_site_fract_y
_atom_site_fract_z
Si Si1 0.827900 0.275882 0.672970
Si Si2 0.140976 0.837724 0.956867
Si Si3 0.850148 0.671699 0.885983
Si Si4 0.920716 0.506462 0.215437
Si Si5 0.993265 0.894310 0.259214
Si Si6 0.289972 0.435501 0.886092
O O1 0.909993 0.318536 0.781673
O O2 0.531037 0.233172 0.792761
O O3 0.074598 0.224160 0.559576
O O4 0.738952 0.316442 0.565299
O O5 0.840106 0.866809 0.943732
O O6 0.179676 0.887175 0.068682
O O7 0.118238 0.616605 0.818515
O O8 0.571302 0.658821 0.847655
O O9 0.647498 0.452749 0.293079
O O10 0.661952 0.558341 0.238737
O O11 0.091750 0.535394 0.306535
O O12 0.173020 0.478219 0.044576
#
# Coordination Sequence:
#
# PCOD9137135 Si02
#       6
#     4   4   4   4   4   4
#     4   9  21  42  68 105 145 188 238 296 360 434
#     4  10  22  44  72 106 147 190 239 298 362 435
#     4  10  22  39  66  99 141 188 238 293 360 430
#     4  12  26  47  72 103 143 190 243 303 365 431
#     4  11  23  44  68  97 140 188 239 301 361 424
#     4  12  26  46  74 106 146 192 243 303 366 432
#
# _framework density 27.327043
#
# number of rings (size 3 to 8) (size 9 to 14) (size 15 to 20)
#    0.000    1.333    0.000    6.000    0.000    9.333 
#    0.000   11.667    0.000    0.000    0.000    0.000 
#    0.000    0.000    0.000    0.000    0.000    0.000 
#
# Total GULP energy -66968.614955 kJ/mol
# GULP energy per Si atom -5580.717913 kJ/mol
# Density = 2.726485 g / cm^3
# Si number density = 27.327043 Si / 1000 Ang^3
#
#
#
# Elastic Constant Matrix: (Units=GPa)
#
#
# Indices 1 2 3 4 5 6 
#
# 1 118.1848 43.1495 35.4821 0.0000 23.7384 0.0000
# 2 43.1495 124.4752 60.2830 0.0000 9.7642 0.0000
# 3 35.4821 60.2830 178.0693 0.0000 18.2047 0.0000
# 4 0.0000 0.0000 0.0000 48.5047 0.0000 1.7874
# 5 23.7384 9.7642 18.2047 0.0000 44.3702 0.0000
# 6 0.0000 0.0000 0.0000 1.7874 0.0000 25.3954
#
#
#
# Elastic Compliance Matrix: (Units=1/GPa)
#
#
# Indices 1 2 3 4 5 6 
#
# 1 0.010724 -0.003042 -0.000615 0.000000 -0.004816 0.000000
# 2 -0.003042 0.010500 -0.003005 0.000000 0.000550 0.000000
# 3 -0.000615 -0.003005 0.006946 0.000000 -0.001860 0.000000
# 4 0.000000 0.000000 0.000000 0.020670 0.000000 -0.001455
# 5 -0.004816 0.000550 -0.001860 0.000000 0.025756 0.000000
# 6 0.000000 0.000000 0.000000 -0.001455 0.000000 0.039480
#
#
# Mechanical properties :
#
#
# Convention : Reuss Voigt Hill
#
# Bulk Modulus (GPa) = 67.35439 77.61763 72.48601
# Shear Modulus (GPa) = 37.77938 42.44172 40.11055
#
# Velocity S-wave (km/s) = 3.72222 3.94522 3.83534
# Velocity P-wave (km/s) = 6.57071 7.01555 6.79677
#
# Compressibility (1/GPa) = 0.01484684
#
# Stress axis : x y z
#
# Youngs Moduli (GPa) = 93.25093 95.23511 143.97557
#
# Poissons Ratio (x) = 0.28970 0.08850
# Poissons Ratio (y) = 0.28367 0.43262
# Poissons Ratio (z) = 0.05732 0.28616
#
# Static dielectric constant tensor:
#      x y z
#    x 2.223250 0.000000 -0.022760 
#    y 0.000000 2.344370 0.000000 
#    z -0.022760 0.000000 2.077470 
# 
# From -- ./inp_files/3936.got.cif
#   From: 2010.05.17/outbox.cif.g08.bks.cpg/sg9_2_cif.got.tgz:3936.got - 2010.06.03 20:04:27.
