data_PCOD9137036
_publ_section_title
;
Structure prediction by ZEFSAII (Michael W. Deem and Ramdas Pophale) SiO2 
 PCOD9137036
Probable space group: C C
;
_chemical_formula_sum "Si O2"
_cell_formula_units_Z 32
_cell_length_a 27.926033
_cell_length_b 5.327749
_cell_length_c 23.156718
_cell_angle_alpha 90.000000
_cell_angle_beta 158.550390
_cell_angle_gamma 90.000000
_cell_volume 1259.895587
_symmetry_space_group_name_H-M "C C"
_symmetry_group_IT_number 9
_symmetry_cell_setting 'monoclinic'
loop_
_space_group_symop_operation_xyz
x,y,z
x,-y,1/2+z
1/2+x,1/2+y,z
1/2+x,1/2-y,1/2+z
loop_
_atom_site_type_symbol
_atom_site_label
_atom_site_fract_x
_atom_site_fract_y
_atom_site_fract_z
Si Si1 0.400490 0.288792 0.783250
Si Si2 0.274503 0.216723 0.101383
Si Si3 0.989430 0.956974 0.272786
Si Si4 0.060333 0.408156 0.669671
Si Si5 0.007373 0.100874 0.165226
Si Si6 0.727746 0.931267 0.161695
Si Si7 0.114835 0.192650 0.614523
Si Si8 0.809649 0.324028 0.861505
O O1 0.482586 0.345520 0.818191
O O2 0.296109 0.540903 0.672281
O O3 0.316574 0.042237 0.677828
O O4 0.476406 0.304991 0.927517
O O5 0.365049 0.285048 0.149460
O O6 0.093119 0.302537 0.001071
O O7 0.124404 0.192190 0.917467
O O8 0.974288 0.097364 0.195210
O O9 0.076873 0.154964 0.724103
O O10 0.905417 0.442064 0.481881
O O11 0.120431 0.385329 0.673886
O O12 0.091973 0.656033 0.741830
O O13 0.873684 0.132286 0.978413
O O14 0.820334 0.780396 0.308742
O O15 0.707346 0.201445 0.167551
O O16 0.164253 0.936422 0.698686
#
# Coordination Sequence:
#
# PCOD9137036 Si02
#       8
#     4   4   4   4   4   4   4   4
#     4   8  21  37  70 103 152 186 258 307 397 445
#     4   8  20  39  72 103 146 190 257 306 389 450
#     4   9  19  45  71 101 150 201 256 316 380 450
#     4  10  26  43  68 103 144 191 252 301 385 444
#     4  10  23  48  66 100 144 199 251 311 371 462
#     4   9  21  39  63 103 150 185 245 314 386 456
#     4  12  20  38  69 107 147 196 244 322 385 466
#     4  10  22  37  69  96 153 184 253 295 391 441
#
# _framework density 25.398928999999999
#
# number of rings (size 3 to 8) (size 9 to 14) (size 15 to 20)
#    2.250    0.000    0.000    3.000    1.750    2.000 
#    6.750    1.250   11.000    0.000    0.000    0.000 
#    0.000    0.000    0.000    0.000    0.000    0.000 
#
# Total GULP energy -89155.452429 kJ/mol
# GULP energy per Si atom -5572.215777 kJ/mol
# Density = 2.534112 g / cm^3
# Si number density = 25.398929 Si / 1000 Ang^3
#
#
#
# Elastic Constant Matrix: (Units=GPa)
#
#
# Indices 1 2 3 4 5 6 
#
# 1 174.8440 67.3324 46.0394 0.0007 -8.5205 -0.0004
# 2 67.3324 154.0988 20.6740 0.0073 -7.0796 -0.0003
# 3 46.0394 20.6740 60.6068 0.0022 10.9211 -0.0004
# 4 0.0007 0.0073 0.0022 21.6280 -0.0004 4.6062
# 5 -8.5205 -7.0796 10.9211 -0.0004 29.5293 0.0000
# 6 -0.0004 -0.0003 -0.0004 4.6062 0.0000 45.5703
#
#
#
# Elastic Compliance Matrix: (Units=1/GPa)
#
#
# Indices 1 2 3 4 5 6 
#
# 1 0.008665 -0.002732 -0.006410 0.000001 0.004216 0.000000
# 2 -0.002732 0.007864 -0.000862 -0.000003 0.001416 0.000000
# 3 -0.006410 -0.000862 0.023607 -0.000002 -0.010787 0.000000
# 4 0.000001 -0.000003 -0.000002 0.047254 0.000001 -0.004776
# 5 0.004216 0.001416 -0.010787 0.000001 0.039410 0.000000
# 6 0.000000 0.000000 0.000000 -0.004776 0.000000 0.022427
#
#
# Mechanical properties :
#
#
# Convention : Reuss Voigt Hill
#
# Bulk Modulus (GPa) = 49.68408 73.07126 61.37767
# Shear Modulus (GPa) = 28.41824 36.37910 32.39867
#
# Velocity S-wave (km/s) = 3.34859 3.78869 3.57542
# Velocity P-wave (km/s) = 5.87832 6.92609 6.42361
#
# Compressibility (1/GPa) = 0.02012717
#
# Stress axis : x y z
#
# Youngs Moduli (GPa) = 115.40829 127.16256 42.36091
#
# Poissons Ratio (x) = 0.34746 0.27152
# Poissons Ratio (y) = 0.31535 0.03651
# Poissons Ratio (z) = 0.73974 0.10961
#
# Static dielectric constant tensor:
#      x y z
#    x 2.222760 0.000000 0.068540 
#    y 0.000000 2.376740 -0.000010 
#    z 0.068540 -0.000010 2.172280 
# 
# From -- ./inp_files/34482.got.cif
#   From: 2010.05.17/outbox.cif.g08.bks.cpg/sg9_18_cif.got.tgz:34482.got - 2010.06.03 20:04:27.
