data_PCOD9137507
_publ_section_title
;
Structure prediction by ZEFSAII (Michael W. Deem and Ramdas Pophale) SiO2 
 PCOD9137507
Probable space group: C C
;
_chemical_formula_sum "Si O2"
_cell_formula_units_Z 28
_cell_length_a 11.655223
_cell_length_b 7.618941
_cell_length_c 18.227967
_cell_angle_alpha 90.000000
_cell_angle_beta 131.728094
_cell_angle_gamma 90.000000
_cell_volume 1208.019105
_symmetry_space_group_name_H-M "C C"
_symmetry_group_IT_number 9
_symmetry_cell_setting 'monoclinic'
loop_
_space_group_symop_operation_xyz
x,y,z
x,-y,1/2+z
1/2+x,1/2+y,z
1/2+x,1/2-y,1/2+z
loop_
_atom_site_type_symbol
_atom_site_label
_atom_site_fract_x
_atom_site_fract_y
_atom_site_fract_z
Si Si1 0.228660 0.073406 0.010420
Si Si2 0.259896 0.973549 0.347813
Si Si3 0.027047 0.346349 0.358545
Si Si4 0.827033 0.797782 0.565506
Si Si5 0.416077 0.549582 0.832333
Si Si6 0.611047 0.842509 0.241701
Si Si7 0.931155 0.152544 0.682271
O O1 0.347002 0.205598 0.097274
O O2 0.240039 0.880466 0.051707
O O3 0.266715 0.058016 0.938824
O O4 0.049787 0.128943 0.940282
O O5 0.416017 0.930678 0.371505
O O6 0.115144 0.863725 0.253997
O O7 0.207462 0.172331 0.309116
O O8 0.207680 0.370406 0.454718
O O9 0.009080 0.404247 0.267038
O O10 0.984905 0.139613 0.340492
O O11 0.999027 0.717158 0.628073
O O12 0.859820 0.961079 0.632050
O O13 0.244096 0.520185 0.784698
O O14 0.401761 0.674133 0.755853
#
# Coordination Sequence:
#
# PCOD9137507 Si02
#       7
#     4   4   4   4   4   4   4
#     4  10  22  44  68 101 133 174 232 270 339 407
#     4  10  23  44  65  98 137 172 222 282 330 403
#     4  11  23  44  67  94 139 174 220 281 336 393
#     4  10  22  42  68  94 136 174 216 286 326 390
#     4  10  23  44  65  98 137 172 222 282 330 403
#     4  11  23  44  67  94 139 174 220 281 336 393
#     4  10  22  44  68 101 133 174 232 270 339 407
#
# _framework density 23.178439000000001
#
# number of rings (size 3 to 8) (size 9 to 14) (size 15 to 20)
#    0.000    1.714    5.714    0.000    4.000    5.714 
#    0.000    5.714    0.000    0.000    0.000    0.000 
#    0.000    0.000    0.000    0.000    0.000    0.000 
#
# Total GULP energy -78063.241918 kJ/mol
# GULP energy per Si atom -5575.945851 kJ/mol
# Density = 2.312568 g / cm^3
# Si number density = 23.178439 Si / 1000 Ang^3
#
#
#
# Elastic Constant Matrix: (Units=GPa)
#
#
# Indices 1 2 3 4 5 6 
#
# 1 78.9126 6.9896 23.5360 0.0000 18.6244 0.0000
# 2 6.9896 79.0621 33.9657 0.0000 -4.1276 0.0000
# 3 23.5360 33.9657 157.8860 0.0000 11.7389 0.0000
# 4 0.0000 0.0000 0.0000 39.0642 0.0000 7.5668
# 5 18.6244 -4.1276 11.7389 0.0000 20.4716 0.0000
# 6 0.0000 0.0000 0.0000 7.5668 0.0000 25.2963
#
#
#
# Elastic Compliance Matrix: (Units=1/GPa)
#
#
# Indices 1 2 3 4 5 6 
#
# 1 0.016658 -0.001835 -0.000976 0.000000 -0.014965 0.000000
# 2 -0.001835 0.014591 -0.003351 0.000000 0.006533 0.000000
# 3 -0.000976 -0.003351 0.007504 0.000000 -0.004091 0.000000
# 4 0.000000 0.000000 0.000000 0.027173 0.000000 -0.008128
# 5 -0.014965 0.006533 -0.004091 0.000000 0.066126 0.000000
# 6 0.000000 0.000000 0.000000 -0.008128 0.000000 0.041963
#
#
# Mechanical properties :
#
#
# Convention : Reuss Voigt Hill
#
# Bulk Modulus (GPa) = 37.83609 49.42701 43.63155
# Shear Modulus (GPa) = 25.62151 33.72439 29.67295
#
# Velocity S-wave (km/s) = 3.32837 3.81857 3.58186
# Velocity P-wave (km/s) = 5.57942 6.38849 5.99762
#
# Compressibility (1/GPa) = 0.02642980
#
# Stress axis : x y z
#
# Youngs Moduli (GPa) = 60.03218 68.53425 133.25784
#
# Poissons Ratio (x) = 0.12574 0.13003
# Poissons Ratio (y) = 0.11014 0.44657
# Poissons Ratio (z) = 0.05858 0.22967
#
# Static dielectric constant tensor:
#      x y z
#    x 1.914060 0.000000 0.016840 
#    y 0.000000 1.911400 0.000000 
#    z 0.016840 0.000000 1.917010 
# 
# From -- ./inp_files/29877.got.cif
#   From: 2010.05.17/outbox.cif.g08.bks.cpg/sg9_15_cif.got.tgz:29877.got - 2010.06.03 20:04:27.
