data_PCOD9137986
_publ_section_title
;
Structure prediction by ZEFSAII (Michael W. Deem and Ramdas Pophale) SiO2 
 PCOD9137986
Probable space group: C C
;
_chemical_formula_sum "Si O2"
_cell_formula_units_Z 24
_cell_length_a 24.666609
_cell_length_b 5.381961
_cell_length_c 18.264992
_cell_angle_alpha 90.000000
_cell_angle_beta 22.403092
_cell_angle_gamma 90.000000
_cell_volume 924.126724
_symmetry_space_group_name_H-M "C C"
_symmetry_group_IT_number 9
_symmetry_cell_setting 'monoclinic'
loop_
_space_group_symop_operation_xyz
x,y,z
x,-y,1/2+z
1/2+x,1/2+y,z
1/2+x,1/2-y,1/2+z
loop_
_atom_site_type_symbol
_atom_site_label
_atom_site_fract_x
_atom_site_fract_y
_atom_site_fract_z
Si Si1 0.849360 0.831123 0.176610
Si Si2 0.874879 0.028456 0.351731
Si Si3 0.858449 0.357921 0.503619
Si Si4 0.096368 0.866008 0.336535
Si Si5 0.371101 0.826365 0.210253
Si Si6 0.589024 0.776407 0.681363
O O1 0.839328 0.773005 0.104306
O O2 0.803512 0.591866 0.279229
O O3 0.784139 0.095804 0.282346
O O4 0.017637 0.902110 0.974356
O O5 0.756433 0.835015 0.471356
O O6 0.009405 0.881205 0.217890
O O7 0.805703 0.181416 0.504988
O O8 0.902187 0.226597 0.252632
O O9 0.763125 0.604891 0.631476
O O10 0.011151 0.456411 0.287131
O O11 0.015659 0.653018 0.481117
O O12 0.061654 0.854036 0.294060
#
# Coordination Sequence:
#
# PCOD9137986 Si02
#       6
#     4   4   4   4   4   4
#     4  10  22  46  70 106 146 198 253 316 376 466
#     4  12  28  46  77 115 157 208 254 336 395 468
#     4  12  23  43  77 109 150 198 268 312 392 465
#     4  10  23  44  75 104 143 204 256 317 377 469
#     4  10  25  47  70 109 154 197 258 317 395 452
#     4  12  25  48  75 113 158 205 265 320 395 480
#
# _framework density 25.970466999999999
#
# number of rings (size 3 to 8) (size 9 to 14) (size 15 to 20)
#    1.000    0.000    5.000    1.000    2.333    1.333 
#    3.000    0.000    0.000    0.000    0.000    0.000 
#    0.000    0.000    0.000    0.000    0.000    0.000 
#
# Total GULP energy -67019.358003 kJ/mol
# GULP energy per Si atom -5584.946500 kJ/mol
# Density = 2.591136 g / cm^3
# Si number density = 25.970467 Si / 1000 Ang^3
#
#
#
# Elastic Constant Matrix: (Units=GPa)
#
#
# Indices 1 2 3 4 5 6 
#
# 1 89.9199 30.5211 23.8960 0.0036 36.3889 -0.0117
# 2 30.5211 144.4836 10.7150 -0.0067 24.1758 -0.0165
# 3 23.8960 10.7150 74.6723 -0.0057 2.0438 -0.0024
# 4 0.0036 -0.0067 -0.0057 29.8767 0.0029 8.0432
# 5 36.3889 24.1758 2.0438 0.0029 42.8641 0.0010
# 6 -0.0117 -0.0165 -0.0024 8.0432 0.0010 43.7343
#
#
#
# Elastic Compliance Matrix: (Units=1/GPa)
#
#
# Indices 1 2 3 4 5 6 
#
# 1 0.019213 -0.001061 -0.005573 -0.000004 -0.015447 0.000005
# 2 -0.001061 0.007773 -0.000682 0.000001 -0.003451 0.000002
# 3 -0.005573 -0.000682 0.015153 0.000003 0.004393 -0.000002
# 4 -0.000004 0.000001 0.000003 0.035214 0.000000 -0.006476
# 5 -0.015447 -0.003451 0.004393 0.000000 0.038180 -0.000006
# 6 0.000005 0.000002 -0.000002 -0.006476 -0.000006 0.024056
#
#
# Mechanical properties :
#
#
# Convention : Reuss Voigt Hill
#
# Bulk Modulus (GPa) = 36.35291 48.81557 42.58424
# Shear Modulus (GPa) = 30.60144 39.55794 35.07969
#
# Velocity S-wave (km/s) = 3.43639 3.90704 3.67925
# Velocity P-wave (km/s) = 5.45648 6.26024 5.87213
#
# Compressibility (1/GPa) = 0.02750812
#
# Stress axis : x y z
#
# Youngs Moduli (GPa) = 52.04748 128.64571 65.99367
#
# Poissons Ratio (x) = 0.13645 0.36781
# Poissons Ratio (y) = 0.05521 0.04498
# Poissons Ratio (z) = 0.29009 0.08768
#
# Static dielectric constant tensor:
#      x y z
#    x 2.036510 0.000000 0.012760 
#    y 0.000000 2.146940 0.000010 
#    z 0.012760 0.000010 2.067710 
# 
# From -- ./inp_files/19527.got.cif
#   From: 2010.05.17/outbox.cif.g08.bks.cpg/sg9_10_cif.got.tgz:19527.got - 2010.06.03 20:04:27.
