data_PCOD9137140
_publ_section_title
;
Structure prediction by ZEFSAII (Michael W. Deem and Ramdas Pophale) SiO2 
 PCOD9137140
Probable space group: C C
;
_chemical_formula_sum "Si O2"
_cell_formula_units_Z 32
_cell_length_a 14.761428
_cell_length_b 13.836280
_cell_length_c 21.794042
_cell_angle_alpha 90.000000
_cell_angle_beta 158.903689
_cell_angle_gamma 90.000000
_cell_volume 1602.181364
_symmetry_space_group_name_H-M "C C"
_symmetry_group_IT_number 9
_symmetry_cell_setting 'monoclinic'
loop_
_space_group_symop_operation_xyz
x,y,z
x,-y,1/2+z
1/2+x,1/2+y,z
1/2+x,1/2-y,1/2+z
loop_
_atom_site_type_symbol
_atom_site_label
_atom_site_fract_x
_atom_site_fract_y
_atom_site_fract_z
Si Si1 0.711480 0.468345 0.082040
Si Si2 0.561188 0.204844 0.770309
Si Si3 0.097160 0.683532 0.034219
Si Si4 0.239083 0.355674 0.761292
Si Si5 0.374609 0.993403 0.319140
Si Si6 0.938350 0.335324 0.687863
Si Si7 0.100570 0.677203 0.417278
Si Si8 0.605636 0.681790 0.173035
O O1 0.737744 0.450378 0.172160
O O2 0.765396 0.580748 0.106624
O O3 0.913442 0.397356 0.177493
O O4 0.441329 0.441055 0.885137
O O5 0.369825 0.278827 0.683366
O O6 0.620396 0.251658 0.742060
O O7 0.823663 0.189419 0.970528
O O8 0.901179 0.765257 0.889051
O O9 0.998592 0.587140 0.939085
O O10 0.117089 0.667991 0.119319
O O11 0.047358 0.377556 0.694245
O O12 0.591930 0.064932 0.430448
O O13 0.186968 0.069236 0.234233
O O14 0.135788 0.313939 0.866858
O O15 0.794216 0.238805 0.578283
O O16 0.818288 0.712901 0.257698
#
# Coordination Sequence:
#
# PCOD9137140 Si02
#       8
#     4   4   4   4   4   4   4   4
#     4  10  23  41  64  96 128 170 223 273 317 412
#     4  11  21  41  68  96 128 176 217 267 341 387
#     4  11  22  45  62  97 136 163 223 271 322 402
#     4  11  24  40  67  91 128 174 210 272 325 389
#     4   9  22  41  62  91 132 169 212 278 323 384
#     4  11  22  42  62  90 127 174 213 264 335 384
#     4   9  22  39  62  92 130 164 219 271 317 397
#     4  10  22  39  67  97 127 172 215 274 328 389
#
# _framework density 19.972771000000002
#
# number of rings (size 3 to 8) (size 9 to 14) (size 15 to 20)
#    0.750    1.000    0.000    5.250    1.750    1.000 
#    9.000    0.000    0.000    0.000    0.000    0.000 
#    0.000    0.000    0.000    0.000    0.000    0.000 
#
# Total GULP energy -89267.403444 kJ/mol
# GULP energy per Si atom -5579.212715 kJ/mol
# Density = 1.992731 g / cm^3
# Si number density = 19.972771 Si / 1000 Ang^3
#
#
#
# Elastic Constant Matrix: (Units=GPa)
#
#
# Indices 1 2 3 4 5 6 
#
# 1 73.1490 5.4611 2.5889 0.0655 -28.7290 0.0293
# 2 5.4611 51.9145 5.0612 0.0626 -16.6007 -0.0402
# 3 2.5889 5.0612 41.0233 0.0768 -13.7405 -0.0131
# 4 0.0655 0.0626 0.0768 36.0162 0.0168 -13.0380
# 5 -28.7290 -16.6007 -13.7405 0.0168 28.0103 0.0412
# 6 0.0293 -0.0402 -0.0131 -13.0380 0.0412 32.7596
#
#
#
# Elastic Compliance Matrix: (Units=1/GPa)
#
#
# Indices 1 2 3 4 5 6 
#
# 1 0.027760 0.008368 0.010068 -0.000147 0.038371 -0.000117
# 2 0.008368 0.026447 0.005186 -0.000102 0.026801 -0.000047
# 3 0.010068 0.005186 0.033014 -0.000142 0.029596 -0.000083
# 4 -0.000147 -0.000102 -0.000142 0.032440 -0.000319 0.012911
# 5 0.038371 0.026801 0.029596 -0.000319 0.105460 -0.000249
# 6 -0.000117 -0.000047 -0.000083 0.012911 -0.000249 0.035664
#
#
# Mechanical properties :
#
#
# Convention : Reuss Voigt Hill
#
# Bulk Modulus (GPa) = 7.43680 21.36767 14.40223
# Shear Modulus (GPa) = 19.35269 29.55558 24.45413
#
# Velocity S-wave (km/s) = 3.11618 3.85098 3.50290
# Velocity P-wave (km/s) = 4.08399 5.52223 4.85665
#
# Compressibility (1/GPa) = 0.13446637
#
# Stress axis : x y z
#
# Youngs Moduli (GPa) = 36.02323 37.81155 30.28986
#
# Poissons Ratio (x) = -0.31642 -0.30496
# Poissons Ratio (y) = -0.30145 -0.15709
# Poissons Ratio (z) = -0.36269 -0.19610
#
# Static dielectric constant tensor:
#      x y z
#    x 1.739130 -0.000010 0.026640 
#    y -0.000010 1.694760 -0.000010 
#    z 0.026640 -0.000010 1.688630 
# 
# From -- ./inp_files/33826.got.cif
#   From: 2010.05.17/outbox.cif.g08.bks.cpg/sg9_17_cif.got.tgz:33826.got - 2010.06.03 20:04:27.
