data_PCOD9137654
_publ_section_title
;
Structure prediction by ZEFSAII (Michael W. Deem and Ramdas Pophale) SiO2 
 PCOD9137654
Probable space group: C C
;
_chemical_formula_sum "Si O2"
_cell_formula_units_Z 32
_cell_length_a 27.448729
_cell_length_b 5.287154
_cell_length_c 15.292467
_cell_angle_alpha 90.000000
_cell_angle_beta 38.882670
_cell_angle_gamma 90.000000
_cell_volume 1393.134354
_symmetry_space_group_name_H-M "C C"
_symmetry_group_IT_number 9
_symmetry_cell_setting 'monoclinic'
loop_
_space_group_symop_operation_xyz
x,y,z
x,-y,1/2+z
1/2+x,1/2+y,z
1/2+x,1/2-y,1/2+z
loop_
_atom_site_type_symbol
_atom_site_label
_atom_site_fract_x
_atom_site_fract_y
_atom_site_fract_z
Si Si1 0.205570 0.072316 0.609130
Si Si2 0.583418 0.265764 0.962438
Si Si3 0.042608 0.877389 0.820207
Si Si4 0.752875 0.601056 0.212809
Si Si5 0.797095 0.951723 0.941567
Si Si6 0.088828 0.705737 0.566908
Si Si7 0.773168 0.788284 0.801476
Si Si8 0.373145 0.467435 0.009667
O O1 0.219799 0.111064 0.692487
O O2 0.245490 0.299651 0.504583
O O3 0.115544 0.065500 0.714262
O O4 0.243707 0.793571 0.541586
O O5 0.549252 0.272215 0.910964
O O6 0.676721 0.224703 0.818785
O O7 0.576627 0.529639 0.028503
O O8 0.554905 0.028377 0.058987
O O9 0.055501 0.715894 0.712546
O O10 0.958890 0.996689 0.923380
O O11 0.768306 0.508877 0.288718
O O12 0.837137 0.684894 0.062789
O O13 0.859477 0.026560 0.927387
O O14 0.826428 0.870222 0.806802
O O15 0.182109 0.658231 0.444914
O O16 0.814341 0.902254 0.659161
#
# Coordination Sequence:
#
# PCOD9137654 Si02
#       8
#     4   4   4   4   4   4   4   4
#     4  10  22  43  68  99 131 181 237 279 347 423
#     4  10  24  45  72 102 137 187 246 290 348 441
#     4  11  26  45  71 107 149 189 233 311 372 410
#     4   9  20  41  67  94 132 179 232 284 337 421
#     4  11  24  42  72  98 132 186 238 282 341 439
#     4  11  24  44  74 104 136 187 249 289 350 442
#     4  11  22  40  72  97 130 184 238 280 346 424
#     4  11  24  46  64 105 145 179 231 299 359 410
#
# _framework density 22.969788999999999
#
# number of rings (size 3 to 8) (size 9 to 14) (size 15 to 20)
#    0.000    1.500    3.750    0.000    3.500    2.000 
#    9.000    0.000    0.000    0.000    0.000    0.000 
#    0.000    0.000    0.000    0.000    0.000    0.000 
#
# Total GULP energy -89093.270075 kJ/mol
# GULP energy per Si atom -5568.329380 kJ/mol
# Density = 2.291751 g / cm^3
# Si number density = 22.969789 Si / 1000 Ang^3
#
#
#
# Elastic Constant Matrix: (Units=GPa)
#
#
# Indices 1 2 3 4 5 6 
#
# 1 167.2276 46.8514 57.7416 0.0064 22.7416 0.0332
# 2 46.8514 73.5895 19.8947 0.0428 14.1311 0.1642
# 3 57.7416 19.8947 39.5051 0.0278 17.2461 0.2026
# 4 0.0064 0.0428 0.0278 11.2829 -0.0029 2.3901
# 5 22.7416 14.1311 17.2461 -0.0029 52.1230 -0.0843
# 6 0.0332 0.1642 0.2026 2.3901 -0.0843 15.7214
#
#
#
# Elastic Compliance Matrix: (Units=1/GPa)
#
#
# Indices 1 2 3 4 5 6 
#
# 1 0.012904 -0.003708 -0.017504 -0.000001 0.001167 0.000243
# 2 -0.003708 0.016962 -0.002128 -0.000026 -0.002277 -0.000150
# 3 -0.017504 -0.002128 0.056557 0.000031 -0.010500 -0.000730
# 4 -0.000001 -0.000026 0.000031 0.091579 -0.000020 -0.013923
# 5 0.001167 -0.002277 -0.010500 -0.000020 0.022768 0.000282
# 6 0.000243 -0.000150 -0.000730 -0.013923 0.000282 0.065736
#
#
# Mechanical properties :
#
#
# Convention : Reuss Voigt Hill
#
# Bulk Modulus (GPa) = 25.16141 58.81085 41.98613
# Shear Modulus (GPa) = 15.31703 26.21442 20.76572
#
# Velocity S-wave (km/s) = 2.58511 3.38191 3.01000
# Velocity P-wave (km/s) = 4.45963 6.39601 5.51350
#
# Compressibility (1/GPa) = 0.03974340
#
# Stress axis : x y z
#
# Youngs Moduli (GPa) = 77.49614 58.95385 17.68130
#
# Poissons Ratio (x) = 0.21859 0.30950
# Poissons Ratio (y) = 0.28734 0.03762
# Poissons Ratio (z) = 1.35650 0.12545
#
# Static dielectric constant tensor:
#      x y z
#    x 1.910310 0.000070 0.117720 
#    y 0.000070 2.180300 -0.000030 
#    z 0.117720 -0.000030 1.934620 
# 
# From -- ./inp_files/27885.got.cif
#   From: 2010.05.17/outbox.cif.g08.bks.cpg/sg9_14_cif.got.tgz:27885.got - 2010.06.03 20:04:27.
