data_PCOD9137604
_publ_section_title
;
Structure prediction by ZEFSAII (Michael W. Deem and Ramdas Pophale) SiO2 
 PCOD9137604
Probable space group: C C
;
_chemical_formula_sum "Si O2"
_cell_formula_units_Z 32
_cell_length_a 13.733391
_cell_length_b 13.886267
_cell_length_c 9.603727
_cell_angle_alpha 90.000000
_cell_angle_beta 134.511385
_cell_angle_gamma 90.000000
_cell_volume 1306.051601
_symmetry_space_group_name_H-M "C C"
_symmetry_group_IT_number 9
_symmetry_cell_setting 'monoclinic'
loop_
_space_group_symop_operation_xyz
x,y,z
x,-y,1/2+z
1/2+x,1/2+y,z
1/2+x,1/2-y,1/2+z
loop_
_atom_site_type_symbol
_atom_site_label
_atom_site_fract_x
_atom_site_fract_y
_atom_site_fract_z
Si Si1 0.251770 0.587685 0.607680
Si Si2 0.293979 0.671959 0.103859
Si Si3 0.079724 0.193156 0.470485
Si Si4 0.331558 0.222855 0.363865
Si Si5 0.647384 0.438286 0.775048
Si Si6 0.515188 0.198338 0.308145
Si Si7 0.724735 0.353483 0.394632
Si Si8 0.354519 0.496441 0.963391
O O1 0.276731 0.683275 0.726298
O O2 0.266870 0.501894 0.735425
O O3 0.353985 0.587285 0.577767
O O4 0.105988 0.602019 0.390530
O O5 0.418550 0.680066 0.339333
O O6 0.144719 0.701939 0.006843
O O7 0.339938 0.751938 0.034270
O O8 0.296468 0.577685 0.010819
O O9 0.099215 0.130447 0.351538
O O10 0.180242 0.154907 0.689565
O O11 0.239607 0.126631 0.266236
O O12 0.473497 0.207234 0.428484
O O13 0.716623 0.532119 0.911272
O O14 0.505729 0.474721 0.565949
O O15 0.611461 0.285555 0.354970
O O16 0.374293 0.184447 0.084238
#
# Coordination Sequence:
#
# PCOD9137604 Si02
#       8
#     4   4   4   4   4   4   4   4
#     4  11  25  44  72 109 149 197 256 314 376 451
#     4   9  21  40  69  97 130 185 236 302 372 439
#     4  10  22  43  65 100 135 182 241 309 367 450
#     4  10  23  44  73 100 142 191 253 303 373 453
#     4  10  25  43  75 102 141 198 251 310 375 466
#     4  12  27  44  72 104 149 200 244 313 384 443
#     4  12  27  44  71 105 148 196 251 311 389 449
#     4  10  24  42  73 109 144 191 252 312 374 453
#
# _framework density 24.501329999999999
#
# number of rings (size 3 to 8) (size 9 to 14) (size 15 to 20)
#    0.000    1.500    1.250    1.500   14.000    2.000 
#    2.250    0.000    0.000    0.000    0.000    0.000 
#    0.000    0.000    0.000    0.000    0.000    0.000 
#
# Total GULP energy -89353.125136 kJ/mol
# GULP energy per Si atom -5584.570321 kJ/mol
# Density = 2.444556 g / cm^3
# Si number density = 24.501330 Si / 1000 Ang^3
#
#
#
# Elastic Constant Matrix: (Units=GPa)
#
#
# Indices 1 2 3 4 5 6 
#
# 1 71.7220 16.6356 32.5113 0.0000 5.6544 0.0000
# 2 16.6356 83.5440 35.5413 0.0000 12.7265 0.0000
# 3 32.5113 35.5413 118.2260 0.0000 7.6876 0.0000
# 4 0.0000 0.0000 0.0000 38.8383 0.0000 5.1514
# 5 5.6544 12.7265 7.6876 0.0000 33.0254 0.0000
# 6 0.0000 0.0000 0.0000 5.1514 0.0000 37.7477
#
#
#
# Elastic Compliance Matrix: (Units=1/GPa)
#
#
# Indices 1 2 3 4 5 6 
#
# 1 0.016149 -0.001331 -0.003954 0.000000 -0.001332 0.000000
# 2 -0.001331 0.014493 -0.003699 0.000000 -0.004496 0.000000
# 3 -0.003954 -0.003699 0.010683 0.000000 -0.000384 0.000000
# 4 0.000000 0.000000 0.000000 0.026222 0.000000 -0.003579
# 5 -0.001332 -0.004496 -0.000384 0.000000 0.032330 0.000000
# 6 0.000000 0.000000 0.000000 -0.003579 0.000000 0.026980
#
#
# Mechanical properties :
#
#
# Convention : Reuss Voigt Hill
#
# Bulk Modulus (GPa) = 42.81258 49.20763 46.01011
# Shear Modulus (GPa) = 32.76335 34.50920 33.63628
#
# Velocity S-wave (km/s) = 3.66075 3.75702 3.70920
# Velocity P-wave (km/s) = 5.94808 6.24080 6.09619
#
# Compressibility (1/GPa) = 0.02335762
#
# Stress axis : x y z
#
# Youngs Moduli (GPa) = 61.92430 68.99840 93.60967
#
# Poissons Ratio (x) = 0.09181 0.37015
# Poissons Ratio (y) = 0.08239 0.34623
# Poissons Ratio (z) = 0.24486 0.25520
#
# Static dielectric constant tensor:
#      x y z
#    x 1.984840 0.000000 0.009820 
#    y 0.000000 2.144170 0.000000 
#    z 0.009820 0.000000 2.007510 
# 
# From -- ./inp_files/18459.got.cif
#   From: 2010.05.17/outbox.cif.g08.bks.cpg/sg9_10_cif.got.tgz:18459.got - 2010.06.03 20:04:27.
