data_PCOD9137542
_publ_section_title
;
Structure prediction by ZEFSAII (Michael W. Deem and Ramdas Pophale) SiO2 
 PCOD9137542
Probable space group: C C
;
_chemical_formula_sum "Si O2"
_cell_formula_units_Z 28
_cell_length_a 14.770042
_cell_length_b 7.196086
_cell_length_c 14.828173
_cell_angle_alpha 90.000000
_cell_angle_beta 139.432041
_cell_angle_gamma 90.000000
_cell_volume 1024.973271
_symmetry_space_group_name_H-M "C C"
_symmetry_group_IT_number 9
_symmetry_cell_setting 'monoclinic'
loop_
_space_group_symop_operation_xyz
x,y,z
x,-y,1/2+z
1/2+x,1/2+y,z
1/2+x,1/2-y,1/2+z
loop_
_atom_site_type_symbol
_atom_site_label
_atom_site_fract_x
_atom_site_fract_y
_atom_site_fract_z
Si Si1 0.807950 0.366548 0.294380
Si Si2 0.521904 0.993311 0.178288
Si Si3 0.333068 0.657498 0.664261
Si Si4 0.526248 0.581742 0.653409
Si Si5 0.323516 0.433519 0.352877
Si Si6 0.085316 0.412005 0.425161
Si Si7 0.738517 0.556744 0.534297
O O1 0.690325 0.454208 0.268797
O O2 0.816807 0.150764 0.322598
O O3 0.757014 0.392272 0.153680
O O4 0.964402 0.436932 0.406003
O O5 0.511306 0.194539 0.122214
O O6 0.662203 0.889817 0.254049
O O7 0.549286 0.022050 0.306570
O O8 0.370853 0.897113 0.070021
O O9 0.462886 0.585855 0.704717
O O10 0.365067 0.678325 0.794433
O O11 0.222793 0.494283 0.570641
O O12 0.255947 0.832904 0.557286
O O13 0.436218 0.451110 0.518918
O O14 0.112681 0.197550 0.417370
#
# Coordination Sequence:
#
# PCOD9137542 Si02
#       7
#     4   4   4   4   4   4   4
#     4  10  22  42  70 108 146 196 249 305 383 448
#     4   9  22  43  73 111 149 194 258 312 377 462
#     4  11  24  45  76 108 146 202 255 307 384 449
#     4  10  22  46  73 108 151 201 247 309 390 443
#     4  11  21  43  77 104 151 200 238 320 370 446
#     4  11  21  47  75 104 152 191 248 324 373 452
#     4  10  22  46  70 109 147 190 253 303 383 450
#
# _framework density 27.317786999999999
#
# number of rings (size 3 to 8) (size 9 to 14) (size 15 to 20)
#    0.000    1.714    2.857    0.857    2.000    0.000 
#   18.000    4.286    0.000    0.000    0.000    0.000 
#    0.000    0.000    0.000    0.000    0.000    0.000 
#
# Total GULP energy -78270.655585 kJ/mol
# GULP energy per Si atom -5590.761113 kJ/mol
# Density = 2.725561 g / cm^3
# Si number density = 27.317787 Si / 1000 Ang^3
#
#
#
# Elastic Constant Matrix: (Units=GPa)
#
#
# Indices 1 2 3 4 5 6 
#
# 1 256.3131 47.8357 55.4489 0.0000 29.4417 0.0000
# 2 47.8357 136.5933 53.3864 0.0000 10.3320 0.0000
# 3 55.4489 53.3864 88.7390 0.0000 -12.4833 0.0000
# 4 0.0000 0.0000 0.0000 48.6692 0.0000 -10.0568
# 5 29.4417 10.3320 -12.4833 0.0000 37.7657 0.0000
# 6 0.0000 0.0000 0.0000 -10.0568 0.0000 25.2296
#
#
#
# Elastic Compliance Matrix: (Units=1/GPa)
#
#
# Indices 1 2 3 4 5 6 
#
# 1 0.005465 0.000227 -0.004362 0.000000 -0.005765 0.000000
# 2 0.000227 0.010466 -0.007201 0.000000 -0.005421 0.000000
# 3 -0.004362 -0.007201 0.020013 0.000000 0.011986 0.000000
# 4 0.000000 0.000000 0.000000 0.022391 0.000000 0.008925
# 5 -0.005765 -0.005421 0.011986 0.000000 0.036418 0.000000
# 6 0.000000 0.000000 0.000000 0.008925 0.000000 0.043194
#
#
# Mechanical properties :
#
#
# Convention : Reuss Voigt Hill
#
# Bulk Modulus (GPa) = 75.34790 88.33192 81.83991
# Shear Modulus (GPa) = 30.29512 43.99786 37.14649
#
# Velocity S-wave (km/s) = 3.33376 4.01757 3.69154
# Velocity P-wave (km/s) = 6.51617 7.34346 6.94215
#
# Compressibility (1/GPa) = 0.01327177
#
# Stress axis : x y z
#
# Youngs Moduli (GPa) = 182.98410 95.54863 49.96717
#
# Poissons Ratio (x) = -0.02171 0.21798
# Poissons Ratio (y) = -0.04157 0.35981
# Poissons Ratio (z) = 0.79825 0.68804
#
# Static dielectric constant tensor:
#      x y z
#    x 2.138760 0.000000 0.019410 
#    y 0.000000 2.097970 0.000000 
#    z 0.019410 0.000000 2.201420 
# 
# From -- ./inp_files/25714.got.cif
#   From: 2010.05.17/outbox.cif.g08.bks.cpg/sg9_13_cif.got.tgz:25714.got - 2010.06.03 20:04:27.
