data_PCOD9137251
_publ_section_title
;
Structure prediction by ZEFSAII (Michael W. Deem and Ramdas Pophale) SiO2 
 PCOD9137251
Probable space group: C C
;
_chemical_formula_sum "Si O2"
_cell_formula_units_Z 28
_cell_length_a 24.815352
_cell_length_b 8.470067
_cell_length_c 7.890537
_cell_angle_alpha 90.000000
_cell_angle_beta 139.250538
_cell_angle_gamma 90.000000
_cell_volume 1082.586190
_symmetry_space_group_name_H-M "C C"
_symmetry_group_IT_number 9
_symmetry_cell_setting 'monoclinic'
loop_
_space_group_symop_operation_xyz
x,y,z
x,-y,1/2+z
1/2+x,1/2+y,z
1/2+x,1/2-y,1/2+z
loop_
_atom_site_type_symbol
_atom_site_label
_atom_site_fract_x
_atom_site_fract_y
_atom_site_fract_z
Si Si1 0.441610 0.644769 0.745960
Si Si2 0.513053 0.338247 0.070059
Si Si3 0.186318 0.252147 0.893558
Si Si4 0.774872 0.741123 0.668902
Si Si5 0.476707 0.015870 0.372603
Si Si6 0.303409 0.937769 0.879588
Si Si7 0.158254 0.551459 0.668469
O O1 0.512336 0.641440 0.769920
O O2 0.353705 0.669098 0.439961
O O3 0.460475 0.803822 0.901846
O O4 0.451519 0.475917 0.858883
O O5 0.602972 0.352082 0.195427
O O6 0.483859 0.157479 0.973875
O O7 0.269438 0.169615 0.149126
O O8 0.168359 0.361853 0.016411
O O9 0.195403 0.375885 0.764682
O O10 0.799473 0.647671 0.550912
O O11 0.703580 0.848982 0.421568
O O12 0.750233 0.598198 0.736958
O O13 0.396059 0.992106 0.065992
O O14 0.562799 0.028079 0.481503
#
# Coordination Sequence:
#
# PCOD9137251 Si02
#       7
#     4   4   4   4   4   4   4
#     4  11  24  43  67  99 136 181 235 284 347 415
#     4  11  24  43  67  99 136 181 235 284 347 415
#     4  10  23  42  65  99 135 181 224 294 343 421
#     4  10  23  42  65  99 135 181 224 294 343 421
#     4  10  22  44  66  94 138 186 224 284 340 420
#     4  10  22  40  67  94 137 175 227 282 351 408
#     4  10  22  40  67  94 137 175 227 282 351 408
#
# _framework density 25.863994000000002
#
# number of rings (size 3 to 8) (size 9 to 14) (size 15 to 20)
#    0.000    1.714    2.857    0.000    4.000    2.286 
#    5.143    0.000    0.000    0.000    0.000    0.000 
#    0.000    0.000    0.000    0.000    0.000    0.000 
#
# Total GULP energy -78242.101452 kJ/mol
# GULP energy per Si atom -5588.721532 kJ/mol
# Density = 2.580513 g / cm^3
# Si number density = 25.863994 Si / 1000 Ang^3
#
#
#
# Elastic Constant Matrix: (Units=GPa)
#
#
# Indices 1 2 3 4 5 6 
#
# 1 45.0190 27.9088 5.5264 0.0000 1.2804 0.0000
# 2 27.9088 181.5056 79.5555 0.0000 -3.1528 0.0000
# 3 5.5264 79.5555 105.3209 0.0000 8.8552 0.0000
# 4 0.0000 0.0000 0.0000 71.5332 0.0000 -3.5703
# 5 1.2804 -3.1528 8.8552 0.0000 45.6075 0.0000
# 6 0.0000 0.0000 0.0000 -3.5703 0.0000 39.4642
#
#
#
# Elastic Compliance Matrix: (Units=1/GPa)
#
#
# Indices 1 2 3 4 5 6 
#
# 1 0.025051 -0.005023 0.002611 0.000000 -0.001557 0.000000
# 2 -0.005023 0.009393 -0.007012 0.000000 0.002152 0.000000
# 3 0.002611 -0.007012 0.014946 0.000000 -0.003460 0.000000
# 4 0.000000 0.000000 0.000000 0.014043 0.000000 0.001270
# 5 -0.001557 0.002152 -0.003460 0.000000 0.022791 0.000000
# 6 0.000000 0.000000 0.000000 0.001270 0.000000 0.025454
#
#
# Mechanical properties :
#
#
# Convention : Reuss Voigt Hill
#
# Bulk Modulus (GPa) = 32.74431 61.98075 47.36253
# Shear Modulus (GPa) = 35.53503 45.91130 40.72317
#
# Velocity S-wave (km/s) = 3.71066 4.21777 3.97232
# Velocity P-wave (km/s) = 5.57193 6.90909 6.27622
#
# Compressibility (1/GPa) = 0.03053965
#
# Stress axis : x y z
#
# Youngs Moduli (GPa) = 39.91900 106.46435 66.90955
#
# Poissons Ratio (x) = 0.53480 -0.17470
# Poissons Ratio (y) = 0.20053 0.46919
# Poissons Ratio (z) = -0.10423 0.74656
#
# Static dielectric constant tensor:
#      x y z
#    x 2.098800 0.000000 -0.014400 
#    y 0.000000 2.110390 0.000000 
#    z -0.014400 0.000000 1.997790 
# 
# From -- ./inp_files/12429.got.cif
#   From: 2010.05.17/outbox.cif.g08.bks.cpg/sg9_7_cif.got.tgz:12429.got - 2010.06.03 20:04:27.
