data_PCOD9137862
_publ_section_title
;
Structure prediction by ZEFSAII (Michael W. Deem and Ramdas Pophale) SiO2 
 PCOD9137862
Probable space group: C C
;
_chemical_formula_sum "Si O2"
_cell_formula_units_Z 32
_cell_length_a 8.065187
_cell_length_b 11.686558
_cell_length_c 24.037173
_cell_angle_alpha 90.000000
_cell_angle_beta 36.630142
_cell_angle_gamma 90.000000
_cell_volume 1351.767529
_symmetry_space_group_name_H-M "C C"
_symmetry_group_IT_number 9
_symmetry_cell_setting 'monoclinic'
loop_
_space_group_symop_operation_xyz
x,y,z
x,-y,1/2+z
1/2+x,1/2+y,z
1/2+x,1/2-y,1/2+z
loop_
_atom_site_type_symbol
_atom_site_label
_atom_site_fract_x
_atom_site_fract_y
_atom_site_fract_z
Si Si1 0.606240 0.640249 0.317640
Si Si2 0.098461 0.829629 0.019578
Si Si3 0.465455 0.478665 0.148138
Si Si4 0.329857 0.086515 0.801687
Si Si5 0.376909 0.371423 0.498938
Si Si6 0.177086 0.239118 0.659361
Si Si7 0.738454 0.875701 0.015069
Si Si8 0.549176 0.304941 0.703442
O O1 0.658502 0.507886 0.315653
O O2 0.335083 0.665769 0.428163
O O3 0.564183 0.654368 0.263468
O O4 0.889256 0.707363 0.260175
O O5 0.118459 0.948461 0.048511
O O6 0.004258 0.851911 0.982649
O O7 0.837719 0.758843 0.114588
O O8 0.331993 0.738469 0.970887
O O9 0.574583 0.376424 0.157201
O O10 0.504877 0.596377 0.170299
O O11 0.141081 0.459322 0.224424
O O12 0.329664 0.202470 0.766490
O O13 0.194518 0.098766 0.899091
O O14 0.282932 0.331616 0.585013
O O15 0.202808 0.486186 0.529060
O O16 0.466290 0.193274 0.608251
#
# Coordination Sequence:
#
# PCOD9137862 Si02
#       8
#     4   4   4   4   4   4   4   4
#     4  11  24  47  67 105 142 176 240 291 347 421
#     4  10  23  43  64  99 133 181 235 282 344 425
#     4  10  23  41  68 100 133 181 231 279 350 412
#     4  10  23  41  67 103 138 180 230 290 347 414
#     4  10  22  45  65  95 142 178 229 294 340 416
#     4  11  23  43  74  95 139 185 223 294 352 404
#     4  11  26  44  69 101 141 183 237 286 357 416
#     4  11  22  44  68  96 140 176 233 288 343 418
#
# _framework density 23.672709999999999
#
# number of rings (size 3 to 8) (size 9 to 14) (size 15 to 20)
#    0.000    1.500    3.750    1.500    5.250    2.000 
#    6.750    0.000    0.000    0.000    0.000    0.000 
#    0.000    0.000    0.000    0.000    0.000    0.000 
#
# Total GULP energy -89312.203507 kJ/mol
# GULP energy per Si atom -5582.012719 kJ/mol
# Density = 2.361883 g / cm^3
# Si number density = 23.672710 Si / 1000 Ang^3
#
#
#
# Elastic Constant Matrix: (Units=GPa)
#
#
# Indices 1 2 3 4 5 6 
#
# 1 58.1971 28.6017 5.3603 -0.0095 9.9847 0.0076
# 2 28.6017 134.5460 26.3536 -0.0034 9.0813 0.0016
# 3 5.3603 26.3536 78.5030 -0.0106 5.8785 0.0068
# 4 -0.0095 -0.0034 -0.0106 26.2566 0.0090 8.5531
# 5 9.9847 9.0813 5.8785 0.0090 28.8424 -0.0061
# 6 0.0076 0.0016 0.0068 8.5531 -0.0061 44.7222
#
#
#
# Elastic Compliance Matrix: (Units=1/GPa)
#
#
# Indices 1 2 3 4 5 6 
#
# 1 0.020084 -0.003955 0.000390 0.000011 -0.005787 -0.000006
# 2 -0.003955 0.008849 -0.002635 -0.000001 -0.000880 0.000001
# 3 0.000390 -0.002635 0.013754 0.000007 -0.002109 -0.000004
# 4 0.000011 -0.000001 0.000007 0.040616 -0.000019 -0.007768
# 5 -0.005787 -0.000880 -0.002109 -0.000019 0.037381 0.000010
# 6 -0.000006 0.000001 -0.000004 -0.007768 0.000010 0.023846
#
#
# Mechanical properties :
#
#
# Convention : Reuss Voigt Hill
#
# Bulk Modulus (GPa) = 33.01804 43.54193 38.27998
# Shear Modulus (GPa) = 29.93567 34.02629 31.98098
#
# Velocity S-wave (km/s) = 3.55993 3.79537 3.67953
# Velocity P-wave (km/s) = 5.55657 6.13512 5.85300
#
# Compressibility (1/GPa) = 0.03028648
#
# Stress axis : x y z
#
# Youngs Moduli (GPa) = 49.79165 113.01224 72.70566
#
# Poissons Ratio (x) = 0.44698 -0.02834
# Poissons Ratio (y) = 0.19693 0.19155
# Poissons Ratio (z) = -0.01940 0.29773
#
# Static dielectric constant tensor:
#      x y z
#    x 1.975840 0.000000 0.013100 
#    y 0.000000 1.924800 0.000000 
#    z 0.013100 0.000000 1.932100 
# 
# From -- ./inp_files/35014.got.cif
#   From: 2010.05.17/outbox.cif.g08.bks.cpg/sg9_18_cif.got.tgz:35014.got - 2010.06.03 20:04:27.
