data_PCOD9137970
_publ_section_title
;
Structure prediction by ZEFSAII (Michael W. Deem and Ramdas Pophale) SiO2 
 PCOD9137970
Probable space group: C C
;
_chemical_formula_sum "Si O2"
_cell_formula_units_Z 28
_cell_length_a 16.489839
_cell_length_b 7.168867
_cell_length_c 10.683479
_cell_angle_alpha 90.000000
_cell_angle_beta 70.753636
_cell_angle_gamma 90.000000
_cell_volume 1192.345755
_symmetry_space_group_name_H-M "C C"
_symmetry_group_IT_number 9
_symmetry_cell_setting 'monoclinic'
loop_
_space_group_symop_operation_xyz
x,y,z
x,-y,1/2+z
1/2+x,1/2+y,z
1/2+x,1/2-y,1/2+z
loop_
_atom_site_type_symbol
_atom_site_label
_atom_site_fract_x
_atom_site_fract_y
_atom_site_fract_z
Si Si1 0.527120 0.526350 0.405980
Si Si2 0.824674 0.610887 0.500249
Si Si3 0.854293 0.035659 0.855095
Si Si4 0.451502 0.270462 0.632864
Si Si5 0.228622 0.756564 0.484208
Si Si6 0.659281 0.273707 0.244410
Si Si7 0.588895 0.141986 0.751732
O O1 0.428621 0.526295 0.413112
O O2 0.522924 0.398892 0.529753
O O3 0.578569 0.411960 0.273292
O O4 0.568316 0.730843 0.383788
O O5 0.804918 0.399218 0.477241
O O6 0.736547 0.685665 0.609910
O O7 0.662503 0.240319 0.631162
O O8 0.846382 0.742215 0.369832
O O9 0.882444 0.921663 0.718684
O O10 0.902119 0.358237 0.058629
O O11 0.765478 0.949028 0.943963
O O12 0.501523 0.154767 0.713537
O O13 0.193774 0.816719 0.366604
O O14 0.621902 0.064855 0.260751
#
# Coordination Sequence:
#
# PCOD9137970 Si02
#       7
#     4   4   4   4   4   4   4
#     4  10  23  44  68 101 140 174 227 281 342 404
#     4  11  24  45  70 100 139 182 226 288 341 401
#     4  10  23  44  68 101 140 174 227 281 342 404
#     4  10  22  46  68 100 144 182 230 278 340 418
#     4  12  24  45  69 103 136 177 235 283 341 408
#     4  12  24  45  69 103 136 177 235 283 341 408
#     4  11  24  45  70 100 139 182 226 288 341 401
#
# _framework density 23.483121000000001
#
# number of rings (size 3 to 8) (size 9 to 14) (size 15 to 20)
#    0.000    1.143    5.714    0.000    0.000    5.714 
#   10.286    2.857    0.000    0.000    0.000    0.000 
#    0.000    0.000    0.000    0.000    0.000    0.000 
#
# Total GULP energy -78207.281926 kJ/mol
# GULP energy per Si atom -5586.234423 kJ/mol
# Density = 2.342967 g / cm^3
# Si number density = 23.483121 Si / 1000 Ang^3
#
#
#
# Elastic Constant Matrix: (Units=GPa)
#
#
# Indices 1 2 3 4 5 6 
#
# 1 59.6239 3.2289 10.8979 0.0000 -5.0408 0.0000
# 2 3.2289 80.3551 5.8498 0.0000 7.5099 0.0000
# 3 10.8979 5.8498 48.3799 0.0000 0.2787 0.0000
# 4 0.0000 0.0000 0.0000 6.2464 0.0000 8.3794
# 5 -5.0408 7.5099 0.2787 0.0000 34.2223 0.0000
# 6 0.0000 0.0000 0.0000 8.3794 0.0000 43.1140
#
#
#
# Elastic Compliance Matrix: (Units=1/GPa)
#
#
# Indices 1 2 3 4 5 6 
#
# 1 0.017765 -0.000689 -0.003934 0.000000 0.002800 0.000000
# 2 -0.000689 0.012845 -0.001381 0.000000 -0.002909 0.000000
# 3 -0.003934 -0.001381 0.021726 0.000000 -0.000453 0.000000
# 4 0.000000 0.000000 0.000000 0.216553 0.000000 -0.042088
# 5 0.002800 -0.002909 -0.000453 0.000000 0.030275 0.000000
# 6 0.000000 0.000000 0.000000 -0.042088 0.000000 0.031374
#
#
# Mechanical properties :
#
#
# Convention : Reuss Voigt Hill
#
# Bulk Modulus (GPa) = 24.79789 25.36800 25.08295
# Shear Modulus (GPa) = 14.04535 27.94200 20.99368
#
# Velocity S-wave (km/s) = 2.44827 3.45320 2.99321
# Velocity P-wave (km/s) = 4.30985 5.16968 4.75922
#
# Compressibility (1/GPa) = 0.04032601
#
# Stress axis : x y z
#
# Youngs Moduli (GPa) = 56.29054 77.85205 46.02858
#
# Poissons Ratio (x) = 0.05365 0.18110
# Poissons Ratio (y) = 0.03879 0.06357
# Poissons Ratio (z) = 0.22147 0.10753
#
# Static dielectric constant tensor:
#      x y z
#    x 1.889680 0.000000 -0.012760 
#    y 0.000000 1.880700 0.000000 
#    z -0.012760 0.000000 1.937850 
# 
# From -- ./inp_files/19585.got.cif
#   From: 2010.05.17/outbox.cif.g08.bks.cpg/sg9_10_cif.got.tgz:19585.got - 2010.06.03 20:04:27.
