data_PCOD9137570
_publ_section_title
;
Structure prediction by ZEFSAII (Michael W. Deem and Ramdas Pophale) SiO2 
 PCOD9137570
Probable space group: C C
;
_chemical_formula_sum "Si O2"
_cell_formula_units_Z 32
_cell_length_a 5.544619
_cell_length_b 23.455003
_cell_length_c 10.239019
_cell_angle_alpha 90.000000
_cell_angle_beta 103.601098
_cell_angle_gamma 90.000000
_cell_volume 1294.232724
_symmetry_space_group_name_H-M "C C"
_symmetry_group_IT_number 9
_symmetry_cell_setting 'monoclinic'
loop_
_space_group_symop_operation_xyz
x,y,z
x,-y,1/2+z
1/2+x,1/2+y,z
1/2+x,1/2-y,1/2+z
loop_
_atom_site_type_symbol
_atom_site_label
_atom_site_fract_x
_atom_site_fract_y
_atom_site_fract_z
Si Si1 0.078950 0.136662 0.977940
Si Si2 0.949847 0.461328 0.459013
Si Si3 0.429276 0.501228 0.126565
Si Si4 0.158073 0.061961 0.401743
Si Si5 0.549849 0.725785 0.178498
Si Si6 0.602640 0.273763 0.268426
Si Si7 0.152747 0.593606 0.750321
Si Si8 0.284506 0.827470 0.046822
O O1 0.192414 0.184949 0.896033
O O2 0.814428 0.127702 0.876054
O O3 0.241248 0.079248 0.993887
O O4 0.061715 0.164177 0.116544
O O5 0.915875 0.529266 0.460673
O O6 0.210490 0.454910 0.562281
O O7 0.962493 0.443714 0.310158
O O8 0.586454 0.538263 0.250777
O O9 0.508319 0.469927 0.000838
O O10 0.336246 0.448596 0.201801
O O11 0.175172 0.129564 0.425802
O O12 0.340002 0.733464 0.263994
O O13 0.427815 0.767365 0.049799
O O14 0.830986 0.745333 0.248247
O O15 0.585664 0.312968 0.134733
O O16 0.998415 0.635125 0.641761
#
# Coordination Sequence:
#
# PCOD9137570 Si02
#       8
#     4   4   4   4   4   4   4   4
#     4  12  23  44  74 100 145 190 252 308 388 454
#     4  12  24  41  71 107 138 194 242 306 377 460
#     4  12  25  42  67 110 149 189 247 308 380 461
#     4  12  25  42  70 102 151 188 245 306 380 456
#     4  10  25  41  71 104 137 182 257 302 368 442
#     4  10  22  44  70 104 134 191 248 307 372 447
#     4  12  22  44  75 100 135 198 243 303 379 467
#     4  10  22  42  72  99 139 190 250 300 376 449
#
# _framework density 24.725073999999999
#
# number of rings (size 3 to 8) (size 9 to 14) (size 15 to 20)
#    0.750    0.000    6.250    1.500    1.750    0.000 
#    0.000    3.750    0.000    0.000    0.000    0.000 
#    0.000    0.000    0.000    0.000    0.000    0.000 
#
# Total GULP energy -89309.375169 kJ/mol
# GULP energy per Si atom -5581.835948 kJ/mol
# Density = 2.466880 g / cm^3
# Si number density = 24.725074 Si / 1000 Ang^3
#
#
#
# Elastic Constant Matrix: (Units=GPa)
#
#
# Indices 1 2 3 4 5 6 
#
# 1 86.6924 8.4048 21.4496 0.0000 5.0235 0.0000
# 2 8.4048 67.6836 16.4375 0.0000 -5.3931 0.0000
# 3 21.4496 16.4375 92.3440 0.0000 6.6906 0.0000
# 4 0.0000 0.0000 0.0000 32.9105 0.0000 5.3107
# 5 5.0235 -5.3931 6.6906 0.0000 35.1414 0.0000
# 6 0.0000 0.0000 0.0000 5.3107 0.0000 13.9885
#
#
#
# Elastic Compliance Matrix: (Units=1/GPa)
#
#
# Indices 1 2 3 4 5 6 
#
# 1 0.012356 -0.001021 -0.002585 0.000000 -0.001431 0.000000
# 2 -0.001021 0.015831 -0.002806 0.000000 0.003110 0.000000
# 3 -0.002585 -0.002806 0.012100 0.000000 -0.002365 0.000000
# 4 0.000000 0.000000 0.000000 0.032368 0.000000 -0.012289
# 5 -0.001431 0.003110 -0.002365 0.000000 0.029589 0.000000
# 6 0.000000 0.000000 0.000000 -0.012289 0.000000 0.076153
#
#
# Mechanical properties :
#
#
# Convention : Reuss Voigt Hill
#
# Bulk Modulus (GPa) = 36.41102 37.70043 37.05573
# Shear Modulus (GPa) = 24.95320 29.76994 27.36157
#
# Velocity S-wave (km/s) = 3.18028 3.47369 3.33022
# Velocity P-wave (km/s) = 5.31450 5.60086 5.45956
#
# Compressibility (1/GPa) = 0.02746421
#
# Stress axis : x y z
#
# Youngs Moduli (GPa) = 80.92946 63.16861 82.64247
#
# Poissons Ratio (x) = 0.06447 0.21361
# Poissons Ratio (y) = 0.08260 0.23191
# Poissons Ratio (z) = 0.20919 0.17726
#
# Static dielectric constant tensor:
#      x y z
#    x 2.034820 0.000000 -0.071500 
#    y 0.000000 1.991920 0.000000 
#    z -0.071500 0.000000 2.032470 
# 
# From -- ./inp_files/13629.got.cif
#   From: 2010.05.17/outbox.cif.g08.bks.cpg/sg9_7_cif.got.tgz:13629.got - 2010.06.03 20:04:27.
