data_PCOD9137707
_publ_section_title
;
Structure prediction by ZEFSAII (Michael W. Deem and Ramdas Pophale) SiO2 
 PCOD9137707
Probable space group: C C
;
_chemical_formula_sum "Si O2"
_cell_formula_units_Z 32
_cell_length_a 11.532292
_cell_length_b 8.398899
_cell_length_c 15.423247
_cell_angle_alpha 90.000000
_cell_angle_beta 120.788176
_cell_angle_gamma 90.000000
_cell_volume 1283.335196
_symmetry_space_group_name_H-M "C C"
_symmetry_group_IT_number 9
_symmetry_cell_setting 'monoclinic'
loop_
_space_group_symop_operation_xyz
x,y,z
x,-y,1/2+z
1/2+x,1/2+y,z
1/2+x,1/2-y,1/2+z
loop_
_atom_site_type_symbol
_atom_site_label
_atom_site_fract_x
_atom_site_fract_y
_atom_site_fract_z
Si Si1 0.654640 0.286851 0.114140
Si Si2 0.260089 0.015185 0.028362
Si Si3 0.221447 0.790401 0.852815
Si Si4 0.470950 0.611524 0.858450
Si Si5 0.320374 0.706708 0.330535
Si Si6 0.548991 0.919462 0.418348
Si Si7 0.765626 0.852412 0.011524
Si Si8 0.000675 0.985609 0.185374
O O1 0.702708 0.193017 0.216253
O O2 0.559234 0.418525 0.118779
O O3 0.769913 0.384288 0.106594
O O4 0.578422 0.181637 0.015701
O O5 0.329115 0.185033 0.069950
O O6 0.108020 0.086901 0.964197
O O7 0.277031 0.920272 0.944362
O O8 0.346495 0.713622 0.848247
O O9 0.143145 0.656169 0.879173
O O10 0.103204 0.872757 0.750496
O O11 0.422023 0.427892 0.838718
O O12 0.506573 0.633379 0.770628
O O13 0.392669 0.878040 0.342915
O O14 0.287046 0.670214 0.416728
O O15 0.608192 0.094025 0.456619
O O16 0.843531 0.991800 0.095535
#
# Coordination Sequence:
#
# PCOD9137707 Si02
#       8
#     4   4   4   4   4   4   4   4
#     4  11  24  46  71  99 148 191 233 315 367 431
#     4  10  24  46  68 108 142 188 250 303 377 439
#     4  10  22  43  73 100 137 190 243 302 372 437
#     4  11  21  44  73 102 136 190 248 302 368 448
#     4  12  22  45  73 103 148 190 245 307 366 446
#     4  11  23  45  71 103 140 190 244 303 369 436
#     4  12  25  44  72 104 148 195 242 309 373 443
#     4  11  23  43  69 103 145 180 243 303 364 440
#
# _framework density 24.935029
#
# number of rings (size 3 to 8) (size 9 to 14) (size 15 to 20)
#    0.000    1.000    6.250    2.250    1.750    2.000 
#    4.500    0.000    0.000    0.000    0.000    0.000 
#    0.000    0.000    0.000    0.000    0.000    0.000 
#
# Total GULP energy -89281.637193 kJ/mol
# GULP energy per Si atom -5580.102325 kJ/mol
# Density = 2.487828 g / cm^3
# Si number density = 24.935029 Si / 1000 Ang^3
#
#
#
# Elastic Constant Matrix: (Units=GPa)
#
#
# Indices 1 2 3 4 5 6 
#
# 1 70.9515 6.1954 7.5289 0.0000 -20.9383 0.0000
# 2 6.1954 74.2838 -5.8445 0.0000 -9.6810 0.0000
# 3 7.5289 -5.8445 108.4437 0.0000 -14.3043 0.0000
# 4 0.0000 0.0000 0.0000 19.5534 0.0000 14.9532
# 5 -20.9383 -9.6810 -14.3043 0.0000 34.0554 0.0000
# 6 0.0000 0.0000 0.0000 14.9532 0.0000 34.5704
#
#
#
# Elastic Compliance Matrix: (Units=1/GPa)
#
#
# Indices 1 2 3 4 5 6 
#
# 1 0.017223 -0.000029 0.000210 0.000000 0.010669 0.000000
# 2 -0.000029 0.014170 0.001371 0.000000 0.004586 0.000000
# 3 0.000210 0.001371 0.009897 0.000000 0.004676 0.000000
# 4 0.000000 0.000000 0.000000 0.076421 0.000000 -0.033055
# 5 0.010669 0.004586 0.004676 0.000000 0.039191 0.000000
# 6 0.000000 0.000000 0.000000 -0.033055 0.000000 0.043224
#
#
# Mechanical properties :
#
#
# Convention : Reuss Voigt Hill
#
# Bulk Modulus (GPa) = 22.52640 29.93765 26.23202
# Shear Modulus (GPa) = 23.60476 34.02246 28.81361
#
# Velocity S-wave (km/s) = 3.08011 3.69785 3.40302
# Velocity P-wave (km/s) = 4.65865 5.50131 5.09742
#
# Compressibility (1/GPa) = 0.04439236
#
# Stress axis : x y z
#
# Youngs Moduli (GPa) = 58.06218 70.57265 101.03613
#
# Poissons Ratio (x) = 0.00208 -0.02122
# Poissons Ratio (y) = 0.00171 -0.13848
# Poissons Ratio (z) = -0.01219 -0.09673
#
# Static dielectric constant tensor:
#      x y z
#    x 2.107950 0.000000 0.097130 
#    y 0.000000 2.463260 0.000000 
#    z 0.097130 0.000000 1.999440 
# 
# From -- ./inp_files/24285.got.cif
#   From: 2010.05.17/outbox.cif.g08.bks.cpg/sg9_13_cif.got.tgz:24285.got - 2010.06.03 20:04:27.
