data_PCOD9137361
_publ_section_title
;
Structure prediction by ZEFSAII (Michael W. Deem and Ramdas Pophale) SiO2 
 PCOD9137361
Probable space group: C C
;
_chemical_formula_sum "Si O2"
_cell_formula_units_Z 32
_cell_length_a 5.923620
_cell_length_b 16.565904
_cell_length_c 14.748151
_cell_angle_alpha 90.000000
_cell_angle_beta 88.935971
_cell_angle_gamma 90.000000
_cell_volume 1446.988280
_symmetry_space_group_name_H-M "C C"
_symmetry_group_IT_number 9
_symmetry_cell_setting 'monoclinic'
loop_
_space_group_symop_operation_xyz
x,y,z
x,-y,1/2+z
1/2+x,1/2+y,z
1/2+x,1/2-y,1/2+z
loop_
_atom_site_type_symbol
_atom_site_label
_atom_site_fract_x
_atom_site_fract_y
_atom_site_fract_z
Si Si1 0.231730 0.637485 0.804520
Si Si2 0.483020 0.508249 0.373683
Si Si3 0.521250 0.350866 0.125197
Si Si4 0.860345 0.262347 0.228340
Si Si5 0.667883 0.888878 0.995020
Si Si6 0.688239 0.389818 0.712429
Si Si7 0.964496 0.292718 0.849817
Si Si8 0.286903 0.996871 0.542546
O O1 0.289196 0.559247 0.861646
O O2 0.417830 0.632836 0.724223
O O3 0.288583 0.719734 0.857159
O O4 0.997936 0.656849 0.755915
O O5 0.352355 0.582275 0.421084
O O6 0.581873 0.540968 0.278191
O O7 0.677855 0.480552 0.443647
O O8 0.703649 0.282311 0.143437
O O9 0.303694 0.334759 0.064974
O O10 0.638261 0.429914 0.084637
O O11 0.703706 0.241632 0.315550
O O12 0.019160 0.186330 0.206516
O O13 0.540418 0.966948 0.036485
O O14 0.480234 0.839733 0.942739
O O15 0.891995 0.353436 0.770410
O O16 0.759927 0.424952 0.614909
#
# Coordination Sequence:
#
# PCOD9137361 Si02
#       8
#     4   4   4   4   4   4   4   4
#     4  10  22  42  67  95 131 176 224 279 343 403
#     4  11  23  43  67 100 131 175 229 282 340 410
#     4  10  22  41  67  95 132 176 228 272 342 405
#     4  10  22  43  66  98 130 182 224 276 343 407
#     4  11  23  40  68  98 133 180 228 277 342 408
#     4  11  22  44  72  94 138 177 228 283 341 411
#     4  10  22  41  67  94 133 180 218 277 346 401
#     4  11  24  42  68 102 136 176 229 286 343 405
#
# _framework density 22.114898
#
# number of rings (size 3 to 8) (size 9 to 14) (size 15 to 20)
#    0.000    1.500    3.750    0.750    0.000    6.000 
#   11.250    0.000    0.000    0.000    0.000    0.000 
#    0.000    0.000    0.000    0.000    0.000    0.000 
#
# Total GULP energy -89347.036549 kJ/mol
# GULP energy per Si atom -5584.189784 kJ/mol
# Density = 2.206456 g / cm^3
# Si number density = 22.114898 Si / 1000 Ang^3
#
#
#
# Elastic Constant Matrix: (Units=GPa)
#
#
# Indices 1 2 3 4 5 6 
#
# 1 79.3291 17.4753 24.4602 0.0000 18.5778 0.0000
# 2 17.4753 71.1870 40.1654 0.0000 25.1572 0.0000
# 3 24.4602 40.1654 84.9499 0.0000 27.2821 0.0000
# 4 0.0000 0.0000 0.0000 32.2437 0.0000 2.7258
# 5 18.5778 25.1572 27.2821 0.0000 35.9926 0.0000
# 6 0.0000 0.0000 0.0000 2.7258 0.0000 26.2806
#
#
#
# Elastic Compliance Matrix: (Units=1/GPa)
#
#
# Indices 1 2 3 4 5 6 
#
# 1 0.014697 -0.000341 -0.002261 0.000000 -0.005634 0.000000
# 2 -0.000341 0.021431 -0.006980 0.000000 -0.009513 0.000000
# 3 -0.002261 -0.006980 0.018215 0.000000 -0.007762 0.000000
# 4 0.000000 0.000000 0.000000 0.031288 0.000000 -0.003245
# 5 -0.005634 -0.009513 -0.007762 0.000000 0.043224 0.000000
# 6 0.000000 0.000000 0.000000 -0.003245 0.000000 0.038387
#
#
# Mechanical properties :
#
#
# Convention : Reuss Voigt Hill
#
# Bulk Modulus (GPa) = 28.42537 44.40752 36.41645
# Shear Modulus (GPa) = 25.23544 29.12772 27.18158
#
# Velocity S-wave (km/s) = 3.38169 3.63314 3.50967
# Velocity P-wave (km/s) = 5.30369 6.14195 5.73815
#
# Compressibility (1/GPa) = 0.03517984
#
# Stress axis : x y z
#
# Youngs Moduli (GPa) = 68.03899 46.66118 54.89836
#
# Poissons Ratio (x) = 0.01592 0.12414
# Poissons Ratio (y) = 0.02321 0.38317
# Poissons Ratio (z) = 0.15386 0.32567
#
# Static dielectric constant tensor:
#      x y z
#    x 1.863560 0.000000 0.037170 
#    y 0.000000 1.817840 0.000000 
#    z 0.037170 0.000000 1.812870 
# 
# From -- ./inp_files/21937.got.cif
#   From: 2010.05.17/outbox.cif.g08.bks.cpg/sg9_11_cif.got.tgz:21937.got - 2010.06.03 20:04:27.
