data_PCOD9137596
_publ_section_title
;
Structure prediction by ZEFSAII (Michael W. Deem and Ramdas Pophale) SiO2 
 PCOD9137596
Probable space group: C C
;
_chemical_formula_sum "Si O2"
_cell_formula_units_Z 32
_cell_length_a 22.711248
_cell_length_b 9.315069
_cell_length_c 14.271851
_cell_angle_alpha 90.000000
_cell_angle_beta 148.924841
_cell_angle_gamma 90.000000
_cell_volume 1558.452036
_symmetry_space_group_name_H-M "C C"
_symmetry_group_IT_number 9
_symmetry_cell_setting 'monoclinic'
loop_
_space_group_symop_operation_xyz
x,y,z
x,-y,1/2+z
1/2+x,1/2+y,z
1/2+x,1/2-y,1/2+z
loop_
_atom_site_type_symbol
_atom_site_label
_atom_site_fract_x
_atom_site_fract_y
_atom_site_fract_z
Si Si1 0.914880 0.120269 0.506860
Si Si2 0.191152 0.763936 0.114882
Si Si3 0.894003 0.656070 0.121388
Si Si4 0.294081 0.326794 0.368921
Si Si5 0.150779 0.923564 0.244547
Si Si6 0.452905 0.074988 0.543131
Si Si7 0.671442 0.273609 0.871152
Si Si8 0.558734 0.981612 0.994225
O O1 0.811617 0.197558 0.312120
O O2 0.922530 0.188257 0.620370
O O3 0.032511 0.143547 0.615085
O O4 0.882561 0.954240 0.471350
O O5 0.165909 0.890067 0.155089
O O6 0.195894 0.807950 0.012801
O O7 0.101044 0.633117 0.009203
O O8 0.923315 0.543204 0.079152
O O9 0.970234 0.604929 0.310144
O O10 0.757775 0.646107 0.945175
O O11 0.346171 0.184435 0.392977
O O12 0.274144 0.300782 0.453023
O O13 0.172205 0.384467 0.165338
O O14 0.148313 0.087458 0.275344
O O15 0.561889 0.170312 0.721633
O O16 0.493157 0.000563 0.502755
#
# Coordination Sequence:
#
# PCOD9137596 Si02
#       8
#     4   4   4   4   4   4   4   4
#     4  10  23  44  63  97 138 169 216 277 326 391
#     4  10  23  44  68  94 130 183 217 262 342 402
#     4  11  23  42  66  96 128 173 220 268 333 388
#     4  10  22  43  63  94 136 172 215 267 331 387
#     4  11  23  40  65  97 129 164 231 273 316 386
#     4  11  21  41  66  92 136 166 217 277 316 397
#     4  11  22  42  68  97 130 178 217 269 329 396
#     4  10  23  42  67  93 129 179 217 263 343 393
#
# _framework density 20.533196
#
# number of rings (size 3 to 8) (size 9 to 14) (size 15 to 20)
#    0.000    1.500    3.750    0.750    0.000    6.000 
#    9.000    0.000    0.000    0.000    0.000    0.000 
#    0.000    0.000    0.000    0.000    0.000    0.000 
#
# Total GULP energy -89359.710770 kJ/mol
# GULP energy per Si atom -5584.981923 kJ/mol
# Density = 2.048646 g / cm^3
# Si number density = 20.533196 Si / 1000 Ang^3
#
#
#
# Elastic Constant Matrix: (Units=GPa)
#
#
# Indices 1 2 3 4 5 6 
#
# 1 113.1175 24.8661 57.4822 0.0000 10.9544 0.0000
# 2 24.8661 51.6388 10.4679 0.0000 -1.8561 0.0000
# 3 57.4822 10.4679 74.0184 0.0000 -2.4323 0.0000
# 4 0.0000 0.0000 0.0000 13.8380 0.0000 -4.7574
# 5 10.9544 -1.8561 -2.4323 0.0000 38.4885 0.0000
# 6 0.0000 0.0000 0.0000 -4.7574 0.0000 29.9402
#
#
#
# Elastic Compliance Matrix: (Units=1/GPa)
#
#
# Indices 1 2 3 4 5 6 
#
# 1 0.017168 -0.005909 -0.012693 0.000000 -0.005973 0.000000
# 2 -0.005909 0.021994 0.001572 0.000000 0.002842 0.000000
# 3 -0.012693 0.001572 0.023315 0.000000 0.005162 0.000000
# 4 0.000000 0.000000 0.000000 0.076441 0.000000 0.012146
# 5 -0.005973 0.002842 0.005162 0.000000 0.028145 0.000000
# 6 0.000000 0.000000 0.000000 0.012146 0.000000 0.035330
#
#
# Mechanical properties :
#
#
# Convention : Reuss Voigt Hill
#
# Bulk Modulus (GPa) = 35.19096 47.15635 41.17366
# Shear Modulus (GPa) = 20.33138 26.18389 23.25764
#
# Velocity S-wave (km/s) = 3.15011 3.57487 3.36919
# Velocity P-wave (km/s) = 5.51423 6.32893 5.93557
#
# Compressibility (1/GPa) = 0.02841639
#
# Stress axis : x y z
#
# Youngs Moduli (GPa) = 58.24833 45.46677 42.89100
#
# Poissons Ratio (x) = 0.26865 0.54442
# Poissons Ratio (y) = 0.34417 -0.06740
# Poissons Ratio (z) = 0.73935 -0.07145
#
# Static dielectric constant tensor:
#      x y z
#    x 1.720820 0.000000 0.016350 
#    y 0.000000 1.747850 0.000000 
#    z 0.016350 0.000000 1.727780 
# 
# From -- ./inp_files/17887.got.cif
#   From: 2010.05.17/outbox.cif.g08.bks.cpg/sg9_9_cif.got.tgz:17887.got - 2010.06.03 20:04:27.
