data_PCOD9137066
_publ_section_title
;
Structure prediction by ZEFSAII (Michael W. Deem and Ramdas Pophale) SiO2 
 PCOD9137066
Probable space group: C C
;
_chemical_formula_sum "Si O2"
_cell_formula_units_Z 32
_cell_length_a 29.859486
_cell_length_b 8.563103
_cell_length_c 8.687470
_cell_angle_alpha 90.000000
_cell_angle_beta 138.266104
_cell_angle_gamma 90.000000
_cell_volume 1478.655723
_symmetry_space_group_name_H-M "C C"
_symmetry_group_IT_number 9
_symmetry_cell_setting 'monoclinic'
loop_
_space_group_symop_operation_xyz
x,y,z
x,-y,1/2+z
1/2+x,1/2+y,z
1/2+x,1/2-y,1/2+z
loop_
_atom_site_type_symbol
_atom_site_label
_atom_site_fract_x
_atom_site_fract_y
_atom_site_fract_z
Si Si1 0.407350 0.862576 0.985590
Si Si2 0.827372 0.835013 0.081296
Si Si3 0.177882 0.044659 0.259736
Si Si4 0.157018 0.227330 0.502843
Si Si5 0.559363 0.094216 0.953429
Si Si6 0.825598 0.474653 0.046948
Si Si7 0.123048 0.683072 0.445531
Si Si8 0.252427 0.517355 0.671238
O O1 0.394313 0.707215 0.850536
O O2 0.387297 0.008102 0.823851
O O3 0.479683 0.886678 0.241933
O O4 0.349056 0.873110 0.964205
O O5 0.813692 0.659970 0.978863
O O6 0.772897 0.902349 0.064053
O O7 0.820927 0.962765 0.931821
O O8 0.155764 0.095228 0.371016
O O9 0.256739 0.085094 0.441827
O O10 0.129417 0.142929 0.023935
O O11 0.175316 0.864103 0.207031
O O12 0.089490 0.311827 0.384113
O O13 0.207408 0.358387 0.563499
O O14 0.586444 0.921250 0.982275
O O15 0.587817 0.151033 0.190913
O O16 0.200858 0.629926 0.626877
#
# Coordination Sequence:
#
# PCOD9137066 Si02
#       8
#     4   4   4   4   4   4   4   4
#     4  10  22  43  66  92 134 176 230 266 317 404
#     4  10  23  38  63  97 128 175 212 277 330 388
#     4  12  22  39  62 101 134 163 221 281 352 393
#     4  11  23  37  64  93 135 173 211 285 335 402
#     4  11  23  44  63  94 132 183 231 261 326 410
#     4  10  22  38  65  98 124 174 212 279 330 386
#     4  11  23  36  67  95 131 176 216 278 334 390
#     4  11  20  41  60  98 132 162 221 269 342 389
#
# _framework density 21.641279000000001
#
# number of rings (size 3 to 8) (size 9 to 14) (size 15 to 20)
#    0.750    0.500    1.250    6.750    1.750    0.000 
#    0.000    2.500    0.000    0.000    0.000    0.000 
#    0.000    0.000    0.000    0.000    0.000    0.000 
#
# Total GULP energy -89126.888908 kJ/mol
# GULP energy per Si atom -5570.430557 kJ/mol
# Density = 2.159202 g / cm^3
# Si number density = 21.641279 Si / 1000 Ang^3
#
#
#
# Elastic Constant Matrix: (Units=GPa)
#
#
# Indices 1 2 3 4 5 6 
#
# 1 61.4783 20.6385 16.8534 0.0000 -3.8225 0.0000
# 2 20.6385 45.5246 16.5520 0.0000 -0.8788 0.0000
# 3 16.8534 16.5520 93.0016 0.0000 -1.4440 0.0000
# 4 0.0000 0.0000 0.0000 28.5611 0.0000 -12.6798
# 5 -3.8225 -0.8788 -1.4440 0.0000 28.5981 0.0000
# 6 0.0000 0.0000 0.0000 -12.6798 0.0000 32.4813
#
#
#
# Elastic Compliance Matrix: (Units=1/GPa)
#
#
# Indices 1 2 3 4 5 6 
#
# 1 0.019710 -0.008132 -0.002089 0.000000 0.002279 0.000000
# 2 -0.008132 0.026848 -0.003311 0.000000 -0.000429 0.000000
# 3 -0.002089 -0.003311 0.011724 0.000000 0.000211 0.000000
# 4 0.000000 0.000000 0.000000 0.042353 0.000000 0.016533
# 5 0.002279 -0.000429 0.000211 0.000000 0.035270 0.000000
# 6 0.000000 0.000000 0.000000 0.016533 0.000000 0.037241
#
#
# Mechanical properties :
#
#
# Convention : Reuss Voigt Hill
#
# Bulk Modulus (GPa) = 32.03347 34.23248 33.13298
# Shear Modulus (GPa) = 23.73981 27.65879 25.69930
#
# Velocity S-wave (km/s) = 3.31565 3.57887 3.44977
# Velocity P-wave (km/s) = 5.43067 5.73849 5.58670
#
# Compressibility (1/GPa) = 0.03121735
#
# Stress axis : x y z
#
# Youngs Moduli (GPa) = 50.73499 37.24607 85.29728
#
# Poissons Ratio (x) = 0.30289 0.17820
# Poissons Ratio (y) = 0.41258 0.28245
# Poissons Ratio (z) = 0.10599 0.12334
#
# Static dielectric constant tensor:
#      x y z
#    x 1.781430 0.000000 -0.053710 
#    y 0.000000 1.816840 0.000000 
#    z -0.053710 0.000000 1.850370 
# 
# From -- ./inp_files/11345.got.cif
#   From: 2010.05.17/outbox.cif.g08.bks.cpg/sg9_6_cif.got.tgz:11345.got - 2010.06.03 20:04:27.
