data_PCOD9137697
_publ_section_title
;
Structure prediction by ZEFSAII (Michael W. Deem and Ramdas Pophale) SiO2 
 PCOD9137697
Probable space group: C C
;
_chemical_formula_sum "Si O2"
_cell_formula_units_Z 28
_cell_length_a 7.269850
_cell_length_b 9.944177
_cell_length_c 16.258736
_cell_angle_alpha 90.000000
_cell_angle_beta 66.964221
_cell_angle_gamma 90.000000
_cell_volume 1081.662916
_symmetry_space_group_name_H-M "C C"
_symmetry_group_IT_number 9
_symmetry_cell_setting 'monoclinic'
loop_
_space_group_symop_operation_xyz
x,y,z
x,-y,1/2+z
1/2+x,1/2+y,z
1/2+x,1/2-y,1/2+z
loop_
_atom_site_type_symbol
_atom_site_label
_atom_site_fract_x
_atom_site_fract_y
_atom_site_fract_z
Si Si1 0.137670 0.774394 0.860830
Si Si2 0.473747 0.886924 0.151902
Si Si3 0.833604 0.925636 0.207486
Si Si4 0.528075 0.600925 0.055080
Si Si5 0.226142 0.647667 0.354161
Si Si6 0.642984 0.925413 0.504761
Si Si7 0.710255 0.409999 0.361572
O O1 0.305176 0.693467 0.778706
O O2 0.110822 0.704928 0.954210
O O3 0.930142 0.770763 0.843225
O O4 0.168014 0.931646 0.863497
O O5 0.684551 0.885701 0.162018
O O6 0.479558 0.746515 0.102330
O O7 0.315948 0.898237 0.252495
O O8 0.472646 0.020185 0.095549
O O9 0.749590 0.056737 0.270545
O O10 0.024422 0.984969 0.126205
O O11 0.341271 0.579323 0.025792
O O12 0.719653 0.594676 0.961867
O O13 0.175750 0.546414 0.434721
O O14 0.077330 0.772479 0.374399
#
# Coordination Sequence:
#
# PCOD9137697 Si02
#       7
#     4   4   4   4   4   4   4
#     4  11  24  43  68 104 132 176 230 279 342 404
#     4  11  23  44  70 102 134 183 227 278 342 405
#     4  10  22  43  71  95 138 179 218 280 349 392
#     4  11  22  42  70  97 136 182 225 284 341 403
#     4  11  21  45  71  97 135 180 225 281 337 405
#     4  10  24  43  69  95 141 178 222 284 345 395
#     4  12  24  40  69 100 132 176 235 274 336 412
#
# _framework density 25.88607
#
# number of rings (size 3 to 8) (size 9 to 14) (size 15 to 20)
#    0.000    1.143    5.714    0.000    0.000    3.429 
#    0.000    2.857    0.000    0.000    0.000    0.000 
#    0.000    0.000    0.000    0.000    0.000    0.000 
#
# Total GULP energy -78012.890146 kJ/mol
# GULP energy per Si atom -5572.349296 kJ/mol
# Density = 2.582715 g / cm^3
# Si number density = 25.886070 Si / 1000 Ang^3
#
#
#
# Elastic Constant Matrix: (Units=GPa)
#
#
# Indices 1 2 3 4 5 6 
#
# 1 52.8181 14.9716 16.0379 0.0000 9.6377 0.0000
# 2 14.9716 153.7119 101.1845 0.0000 13.6979 0.0000
# 3 16.0379 101.1845 181.8950 0.0000 -2.4828 0.0000
# 4 0.0000 0.0000 0.0000 47.0365 0.0000 13.3043
# 5 9.6377 13.6979 -2.4828 0.0000 24.9754 0.0000
# 6 0.0000 0.0000 0.0000 13.3043 0.0000 10.3879
#
#
#
# Elastic Compliance Matrix: (Units=1/GPa)
#
#
# Indices 1 2 3 4 5 6 
#
# 1 0.021049 -0.000022 -0.001957 0.000000 -0.008305 0.000000
# 2 -0.000022 0.011324 -0.006391 0.000000 -0.006838 0.000000
# 3 -0.001957 -0.006391 0.009296 0.000000 0.005184 0.000000
# 4 0.000000 0.000000 0.000000 0.033337 0.000000 -0.042696
# 5 -0.008305 -0.006838 0.005184 0.000000 0.047510 0.000000
# 6 0.000000 0.000000 0.000000 -0.042696 0.000000 0.150949
#
#
# Mechanical properties :
#
#
# Convention : Reuss Voigt Hill
#
# Bulk Modulus (GPa) = 40.11298 72.53478 56.32388
# Shear Modulus (GPa) = 16.74966 33.56203 25.15584
#
# Velocity S-wave (km/s) = 2.54648 3.60464 3.12074
# Velocity P-wave (km/s) = 4.91688 6.73841 5.89839
#
# Compressibility (1/GPa) = 0.02492959
#
# Stress axis : x y z
#
# Youngs Moduli (GPa) = 47.50872 88.30851 107.57285
#
# Poissons Ratio (x) = 0.00191 0.21054
# Poissons Ratio (y) = 0.00103 0.68747
# Poissons Ratio (z) = 0.09298 0.56435
#
# Static dielectric constant tensor:
#      x y z
#    x 2.324750 0.000000 -0.119970 
#    y 0.000000 2.124360 0.000000 
#    z -0.119970 0.000000 2.091660 
# 
# From -- ./inp_files/29774.got.cif
#   From: 2010.05.17/outbox.cif.g08.bks.cpg/sg9_15_cif.got.tgz:29774.got - 2010.06.03 20:04:27.
