data_PCOD9137181
_publ_section_title
;
Structure prediction by ZEFSAII (Michael W. Deem and Ramdas Pophale) SiO2 
 PCOD9137181
Probable space group: C C
;
_chemical_formula_sum "Si O2"
_cell_formula_units_Z 28
_cell_length_a 12.244669
_cell_length_b 8.172463
_cell_length_c 13.416072
_cell_angle_alpha 90.000000
_cell_angle_beta 111.382022
_cell_angle_gamma 90.000000
_cell_volume 1250.128021
_symmetry_space_group_name_H-M "C C"
_symmetry_group_IT_number 9
_symmetry_cell_setting 'monoclinic'
loop_
_space_group_symop_operation_xyz
x,y,z
x,-y,1/2+z
1/2+x,1/2+y,z
1/2+x,1/2-y,1/2+z
loop_
_atom_site_type_symbol
_atom_site_label
_atom_site_fract_x
_atom_site_fract_y
_atom_site_fract_z
Si Si1 0.220730 0.869639 0.023670
Si Si2 0.337079 0.697252 0.738219
Si Si3 0.385411 0.358453 0.687559
Si Si4 0.813957 0.295173 0.500187
Si Si5 0.559399 0.179947 0.435119
Si Si6 0.114886 0.109990 0.147706
Si Si7 0.497234 0.805426 0.396167
O O1 0.298235 0.713758 0.077038
O O2 0.170970 0.956560 0.107919
O O3 0.107307 0.814376 0.925984
O O4 0.294875 0.009030 0.993460
O O5 0.325969 0.501444 0.731864
O O6 0.344724 0.747260 0.623792
O O7 0.452167 0.746449 0.836824
O O8 0.221179 0.792706 0.736130
O O9 0.504310 0.428978 0.678988
O O10 0.424284 0.208453 0.770545
O O11 0.687554 0.218535 0.432248
O O12 0.914039 0.247022 0.457705
O O13 0.567441 0.267576 0.545296
O O14 0.540134 0.986944 0.433697
#
# Coordination Sequence:
#
# PCOD9137181 Si02
#       7
#     4   4   4   4   4   4   4
#     4  10  22  40  62  88 118 156 202 246 292 348
#     4  10  22  41  63  88 121 159 196 244 301 349
#     4  12  24  38  63  92 118 158 202 241 295 356
#     4  10  23  42  61  87 123 156 196 249 296 349
#     4  10  22  41  63  88 121 159 196 244 301 349
#     4  10  23  42  61  87 123 156 196 249 296 349
#     4  12  24  38  63  92 118 158 202 241 295 356
#
# _framework density 22.397705999999999
#
# number of rings (size 3 to 8) (size 9 to 14) (size 15 to 20)
#    0.000    1.714    0.000    6.857    0.000    8.000 
#    0.000    0.000    0.000    0.000    0.000    0.000 
#    0.000    0.000    0.000    0.000    0.000    0.000 
#
# Total GULP energy -78321.953536 kJ/mol
# GULP energy per Si atom -5594.425253 kJ/mol
# Density = 2.234673 g / cm^3
# Si number density = 22.397706 Si / 1000 Ang^3
#
#
#
# Elastic Constant Matrix: (Units=GPa)
#
#
# Indices 1 2 3 4 5 6 
#
# 1 57.3574 9.0000 27.0896 0.0000 7.1536 0.0000
# 2 9.0000 63.5567 4.0411 0.0000 18.2823 0.0000
# 3 27.0896 4.0411 88.0343 0.0000 36.4209 0.0000
# 4 0.0000 0.0000 0.0000 31.0703 0.0000 15.8743
# 5 7.1536 18.2823 36.4209 0.0000 31.9589 0.0000
# 6 0.0000 0.0000 0.0000 15.8743 0.0000 23.6622
#
#
#
# Elastic Compliance Matrix: (Units=1/GPa)
#
#
# Indices 1 2 3 4 5 6 
#
# 1 0.022165 -0.005533 -0.011018 0.000000 0.010761 0.000000
# 2 -0.005533 0.022641 0.010424 0.000000 -0.023593 0.000000
# 3 -0.011018 0.010424 0.029739 0.000000 -0.037388 0.000000
# 4 0.000000 0.000000 0.000000 0.048970 0.000000 -0.032853
# 5 0.010761 -0.023593 -0.037388 0.000000 0.084986 0.000000
# 6 0.000000 0.000000 0.000000 -0.032853 0.000000 0.064301
#
#
# Mechanical properties :
#
#
# Convention : Reuss Voigt Hill
#
# Bulk Modulus (GPa) = 16.05395 32.13442 24.09419
# Shear Modulus (GPa) = 16.34943 28.59279 22.47111
#
# Velocity S-wave (km/s) = 2.70471 3.57682 3.17089
# Velocity P-wave (km/s) = 4.11548 5.60683 4.91801
#
# Compressibility (1/GPa) = 0.06228997
#
# Stress axis : x y z
#
# Youngs Moduli (GPa) = 45.11701 44.16693 33.62575
#
# Poissons Ratio (x) = 0.24439 0.37050
# Poissons Ratio (y) = 0.24965 -0.35052
# Poissons Ratio (z) = 0.49711 -0.46040
#
# Static dielectric constant tensor:
#      x y z
#    x 1.808480 0.000000 -0.007850 
#    y 0.000000 1.814730 0.000000 
#    z -0.007850 0.000000 1.788160 
# 
# From -- ./inp_files/20847.got.cif
#   From: 2010.05.17/outbox.cif.g08.bks.cpg/sg9_11_cif.got.tgz:20847.got - 2010.06.03 20:04:27.
