data_PCOD9137408
_publ_section_title
;
Structure prediction by ZEFSAII (Michael W. Deem and Ramdas Pophale) SiO2 
 PCOD9137408
Probable space group: C C
;
_chemical_formula_sum "Si O2"
_cell_formula_units_Z 28
_cell_length_a 10.276422
_cell_length_b 10.564194
_cell_length_c 10.959631
_cell_angle_alpha 90.000000
_cell_angle_beta 98.409240
_cell_angle_gamma 90.000000
_cell_volume 1177.008897
_symmetry_space_group_name_H-M "C C"
_symmetry_group_IT_number 9
_symmetry_cell_setting 'monoclinic'
loop_
_space_group_symop_operation_xyz
x,y,z
x,-y,1/2+z
1/2+x,1/2+y,z
1/2+x,1/2-y,1/2+z
loop_
_atom_site_type_symbol
_atom_site_label
_atom_site_fract_x
_atom_site_fract_y
_atom_site_fract_z
Si Si1 0.143350 0.817324 0.313870
Si Si2 0.286621 0.356613 0.688955
Si Si3 0.153290 0.089432 0.065653
Si Si4 0.871999 0.118930 0.672083
Si Si5 0.483751 0.351634 0.946497
Si Si6 0.625885 0.215911 0.771125
Si Si7 0.864544 0.593239 0.677707
O O1 0.153070 0.688678 0.236538
O O2 0.274110 0.893973 0.288474
O O3 0.013888 0.889755 0.254216
O O4 0.144642 0.807469 0.457726
O O5 0.303794 0.487136 0.623615
O O6 0.383024 0.370196 0.820750
O O7 0.329772 0.232933 0.618464
O O8 0.295836 0.022664 0.101057
O O9 0.109613 0.159659 0.182601
O O10 0.059059 0.975496 0.006969
O O11 0.902710 0.194421 0.552595
O O12 0.771946 0.175210 0.756782
O O13 0.590294 0.256919 0.902947
O O14 0.519006 0.107386 0.721919
#
# Coordination Sequence:
#
# PCOD9137408 Si02
#       7
#     4   4   4   4   4   4   4
#     4  10  22  41  72 100 138 187 238 287 358 444
#     4   9  21  42  67 101 135 181 241 285 349 437
#     4  12  21  43  76  98 137 196 237 292 372 426
#     4  12  23  45  70 102 146 190 232 306 369 422
#     4  11  20  42  69  94 137 186 234 289 353 433
#     4  11  27  41  69 109 137 185 248 296 365 430
#     4   9  22  42  65  98 138 177 240 293 338 438
#
# _framework density 23.789117000000001
#
# number of rings (size 3 to 8) (size 9 to 14) (size 15 to 20)
#    0.857    0.571    2.857    3.429    0.000    2.286 
#    5.143    2.857    0.000    0.000    0.000    0.000 
#    0.000    0.000    0.000    0.000    0.000    0.000 
#
# Total GULP energy -78017.367643 kJ/mol
# GULP energy per Si atom -5572.669117 kJ/mol
# Density = 2.373497 g / cm^3
# Si number density = 23.789117 Si / 1000 Ang^3
#
#
#
# Elastic Constant Matrix: (Units=GPa)
#
#
# Indices 1 2 3 4 5 6 
#
# 1 126.8036 36.6174 30.6838 0.0000 -18.5126 0.0000
# 2 36.6174 77.8741 12.3474 0.0000 -11.4701 0.0000
# 3 30.6838 12.3474 63.7489 0.0000 -16.6751 0.0000
# 4 0.0000 0.0000 0.0000 27.2211 0.0000 -0.3023
# 5 -18.5126 -11.4701 -16.6751 0.0000 39.1996 0.0000
# 6 0.0000 0.0000 0.0000 -0.3023 0.0000 34.0477
#
#
#
# Elastic Compliance Matrix: (Units=1/GPa)
#
#
# Indices 1 2 3 4 5 6 
#
# 1 0.010197 -0.003910 -0.003590 0.000000 0.002145 0.000000
# 2 -0.003910 0.015098 -0.000416 0.000000 0.002394 0.000000
# 3 -0.003590 -0.000416 0.019151 0.000000 0.006329 0.000000
# 4 0.000000 0.000000 0.000000 0.036740 0.000000 0.000326
# 5 0.002145 0.002394 0.006329 0.000000 0.029916 0.000000
# 6 0.000000 0.000000 0.000000 0.000326 0.000000 0.029373
#
#
# Mechanical properties :
#
#
# Convention : Reuss Voigt Hill
#
# Bulk Modulus (GPa) = 34.94735 47.52485 41.23610
# Shear Modulus (GPa) = 30.14862 32.67889 31.41375
#
# Velocity S-wave (km/s) = 3.56382 3.71035 3.63782
# Velocity P-wave (km/s) = 5.62643 6.19488 5.91749
#
# Compressibility (1/GPa) = 0.02861447
#
# Stress axis : x y z
#
# Youngs Moduli (GPa) = 98.06825 66.23268 52.21765
#
# Poissons Ratio (x) = 0.25895 0.18745
# Poissons Ratio (y) = 0.38342 0.02173
# Poissons Ratio (z) = 0.35205 0.02757
#
# Static dielectric constant tensor:
#      x y z
#    x 1.967640 0.000000 -0.017190 
#    y 0.000000 2.008340 0.000000 
#    z -0.017190 0.000000 1.908750 
# 
# From -- ./inp_files/16049.got.cif
#   From: 2010.05.17/outbox.cif.g08.bks.cpg/sg9_9_cif.got.tgz:16049.got - 2010.06.03 20:04:27.
