data_PCOD9137430
_publ_section_title
;
Structure prediction by ZEFSAII (Michael W. Deem and Ramdas Pophale) SiO2 
 PCOD9137430
Probable space group: C C
;
_chemical_formula_sum "Si O2"
_cell_formula_units_Z 32
_cell_length_a 11.833838
_cell_length_b 12.197840
_cell_length_c 16.443901
_cell_angle_alpha 90.000000
_cell_angle_beta 150.583333
_cell_angle_gamma 90.000000
_cell_volume 1165.826407
_symmetry_space_group_name_H-M "C C"
_symmetry_group_IT_number 9
_symmetry_cell_setting 'monoclinic'
loop_
_space_group_symop_operation_xyz
x,y,z
x,-y,1/2+z
1/2+x,1/2+y,z
1/2+x,1/2-y,1/2+z
loop_
_atom_site_type_symbol
_atom_site_label
_atom_site_fract_x
_atom_site_fract_y
_atom_site_fract_z
Si Si1 0.350340 0.133579 0.953860
Si Si2 0.642420 0.772296 0.252378
Si Si3 0.555723 0.112134 0.860303
Si Si4 0.804183 0.313290 0.615323
Si Si5 0.075629 0.023583 0.490218
Si Si6 0.723322 0.401506 0.908215
Si Si7 0.800441 0.211450 0.291364
Si Si8 0.547474 0.120916 0.420185
O O1 0.208737 0.201350 0.799452
O O2 0.315314 0.156824 0.027440
O O3 0.608759 0.178063 0.107349
O O4 0.317232 0.005734 0.917890
O O5 0.681894 0.859172 0.353375
O O6 0.547000 0.669723 0.245205
O O7 0.452120 0.831614 0.077355
O O8 0.832474 0.696514 0.322797
O O9 0.297408 0.075098 0.671723
O O10 0.510465 0.225157 0.879904
O O11 0.611835 0.007634 0.952731
O O12 0.594042 0.394005 0.513366
O O13 0.752057 0.185937 0.591398
O O14 0.010859 0.350279 0.801930
O O15 0.105099 0.049826 0.413446
O O16 0.862671 0.099506 0.377967
#
# Coordination Sequence:
#
# PCOD9137430 Si02
#       8
#     4   4   4   4   4   4   4   4
#     4  11  25  40  68  96 138 177 233 287 354 418
#     4  11  22  41  68  95 138 183 226 284 355 407
#     4  10  22  42  66 102 137 174 229 294 336 424
#     4  10  23  45  61  94 136 176 223 289 333 414
#     4   9  20  40  65  91 137 172 218 279 343 402
#     4  10  22  42  62 100 135 176 226 290 337 425
#     4  12  21  41  69  97 130 180 226 280 354 417
#     4  11  23  43  67  93 139 180 233 281 348 417
#
# _framework density 27.448338
#
# number of rings (size 3 to 8) (size 9 to 14) (size 15 to 20)
#    0.000    1.500    2.500    3.000    1.750    0.000 
#    0.000    3.750    0.000    0.000    0.000    0.000 
#    0.000    0.000    0.000    0.000    0.000    0.000 
#
# Total GULP energy -89250.493355 kJ/mol
# GULP energy per Si atom -5578.155835 kJ/mol
# Density = 2.738586 g / cm^3
# Si number density = 27.448338 Si / 1000 Ang^3
#
#
#
# Elastic Constant Matrix: (Units=GPa)
#
#
# Indices 1 2 3 4 5 6 
#
# 1 122.4959 22.8747 8.2920 0.0012 -0.4118 -0.0002
# 2 22.8747 222.9628 47.4923 0.0049 0.6312 0.0020
# 3 8.2920 47.4923 37.8866 0.0101 -7.8085 0.0050
# 4 0.0012 0.0049 0.0101 54.2124 0.0051 -5.0121
# 5 -0.4118 0.6312 -7.8085 0.0051 32.2494 0.0017
# 6 -0.0002 0.0020 0.0050 -5.0121 0.0017 37.8228
#
#
#
# Elastic Compliance Matrix: (Units=1/GPa)
#
#
# Indices 1 2 3 4 5 6 
#
# 1 0.008353 -0.000629 -0.001069 0.000000 -0.000140 0.000000
# 2 -0.000629 0.006302 -0.008198 0.000001 -0.002116 0.000001
# 3 -0.001069 -0.008198 0.038875 -0.000008 0.009560 -0.000006
# 4 0.000000 0.000001 -0.000008 0.018675 -0.000005 0.002475
# 5 -0.000140 -0.002116 0.009560 -0.000005 0.033363 -0.000003
# 6 0.000000 0.000001 -0.000006 0.002475 -0.000003 0.026767
#
#
# Mechanical properties :
#
#
# Convention : Reuss Voigt Hill
#
# Bulk Modulus (GPa) = 29.63946 60.07373 44.85660
# Shear Modulus (GPa) = 30.60504 45.16933 37.88718
#
# Velocity S-wave (km/s) = 3.34279 4.06102 3.71928
# Velocity P-wave (km/s) = 5.07156 6.62742 5.90099
#
# Compressibility (1/GPa) = 0.03373881
#
# Stress axis : x y z
#
# Youngs Moduli (GPa) = 119.71965 158.68449 25.72327
#
# Poissons Ratio (x) = 0.09981 0.02749
# Poissons Ratio (y) = 0.07530 0.21088
# Poissons Ratio (z) = 0.12792 1.30091
#
# Static dielectric constant tensor:
#      x y z
#    x 2.392710 0.000000 0.050370 
#    y 0.000000 2.176750 0.000000 
#    z 0.050370 0.000000 2.074560 
# 
# From -- ./inp_files/30691.got.cif
#   From: 2010.05.17/outbox.cif.g08.bks.cpg/sg9_16_cif.got.tgz:30691.got - 2010.06.03 20:04:27.
