data_PCOD9137963
_publ_section_title
;
Structure prediction by ZEFSAII (Michael W. Deem and Ramdas Pophale) SiO2 
 PCOD9137963
Probable space group: C C
;
_chemical_formula_sum "Si O2"
_cell_formula_units_Z 32
_cell_length_a 12.750925
_cell_length_b 21.719835
_cell_length_c 13.224472
_cell_angle_alpha 90.000000
_cell_angle_beta 157.488723
_cell_angle_gamma 90.000000
_cell_volume 1402.240544
_symmetry_space_group_name_H-M "C C"
_symmetry_group_IT_number 9
_symmetry_cell_setting 'monoclinic'
loop_
_space_group_symop_operation_xyz
x,y,z
x,-y,1/2+z
1/2+x,1/2+y,z
1/2+x,1/2-y,1/2+z
loop_
_atom_site_type_symbol
_atom_site_label
_atom_site_fract_x
_atom_site_fract_y
_atom_site_fract_z
Si Si1 0.052130 0.523655 0.863030
Si Si2 0.634157 0.704747 0.864847
Si Si3 0.267988 0.925928 0.811620
Si Si4 0.898389 0.383501 0.735520
Si Si5 0.754643 0.001678 0.817099
Si Si6 0.567899 0.406091 0.863382
Si Si7 0.349018 0.364076 0.961730
Si Si8 0.285346 0.289411 0.705507
O O1 0.161981 0.520634 0.846756
O O2 0.911643 0.457366 0.745201
O O3 0.822686 0.576326 0.661535
O O4 0.329901 0.542282 0.167940
O O5 0.377891 0.749358 0.614033
O O6 0.630494 0.661531 0.761116
O O7 0.642928 0.653628 0.961517
O O8 0.403398 0.873613 0.861068
O O9 0.177918 0.907205 0.845116
O O10 0.998559 0.950956 0.515144
O O11 0.483721 0.982592 0.012712
O O12 0.142770 0.367593 0.874289
O O13 0.851879 0.931546 0.915143
O O14 0.428557 0.342029 0.766547
O O15 0.257920 0.317207 0.793889
O O16 0.999329 0.266616 0.406666
#
# Coordination Sequence:
#
# PCOD9137963 Si02
#       8
#     4   4   4   4   4   4   4   4
#     4   9  21  38  67  98 136 174 217 281 343 413
#     4  12  26  44  65  93 138 186 230 279 331 410
#     4  10  23  41  68 103 139 174 216 288 344 424
#     4  11  26  41  73 101 142 175 232 280 359 407
#     4   9  22  38  64 101 138 175 218 266 355 411
#     4  10  22  46  66  97 137 177 229 282 344 403
#     4  11  26  43  70 100 139 182 230 284 343 408
#     4  12  28  45  71  97 133 187 236 286 333 402
#
# _framework density 22.820620000000002
#
# number of rings (size 3 to 8) (size 9 to 14) (size 15 to 20)
#    0.000    1.500    1.250    1.500   15.750    0.000 
#    0.000    1.250    0.000    0.000    0.000    0.000 
#    0.000    0.000    0.000    0.000    0.000    0.000 
#
# Total GULP energy -89250.708755 kJ/mol
# GULP energy per Si atom -5578.169297 kJ/mol
# Density = 2.276868 g / cm^3
# Si number density = 22.820620 Si / 1000 Ang^3
#
#
#
# Elastic Constant Matrix: (Units=GPa)
#
#
# Indices 1 2 3 4 5 6 
#
# 1 126.3832 34.7472 20.3086 -0.0011 17.1746 -0.0012
# 2 34.7472 95.2731 25.5586 0.0003 -7.7066 0.0005
# 3 20.3086 25.5586 111.2111 -0.0016 -4.5994 -0.0012
# 4 -0.0011 0.0003 -0.0016 38.8833 -0.0021 0.7093
# 5 17.1746 -7.7066 -4.5994 -0.0021 25.0594 -0.0018
# 6 -0.0012 0.0005 -0.0012 0.7093 -0.0018 36.0873
#
#
#
# Elastic Compliance Matrix: (Units=1/GPa)
#
#
# Indices 1 2 3 4 5 6 
#
# 1 0.010446 -0.004160 -0.001310 0.000000 -0.008679 0.000000
# 2 -0.004160 0.013070 -0.001975 0.000000 0.006508 0.000000
# 3 -0.001310 -0.001975 0.009771 0.000000 0.002084 0.000000
# 4 0.000000 0.000000 0.000000 0.025727 0.000002 -0.000506
# 5 -0.008679 0.006508 0.002084 0.000002 0.048238 0.000002
# 6 0.000000 0.000000 0.000000 -0.000506 0.000002 0.027721
#
#
# Mechanical properties :
#
#
# Convention : Reuss Voigt Hill
#
# Bulk Modulus (GPa) = 54.35961 54.89959 54.62960
# Shear Modulus (GPa) = 32.05209 36.82287 34.43748
#
# Velocity S-wave (km/s) = 3.75176 4.02130 3.88886
# Velocity P-wave (km/s) = 6.52991 6.75798 6.64492
#
# Compressibility (1/GPa) = 0.01839601
#
# Stress axis : x y z
#
# Youngs Moduli (GPa) = 95.72719 76.51277 102.34098
#
# Poissons Ratio (x) = 0.31833 0.13411
# Poissons Ratio (y) = 0.39827 0.20210
# Poissons Ratio (z) = 0.12545 0.15110
#
# Static dielectric constant tensor:
#      x y z
#    x 1.988610 0.000000 0.024820 
#    y 0.000000 1.853250 0.000000 
#    z 0.024820 0.000000 1.928960 
# 
# From -- ./inp_files/26138.got.cif
#   From: 2010.05.17/outbox.cif.g08.bks.cpg/sg9_14_cif.got.tgz:26138.got - 2010.06.03 20:04:27.
