data_PCOD9137739
_publ_section_title
;
Structure prediction by ZEFSAII (Michael W. Deem and Ramdas Pophale) SiO2 
 PCOD9137739
Probable space group: C C
;
_chemical_formula_sum "Si O2"
_cell_formula_units_Z 32
_cell_length_a 13.728765
_cell_length_b 10.430399
_cell_length_c 18.822295
_cell_angle_alpha 90.000000
_cell_angle_beta 29.525775
_cell_angle_gamma 90.000000
_cell_volume 1328.277845
_symmetry_space_group_name_H-M "C C"
_symmetry_group_IT_number 9
_symmetry_cell_setting 'monoclinic'
loop_
_space_group_symop_operation_xyz
x,y,z
x,-y,1/2+z
1/2+x,1/2+y,z
1/2+x,1/2-y,1/2+z
loop_
_atom_site_type_symbol
_atom_site_label
_atom_site_fract_x
_atom_site_fract_y
_atom_site_fract_z
Si Si1 0.133090 0.759581 0.081170
Si Si2 0.121213 0.186967 0.302917
Si Si3 0.527676 0.355021 0.299793
Si Si4 0.138631 0.482872 0.290319
Si Si5 0.977288 0.510487 0.737258
Si Si6 0.925400 0.536840 0.568645
Si Si7 0.270221 0.390247 0.956505
Si Si8 0.052874 0.058830 0.497928
O O1 0.052485 0.834662 0.200051
O O2 0.095682 0.834154 0.031575
O O3 0.033639 0.619051 0.156289
O O4 0.368930 0.739059 0.934515
O O5 0.181137 0.332476 0.279300
O O6 0.306726 0.097365 0.160957
O O7 0.039076 0.126066 0.429150
O O8 0.943894 0.211297 0.357479
O O9 0.746279 0.362419 0.192701
O O10 0.415286 0.489245 0.378397
O O11 0.364559 0.527321 0.137078
O O12 0.034913 0.508473 0.281543
O O13 0.002118 0.529559 0.440048
O O14 0.114492 0.620881 0.618966
O O15 0.747184 0.529013 0.872638
O O16 0.123154 0.576315 0.485791
#
# Coordination Sequence:
#
# PCOD9137739 Si02
#       8
#     4   4   4   4   4   4   4   4
#     4  11  22  40  68 100 131 166 222 286 333 392
#     4  11  24  43  69 100 134 172 225 275 334 403
#     4  10  23  40  68  96 130 170 224 278 334 394
#     4  12  26  40  68 102 133 174 229 277 332 402
#     4  11  23  40  65  97 139 166 218 281 337 394
#     4  11  24  43  66  97 137 179 219 275 340 400
#     4  10  22  44  66  96 134 178 209 275 342 397
#     4  12  22  40  70 102 126 173 224 279 336 390
#
# _framework density 24.091346000000001
#
# number of rings (size 3 to 8) (size 9 to 14) (size 15 to 20)
#    0.000    1.000    3.750    3.000    5.250    1.000 
#    0.000    2.500    0.000    0.000    0.000    0.000 
#    0.000    0.000    0.000    0.000    0.000    0.000 
#
# Total GULP energy -89315.999269 kJ/mol
# GULP energy per Si atom -5582.249954 kJ/mol
# Density = 2.403651 g / cm^3
# Si number density = 24.091346 Si / 1000 Ang^3
#
#
#
# Elastic Constant Matrix: (Units=GPa)
#
#
# Indices 1 2 3 4 5 6 
#
# 1 110.0326 -2.1224 47.5765 -0.0002 -4.2140 0.0000
# 2 -2.1224 17.4200 22.9794 -0.0008 -4.1046 0.0000
# 3 47.5765 22.9794 151.5329 -0.0027 -8.5215 0.0005
# 4 -0.0002 -0.0008 -0.0027 7.9102 0.0002 1.0620
# 5 -4.2140 -4.1046 -8.5215 0.0002 61.5718 0.0001
# 6 0.0000 0.0000 0.0005 1.0620 0.0001 26.0595
#
#
#
# Elastic Compliance Matrix: (Units=1/GPa)
#
#
# Indices 1 2 3 4 5 6 
#
# 1 0.011281 0.007687 -0.004672 -0.000001 0.000638 0.000000
# 2 0.007687 0.077672 -0.013980 0.000003 0.003769 0.000000
# 3 -0.004672 -0.013980 0.010195 0.000002 0.000159 0.000000
# 4 -0.000001 0.000003 0.000002 0.127115 0.000000 -0.005180
# 5 0.000638 0.003769 0.000159 0.000000 0.016558 0.000000
# 6 0.000000 0.000000 0.000000 -0.005180 0.000000 0.038585
#
#
# Mechanical properties :
#
#
# Convention : Reuss Voigt Hill
#
# Bulk Modulus (GPa) = 12.95022 46.20581 29.57801
# Shear Modulus (GPa) = 15.19411 33.14509 24.16960
#
# Velocity S-wave (km/s) = 2.51407 3.71321 3.17085
# Velocity P-wave (km/s) = 3.71679 6.13229 5.07048
#
# Compressibility (1/GPa) = 0.07721876
#
# Stress axis : x y z
#
# Youngs Moduli (GPa) = 88.64526 12.87465 98.08717
#
# Poissons Ratio (x) = -0.09897 0.45824
# Poissons Ratio (y) = -0.68145 1.37129
# Poissons Ratio (z) = 0.41413 0.17999
#
# Static dielectric constant tensor:
#      x y z
#    x 1.952020 0.000000 -0.040080 
#    y 0.000000 2.035870 0.000000 
#    z -0.040080 0.000000 1.956070 
# 
# From -- ./inp_files/12245.got.cif
#   From: 2010.05.17/outbox.cif.g08.bks.cpg/sg9_7_cif.got.tgz:12245.got - 2010.06.03 20:04:27.
