data_PCOD9137572
_publ_section_title
;
Structure prediction by ZEFSAII (Michael W. Deem and Ramdas Pophale) SiO2 
 PCOD9137572
Probable space group: C C
;
_chemical_formula_sum "Si O2"
_cell_formula_units_Z 28
_cell_length_a 20.690210
_cell_length_b 9.787737
_cell_length_c 9.699200
_cell_angle_alpha 90.000000
_cell_angle_beta 142.765550
_cell_angle_gamma 90.000000
_cell_volume 1188.486953
_symmetry_space_group_name_H-M "C C"
_symmetry_group_IT_number 9
_symmetry_cell_setting 'monoclinic'
loop_
_space_group_symop_operation_xyz
x,y,z
x,-y,1/2+z
1/2+x,1/2+y,z
1/2+x,1/2-y,1/2+z
loop_
_atom_site_type_symbol
_atom_site_label
_atom_site_fract_x
_atom_site_fract_y
_atom_site_fract_z
Si Si1 0.718580 0.243014 0.763400
Si Si2 0.311167 0.469093 0.947792
Si Si3 0.444121 0.925622 0.461213
Si Si4 0.048358 0.302991 0.195853
Si Si5 0.798357 0.543100 0.964594
Si Si6 0.123273 0.262003 0.622005
Si Si7 0.352777 0.369241 0.290073
O O1 0.790821 0.125837 0.961009
O O2 0.608646 0.231369 0.656938
O O3 0.758685 0.395746 0.844866
O O4 0.735387 0.186361 0.636149
O O5 0.197884 0.396196 0.749669
O O6 0.362218 0.487790 0.885977
O O7 0.374625 0.387807 0.168953
O O8 0.527688 0.035696 0.666504
O O9 0.367420 0.888938 0.458581
O O10 0.512823 0.805231 0.507911
O O11 0.372634 0.005419 0.222911
O O12 0.103375 0.240885 0.424592
O O13 0.933379 0.235101 0.992609
O O14 0.694193 0.639179 0.805546
#
# Coordination Sequence:
#
# PCOD9137572 Si02
#       7
#     4   4   4   4   4   4   4
#     4  10  23  43  72  98 148 182 240 306 363 429
#     4  10  22  43  71 102 142 184 245 294 368 443
#     4  12  23  49  77 104 154 198 247 313 383 450
#     4  12  23  45  72 104 144 193 246 304 374 444
#     4  12  27  49  74 110 152 193 251 316 380 444
#     4  12  26  43  77 109 138 204 251 299 386 449
#     4  10  22  42  73 101 142 190 238 302 370 439
#
# _framework density 23.559367999999999
#
# number of rings (size 3 to 8) (size 9 to 14) (size 15 to 20)
#    0.857    0.000    4.286    2.571    0.000    2.286 
#    2.571    0.000    0.000    0.000    0.000    0.000 
#    0.000    0.000    0.000    0.000    0.000    0.000 
#
# Total GULP energy -78114.000139 kJ/mol
# GULP energy per Si atom -5579.571439 kJ/mol
# Density = 2.350575 g / cm^3
# Si number density = 23.559368 Si / 1000 Ang^3
#
#
#
# Elastic Constant Matrix: (Units=GPa)
#
#
# Indices 1 2 3 4 5 6 
#
# 1 72.4845 16.4070 42.9882 0.0000 -2.6451 0.0000
# 2 16.4070 96.9258 35.1232 0.0000 4.2144 0.0000
# 3 42.9882 35.1232 78.2808 0.0000 -9.9699 0.0000
# 4 0.0000 0.0000 0.0000 31.3950 0.0000 11.3902
# 5 -2.6451 4.2144 -9.9699 0.0000 30.5279 0.0000
# 6 0.0000 0.0000 0.0000 11.3902 0.0000 30.7574
#
#
#
# Elastic Compliance Matrix: (Units=1/GPa)
#
#
# Indices 1 2 3 4 5 6 
#
# 1 0.020649 0.000978 -0.012070 0.000000 -0.002288 0.000000
# 2 0.000978 0.012771 -0.006762 0.000000 -0.003887 0.000000
# 3 -0.012070 -0.006762 0.023396 0.000000 0.007528 0.000000
# 4 0.000000 0.000000 0.000000 0.036796 0.000000 -0.013626
# 5 -0.002288 -0.003887 0.007528 0.000000 0.035554 0.000000
# 6 0.000000 0.000000 0.000000 -0.013626 0.000000 0.037559
#
#
# Mechanical properties :
#
#
# Convention : Reuss Voigt Hill
#
# Bulk Modulus (GPa) = 47.37579 48.52533 47.95056
# Shear Modulus (GPa) = 23.86991 28.74759 26.30875
#
# Velocity S-wave (km/s) = 3.18650 3.49695 3.34533
# Velocity P-wave (km/s) = 5.80441 6.07838 5.94297
#
# Compressibility (1/GPa) = 0.02110783
#
# Stress axis : x y z
#
# Youngs Moduli (GPa) = 48.42737 78.30204 42.74310
#
# Poissons Ratio (x) = -0.07657 0.51590
# Poissons Ratio (y) = -0.04735 0.28903
# Poissons Ratio (z) = 0.58451 0.52949
#
# Static dielectric constant tensor:
#      x y z
#    x 1.914970 0.000000 -0.025050 
#    y 0.000000 1.885240 0.000000 
#    z -0.025050 0.000000 1.928240 
# 
# From -- ./inp_files/11616.got.cif
#   From: 2010.05.17/outbox.cif.g08.bks.cpg/sg9_6_cif.got.tgz:11616.got - 2010.06.03 20:04:27.
