data_PCOD9137216
_publ_section_title
;
Structure prediction by ZEFSAII (Michael W. Deem and Ramdas Pophale) SiO2 
 PCOD9137216
Probable space group: C C
;
_chemical_formula_sum "Si O2"
_cell_formula_units_Z 24
_cell_length_a 19.246053
_cell_length_b 4.842615
_cell_length_c 11.609458
_cell_angle_alpha 90.000000
_cell_angle_beta 115.946697
_cell_angle_gamma 90.000000
_cell_volume 972.950124
_symmetry_space_group_name_H-M "C C"
_symmetry_group_IT_number 9
_symmetry_cell_setting 'monoclinic'
loop_
_space_group_symop_operation_xyz
x,y,z
x,-y,1/2+z
1/2+x,1/2+y,z
1/2+x,1/2-y,1/2+z
loop_
_atom_site_type_symbol
_atom_site_label
_atom_site_fract_x
_atom_site_fract_y
_atom_site_fract_z
Si Si1 0.366950 0.070969 0.550410
Si Si2 0.014748 0.601039 0.280541
Si Si3 0.074772 0.915553 0.699341
Si Si4 0.833217 0.012299 0.213020
Si Si5 0.972877 0.269400 0.452515
Si Si6 0.751702 0.501851 0.274717
O O1 0.421747 0.913140 0.685364
O O2 0.351023 0.371408 0.595940
O O3 0.286724 0.988280 0.430838
O O4 0.421613 0.996789 0.482307
O O5 0.054114 0.895321 0.296001
O O6 0.026211 0.450939 0.409059
O O7 0.053199 0.395266 0.215408
O O8 0.018753 0.063804 0.567649
O O9 0.161948 0.938461 0.722693
O O10 0.912127 0.083819 0.337629
O O11 0.770264 0.223667 0.220757
O O12 0.795395 0.727775 0.226928
#
# Coordination Sequence:
#
# PCOD9137216 Si02
#       6
#     4   4   4   4   4   4
#     4   9  21  41  65  92 124 163 211 265 312 375
#     4  10  22  40  65  92 125 171 216 257 317 381
#     4  11  23  40  61  94 131 166 210 264 321 380
#     4  10  22  40  65  92 123 167 212 255 316 379
#     4   9  21  41  67  95 128 168 216 268 315 379
#     4  11  23  40  61  93 129 163 207 261 319 378
#
# _framework density 24.667244
#
# number of rings (size 3 to 8) (size 9 to 14) (size 15 to 20)
#    0.000    2.000    0.000    2.000    0.000   17.333 
#    0.000    3.333    0.000    0.000    0.000    0.000 
#    0.000    0.000    0.000    0.000    0.000    0.000 
#
# Total GULP energy -67034.049055 kJ/mol
# GULP energy per Si atom -5586.170755 kJ/mol
# Density = 2.461110 g / cm^3
# Si number density = 24.667244 Si / 1000 Ang^3
#
#
#
# Elastic Constant Matrix: (Units=GPa)
#
#
# Indices 1 2 3 4 5 6 
#
# 1 157.9152 23.7560 23.5797 -0.0001 15.1798 0.0000
# 2 23.7560 86.6370 -3.1129 -0.0002 -2.3205 0.0002
# 3 23.5797 -3.1129 62.5528 0.0000 -10.9530 0.0000
# 4 -0.0001 -0.0002 0.0000 26.9534 0.0000 -10.1394
# 5 15.1798 -2.3205 -10.9530 0.0000 27.0090 0.0000
# 6 0.0000 0.0002 0.0000 -10.1394 0.0000 36.7833
#
#
#
# Elastic Compliance Matrix: (Units=1/GPa)
#
#
# Indices 1 2 3 4 5 6 
#
# 1 0.007960 -0.002507 -0.004248 0.000000 -0.006412 0.000000
# 2 -0.002507 0.012397 0.002148 0.000000 0.003345 0.000000
# 3 -0.004248 0.002148 0.019532 0.000000 0.010493 0.000000
# 4 0.000000 0.000000 0.000000 0.041393 0.000000 0.011410
# 5 -0.006412 0.003345 0.010493 0.000000 0.045171 0.000000
# 6 0.000000 0.000000 0.000000 0.011410 0.000000 0.030331
#
#
# Mechanical properties :
#
#
# Convention : Reuss Voigt Hill
#
# Bulk Modulus (GPa) = 32.60113 43.95006 38.27560
# Shear Modulus (GPa) = 28.37282 35.67463 32.02373
#
# Velocity S-wave (km/s) = 3.39517 3.80707 3.60700
# Velocity P-wave (km/s) = 5.34927 6.09761 5.73566
#
# Compressibility (1/GPa) = 0.03067378
#
# Stress axis : x y z
#
# Youngs Moduli (GPa) = 125.62190 80.66699 51.19782
#
# Poissons Ratio (x) = 0.20224 0.21750
# Poissons Ratio (y) = 0.31495 -0.10996
# Poissons Ratio (z) = 0.53367 -0.17325
#
# Static dielectric constant tensor:
#      x y z
#    x 1.923850 0.000000 -0.067840 
#    y 0.000000 2.008320 0.000000 
#    z -0.067840 0.000000 2.067860 
# 
# From -- ./inp_files/18732.got.cif
#   From: 2010.05.17/outbox.cif.g08.bks.cpg/sg9_10_cif.got.tgz:18732.got - 2010.06.03 20:04:27.
