data_PCOD9137639
_publ_section_title
;
Structure prediction by ZEFSAII (Michael W. Deem and Ramdas Pophale) SiO2 
 PCOD9137639
Probable space group: C C
;
_chemical_formula_sum "Si O2"
_cell_formula_units_Z 28
_cell_length_a 11.791884
_cell_length_b 11.203448
_cell_length_c 12.904971
_cell_angle_alpha 90.000000
_cell_angle_beta 135.778780
_cell_angle_gamma 90.000000
_cell_volume 1189.030276
_symmetry_space_group_name_H-M "C C"
_symmetry_group_IT_number 9
_symmetry_cell_setting 'monoclinic'
loop_
_space_group_symop_operation_xyz
x,y,z
x,-y,1/2+z
1/2+x,1/2+y,z
1/2+x,1/2-y,1/2+z
loop_
_atom_site_type_symbol
_atom_site_label
_atom_site_fract_x
_atom_site_fract_y
_atom_site_fract_z
Si Si1 0.030730 0.395119 0.639070
Si Si2 0.040790 0.891685 0.002810
Si Si3 0.138126 0.487422 0.501240
Si Si4 0.178589 0.265576 0.142922
Si Si5 0.851079 0.121780 0.955608
Si Si6 0.270365 0.782643 0.330989
Si Si7 0.339513 0.017937 0.172956
O O1 0.141451 0.422366 0.614155
O O2 0.136690 0.312082 0.783158
O O3 0.859657 0.345912 0.484130
O O4 0.973822 0.501117 0.672468
O O5 0.153895 0.849625 0.173681
O O6 0.181817 0.949040 0.027671
O O7 0.925669 0.996422 0.965811
O O8 0.926356 0.787900 0.885773
O O9 0.173387 0.626121 0.554877
O O10 0.252338 0.416911 0.494704
O O11 0.948049 0.479726 0.342727
O O12 0.254336 0.320285 0.296787
O O13 0.279625 0.152177 0.162746
O O14 0.005307 0.210682 0.064810
#
# Coordination Sequence:
#
# PCOD9137639 Si02
#       7
#     4   4   4   4   4   4   4
#     4  11  25  42  69 105 138 187 239 301 365 450
#     4  10  22  45  67 106 138 187 245 304 368 440
#     4  12  24  47  71 105 145 195 242 309 367 446
#     4  11  25  49  76 108 147 199 243 312 379 435
#     4  11  26  48  76 108 153 195 251 305 376 445
#     4  10  22  43  67  98 141 176 244 297 357 436
#     4  11  24  44  72 104 146 191 246 306 376 444
#
# _framework density 23.5486
#
# number of rings (size 3 to 8) (size 9 to 14) (size 15 to 20)
#    0.000    1.143    2.857    2.571    6.000    1.143 
#    7.714    0.000    0.000    0.000    0.000    0.000 
#    0.000    0.000    0.000    0.000    0.000    0.000 
#
# Total GULP energy -78015.373451 kJ/mol
# GULP energy per Si atom -5572.526675 kJ/mol
# Density = 2.349500 g / cm^3
# Si number density = 23.548600 Si / 1000 Ang^3
#
#
#
# Elastic Constant Matrix: (Units=GPa)
#
#
# Indices 1 2 3 4 5 6 
#
# 1 107.1121 24.2303 35.9663 0.0000 -8.0752 0.0000
# 2 24.2303 93.1052 58.7446 0.0000 10.6366 0.0000
# 3 35.9663 58.7446 140.1709 0.0000 20.4216 0.0000
# 4 0.0000 0.0000 0.0000 62.4246 0.0000 21.2696
# 5 -8.0752 10.6366 20.4216 0.0000 32.0736 0.0000
# 6 0.0000 0.0000 0.0000 21.2696 0.0000 29.8613
#
#
#
# Elastic Compliance Matrix: (Units=1/GPa)
#
#
# Indices 1 2 3 4 5 6 
#
# 1 0.011075 -0.001638 -0.002911 0.000000 0.005185 0.000000
# 2 -0.001638 0.014876 -0.005550 0.000000 -0.001812 0.000000
# 3 -0.002911 -0.005550 0.011073 0.000000 -0.005942 0.000000
# 4 0.000000 0.000000 0.000000 0.021153 0.000000 -0.015067
# 5 0.005185 -0.001812 -0.005942 0.000000 0.036868 0.000000
# 6 0.000000 0.000000 0.000000 -0.015067 0.000000 0.044220
#
#
# Mechanical properties :
#
#
# Convention : Reuss Voigt Hill
#
# Bulk Modulus (GPa) = 59.43236 64.25231 61.84233
# Shear Modulus (GPa) = 30.29026 39.63504 34.96265
#
# Velocity S-wave (km/s) = 3.59038 4.10703 3.85736
# Velocity P-wave (km/s) = 6.51772 7.05935 6.79394
#
# Compressibility (1/GPa) = 0.01682585
#
# Stress axis : x y z
#
# Youngs Moduli (GPa) = 90.29553 67.22427 90.31276
#
# Poissons Ratio (x) = 0.11012 0.26286
# Poissons Ratio (y) = 0.14791 0.50123
# Poissons Ratio (z) = 0.26281 0.37309
#
# Static dielectric constant tensor:
#      x y z
#    x 1.933500 0.000000 -0.000240 
#    y 0.000000 2.093530 0.000000 
#    z -0.000240 0.000000 1.861460 
# 
# From -- ./inp_files/16533.got.cif
#   From: 2010.05.17/outbox.cif.g08.bks.cpg/sg9_9_cif.got.tgz:16533.got - 2010.06.03 20:04:27.
