data_PCOD9137814
_publ_section_title
;
Structure prediction by ZEFSAII (Michael W. Deem and Ramdas Pophale) SiO2 
 PCOD9137814
Probable space group: C C
;
_chemical_formula_sum "Si O2"
_cell_formula_units_Z 24
_cell_length_a 20.068791
_cell_length_b 5.294872
_cell_length_c 32.187939
_cell_angle_alpha 90.000000
_cell_angle_beta 163.950095
_cell_angle_gamma 90.000000
_cell_volume 945.638080
_symmetry_space_group_name_H-M "C C"
_symmetry_group_IT_number 9
_symmetry_cell_setting 'monoclinic'
loop_
_space_group_symop_operation_xyz
x,y,z
x,-y,1/2+z
1/2+x,1/2+y,z
1/2+x,1/2-y,1/2+z
loop_
_atom_site_type_symbol
_atom_site_label
_atom_site_fract_x
_atom_site_fract_y
_atom_site_fract_z
Si Si1 0.313430 0.702947 0.270990
Si Si2 0.355220 0.804906 0.393261
Si Si3 0.298348 0.333288 0.969943
Si Si4 0.847974 0.807813 0.432150
Si Si5 0.275329 0.366612 0.137313
Si Si6 0.611880 0.195160 0.443986
O O1 0.314890 0.756261 0.320975
O O2 0.032557 0.698071 0.090637
O O3 0.451383 0.446700 0.343968
O O4 0.454714 0.946831 0.339901
O O5 0.250013 0.562654 0.352832
O O6 0.647903 0.861842 0.569816
O O7 0.244990 0.058676 0.348143
O O8 0.551470 0.308198 0.310741
O O9 0.314062 0.618245 0.960065
O O10 0.309348 0.316063 0.026211
O O11 0.118857 0.798511 0.576114
O O12 0.203962 0.309930 0.046721
#
# Coordination Sequence:
#
# PCOD9137814 Si02
#       6
#     4   4   4   4   4   4
#     4  11  24  49  72 103 151 188 243 310 367 439
#     4   9  20  46  70  92 141 195 224 291 364 426
#     4  12  27  43  77 116 140 193 258 303 369 450
#     4  10  22  44  70  97 144 185 238 292 363 427
#     4   9  23  47  71 100 146 194 241 300 368 445
#     4  11  26  49  70 108 150 195 242 308 373 445
#
# _framework density 25.379688000000002
#
# number of rings (size 3 to 8) (size 9 to 14) (size 15 to 20)
#    1.000    0.667    1.667    1.000    4.667    2.667 
#    9.000    0.000    0.000    0.000    0.000    0.000 
#    0.000    0.000    0.000    0.000    0.000    0.000 
#
# Total GULP energy -67024.375600 kJ/mol
# GULP energy per Si atom -5585.364633 kJ/mol
# Density = 2.532192 g / cm^3
# Si number density = 25.379688 Si / 1000 Ang^3
#
#
#
# Elastic Constant Matrix: (Units=GPa)
#
#
# Indices 1 2 3 4 5 6 
#
# 1 164.8633 41.1854 30.0622 0.1825 12.7321 -0.2413
# 2 41.1854 177.6210 31.6472 0.1417 8.1190 -0.2159
# 3 30.0622 31.6472 113.6785 0.1516 18.3051 0.0384
# 4 0.1825 0.1417 0.1516 22.7862 -0.0656 5.5422
# 5 12.7321 8.1190 18.3051 -0.0656 37.7257 0.0064
# 6 -0.2413 -0.2159 0.0384 5.5422 0.0064 40.8532
#
#
#
# Elastic Compliance Matrix: (Units=1/GPa)
#
#
# Indices 1 2 3 4 5 6 
#
# 1 0.006712 -0.001279 -0.001191 -0.000052 -0.001412 0.000041
# 2 -0.001279 0.006177 -0.001342 -0.000027 -0.000247 0.000030
# 3 -0.001191 -0.001342 0.010169 -0.000058 -0.004243 -0.000015
# 4 -0.000052 -0.000027 -0.000058 0.045385 0.000132 -0.006157
# 5 -0.001412 -0.000247 -0.004243 0.000132 0.029096 -0.000028
# 6 0.000041 0.000030 -0.000015 -0.006157 -0.000028 0.025314
#
#
# Mechanical properties :
#
#
# Convention : Reuss Voigt Hill
#
# Bulk Modulus (GPa) = 64.79721 73.55027 69.17374
# Shear Modulus (GPa) = 36.86751 43.82420 40.34585
#
# Velocity S-wave (km/s) = 3.81548 4.15992 3.99142
# Velocity P-wave (km/s) = 6.70799 7.21915 6.96826
#
# Compressibility (1/GPa) = 0.01543276
#
# Stress axis : x y z
#
# Youngs Moduli (GPa) = 148.99532 161.89160 98.34175
#
# Poissons Ratio (x) = 0.20712 0.11716
# Poissons Ratio (y) = 0.19062 0.13193
# Poissons Ratio (z) = 0.17750 0.21719
#
# Static dielectric constant tensor:
#      x y z
#    x 2.094880 -0.000160 -0.031000 
#    y -0.000160 2.017530 0.000200 
#    z -0.031000 0.000200 2.021740 
# 
# From -- ./inp_files/37359.got.cif
#   From: 2010.05.17/outbox.cif.g08.bks.cpg/sg9_19_cif.got.tgz:37359.got - 2010.06.03 20:04:27.
