data_PCOD9137434
_publ_section_title
;
Structure prediction by ZEFSAII (Michael W. Deem and Ramdas Pophale) SiO2 
 PCOD9137434
Probable space group: C C
;
_chemical_formula_sum "Si O2"
_cell_formula_units_Z 24
_cell_length_a 25.932941
_cell_length_b 7.176047
_cell_length_c 14.401350
_cell_angle_alpha 90.000000
_cell_angle_beta 24.994862
_cell_angle_gamma 90.000000
_cell_volume 1132.413356
_symmetry_space_group_name_H-M "C C"
_symmetry_group_IT_number 9
_symmetry_cell_setting 'monoclinic'
loop_
_space_group_symop_operation_xyz
x,y,z
x,-y,1/2+z
1/2+x,1/2+y,z
1/2+x,1/2-y,1/2+z
loop_
_atom_site_type_symbol
_atom_site_label
_atom_site_fract_x
_atom_site_fract_y
_atom_site_fract_z
Si Si1 0.773990 0.072744 0.010730
Si Si2 0.162467 0.094326 0.480713
Si Si3 0.774377 0.217535 0.350699
Si Si4 0.717980 0.060692 0.787119
Si Si5 0.030349 0.833488 0.021214
Si Si6 0.553690 0.348317 0.347348
O O1 0.806442 0.991201 0.058823
O O2 0.596358 0.863058 0.433390
O O3 0.743283 0.900583 0.993007
O O4 0.887937 0.173642 0.775965
O O5 0.232530 0.928442 0.414612
O O6 0.248260 0.262060 0.303323
O O7 0.090130 0.039389 0.505719
O O8 0.069343 0.165524 0.710879
O O9 0.710747 0.110231 0.368595
O O10 0.919811 0.212824 0.097753
O O11 0.663084 0.217018 0.204426
O O12 0.060934 0.941351 0.876764
#
# Coordination Sequence:
#
# PCOD9137434 Si02
#       6
#     4   4   4   4   4   4
#     4  11  21  41  64  90 127 162 202 254 304 363
#     4  10  22  43  60  94 121 162 204 253 303 360
#     4  11  23  42  64  91 126 162 203 252 307 360
#     4  10  22  42  63  93 120 163 206 249 307 359
#     4   9  22  39  61  91 122 160 204 254 295 364
#     4  11  22  41  64  93 126 159 207 250 302 372
#
# _framework density 21.193674000000001
#
# number of rings (size 3 to 8) (size 9 to 14) (size 15 to 20)
#    1.000    0.667    1.667    3.000    0.000    1.333 
#    6.000    5.000    0.000    0.000    0.000    0.000 
#    0.000    0.000    0.000    0.000    0.000    0.000 
#
# Total GULP energy -66873.870961 kJ/mol
# GULP energy per Si atom -5572.822580 kJ/mol
# Density = 2.114544 g / cm^3
# Si number density = 21.193674 Si / 1000 Ang^3
#
#
#
# Elastic Constant Matrix: (Units=GPa)
#
#
# Indices 1 2 3 4 5 6 
#
# 1 45.9267 -0.6402 17.2694 0.0000 19.7648 0.0000
# 2 -0.6402 68.7224 41.6778 0.0000 -7.1510 0.0000
# 3 17.2694 41.6778 85.4045 0.0000 3.9807 0.0000
# 4 0.0000 0.0000 0.0000 20.5000 0.0000 -3.3611
# 5 19.7648 -7.1510 3.9807 0.0000 45.4516 0.0000
# 6 0.0000 0.0000 0.0000 -3.3611 0.0000 40.9270
#
#
#
# Elastic Compliance Matrix: (Units=1/GPa)
#
#
# Indices 1 2 3 4 5 6 
#
# 1 0.029499 0.003332 -0.007046 0.000000 -0.011686 0.000000
# 2 0.003332 0.021856 -0.011479 0.000000 0.002995 0.000000
# 3 -0.007046 -0.011479 0.018754 0.000000 -0.000384 0.000000
# 4 0.000000 0.000000 0.000000 0.049446 0.000000 0.004061
# 5 -0.011686 0.002995 -0.000384 0.000000 0.027588 0.000000
# 6 0.000000 0.000000 0.000000 0.004061 0.000000 0.024767
#
#
# Mechanical properties :
#
#
# Convention : Reuss Voigt Hill
#
# Bulk Modulus (GPa) = 25.17504 35.18526 30.18015
# Shear Modulus (GPa) = 23.19789 30.82551 27.01170
#
# Velocity S-wave (km/s) = 3.31201 3.81789 3.57391
# Velocity P-wave (km/s) = 5.15075 6.00607 5.59478
#
# Compressibility (1/GPa) = 0.03972188
#
# Stress axis : x y z
#
# Youngs Moduli (GPa) = 33.89929 45.75490 53.32336
#
# Poissons Ratio (x) = -0.15246 0.37573
# Poissons Ratio (y) = -0.11296 0.61210
# Poissons Ratio (z) = 0.23887 0.52522
#
# Static dielectric constant tensor:
#      x y z
#    x 1.800050 0.000000 -0.020030 
#    y 0.000000 1.755860 0.000000 
#    z -0.020030 0.000000 1.734060 
# 
# From -- ./inp_files/22368.got.cif
#   From: 2010.05.17/outbox.cif.g08.bks.cpg/sg9_12_cif.got.tgz:22368.got - 2010.06.03 20:04:27.
