data_PCOD9137026
_publ_section_title
;
Structure prediction by ZEFSAII (Michael W. Deem and Ramdas Pophale) SiO2 
 PCOD9137026
Probable space group: C C
;
_chemical_formula_sum "Si O2"
_cell_formula_units_Z 32
_cell_length_a 8.780973
_cell_length_b 11.429556
_cell_length_c 17.779878
_cell_angle_alpha 90.000000
_cell_angle_beta 49.641147
_cell_angle_gamma 90.000000
_cell_volume 1359.745962
_symmetry_space_group_name_H-M "C C"
_symmetry_group_IT_number 9
_symmetry_cell_setting 'monoclinic'
loop_
_space_group_symop_operation_xyz
x,y,z
x,-y,1/2+z
1/2+x,1/2+y,z
1/2+x,1/2-y,1/2+z
loop_
_atom_site_type_symbol
_atom_site_label
_atom_site_fract_x
_atom_site_fract_y
_atom_site_fract_z
Si Si1 0.363740 0.281849 0.590220
Si Si2 0.130132 0.333686 0.900284
Si Si3 0.244270 0.117442 0.257707
Si Si4 0.628596 0.004507 0.114855
Si Si5 0.984243 0.114340 0.188864
Si Si6 0.474835 0.354497 0.225330
Si Si7 0.892187 0.815555 0.967670
Si Si8 0.123740 0.411566 0.444739
O O1 0.451508 0.251513 0.479941
O O2 0.242573 0.401133 0.627350
O O3 0.529774 0.311321 0.600075
O O4 0.206246 0.180374 0.660437
O O5 0.273568 0.328727 0.783493
O O6 0.274140 0.314094 0.926261
O O7 0.055665 0.467697 0.927020
O O8 0.399273 0.010048 0.213142
O O9 0.365402 0.240607 0.225429
O O10 0.132130 0.119565 0.213179
O O11 0.090515 0.113623 0.376242
O O12 0.624639 0.057175 0.031647
O O13 0.758038 0.888195 0.068679
O O14 0.963662 0.975072 0.182451
O O15 0.344926 0.383498 0.341491
O O16 0.979559 0.694605 0.970369
#
# Coordination Sequence:
#
# PCOD9137026 Si02
#       8
#     4   4   4   4   4   4   4   4
#     4  11  24  38  62  96 124 158 214 253 310 374
#     4   9  21  39  59  95 121 158 212 253 302 379
#     4   9  20  41  64  90 124 166 208 254 313 369
#     4  10  22  37  61  95 122 156 212 252 306 377
#     4  10  22  42  65  86 131 167 202 260 313 360
#     4   9  21  41  64  89 122 164 210 256 309 370
#     4   9  19  39  65  87 121 164 207 252 312 370
#     4   9  19  39  64  84 123 167 199 258 313 359
#
# _framework density 23.533806999999999
#
# number of rings (size 3 to 8) (size 9 to 14) (size 15 to 20)
#    0.000    2.500    0.000    0.750    7.000    2.000 
#    2.250    0.000   16.500    0.000    0.000    0.000 
#    0.000    0.000    0.000    0.000    0.000    0.000 
#
# Total GULP energy -89316.550719 kJ/mol
# GULP energy per Si atom -5582.284420 kJ/mol
# Density = 2.348024 g / cm^3
# Si number density = 23.533807 Si / 1000 Ang^3
#
#
#
# Elastic Constant Matrix: (Units=GPa)
#
#
# Indices 1 2 3 4 5 6 
#
# 1 31.4548 25.0370 4.7077 0.0000 -9.5989 0.0000
# 2 25.0370 87.9236 28.5861 0.0000 -5.2000 0.0000
# 3 4.7077 28.5861 46.1506 0.0000 -8.6580 0.0000
# 4 0.0000 0.0000 0.0000 36.6985 0.0000 -3.6675
# 5 -9.5989 -5.2000 -8.6580 0.0000 28.9646 0.0000
# 6 0.0000 0.0000 0.0000 -3.6675 0.0000 35.8491
#
#
#
# Elastic Compliance Matrix: (Units=1/GPa)
#
#
# Indices 1 2 3 4 5 6 
#
# 1 0.047182 -0.014899 0.007254 0.000000 0.015130 0.000000
# 2 -0.014899 0.018947 -0.011128 0.000000 -0.004863 0.000000
# 3 0.007254 -0.011128 0.029555 0.000000 0.009241 0.000000
# 4 0.000000 0.000000 0.000000 0.027531 0.000000 0.002816
# 5 0.015130 -0.004863 0.009241 0.000000 0.041428 0.000000
# 6 0.000000 0.000000 0.000000 0.002816 0.000000 0.028183
#
#
# Mechanical properties :
#
#
# Convention : Reuss Voigt Hill
#
# Bulk Modulus (GPa) = 17.20070 31.35452 24.27761
# Shear Modulus (GPa) = 20.01999 27.44901 23.73450
#
# Velocity S-wave (km/s) = 2.91982 3.41891 3.17918
# Velocity P-wave (km/s) = 4.32342 5.37935 4.88003
#
# Compressibility (1/GPa) = 0.05813717
#
# Stress axis : x y z
#
# Youngs Moduli (GPa) = 21.19439 52.77981 33.83568
#
# Poissons Ratio (x) = 0.78638 -0.24545
# Poissons Ratio (y) = 0.31578 0.37653
# Poissons Ratio (z) = -0.15375 0.58734
#
# Static dielectric constant tensor:
#      x y z
#    x 1.920760 0.000000 -0.061340 
#    y 0.000000 1.884920 0.000000 
#    z -0.061340 0.000000 1.948590 
# 
# From -- ./inp_files/22702.got.cif
#   From: 2010.05.17/outbox.cif.g08.bks.cpg/sg9_12_cif.got.tgz:22702.got - 2010.06.03 20:04:27.
