data_PCOD9137459
_publ_section_title
;
Structure prediction by ZEFSAII (Michael W. Deem and Ramdas Pophale) SiO2 
 PCOD9137459
Probable space group: C C
;
_chemical_formula_sum "Si O2"
_cell_formula_units_Z 32
_cell_length_a 15.149773
_cell_length_b 6.737315
_cell_length_c 22.102188
_cell_angle_alpha 90.000000
_cell_angle_beta 38.499457
_cell_angle_gamma 90.000000
_cell_volume 1404.341209
_symmetry_space_group_name_H-M "C C"
_symmetry_group_IT_number 9
_symmetry_cell_setting 'monoclinic'
loop_
_space_group_symop_operation_xyz
x,y,z
x,-y,1/2+z
1/2+x,1/2+y,z
1/2+x,1/2-y,1/2+z
loop_
_atom_site_type_symbol
_atom_site_label
_atom_site_fract_x
_atom_site_fract_y
_atom_site_fract_z
Si Si1 0.260420 0.046442 0.135750
Si Si2 0.733432 0.759619 0.892175
Si Si3 0.541060 0.891031 0.244036
Si Si4 0.111973 0.931988 0.036986
Si Si5 0.420034 0.228615 0.380312
Si Si6 0.525665 0.713334 0.700810
Si Si7 0.568254 0.150302 0.947247
Si Si8 0.146187 0.997171 0.324138
O O1 0.176316 0.252733 0.172235
O O2 0.255376 0.004505 0.209995
O O3 0.165169 0.877227 0.156840
O O4 0.412367 0.059001 0.024437
O O5 0.649094 0.650308 0.992415
O O6 0.668790 0.969261 0.910318
O O7 0.707620 0.622424 0.847423
O O8 0.899876 0.741692 0.817115
O O9 0.519159 0.035396 0.314033
O O10 0.542774 0.048652 0.187606
O O11 0.261706 0.838559 0.980047
O O12 0.061472 0.802340 0.007465
O O13 0.004853 0.902359 0.149940
O O14 0.410394 0.305902 0.315783
O O15 0.503734 0.385086 0.376336
O O16 0.612714 0.283632 0.866572
#
# Coordination Sequence:
#
# PCOD9137459 Si02
#       8
#     4   4   4   4   4   4   4   4
#     4  11  25  42  65 106 129 178 230 275 344 411
#     4  10  24  44  64  98 134 182 224 278 347 404
#     4   9  22  42  67  94 127 178 231 274 342 403
#     4  10  22  42  66  92 134 172 224 278 333 401
#     4   8  20  41  67  93 126 175 223 278 334 396
#     4   9  22  40  66  92 131 165 226 280 324 400
#     4  11  27  40  66 102 141 176 225 279 348 412
#     4  10  24  43  65  95 140 178 223 278 342 399
#
# _framework density 22.786486
#
# number of rings (size 3 to 8) (size 9 to 14) (size 15 to 20)
#    0.750    1.500    0.000    0.000   10.500    3.000 
#    0.000    0.000    0.000    0.000    0.000    0.000 
#    0.000    0.000    0.000    0.000    0.000    0.000 
#
# Total GULP energy -89364.509504 kJ/mol
# GULP energy per Si atom -5585.281844 kJ/mol
# Density = 2.273462 g / cm^3
# Si number density = 22.786486 Si / 1000 Ang^3
#
#
#
# Elastic Constant Matrix: (Units=GPa)
#
#
# Indices 1 2 3 4 5 6 
#
# 1 30.4746 31.0037 11.8077 0.0000 10.3625 0.0001
# 2 31.0037 118.6976 19.8638 0.0001 -13.6118 0.0000
# 3 11.8077 19.8638 62.2272 0.0000 15.0529 0.0000
# 4 0.0000 0.0001 0.0000 18.9438 0.0000 -1.1234
# 5 10.3625 -13.6118 15.0529 0.0000 38.8967 0.0000
# 6 0.0001 0.0000 0.0000 -1.1234 0.0000 42.1950
#
#
#
# Elastic Compliance Matrix: (Units=1/GPa)
#
#
# Indices 1 2 3 4 5 6 
#
# 1 0.058181 -0.017644 -0.000182 0.000000 -0.021604 0.000000
# 2 -0.017644 0.015084 -0.004282 0.000000 0.011636 0.000000
# 3 -0.000182 -0.004282 0.019663 0.000000 -0.009060 0.000000
# 4 0.000000 0.000000 0.000000 0.052871 0.000000 0.001408
# 5 -0.021604 0.011636 -0.009060 0.000000 0.039043 0.000000
# 6 0.000000 0.000000 0.000000 0.001408 0.000000 0.023737
#
#
# Mechanical properties :
#
#
# Convention : Reuss Voigt Hill
#
# Bulk Modulus (GPa) = 20.52826 37.41664 28.97245
# Shear Modulus (GPa) = 18.58510 29.92206 24.25358
#
# Velocity S-wave (km/s) = 2.85900 3.62767 3.26603
# Velocity P-wave (km/s) = 4.46397 5.83120 5.19278
#
# Compressibility (1/GPa) = 0.04871333
#
# Stress axis : x y z
#
# Youngs Moduli (GPa) = 17.18769 66.29387 50.85683
#
# Poissons Ratio (x) = 1.16969 0.00924
# Poissons Ratio (y) = 0.30326 0.21777
# Poissons Ratio (z) = 0.00312 0.28387
#
# Static dielectric constant tensor:
#      x y z
#    x 1.863950 0.000000 0.023930 
#    y 0.000000 1.883300 0.000000 
#    z 0.023930 0.000000 1.870260 
# 
# From -- ./inp_files/35740.got.cif
#   From: 2010.05.17/outbox.cif.g08.bks.cpg/sg9_18_cif.got.tgz:35740.got - 2010.06.03 20:04:27.
