data_PCOD9137831
_publ_section_title
;
Structure prediction by ZEFSAII (Michael W. Deem and Ramdas Pophale) SiO2 
 PCOD9137831
Probable space group: C C
;
_chemical_formula_sum "Si O2"
_cell_formula_units_Z 32
_cell_length_a 14.646357
_cell_length_b 9.175327
_cell_length_c 24.252338
_cell_angle_alpha 90.000000
_cell_angle_beta 153.109970
_cell_angle_gamma 90.000000
_cell_volume 1474.048262
_symmetry_space_group_name_H-M "C C"
_symmetry_group_IT_number 9
_symmetry_cell_setting 'monoclinic'
loop_
_space_group_symop_operation_xyz
x,y,z
x,-y,1/2+z
1/2+x,1/2+y,z
1/2+x,1/2-y,1/2+z
loop_
_atom_site_type_symbol
_atom_site_label
_atom_site_fract_x
_atom_site_fract_y
_atom_site_fract_z
Si Si1 0.165670 0.348069 0.732520
Si Si2 0.006887 0.849724 0.707568
Si Si3 0.839085 0.319632 0.726643
Si Si4 0.750975 0.984784 0.660033
Si Si5 0.319616 0.918799 0.382575
Si Si6 0.420842 0.446743 0.545447
Si Si7 0.583328 0.044245 0.783074
Si Si8 0.766982 0.735587 0.969736
O O1 0.240060 0.418384 0.715658
O O2 0.254286 0.191930 0.798805
O O3 0.210881 0.452107 0.808015
O O4 0.920648 0.342196 0.594011
O O5 0.988496 0.677418 0.699128
O O6 0.930090 0.911300 0.723633
O O7 0.885772 0.911629 0.590369
O O8 0.226115 0.923409 0.819829
O O9 0.641556 0.389341 0.647909
O O10 0.928410 0.435336 0.730273
O O11 0.046038 0.282325 0.872055
O O12 0.769681 0.159484 0.669400
O O13 0.553848 0.934969 0.520450
O O14 0.238413 0.852229 0.397220
O O15 0.239318 0.385125 0.410622
O O16 0.392781 0.619257 0.522398
#
# Coordination Sequence:
#
# PCOD9137831 Si02
#       8
#     4   4   4   4   4   4   4   4
#     4  11  22  46  69 102 141 188 232 293 351 422
#     4  12  25  44  67 106 138 186 234 293 352 421
#     4  11  23  48  69 101 140 187 234 288 351 426
#     4  11  26  43  72 101 139 192 240 280 365 416
#     4  11  22  45  69  99 144 179 235 298 345 420
#     4  11  24  43  70 101 140 176 240 290 348 414
#     4  11  26  45  70 103 146 178 238 294 356 418
#     4  10  22  44  72  99 142 182 229 288 348 417
#
# _framework density 21.708921
#
# number of rings (size 3 to 8) (size 9 to 14) (size 15 to 20)
#    0.000    1.000    5.000    1.500    3.500    4.000 
#    6.750    0.000    0.000    0.000    0.000    0.000 
#    0.000    0.000    0.000    0.000    0.000    0.000 
#
# Total GULP energy -89292.818633 kJ/mol
# GULP energy per Si atom -5580.801165 kJ/mol
# Density = 2.165951 g / cm^3
# Si number density = 21.708921 Si / 1000 Ang^3
#
#
#
# Elastic Constant Matrix: (Units=GPa)
#
#
# Indices 1 2 3 4 5 6 
#
# 1 82.1468 29.3428 25.2403 -0.0001 0.6497 0.0000
# 2 29.3428 106.7862 25.4875 0.0001 5.5281 0.0000
# 3 25.2403 25.4875 81.5547 0.0003 -8.5457 0.0000
# 4 -0.0001 0.0001 0.0003 29.6865 0.0000 5.3794
# 5 0.6497 5.5281 -8.5457 0.0000 35.8271 0.0000
# 6 0.0000 0.0000 0.0000 5.3794 0.0000 22.9541
#
#
#
# Elastic Compliance Matrix: (Units=1/GPa)
#
#
# Indices 1 2 3 4 5 6 
#
# 1 0.014366 -0.003066 -0.003554 0.000000 -0.000635 0.000000
# 2 -0.003066 0.010975 -0.002720 0.000000 -0.002287 0.000000
# 3 -0.003554 -0.002720 0.014628 0.000000 0.003973 0.000000
# 4 0.000000 0.000000 0.000000 0.035179 0.000000 -0.008244
# 5 -0.000635 -0.002287 0.003973 0.000000 0.029224 0.000000
# 6 0.000000 0.000000 0.000000 -0.008244 0.000000 0.045497
#
#
# Mechanical properties :
#
#
# Convention : Reuss Voigt Hill
#
# Bulk Modulus (GPa) = 46.97770 47.84767 47.41269
# Shear Modulus (GPa) = 28.46622 30.38803 29.42713
#
# Velocity S-wave (km/s) = 3.62507 3.74544 3.68575
# Velocity P-wave (km/s) = 6.26166 6.38693 6.32460
#
# Compressibility (1/GPa) = 0.02128669
#
# Stress axis : x y z
#
# Youngs Moduli (GPa) = 69.61023 91.11842 68.36065
#
# Poissons Ratio (x) = 0.27939 0.24298
# Poissons Ratio (y) = 0.21344 0.18597
# Poissons Ratio (z) = 0.24742 0.24789
#
# Static dielectric constant tensor:
#      x y z
#    x 1.773520 0.000000 -0.003160 
#    y 0.000000 1.827420 0.000000 
#    z -0.003160 0.000000 1.833340 
# 
# From -- ./inp_files/17893.got.cif
#   From: 2010.05.17/outbox.cif.g08.bks.cpg/sg9_9_cif.got.tgz:17893.got - 2010.06.03 20:04:27.
