data_PCOD9137344
_publ_section_title
;
Structure prediction by ZEFSAII (Michael W. Deem and Ramdas Pophale) SiO2 
 PCOD9137344
Probable space group: C C
;
_chemical_formula_sum "Si O2"
_cell_formula_units_Z 28
_cell_length_a 9.318979
_cell_length_b 10.242180
_cell_length_c 18.647009
_cell_angle_alpha 90.000000
_cell_angle_beta 141.493658
_cell_angle_gamma 90.000000
_cell_volume 1108.102442
_symmetry_space_group_name_H-M "C C"
_symmetry_group_IT_number 9
_symmetry_cell_setting 'monoclinic'
loop_
_space_group_symop_operation_xyz
x,y,z
x,-y,1/2+z
1/2+x,1/2+y,z
1/2+x,1/2-y,1/2+z
loop_
_atom_site_type_symbol
_atom_site_label
_atom_site_fract_x
_atom_site_fract_y
_atom_site_fract_z
Si Si1 0.782920 0.163920 0.537410
Si Si2 0.247045 0.871706 0.795209
Si Si3 0.126403 0.316706 0.122539
Si Si4 0.330975 0.575232 0.400941
Si Si5 0.776666 0.539389 0.997348
Si Si6 0.166711 0.689226 0.884232
Si Si7 0.753146 0.355840 0.326307
O O1 0.515920 0.124446 0.421593
O O2 0.809185 0.141769 0.633299
O O3 0.900609 0.108632 0.511262
O O4 0.807697 0.319535 0.543460
O O5 0.232833 0.766400 0.727104
O O6 0.104947 0.806078 0.805296
O O7 0.178659 0.018648 0.748001
O O8 0.993797 0.446331 0.094685
O O9 0.923832 0.225011 0.010935
O O10 0.552181 0.533056 0.440826
O O11 0.175318 0.446413 0.345129
O O12 0.198349 0.702764 0.319852
O O13 0.755452 0.574149 0.904724
O O14 0.005018 0.672011 0.888995
#
# Coordination Sequence:
#
# PCOD9137344 Si02
#       7
#     4   4   4   4   4   4   4
#     4  10  22  41  66  88 128 173 214 264 329 383
#     4  11  22  40  68  92 130 169 216 271 328 379
#     4  11  22  40  67  93 130 169 216 271 328 383
#     4  11  20  37  71  90 121 174 217 256 325 389
#     4  11  20  39  67  95 124 170 213 265 320 392
#     4  11  21  42  66  88 128 175 209 263 329 384
#     4  11  21  39  67  92 127 172 209 260 329 384
#
# _framework density 25.268421
#
# number of rings (size 3 to 8) (size 9 to 14) (size 15 to 20)
#    0.000    1.143    8.571    0.000    0.000    1.143 
#    0.000    5.714    6.286    0.000    0.000    0.000 
#    0.000    0.000    0.000    0.000    0.000    0.000 
#
# Total GULP energy -78187.054335 kJ/mol
# GULP energy per Si atom -5584.789595 kJ/mol
# Density = 2.521091 g / cm^3
# Si number density = 25.268421 Si / 1000 Ang^3
#
#
#
# Elastic Constant Matrix: (Units=GPa)
#
#
# Indices 1 2 3 4 5 6 
#
# 1 143.7251 84.5659 -17.3960 0.0000 -56.7012 0.0000
# 2 84.5659 83.2073 18.4294 0.0000 64.4646 0.0000
# 3 -17.3960 18.4294 10.6617 0.0000 -45.3450 0.0000
# 4 0.0000 0.0000 0.0000 20.0446 0.0000 -4.6926
# 5 -56.7012 64.4646 -45.3450 0.0000 -20.8634 0.0000
# 6 0.0000 0.0000 0.0000 -4.6926 0.0000 51.0810
#
#
#
# Elastic Compliance Matrix: (Units=1/GPa)
#
#
# Indices 1 2 3 4 5 6 
#
# 1 0.005258 -0.000977 -0.006184 0.000000 -0.003868 0.000000
# 2 -0.000977 0.006992 0.008737 0.000000 0.005271 0.000000
# 3 -0.006184 0.008737 0.024884 0.000000 -0.010279 0.000000
# 4 0.000000 0.000000 0.000000 0.050985 0.000000 0.004684
# 5 -0.003868 0.005271 -0.010279 0.000000 0.001210 0.000000
# 6 0.000000 0.000000 0.000000 0.004684 0.000000 0.020007
#
#
# Mechanical properties :
#
#
# Convention : Reuss Voigt Hill
#
# Bulk Modulus (GPa) = 24.82260 45.42140 35.12200
# Shear Modulus (GPa) = 41.80163 20.18543 30.99353
#
# Velocity S-wave (km/s) = 4.07173 2.82944 3.50604
# Velocity P-wave (km/s) = 5.65245 5.35620 5.50632
#
# Compressibility (1/GPa) = 0.04028587
#
# Stress axis : x y z
#
# Youngs Moduli (GPa) = 190.18489 143.01369 40.18706
#
# Poissons Ratio (x) = 0.13975 0.24852
# Poissons Ratio (y) = 0.18584 -0.35113
# Poissons Ratio (z) = 1.17614 -1.24955
#
# Static dielectric constant tensor:
#      x y z
#    x 2.014190 0.000000 0.018930 
#    y 0.000000 1.984190 0.000000 
#    z 0.018930 0.000000 2.466030 
# 
# From -- ./inp_files/29220.got.cif
#   From: 2010.05.17/outbox.cif.g08.bks.cpg/sg9_15_cif.got.tgz:29220.got - 2010.06.03 20:04:27.
