data_PCOD9137948
_publ_section_title
;
Structure prediction by ZEFSAII (Michael W. Deem and Ramdas Pophale) SiO2 
 PCOD9137948
Probable space group: C C
;
_chemical_formula_sum "Si O2"
_cell_formula_units_Z 32
_cell_length_a 9.188619
_cell_length_b 20.045316
_cell_length_c 14.360363
_cell_angle_alpha 90.000000
_cell_angle_beta 149.367274
_cell_angle_gamma 90.000000
_cell_volume 1347.723678
_symmetry_space_group_name_H-M "C C"
_symmetry_group_IT_number 9
_symmetry_cell_setting 'monoclinic'
loop_
_space_group_symop_operation_xyz
x,y,z
x,-y,1/2+z
1/2+x,1/2+y,z
1/2+x,1/2-y,1/2+z
loop_
_atom_site_type_symbol
_atom_site_label
_atom_site_fract_x
_atom_site_fract_y
_atom_site_fract_z
Si Si1 0.321550 0.815853 0.044260
Si Si2 0.272608 0.314202 0.613096
Si Si3 0.234144 0.498431 0.380856
Si Si4 0.935856 0.125770 0.872706
Si Si5 0.281971 0.012454 0.981079
Si Si6 0.259383 0.542198 0.097004
Si Si7 0.922443 0.272526 0.598584
Si Si8 0.422057 0.348441 0.985604
O O1 0.346414 0.736802 0.072698
O O2 0.613548 0.850818 0.176929
O O3 0.059011 0.823474 0.830479
O O4 0.212256 0.837331 0.086942
O O5 0.184212 0.384070 0.523582
O O6 0.028595 0.294055 0.553076
O O7 0.401803 0.431644 0.436264
O O8 0.223236 0.499881 0.485450
O O9 0.354973 0.573425 0.430877
O O10 0.929194 0.495211 0.160272
O O11 0.098196 0.079797 0.887324
O O12 0.132514 0.193033 0.978361
O O13 0.547972 0.021574 0.061108
O O14 0.068800 0.961996 0.814448
O O15 0.932216 0.191404 0.590824
O O16 0.163383 0.307557 0.794304
#
# Coordination Sequence:
#
# PCOD9137948 Si02
#       8
#     4   4   4   4   4   4   4   4
#     4  10  24  42  75 100 146 199 243 316 388 455
#     4  10  22  48  68 107 142 195 254 304 386 475
#     4  12  28  48  81 113 156 201 268 318 393 464
#     4  12  25  44  77 108 150 199 244 329 387 453
#     4  12  26  49  73 112 156 197 251 327 386 462
#     4  12  28  46  79 111 151 204 255 314 395 464
#     4  10  22  45  74  99 151 196 247 309 392 456
#     4  10  23  46  71 108 146 201 252 311 383 473
#
# _framework density 23.743739000000001
#
# number of rings (size 3 to 8) (size 9 to 14) (size 15 to 20)
#    0.000    1.000    3.750    1.500    5.250    2.000 
#    4.500    0.000    0.000    0.000    0.000    0.000 
#    0.000    0.000    0.000    0.000    0.000    0.000 
#
# Total GULP energy -89255.323802 kJ/mol
# GULP energy per Si atom -5578.457738 kJ/mol
# Density = 2.368970 g / cm^3
# Si number density = 23.743739 Si / 1000 Ang^3
#
#
#
# Elastic Constant Matrix: (Units=GPa)
#
#
# Indices 1 2 3 4 5 6 
#
# 1 16.5754 -6.7397 43.5010 0.0013 14.0979 -0.0060
# 2 -6.7397 81.2229 22.1193 -0.0016 -6.4758 -0.0001
# 3 43.5010 22.1193 94.4993 0.0064 23.0982 0.0022
# 4 0.0013 -0.0016 0.0064 29.3522 0.0036 7.0970
# 5 14.0979 -6.4758 23.0982 0.0036 47.1824 -0.0002
# 6 -0.0060 -0.0001 0.0022 7.0970 -0.0002 46.9419
#
#
#
# Elastic Compliance Matrix: (Units=1/GPa)
#
#
# Indices 1 2 3 4 5 6 
#
# 1 -0.138273 -0.030322 0.070050 -0.000007 0.002861 -0.000020
# 2 -0.030322 0.007116 0.011177 0.000000 0.004565 -0.000004
# 3 0.070050 0.011177 -0.022195 0.000001 -0.008531 0.000010
# 4 -0.000007 0.000000 0.000001 0.035362 -0.000001 -0.005346
# 5 0.002861 0.004565 -0.008531 -0.000001 0.025142 0.000001
# 6 -0.000020 -0.000004 0.000010 -0.005346 0.000001 0.022111
#
#
# Mechanical properties :
#
#
# Convention : Reuss Voigt Hill
#
# Bulk Modulus (GPa) = -19.40127 34.45099 7.52486
# Shear Modulus (GPa) = -26.35384 33.58975 3.61796
#
# Velocity S-wave (km/s) = -3.33517 3.76530 1.23574
# Velocity P-wave (km/s) = 4.79792 5.78311 2.28301
#
# Compressibility (1/GPa) = -0.05154301
#
# Stress axis : x y z
#
# Youngs Moduli (GPa) = -7.23209 140.52826 -45.05546
#
# Poissons Ratio (x) = 4.26109 3.15611
# Poissons Ratio (y) = -0.21929 0.50357
# Poissons Ratio (z) = 0.50660 -1.57064
#
# Static dielectric constant tensor:
#      x y z
#    x 1.897140 0.000000 -0.013240 
#    y 0.000000 2.028480 0.000000 
#    z -0.013240 0.000000 1.880310 
# 
# From -- ./inp_files/23813.got.cif
#   From: 2010.05.17/outbox.cif.g08.bks.cpg/sg9_12_cif.got.tgz:23813.got - 2010.06.03 20:04:27.
