data_PCOD9137828
_publ_section_title
;
Structure prediction by ZEFSAII (Michael W. Deem and Ramdas Pophale) SiO2 
 PCOD9137828
Probable space group: C C
;
_chemical_formula_sum "Si O2"
_cell_formula_units_Z 28
_cell_length_a 20.568996
_cell_length_b 7.121977
_cell_length_c 19.260125
_cell_angle_alpha 90.000000
_cell_angle_beta 24.762998
_cell_angle_gamma 90.000000
_cell_volume 1181.809858
_symmetry_space_group_name_H-M "C C"
_symmetry_group_IT_number 9
_symmetry_cell_setting 'monoclinic'
loop_
_space_group_symop_operation_xyz
x,y,z
x,-y,1/2+z
1/2+x,1/2+y,z
1/2+x,1/2-y,1/2+z
loop_
_atom_site_type_symbol
_atom_site_label
_atom_site_fract_x
_atom_site_fract_y
_atom_site_fract_z
Si Si1 0.344690 0.417981 0.940400
Si Si2 0.392885 0.110037 0.191601
Si Si3 0.755642 0.164710 0.138965
Si Si4 0.694292 0.567328 0.156857
Si Si5 0.503673 0.598311 0.476096
Si Si6 0.702758 0.947359 0.438475
Si Si7 0.177538 0.213931 0.858544
O O1 0.526721 0.459821 0.780619
O O2 0.304240 0.464724 0.900913
O O3 0.223999 0.549820 0.100442
O O4 0.298975 0.212024 0.012511
O O5 0.269304 0.254952 0.343052
O O6 0.330256 0.910652 0.225623
O O7 0.456859 0.215112 0.060912
O O8 0.520879 0.088285 0.127773
O O9 0.787895 0.374450 0.079067
O O10 0.648475 0.216926 0.307857
O O11 0.875438 0.019435 0.058645
O O12 0.639002 0.635851 0.287830
O O13 0.552004 0.450372 0.489124
O O14 0.688685 0.105588 0.393611
#
# Coordination Sequence:
#
# PCOD9137828 Si02
#       7
#     4   4   4   4   4   4   4
#     4  11  28  47  69 105 144 195 240 296 368 442
#     4  12  26  46  73 107 146 187 244 309 367 442
#     4  10  23  44  69 102 138 181 237 296 358 428
#     4  10  26  44  74 102 145 187 240 301 362 431
#     4  10  22  44  72 108 139 185 237 304 370 425
#     4  12  29  46  73 103 149 194 245 301 374 446
#     4  11  24  43  72 105 141 183 241 307 369 436
#
# _framework density 23.692475999999999
#
# number of rings (size 3 to 8) (size 9 to 14) (size 15 to 20)
#    0.000    1.143    2.857    0.857   14.000    4.571 
#    0.000    0.000    0.000    0.000    0.000    0.000 
#    0.000    0.000    0.000    0.000    0.000    0.000 
#
# Total GULP energy -78084.481765 kJ/mol
# GULP energy per Si atom -5577.462983 kJ/mol
# Density = 2.363855 g / cm^3
# Si number density = 23.692476 Si / 1000 Ang^3
#
#
#
# Elastic Constant Matrix: (Units=GPa)
#
#
# Indices 1 2 3 4 5 6 
#
# 1 64.4875 6.0286 5.0973 -0.0016 -3.4366 0.0003
# 2 6.0286 110.6521 12.5014 -0.0060 2.2391 0.0022
# 3 5.0973 12.5014 24.2433 -0.0048 -15.2113 0.0025
# 4 -0.0016 -0.0060 -0.0048 34.4669 0.0023 -5.4652
# 5 -3.4366 2.2391 -15.2113 0.0023 31.5197 -0.0007
# 6 0.0003 0.0022 0.0025 -5.4652 -0.0007 32.2981
#
#
#
# Elastic Compliance Matrix: (Units=1/GPa)
#
#
# Indices 1 2 3 4 5 6 
#
# 1 0.015800 -0.000557 -0.002767 0.000000 0.000427 0.000000
# 2 -0.000557 0.010062 -0.007972 0.000001 -0.004623 0.000000
# 3 -0.002767 -0.007972 0.066132 0.000005 0.032180 -0.000003
# 4 0.000000 0.000001 0.000005 0.029813 0.000000 0.005045
# 5 0.000427 -0.004623 0.032180 0.000000 0.047631 -0.000001
# 6 0.000000 0.000000 -0.000003 0.005045 -0.000001 0.031815
#
#
# Mechanical properties :
#
#
# Convention : Reuss Voigt Hill
#
# Bulk Modulus (GPa) = 14.40873 27.40417 20.90645
# Shear Modulus (GPa) = 20.24458 31.37399 25.80928
#
# Velocity S-wave (km/s) = 2.92631 3.64293 3.30410
# Velocity P-wave (km/s) = 4.18479 5.41168 4.83729
#
# Compressibility (1/GPa) = 0.06940238
#
# Stress axis : x y z
#
# Youngs Moduli (GPa) = 63.28952 99.38513 15.12126
#
# Poissons Ratio (x) = 0.05534 0.04184
# Poissons Ratio (y) = 0.03524 0.12055
# Poissons Ratio (z) = 0.17514 0.79229
#
# Static dielectric constant tensor:
#      x y z
#    x 1.930100 0.000000 -0.047390 
#    y 0.000000 1.870510 0.000000 
#    z -0.047390 0.000000 2.014080 
# 
# From -- ./inp_files/20551.got.cif
#   From: 2010.05.17/outbox.cif.g08.bks.cpg/sg9_11_cif.got.tgz:20551.got - 2010.06.03 20:04:27.
