data_PCOD9137997
_publ_section_title
;
Structure prediction by ZEFSAII (Michael W. Deem and Ramdas Pophale) SiO2 
 PCOD9137997
Probable space group: C C
;
_chemical_formula_sum "Si O2"
_cell_formula_units_Z 28
_cell_length_a 5.113480
_cell_length_b 24.449653
_cell_length_c 8.767114
_cell_angle_alpha 90.000000
_cell_angle_beta 93.796826
_cell_angle_gamma 90.000000
_cell_volume 1093.683478
_symmetry_space_group_name_H-M "C C"
_symmetry_group_IT_number 9
_symmetry_cell_setting 'monoclinic'
loop_
_space_group_symop_operation_xyz
x,y,z
x,-y,1/2+z
1/2+x,1/2+y,z
1/2+x,1/2-y,1/2+z
loop_
_atom_site_type_symbol
_atom_site_label
_atom_site_fract_x
_atom_site_fract_y
_atom_site_fract_z
Si Si1 0.321360 0.185883 0.558230
Si Si2 0.033878 0.008827 0.899465
Si Si3 0.137403 0.359163 0.305158
Si Si4 0.466871 0.851367 0.735708
Si Si5 0.941712 0.191632 0.064891
Si Si6 0.452171 0.582292 0.598335
Si Si7 0.526808 0.941872 0.535308
O O1 0.494568 0.189719 0.718321
O O2 0.450495 0.162074 0.411211
O O3 0.303141 0.250192 0.524266
O O4 0.099234 0.140802 0.589112
O O5 0.040980 0.037834 0.733680
O O6 0.819741 0.041561 0.996770
O O7 0.323674 0.012677 0.979404
O O8 0.948647 0.946879 0.934349
O O9 0.395619 0.341117 0.405115
O O10 0.181048 0.400995 0.167872
O O11 0.968015 0.390479 0.422502
O O12 0.749009 0.834476 0.682310
O O13 0.456089 0.916140 0.695006
O O14 0.233204 0.817111 0.641892
#
# Coordination Sequence:
#
# PCOD9137997 Si02
#       7
#     4   4   4   4   4   4   4
#     4  12  27  43  75 109 147 189 249 304 355 446
#     4  11  25  45  71  99 139 189 239 300 360 421
#     4  10  24  48  72 104 148 188 240 303 362 438
#     4  11  26  46  72 110 142 191 246 299 359 444
#     4  11  27  47  74 105 153 196 234 297 377 432
#     4  11  27  45  71 105 144 191 247 302 364 433
#     4  10  22  46  71  98 141 188 235 295 369 422
#
# _framework density 25.601558000000001
#
# number of rings (size 3 to 8) (size 9 to 14) (size 15 to 20)
#    0.000    1.143    1.429    3.429   12.000    1.143 
#    0.000    0.000    0.000    0.000    0.000    0.000 
#    0.000    0.000    0.000    0.000    0.000    0.000 
#
# Total GULP energy -78082.157995 kJ/mol
# GULP energy per Si atom -5577.297000 kJ/mol
# Density = 2.554329 g / cm^3
# Si number density = 25.601558 Si / 1000 Ang^3
#
#
#
# Elastic Constant Matrix: (Units=GPa)
#
#
# Indices 1 2 3 4 5 6 
#
# 1 72.1023 17.5655 16.8989 0.0000 -7.0854 0.0000
# 2 17.5655 89.5874 27.8557 0.0000 5.4373 0.0000
# 3 16.8989 27.8557 91.5602 0.0000 -1.4931 0.0000
# 4 0.0000 0.0000 0.0000 40.4609 0.0000 -5.7772
# 5 -7.0854 5.4373 -1.4931 0.0000 36.0678 0.0000
# 6 0.0000 0.0000 0.0000 -5.7772 0.0000 9.2204
#
#
#
# Elastic Compliance Matrix: (Units=1/GPa)
#
#
# Indices 1 2 3 4 5 6 
#
# 1 0.015288 -0.002582 -0.001982 0.000000 0.003311 0.000000
# 2 -0.002582 0.012913 -0.003494 0.000000 -0.002599 0.000000
# 3 -0.001982 -0.003494 0.012361 0.000000 0.000649 0.000000
# 4 0.000000 0.000000 0.000000 0.027144 0.000000 0.017007
# 5 0.003311 -0.002599 0.000649 0.000000 0.028795 0.000000
# 6 0.000000 0.000000 0.000000 0.017007 0.000000 0.119112
#
#
# Mechanical properties :
#
#
# Convention : Reuss Voigt Hill
#
# Bulk Modulus (GPa) = 40.90814 41.98781 41.44797
# Shear Modulus (GPa) = 20.84396 29.87847 25.36122
#
# Velocity S-wave (km/s) = 2.85646 3.41993 3.15081
# Velocity P-wave (km/s) = 5.18581 5.65956 5.42786
#
# Compressibility (1/GPa) = 0.02444501
#
# Stress axis : x y z
#
# Youngs Moduli (GPa) = 65.41026 77.44269 80.89784
#
# Poissons Ratio (x) = 0.19997 0.16035
# Poissons Ratio (y) = 0.16890 0.28268
# Poissons Ratio (z) = 0.12965 0.27061
#
# Static dielectric constant tensor:
#      x y z
#    x 2.005480 0.000000 0.056250 
#    y 0.000000 2.192730 0.000000 
#    z 0.056250 0.000000 2.041780 
# 
# From -- ./inp_files/3980.got.cif
#   From: 2010.05.17/outbox.cif.g08.bks.cpg/sg9_2_cif.got.tgz:3980.got - 2010.06.03 20:04:27.
