data_PCOD9137357
_publ_section_title
;
Structure prediction by ZEFSAII (Michael W. Deem and Ramdas Pophale) SiO2 
 PCOD9137357
Probable space group: C C
;
_chemical_formula_sum "Si O2"
_cell_formula_units_Z 24
_cell_length_a 11.886764
_cell_length_b 8.125853
_cell_length_c 17.107994
_cell_angle_alpha 90.000000
_cell_angle_beta 35.503717
_cell_angle_gamma 90.000000
_cell_volume 959.677304
_symmetry_space_group_name_H-M "C C"
_symmetry_group_IT_number 9
_symmetry_cell_setting 'monoclinic'
loop_
_space_group_symop_operation_xyz
x,y,z
x,-y,1/2+z
1/2+x,1/2+y,z
1/2+x,1/2-y,1/2+z
loop_
_atom_site_type_symbol
_atom_site_label
_atom_site_fract_x
_atom_site_fract_y
_atom_site_fract_z
Si Si1 0.357840 0.417468 0.044550
Si Si2 0.655598 0.210012 0.813810
Si Si3 0.992220 0.455505 0.163252
Si Si4 0.872518 0.488294 0.904357
Si Si5 0.722530 0.253983 0.198058
Si Si6 0.518672 0.654283 0.666000
O O1 0.267273 0.307599 0.167492
O O2 0.864245 0.349384 0.176210
O O3 0.332788 0.601843 0.093512
O O4 0.576064 0.378962 0.894100
O O5 0.794390 0.110127 0.794515
O O6 0.452261 0.117043 0.920751
O O7 0.216253 0.405925 0.049152
O O8 0.000479 0.654548 0.149269
O O9 0.913700 0.439897 0.295916
O O10 0.018256 0.333614 0.838899
O O11 0.650461 0.441958 0.031900
O O12 0.638020 0.367771 0.177308
#
# Coordination Sequence:
#
# PCOD9137357 Si02
#       6
#     4   4   4   4   4   4
#     4   9  22  43  70 108 142 191 257 306 367 455
#     4  10  22  41  73 101 146 195 237 311 377 436
#     4   9  21  44  70 101 141 195 245 315 368 443
#     4   9  22  44  66 105 147 184 254 304 368 448
#     4   9  21  45  68 104 142 194 244 310 372 440
#     4  10  22  41  67 103 146 189 241 310 370 444
#
# _framework density 25.008405
#
# number of rings (size 3 to 8) (size 9 to 14) (size 15 to 20)
#    0.000    3.333    0.000    0.000    4.667    6.667 
#   18.000    6.667    7.333    0.000    0.000    0.000 
#    0.000    0.000    0.000    0.000    0.000    0.000 
#
# Total GULP energy -66929.147143 kJ/mol
# GULP energy per Si atom -5577.428929 kJ/mol
# Density = 2.495148 g / cm^3
# Si number density = 25.008405 Si / 1000 Ang^3
#
#
#
# Elastic Constant Matrix: (Units=GPa)
#
#
# Indices 1 2 3 4 5 6 
#
# 1 207.0349 52.0885 36.3351 0.0000 -36.5427 0.0000
# 2 52.0885 35.3731 21.4114 0.0000 -10.0578 0.0000
# 3 36.3351 21.4114 78.9308 -0.0003 -29.0743 0.0001
# 4 0.0000 0.0000 -0.0003 39.6905 0.0000 -12.5069
# 5 -36.5427 -10.0578 -29.0743 0.0000 33.0749 0.0000
# 6 0.0000 0.0000 0.0001 -12.5069 0.0000 50.3539
#
#
#
# Elastic Compliance Matrix: (Units=1/GPa)
#
#
# Indices 1 2 3 4 5 6 
#
# 1 0.008939 -0.012177 0.002162 0.000000 0.008075 0.000000
# 2 -0.012177 0.050653 -0.010968 0.000000 -0.007692 0.000000
# 3 0.002162 -0.010968 0.021149 0.000000 0.017644 0.000000
# 4 0.000000 0.000000 0.000000 0.027334 0.000000 0.006789
# 5 0.008075 -0.007692 0.017644 0.000000 0.052326 0.000000
# 6 0.000000 0.000000 0.000000 0.006789 0.000000 0.021546
#
#
# Mechanical properties :
#
#
# Convention : Reuss Voigt Hill
#
# Bulk Modulus (GPa) = 25.78971 60.11209 42.95090
# Shear Modulus (GPa) = 21.11150 38.72412 29.91781
#
# Velocity S-wave (km/s) = 2.90862 3.93930 3.46252
# Velocity P-wave (km/s) = 4.64919 6.69176 5.76171
#
# Compressibility (1/GPa) = 0.03877516
#
# Stress axis : x y z
#
# Youngs Moduli (GPa) = 111.86480 19.74227 47.28449
#
# Poissons Ratio (x) = 0.24039 -0.10224
# Poissons Ratio (y) = 1.36213 0.51864
# Poissons Ratio (z) = -0.24188 0.21654
#
# Static dielectric constant tensor:
#      x y z
#    x 2.066250 0.000000 -0.020060 
#    y 0.000000 2.160830 0.000000 
#    z -0.020060 0.000000 2.101040 
# 
# From -- ./inp_files/30036.got.cif
#   From: 2010.05.17/outbox.cif.g08.bks.cpg/sg9_16_cif.got.tgz:30036.got - 2010.06.03 20:04:27.
