data_PCOD9137084
_publ_section_title
;
Structure prediction by ZEFSAII (Michael W. Deem and Ramdas Pophale) SiO2 
 PCOD9137084
Probable space group: C C
;
_chemical_formula_sum "Si O2"
_cell_formula_units_Z 24
_cell_length_a 18.098961
_cell_length_b 8.025316
_cell_length_c 12.596422
_cell_angle_alpha 90.000000
_cell_angle_beta 29.254500
_cell_angle_gamma 90.000000
_cell_volume 894.120870
_symmetry_space_group_name_H-M "C C"
_symmetry_group_IT_number 9
_symmetry_cell_setting 'monoclinic'
loop_
_space_group_symop_operation_xyz
x,y,z
x,-y,1/2+z
1/2+x,1/2+y,z
1/2+x,1/2-y,1/2+z
loop_
_atom_site_type_symbol
_atom_site_label
_atom_site_fract_x
_atom_site_fract_y
_atom_site_fract_z
Si Si1 0.671470 0.719363 0.463640
Si Si2 0.658302 0.891389 0.907720
Si Si3 0.882146 0.493160 0.835296
Si Si4 0.138555 0.610066 0.656181
Si Si5 0.604360 0.595587 0.325732
Si Si6 0.886658 0.104770 0.961026
O O1 0.310116 0.835460 0.864640
O O2 0.693029 0.908146 0.389314
O O3 0.653535 0.601529 0.384243
O O4 0.745624 0.809479 0.700326
O O5 0.476398 0.902713 0.129355
O O6 0.682926 0.801901 0.989357
O O7 0.008104 0.489269 0.773183
O O8 0.744592 0.569614 0.071641
O O9 0.520786 0.324052 0.221036
O O10 0.057394 0.719327 0.846700
O O11 0.288242 0.526579 0.515737
O O12 0.474720 0.472886 0.451148
#
# Coordination Sequence:
#
# PCOD9137084 Si02
#       6
#     4   4   4   4   4   4
#     4  11  24  43  71  99 142 182 234 288 352 421
#     4  10  24  39  69  98 139 181 229 289 349 415
#     4   9  25  39  66 105 129 180 235 286 346 416
#     4  10  22  38  68  99 135 181 231 281 352 415
#     4  11  22  43  70  97 135 185 232 288 349 423
#     4  11  23  40  66 104 132 181 237 286 350 420
#
# _framework density 26.842009000000001
#
# number of rings (size 3 to 8) (size 9 to 14) (size 15 to 20)
#    1.000    0.667    1.667    2.000    7.000    0.000 
#    0.000    5.000    0.000    0.000    0.000    0.000 
#    0.000    0.000    0.000    0.000    0.000    0.000 
#
# Total GULP energy -66857.092562 kJ/mol
# GULP energy per Si atom -5571.424380 kJ/mol
# Density = 2.678091 g / cm^3
# Si number density = 26.842009 Si / 1000 Ang^3
#
#
#
# Elastic Constant Matrix: (Units=GPa)
#
#
# Indices 1 2 3 4 5 6 
#
# 1 115.6938 24.6660 26.8803 0.0000 -4.8472 0.0000
# 2 24.6660 39.2609 17.9845 0.0000 -0.3112 0.0000
# 3 26.8803 17.9845 166.8934 0.0000 12.1855 0.0000
# 4 0.0000 0.0000 0.0000 28.9547 0.0000 2.1069
# 5 -4.8472 -0.3112 12.1855 0.0000 61.5395 0.0000
# 6 0.0000 0.0000 0.0000 2.1069 0.0000 23.9501
#
#
#
# Elastic Compliance Matrix: (Units=1/GPa)
#
#
# Indices 1 2 3 4 5 6 
#
# 1 0.010194 -0.005903 -0.001078 0.000000 0.000986 0.000000
# 2 -0.005903 0.030242 -0.002319 0.000000 0.000147 0.000000
# 3 -0.001078 -0.002319 0.006517 0.000000 -0.001387 0.000000
# 4 0.000000 0.000000 0.000000 0.034759 0.000000 -0.003058
# 5 0.000986 0.000147 -0.001387 0.000000 0.016603 0.000000
# 6 0.000000 0.000000 0.000000 -0.003058 0.000000 0.042022
#
#
# Mechanical properties :
#
#
# Convention : Reuss Voigt Hill
#
# Bulk Modulus (GPa) = 35.26864 51.21219 43.24042
# Shear Modulus (GPa) = 29.69340 39.71002 34.70171
#
# Velocity S-wave (km/s) = 3.32961 3.85047 3.59947
# Velocity P-wave (km/s) = 5.28674 6.23608 5.78093
#
# Compressibility (1/GPa) = 0.02835380
#
# Stress axis : x y z
#
# Youngs Moduli (GPa) = 98.09963 33.06606 153.45424
#
# Poissons Ratio (x) = 0.19518 0.16539
# Poissons Ratio (y) = 0.57906 0.35586
# Poissons Ratio (z) = 0.10573 0.07668
#
# Static dielectric constant tensor:
#      x y z
#    x 2.065360 0.000000 0.017050 
#    y 0.000000 2.267100 0.000000 
#    z 0.017050 0.000000 2.188360 
# 
# From -- ./inp_files/18418.got.cif
#   From: 2010.05.17/outbox.cif.g08.bks.cpg/sg9_10_cif.got.tgz:18418.got - 2010.06.03 20:04:27.
