data_PCOD9137931
_publ_section_title
;
Structure prediction by ZEFSAII (Michael W. Deem and Ramdas Pophale) SiO2 
 PCOD9137931
Probable space group: C C
;
_chemical_formula_sum "Si O2"
_cell_formula_units_Z 32
_cell_length_a 7.577828
_cell_length_b 15.477929
_cell_length_c 14.268890
_cell_angle_alpha 90.000000
_cell_angle_beta 125.538662
_cell_angle_gamma 90.000000
_cell_volume 1361.835450
_symmetry_space_group_name_H-M "C C"
_symmetry_group_IT_number 9
_symmetry_cell_setting 'monoclinic'
loop_
_space_group_symop_operation_xyz
x,y,z
x,-y,1/2+z
1/2+x,1/2+y,z
1/2+x,1/2-y,1/2+z
loop_
_atom_site_type_symbol
_atom_site_label
_atom_site_fract_x
_atom_site_fract_y
_atom_site_fract_z
Si Si1 0.699390 0.800932 0.431410
Si Si2 0.324440 0.543026 0.085680
Si Si3 0.151543 0.197595 0.974270
Si Si4 0.872587 0.592551 0.719204
Si Si5 0.313264 0.086320 0.173354
Si Si6 0.605998 0.538346 0.823690
Si Si7 0.590134 0.386705 0.952690
Si Si8 0.162865 0.612831 0.416278
O O1 0.703153 0.867257 0.521763
O O2 0.570563 0.848496 0.308816
O O3 0.595266 0.707655 0.410342
O O4 0.944927 0.785306 0.476300
O O5 0.560688 0.558729 0.107193
O O6 0.401897 0.509250 0.210601
O O7 0.192604 0.463363 0.000190
O O8 0.081527 0.126714 0.875223
O O9 0.227908 0.290788 0.965503
O O10 0.329320 0.152019 0.094165
O O11 0.943562 0.501346 0.698458
O O12 0.753719 0.568018 0.780730
O O13 0.711151 0.626086 0.589931
O O14 0.421063 0.121957 0.300842
O O15 0.690303 0.463851 0.920883
O O16 0.343189 0.412667 0.895841
#
# Coordination Sequence:
#
# PCOD9137931 Si02
#       8
#     4   4   4   4   4   4   4   4
#     4  11  26  45  70 108 146 187 245 304 357 433
#     4  10  23  46  69 100 142 183 241 296 353 430
#     4  11  26  45  68 109 144 187 248 295 359 441
#     4  11  23  48  74  98 150 185 243 304 357 429
#     4  10  22  45  72  94 143 186 232 300 353 422
#     4  11  24  48  71  99 147 190 235 309 358 430
#     4  12  26  46  72 108 145 189 244 300 368 434
#     4  12  24  45  74 102 145 193 234 300 365 429
#
# _framework density 23.497698
#
# number of rings (size 3 to 8) (size 9 to 14) (size 15 to 20)
#    0.000    1.000    5.000    1.500    7.000    2.000 
#    4.500    0.000    0.000    0.000    0.000    0.000 
#    0.000    0.000    0.000    0.000    0.000    0.000 
#
# Total GULP energy -89311.006456 kJ/mol
# GULP energy per Si atom -5581.937903 kJ/mol
# Density = 2.344422 g / cm^3
# Si number density = 23.497698 Si / 1000 Ang^3
#
#
#
# Elastic Constant Matrix: (Units=GPa)
#
#
# Indices 1 2 3 4 5 6 
#
# 1 40.5898 -9.3999 14.7335 0.0000 1.9111 0.0000
# 2 -9.3999 103.3832 24.6119 0.0000 -0.9725 0.0000
# 3 14.7335 24.6119 105.7078 0.0000 0.5661 0.0000
# 4 0.0000 0.0000 0.0000 36.4822 0.0000 -0.0619
# 5 1.9111 -0.9725 0.5661 0.0000 24.7894 0.0000
# 6 0.0000 0.0000 0.0000 -0.0619 0.0000 18.0541
#
#
#
# Elastic Compliance Matrix: (Units=1/GPa)
#
#
# Indices 1 2 3 4 5 6 
#
# 1 0.027222 0.003556 -0.004612 0.000000 -0.001854 0.000000
# 2 0.003556 0.010710 -0.002990 0.000000 0.000214 0.000000
# 3 -0.004612 -0.002990 0.010799 0.000000 -0.000008 0.000000
# 4 0.000000 0.000000 0.000000 0.027411 0.000000 0.000094
# 5 -0.001854 0.000214 -0.000008 0.000000 0.040491 0.000000
# 6 0.000000 0.000000 0.000000 0.000094 0.000000 0.055389
#
#
# Mechanical properties :
#
#
# Convention : Reuss Voigt Hill
#
# Bulk Modulus (GPa) = 24.60805 34.39686 29.50246
# Shear Modulus (GPa) = 25.81823 30.51413 28.16618
#
# Velocity S-wave (km/s) = 3.31834 3.60752 3.46595
# Velocity P-wave (km/s) = 5.01768 5.65884 5.34788
#
# Compressibility (1/GPa) = 0.04063710
#
# Stress axis : x y z
#
# Youngs Moduli (GPa) = 36.73559 93.37114 92.59990
#
# Poissons Ratio (x) = -0.33199 0.42708
# Poissons Ratio (y) = -0.13062 0.27690
# Poissons Ratio (z) = 0.16943 0.27921
#
# Static dielectric constant tensor:
#      x y z
#    x 1.902850 0.000000 -0.011060 
#    y 0.000000 1.885160 0.000000 
#    z -0.011060 0.000000 1.956350 
# 
# From -- ./inp_files/23431.got.cif
#   From: 2010.05.17/outbox.cif.g08.bks.cpg/sg9_12_cif.got.tgz:23431.got - 2010.06.03 20:04:27.
