data_PCOD9137113
_publ_section_title
;
Structure prediction by ZEFSAII (Michael W. Deem and Ramdas Pophale) SiO2 
 PCOD9137113
Probable space group: C C
;
_chemical_formula_sum "Si O2"
_cell_formula_units_Z 32
_cell_length_a 7.172366
_cell_length_b 7.742132
_cell_length_c 27.513191
_cell_angle_alpha 90.000000
_cell_angle_beta 56.716835
_cell_angle_gamma 90.000000
_cell_volume 1277.185458
_symmetry_space_group_name_H-M "C C"
_symmetry_group_IT_number 9
_symmetry_cell_setting 'monoclinic'
loop_
_space_group_symop_operation_xyz
x,y,z
x,-y,1/2+z
1/2+x,1/2+y,z
1/2+x,1/2-y,1/2+z
loop_
_atom_site_type_symbol
_atom_site_label
_atom_site_fract_x
_atom_site_fract_y
_atom_site_fract_z
Si Si1 0.990730 0.457759 0.793180
Si Si2 0.965114 0.076539 0.042545
Si Si3 0.313314 0.537630 0.327816
Si Si4 0.995064 0.419364 0.102381
Si Si5 0.170274 0.260250 0.931776
Si Si6 0.742023 0.594454 0.739444
Si Si7 0.958825 0.412919 0.513209
Si Si8 0.655650 0.731271 0.404442
O O1 0.914937 0.572135 0.758924
O O2 0.781148 0.423656 0.859781
O O3 0.181671 0.532170 0.800321
O O4 0.103958 0.275088 0.760376
O O5 0.919961 0.249681 0.082187
O O6 0.214125 0.043931 0.027124
O O7 0.759593 0.944091 0.075853
O O8 0.004644 0.122597 0.979607
O O9 0.177624 0.689398 0.374139
O O10 0.564953 0.558790 0.275182
O O11 0.314796 0.391553 0.368785
O O12 0.861346 0.424243 0.171164
O O13 0.949820 0.578091 0.072200
O O14 0.424644 0.226203 0.910196
O O15 0.104386 0.427929 0.972782
O O16 0.080236 0.248227 0.471082
#
# Coordination Sequence:
#
# PCOD9137113 Si02
#       8
#     4   4   4   4   4   4   4   4
#     4  11  24  40  67  93 132 177 222 282 352 408
#     4  10  23  42  65  98 129 171 228 282 348 419
#     4  10  22  39  63  93 130 173 216 276 343 411
#     4  11  24  43  66  89 134 179 231 287 342 421
#     4   9  18  40  62  93 133 160 213 274 344 408
#     4  11  25  43  61  96 131 177 235 284 339 423
#     4   9  21  41  63  95 126 174 214 282 345 413
#     4   9  19  40  61  95 133 161 219 271 337 419
#
# _framework density 25.055095999999999
#
# number of rings (size 3 to 8) (size 9 to 14) (size 15 to 20)
#    0.000    2.000    1.250    0.750    3.500    4.000 
#   18.000    0.000    0.000    0.000    0.000    0.000 
#    0.000    0.000    0.000    0.000    0.000    0.000 
#
# Total GULP energy -89369.961777 kJ/mol
# GULP energy per Si atom -5585.622611 kJ/mol
# Density = 2.499807 g / cm^3
# Si number density = 25.055096 Si / 1000 Ang^3
#
#
#
# Elastic Constant Matrix: (Units=GPa)
#
#
# Indices 1 2 3 4 5 6 
#
# 1 112.9161 11.0085 56.1333 0.0000 14.5261 0.0000
# 2 11.0085 84.6815 24.3209 0.0000 3.1557 0.0000
# 3 56.1333 24.3209 183.5169 0.0000 16.5992 0.0000
# 4 0.0000 0.0000 0.0000 16.3595 0.0000 -3.2231
# 5 14.5261 3.1557 16.5992 0.0000 33.6264 0.0000
# 6 0.0000 0.0000 0.0000 -3.2231 0.0000 24.1746
#
#
#
# Elastic Compliance Matrix: (Units=1/GPa)
#
#
# Indices 1 2 3 4 5 6 
#
# 1 0.010772 -0.000435 -0.002952 0.000000 -0.003155 0.000000
# 2 -0.000435 0.012298 -0.001475 0.000000 -0.000238 0.000000
# 3 -0.002952 -0.001475 0.006720 0.000000 -0.001903 0.000000
# 4 0.000000 0.000000 0.000000 0.062775 0.000000 0.008370
# 5 -0.003155 -0.000238 -0.001903 0.000000 0.032064 0.000000
# 6 0.000000 0.000000 0.000000 0.008370 0.000000 0.042482
#
#
# Mechanical properties :
#
#
# Convention : Reuss Voigt Hill
#
# Bulk Modulus (GPa) = 49.83667 62.67110 56.25388
# Shear Modulus (GPa) = 27.24459 34.14223 30.69341
#
# Velocity S-wave (km/s) = 3.30113 3.69546 3.50385
# Velocity P-wave (km/s) = 5.87060 6.57847 6.23459
#
# Compressibility (1/GPa) = 0.02006555
#
# Stress axis : x y z
#
# Youngs Moduli (GPa) = 92.83435 81.31357 148.81721
#
# Poissons Ratio (x) = 0.03537 0.43928
# Poissons Ratio (y) = 0.04038 0.21954
# Poissons Ratio (z) = 0.27403 0.11996
#
# Static dielectric constant tensor:
#      x y z
#    x 1.985480 0.000000 -0.006760 
#    y 0.000000 2.172230 0.000000 
#    z -0.006760 0.000000 1.943200 
# 
# From -- ./inp_files/37109.got.cif
#   From: 2010.05.17/outbox.cif.g08.bks.cpg/sg9_19_cif.got.tgz:37109.got - 2010.06.03 20:04:27.
