data_PCOD9137242
_publ_section_title
;
Structure prediction by ZEFSAII (Michael W. Deem and Ramdas Pophale) SiO2 
 PCOD9137242
Probable space group: C C
;
_chemical_formula_sum "Si O2"
_cell_formula_units_Z 32
_cell_length_a 12.648373
_cell_length_b 7.916790
_cell_length_c 16.421003
_cell_angle_alpha 90.000000
_cell_angle_beta 57.930593
_cell_angle_gamma 90.000000
_cell_volume 1393.396672
_symmetry_space_group_name_H-M "C C"
_symmetry_group_IT_number 9
_symmetry_cell_setting 'monoclinic'
loop_
_space_group_symop_operation_xyz
x,y,z
x,-y,1/2+z
1/2+x,1/2+y,z
1/2+x,1/2-y,1/2+z
loop_
_atom_site_type_symbol
_atom_site_label
_atom_site_fract_x
_atom_site_fract_y
_atom_site_fract_z
Si Si1 0.194150 0.818289 0.446440
Si Si2 0.325625 0.456683 0.371406
Si Si3 0.210477 0.987603 0.110353
Si Si4 0.571752 0.643676 0.303385
Si Si5 0.439011 0.011138 0.800656
Si Si6 0.087307 0.712752 0.971195
Si Si7 0.473498 0.141709 0.460345
Si Si8 0.963273 0.215128 0.678020
O O1 0.258078 0.635867 0.409311
O O2 0.196791 0.884877 0.538538
O O3 0.293620 0.940212 0.362783
O O4 0.058150 0.791322 0.462423
O O5 0.462439 0.502113 0.348520
O O6 0.226066 0.324356 0.449678
O O7 0.353606 0.388449 0.268095
O O8 0.190864 0.088560 0.202142
O O9 0.091346 0.867930 0.155793
O O10 0.334729 0.878022 0.052117
O O11 0.515005 0.815193 0.284799
O O12 0.599957 0.683790 0.384218
O O13 0.468479 0.884750 0.864516
O O14 0.463948 0.907448 0.709006
O O15 0.036004 0.531944 0.965294
O O16 0.984709 0.790416 0.073063
#
# Coordination Sequence:
#
# PCOD9137242 Si02
#       8
#     4   4   4   4   4   4   4   4
#     4   9  19  42  70  91 132 183 222 278 338 412
#     4   9  21  41  63  92 135 174 224 275 335 402
#     4  10  22  41  66 100 136 174 227 278 345 409
#     4   9  20  42  65  93 134 185 221 273 346 408
#     4   9  20  40  64  93 135 174 224 282 340 400
#     4  10  22  40  66  98 130 174 227 277 331 409
#     4   9  20  41  64  98 127 173 234 265 329 418
#     4  11  24  41  64 101 135 173 223 288 342 398
#
# _framework density 22.965464999999998
#
# number of rings (size 3 to 8) (size 9 to 14) (size 15 to 20)
#    0.000    2.500    0.000    0.750    8.750    0.000 
#    6.750    5.000    0.000    0.000    0.000    0.000 
#    0.000    0.000    0.000    0.000    0.000    0.000 
#
# Total GULP energy -89290.463490 kJ/mol
# GULP energy per Si atom -5580.653968 kJ/mol
# Density = 2.291319 g / cm^3
# Si number density = 22.965465 Si / 1000 Ang^3
#
#
#
# Elastic Constant Matrix: (Units=GPa)
#
#
# Indices 1 2 3 4 5 6 
#
# 1 81.2736 31.8395 42.6657 0.0000 -9.8083 0.0000
# 2 31.8395 83.6475 29.2264 0.0000 3.5925 0.0000
# 3 42.6657 29.2264 133.5553 0.0000 -5.1396 0.0000
# 4 0.0000 0.0000 0.0000 30.5284 0.0000 -10.9882
# 5 -9.8083 3.5925 -5.1396 0.0000 29.6947 0.0000
# 6 0.0000 0.0000 0.0000 -10.9882 0.0000 37.9731
#
#
#
# Elastic Compliance Matrix: (Units=1/GPa)
#
#
# Indices 1 2 3 4 5 6 
#
# 1 0.017250 -0.005369 -0.004119 0.000000 0.005634 0.000000
# 2 -0.005369 0.014743 -0.001659 0.000000 -0.003844 0.000000
# 3 -0.004119 -0.001659 0.009183 0.000000 0.000430 0.000000
# 4 0.000000 0.000000 0.000000 0.036565 0.000000 0.010581
# 5 0.005634 -0.003844 0.000430 0.000000 0.036077 0.000000
# 6 0.000000 0.000000 0.000000 0.010581 0.000000 0.029396
#
#
# Mechanical properties :
#
#
# Convention : Reuss Voigt Hill
#
# Bulk Modulus (GPa) = 52.95964 56.21552 54.58758
# Shear Modulus (GPa) = 29.10350 32.62224 30.86287
#
# Velocity S-wave (km/s) = 3.56374 3.77303 3.66988
# Velocity P-wave (km/s) = 6.32805 6.59639 6.46362
#
# Compressibility (1/GPa) = 0.01888230
#
# Stress axis : x y z
#
# Youngs Moduli (GPa) = 57.97251 67.82758 108.89717
#
# Poissons Ratio (x) = 0.36415 0.44854
# Poissons Ratio (y) = 0.31124 0.18068
# Poissons Ratio (z) = 0.23878 0.11254
#
# Static dielectric constant tensor:
#      x y z
#    x 1.930020 0.000000 0.019650 
#    y 0.000000 1.871020 0.000000 
#    z 0.019650 0.000000 1.869720 
# 
# From -- ./inp_files/24338.got.cif
#   From: 2010.05.17/outbox.cif.g08.bks.cpg/sg9_13_cif.got.tgz:24338.got - 2010.06.03 20:04:27.
