data_PCOD9137146
_publ_section_title
;
Structure prediction by ZEFSAII (Michael W. Deem and Ramdas Pophale) SiO2 
 PCOD9137146
Probable space group: C C
;
_chemical_formula_sum "Si O2"
_cell_formula_units_Z 28
_cell_length_a 19.278969
_cell_length_b 7.245756
_cell_length_c 8.944781
_cell_angle_alpha 90.000000
_cell_angle_beta 102.700936
_cell_angle_gamma 90.000000
_cell_volume 1218.928624
_symmetry_space_group_name_H-M "C C"
_symmetry_group_IT_number 9
_symmetry_cell_setting 'monoclinic'
loop_
_space_group_symop_operation_xyz
x,y,z
x,-y,1/2+z
1/2+x,1/2+y,z
1/2+x,1/2-y,1/2+z
loop_
_atom_site_type_symbol
_atom_site_label
_atom_site_fract_x
_atom_site_fract_y
_atom_site_fract_z
Si Si1 0.868170 0.448249 0.878150
Si Si2 0.076371 0.610377 0.184606
Si Si3 0.671263 0.974224 0.015730
Si Si4 0.137137 0.111972 0.116038
Si Si5 0.043348 0.966101 0.304285
Si Si6 0.780419 0.691183 0.062735
Si Si7 0.957498 0.677457 0.686946
O O1 0.828032 0.328431 0.733513
O O2 0.926274 0.564424 0.812486
O O3 0.818615 0.598341 0.939853
O O4 0.900630 0.323082 0.025689
O O5 0.128820 0.646631 0.066847
O O6 0.126957 0.590205 0.352501
O O7 0.022207 0.441669 0.150333
O O8 0.025791 0.782765 0.203313
O O9 0.652440 0.829822 0.140356
O O10 0.751414 0.902342 0.024067
O O11 0.117928 0.026726 0.263149
O O12 0.210870 0.065393 0.069778
O O13 0.066964 0.079677 0.982974
O O14 0.986958 0.127172 0.256636
#
# Coordination Sequence:
#
# PCOD9137146 Si02
#       7
#     4   4   4   4   4   4   4
#     4  10  22  39  68  84 134 186 213 249 304 372
#     4  11  22  40  64 101 124 159 200 290 323 380
#     4   9  21  37  65  95 128 151 209 263 343 361
#     4   9  20  37  64  95 119 154 202 274 322 372
#     4  11  23  37  65  97 128 155 209 265 342 368
#     4   9  19  41  64  92 125 170 217 258 309 391
#     4  11  23  41  62  96 126 177 214 253 313 390
#
# _framework density 22.970994000000001
#
# number of rings (size 3 to 8) (size 9 to 14) (size 15 to 20)
#    0.857    1.143    1.429    1.714    6.000    0.000 
#    0.000    0.000   12.571    0.000    0.000    0.000 
#    0.000    0.000    0.000    0.000    0.000    0.000 
#
# Total GULP energy -77935.368333 kJ/mol
# GULP energy per Si atom -5566.812024 kJ/mol
# Density = 2.291871 g / cm^3
# Si number density = 22.970994 Si / 1000 Ang^3
#
#
#
# Elastic Constant Matrix: (Units=GPa)
#
#
# Indices 1 2 3 4 5 6 
#
# 1 89.3480 12.0408 9.6848 0.0000 -9.8397 0.0000
# 2 12.0408 63.3428 20.1841 0.0000 13.9069 0.0000
# 3 9.6848 20.1841 62.4809 0.0000 3.0680 0.0000
# 4 0.0000 0.0000 0.0000 19.0948 0.0000 -3.7406
# 5 -9.8397 13.9069 3.0680 0.0000 31.2147 0.0000
# 6 0.0000 0.0000 0.0000 -3.7406 0.0000 29.7936
#
#
#
# Elastic Compliance Matrix: (Units=1/GPa)
#
#
# Indices 1 2 3 4 5 6 
#
# 1 0.012340 -0.003166 -0.001156 0.000000 0.005414 0.000000
# 2 -0.003166 0.020248 -0.005585 0.000000 -0.009470 0.000000
# 3 -0.001156 -0.005585 0.017971 0.000000 0.000358 0.000000
# 4 0.000000 0.000000 0.000000 0.053691 0.000000 0.006741
# 5 0.005414 -0.009470 0.000358 0.000000 0.037927 0.000000
# 6 0.000000 0.000000 0.000000 0.006741 0.000000 0.034411
#
#
# Mechanical properties :
#
#
# Convention : Reuss Voigt Hill
#
# Bulk Modulus (GPa) = 32.52603 33.22123 32.87363
# Shear Modulus (GPa) = 24.19554 27.57142 25.88348
#
# Velocity S-wave (km/s) = 3.24899 3.46825 3.36041
# Velocity P-wave (km/s) = 5.31648 5.52558 5.42204
#
# Compressibility (1/GPa) = 0.03074461
#
# Stress axis : x y z
#
# Youngs Moduli (GPa) = 81.03453 49.38806 55.64603
#
# Poissons Ratio (x) = 0.15637 0.06432
# Poissons Ratio (y) = 0.25657 0.31079
# Poissons Ratio (z) = 0.09367 0.27584
#
# Static dielectric constant tensor:
#      x y z
#    x 1.932450 0.000000 -0.014540 
#    y 0.000000 2.047370 0.000000 
#    z -0.014540 0.000000 1.826670 
# 
# From -- ./inp_files/11247.got.cif
#   From: 2010.05.17/outbox.cif.g08.bks.cpg/sg9_6_cif.got.tgz:11247.got - 2010.06.03 20:04:27.
