data_PCOD9137111
_publ_section_title
;
Structure prediction by ZEFSAII (Michael W. Deem and Ramdas Pophale) SiO2 
 PCOD9137111
Probable space group: C C
;
_chemical_formula_sum "Si O2"
_cell_formula_units_Z 32
_cell_length_a 14.055857
_cell_length_b 13.882749
_cell_length_c 19.767424
_cell_angle_alpha 90.000000
_cell_angle_beta 20.834052
_cell_angle_gamma 90.000000
_cell_volume 1371.895204
_symmetry_space_group_name_H-M "C C"
_symmetry_group_IT_number 9
_symmetry_cell_setting 'monoclinic'
loop_
_space_group_symop_operation_xyz
x,y,z
x,-y,1/2+z
1/2+x,1/2+y,z
1/2+x,1/2-y,1/2+z
loop_
_atom_site_type_symbol
_atom_site_label
_atom_site_fract_x
_atom_site_fract_y
_atom_site_fract_z
Si Si1 0.973520 0.057651 0.584310
Si Si2 0.244480 0.190735 0.804871
Si Si3 0.109175 0.829186 0.121916
Si Si4 0.515243 0.011033 0.652298
Si Si5 0.628384 0.278193 0.888968
Si Si6 0.849854 0.596768 0.127304
Si Si7 0.542992 0.583102 0.807595
Si Si8 0.224756 0.360721 0.737182
O O1 0.032210 0.085707 0.621942
O O2 0.950411 0.156821 0.557886
O O3 0.751836 0.975595 0.724920
O O4 0.244041 0.016562 0.370707
O O5 0.493494 0.127105 0.665467
O O6 0.279325 0.304005 0.771066
O O7 0.186978 0.142779 0.770033
O O8 0.970932 0.172639 0.027036
O O9 0.935416 0.737173 0.212508
O O10 0.018004 0.852906 0.257998
O O11 0.430828 0.827297 0.909056
O O12 0.503137 0.963165 0.585080
O O13 0.767926 0.961420 0.518513
O O14 0.651227 0.336117 0.804184
O O15 0.511026 0.170886 0.973534
O O16 0.707250 0.513172 0.180460
#
# Coordination Sequence:
#
# PCOD9137111 Si02
#       8
#     4   4   4   4   4   4   4   4
#     4  10  24  42  63  93 137 166 216 283 334 389
#     4  10  23  41  63  91 134 171 218 273 335 393
#     4  12  25  36  69  98 130 168 230 272 328 405
#     4   9  20  42  63  88 130 172 214 271 342 392
#     4  11  22  41  64  95 129 172 216 277 333 394
#     4  10  22  39  63  92 132 166 216 278 334 388
#     4  11  23  39  65  98 127 173 218 278 331 406
#     4  11  25  42  64  99 129 174 220 280 329 399
#
# _framework density 23.325396999999999
#
# number of rings (size 3 to 8) (size 9 to 14) (size 15 to 20)
#    0.000    1.500    2.500    2.250    8.750    1.000 
#    0.000    5.000    0.000    0.000    0.000    0.000 
#    0.000    0.000    0.000    0.000    0.000    0.000 
#
# Total GULP energy -89353.883263 kJ/mol
# GULP energy per Si atom -5584.617704 kJ/mol
# Density = 2.327231 g / cm^3
# Si number density = 23.325397 Si / 1000 Ang^3
#
#
#
# Elastic Constant Matrix: (Units=GPa)
#
#
# Indices 1 2 3 4 5 6 
#
# 1 20.3368 -2.5063 -2.5333 -0.0116 8.7757 0.0224
# 2 -2.5063 119.2968 31.7795 -0.0205 -16.3396 -0.0007
# 3 -2.5333 31.7795 78.4166 -0.1200 6.0342 -0.0298
# 4 -0.0116 -0.0205 -0.1200 26.0846 0.0316 0.4183
# 5 8.7757 -16.3396 6.0342 0.0316 17.8738 0.0025
# 6 0.0224 -0.0007 -0.0298 0.4183 0.0025 18.8510
#
#
#
# Elastic Compliance Matrix: (Units=1/GPa)
#
#
# Indices 1 2 3 4 5 6 
#
# 1 0.067331 -0.006409 0.007974 0.000113 -0.041609 -0.000064
# 2 -0.006409 0.012218 -0.006427 -0.000043 0.016486 -0.000003
# 3 0.007974 -0.006427 0.016805 0.000094 -0.015464 0.000017
# 4 0.000113 -0.000043 0.000094 0.038351 -0.000194 -0.000851
# 5 -0.041609 0.016486 -0.015464 -0.000194 0.096669 0.000017
# 6 -0.000064 -0.000003 0.000017 -0.000851 0.000017 0.053067
#
#
# Mechanical properties :
#
#
# Convention : Reuss Voigt Hill
#
# Bulk Modulus (GPa) = 11.54328 30.17000 20.85664
# Shear Modulus (GPa) = 15.47795 25.31591 20.39693
#
# Velocity S-wave (km/s) = 2.57877 3.29802 2.96032
# Velocity P-wave (km/s) = 3.71837 5.24071 4.54375
#
# Compressibility (1/GPa) = 0.08663049
#
# Stress axis : x y z
#
# Youngs Moduli (GPa) = 14.85204 81.84696 59.50661
#
# Poissons Ratio (x) = 0.52454 -0.47453
# Poissons Ratio (y) = 0.09518 0.38246
# Poissons Ratio (z) = -0.11844 0.52604
#
# Static dielectric constant tensor:
#      x y z
#    x 1.869320 -0.000010 -0.016620 
#    y -0.000010 1.935530 0.000080 
#    z -0.016620 0.000080 1.937020 
# 
# From -- ./inp_files/9671.got.cif
#   From: 2010.05.17/outbox.cif.g08.bks.cpg/sg9_5_cif.got.tgz:9671.got - 2010.06.03 20:04:27.
