data_PCOD9137618
_publ_section_title
;
Structure prediction by ZEFSAII (Michael W. Deem and Ramdas Pophale) SiO2 
 PCOD9137618
Probable space group: C C
;
_chemical_formula_sum "Si O2"
_cell_formula_units_Z 32
_cell_length_a 9.435339
_cell_length_b 10.040834
_cell_length_c 26.248372
_cell_angle_alpha 90.000000
_cell_angle_beta 32.221682
_cell_angle_gamma 90.000000
_cell_volume 1325.918781
_symmetry_space_group_name_H-M "C C"
_symmetry_group_IT_number 9
_symmetry_cell_setting 'monoclinic'
loop_
_space_group_symop_operation_xyz
x,y,z
x,-y,1/2+z
1/2+x,1/2+y,z
1/2+x,1/2-y,1/2+z
loop_
_atom_site_type_symbol
_atom_site_label
_atom_site_fract_x
_atom_site_fract_y
_atom_site_fract_z
Si Si1 0.484070 0.120022 0.395270
Si Si2 0.722691 0.335983 0.265099
Si Si3 0.638589 0.841716 0.393882
Si Si4 0.828382 0.271515 0.127913
Si Si5 0.440639 0.607681 0.511482
Si Si6 0.291439 0.327344 0.536732
Si Si7 0.833755 0.196004 0.729206
Si Si8 0.614886 0.977640 0.208426
O O1 0.726309 0.195061 0.293809
O O2 0.360267 0.230990 0.470238
O O3 0.257089 0.085963 0.423642
O O4 0.550863 0.989913 0.406829
O O5 0.420239 0.351880 0.337837
O O6 0.903281 0.334038 0.158999
O O7 0.828768 0.445585 0.271797
O O8 0.434967 0.753382 0.488193
O O9 0.673018 0.768679 0.328626
O O10 0.964854 0.220411 0.034224
O O11 0.601730 0.368225 0.172714
O O12 0.688463 0.132344 0.188211
O O13 0.343578 0.480271 0.509268
O O14 0.311076 0.588685 0.606522
O O15 0.985385 0.306334 0.648812
O O16 0.671823 0.097962 0.743144
#
# Coordination Sequence:
#
# PCOD9137618 Si02
#       8
#     4   4   4   4   4   4   4   4
#     4  11  22  42  63  97 132 170 213 271 326 379
#     4  10  23  39  62  96 129 164 214 264 319 387
#     4  10  23  43  65  97 133 169 217 269 326 384
#     4   8  19  39  59  88 123 163 207 258 309 383
#     4  10  22  43  66  94 130 171 215 270 323 382
#     4   9  20  40  68  91 127 169 213 262 325 380
#     4   9  19  39  66  92 123 171 207 263 317 387
#     4  11  20  39  69  91 123 173 212 259 325 380
#
# _framework density 24.134208999999998
#
# number of rings (size 3 to 8) (size 9 to 14) (size 15 to 20)
#    0.750    1.500    1.250    0.750    0.000    7.000 
#    2.250   11.250    0.000    0.000    0.000    0.000 
#    0.000    0.000    0.000    0.000    0.000    0.000 
#
# Total GULP energy -89205.125223 kJ/mol
# GULP energy per Si atom -5575.320326 kJ/mol
# Density = 2.407928 g / cm^3
# Si number density = 24.134209 Si / 1000 Ang^3
#
#
#
# Elastic Constant Matrix: (Units=GPa)
#
#
# Indices 1 2 3 4 5 6 
#
# 1 96.6522 46.0136 7.8688 0.0003 10.8646 0.0000
# 2 46.0136 126.3033 15.8869 0.0002 0.4632 0.0004
# 3 7.8688 15.8869 62.3610 -0.0027 8.1487 0.0051
# 4 0.0003 0.0002 -0.0027 33.7502 0.0005 6.8117
# 5 10.8646 0.4632 8.1487 0.0005 24.8684 -0.0009
# 6 0.0000 0.0004 0.0051 6.8117 -0.0009 29.0247
#
#
#
# Elastic Compliance Matrix: (Units=1/GPa)
#
#
# Indices 1 2 3 4 5 6 
#
# 1 0.013288 -0.004860 0.000322 0.000000 -0.005820 0.000000
# 2 -0.004860 0.009965 -0.002276 0.000000 0.002684 0.000000
# 3 0.000322 -0.002276 0.017330 0.000002 -0.005777 -0.000004
# 4 0.000000 0.000000 0.000002 0.031103 -0.000002 -0.007299
# 5 -0.005820 0.002684 -0.005777 -0.000002 0.044597 0.000003
# 6 0.000000 0.000000 -0.000004 -0.007299 0.000003 0.036166
#
#
# Mechanical properties :
#
#
# Convention : Reuss Voigt Hill
#
# Bulk Modulus (GPa) = 37.09995 47.20610 42.15303
# Shear Modulus (GPa) = 28.56131 31.89847 30.22989
#
# Velocity S-wave (km/s) = 3.44384 3.63948 3.54301
# Velocity P-wave (km/s) = 5.58741 6.10437 5.85160
#
# Compressibility (1/GPa) = 0.02695421
#
# Stress axis : x y z
#
# Youngs Moduli (GPa) = 75.25445 100.35621 57.70443
#
# Poissons Ratio (x) = 0.48775 -0.01858
# Poissons Ratio (y) = 0.36575 0.13133
# Poissons Ratio (z) = -0.02423 0.22840
#
# Static dielectric constant tensor:
#      x y z
#    x 1.990720 0.000000 -0.021530 
#    y 0.000000 1.890710 0.000000 
#    z -0.021530 0.000000 2.008820 
# 
# From -- ./inp_files/36335.got.cif
#   From: 2010.05.17/outbox.cif.g08.bks.cpg/sg9_19_cif.got.tgz:36335.got - 2010.06.03 20:04:27.
