data_PCOD9137594
_publ_section_title
;
Structure prediction by ZEFSAII (Michael W. Deem and Ramdas Pophale) SiO2 
 PCOD9137594
Probable space group: C C
;
_chemical_formula_sum "Si O2"
_cell_formula_units_Z 32
_cell_length_a 6.899054
_cell_length_b 24.954970
_cell_length_c 13.414921
_cell_angle_alpha 90.000000
_cell_angle_beta 37.780508
_cell_angle_gamma 90.000000
_cell_volume 1414.942509
_symmetry_space_group_name_H-M "C C"
_symmetry_group_IT_number 9
_symmetry_cell_setting 'monoclinic'
loop_
_space_group_symop_operation_xyz
x,y,z
x,-y,1/2+z
1/2+x,1/2+y,z
1/2+x,1/2-y,1/2+z
loop_
_atom_site_type_symbol
_atom_site_label
_atom_site_fract_x
_atom_site_fract_y
_atom_site_fract_z
Si Si1 0.304540 0.780334 0.522460
Si Si2 0.649263 0.318339 0.958304
Si Si3 0.160114 0.754936 0.360713
Si Si4 0.867253 0.853128 0.386286
Si Si5 0.062711 0.507660 0.294719
Si Si6 0.418272 0.909051 0.704021
Si Si7 0.217935 0.394680 0.252402
Si Si8 0.177111 0.934526 0.585269
O O1 0.501942 0.725431 0.446284
O O2 0.156622 0.780229 0.471925
O O3 0.560474 0.819380 0.471085
O O4 0.991539 0.775125 0.715591
O O5 0.884684 0.286797 0.938559
O O6 0.808150 0.363886 0.826315
O O7 0.356340 0.346058 0.134733
O O8 0.122627 0.807605 0.305334
O O9 0.759175 0.888638 0.523995
O O10 0.922427 0.893089 0.271499
O O11 0.890547 0.534388 0.271936
O O12 0.235963 0.452243 0.192900
O O13 0.864945 0.488120 0.471330
O O14 0.314363 0.553048 0.219075
O O15 0.236194 0.916665 0.673531
O O16 0.850171 0.394000 0.437663
#
# Coordination Sequence:
#
# PCOD9137594 Si02
#       8
#     4   4   4   4   4   4   4   4
#     4  11  23  39  64  96 133 169 223 272 331 413
#     4  11  23  40  63  98 138 171 222 284 335 397
#     4  11  23  40  66  97 129 178 216 270 337 409
#     4  10  22  43  62  93 133 169 219 271 339 391
#     4  10  22  43  64  94 126 174 233 278 328 399
#     4  11  23  40  68  93 131 179 219 282 338 388
#     4   9  21  41  62  88 130 171 211 280 330 381
#     4   9  23  42  65  89 128 169 229 279 332 392
#
# _framework density 22.615760000000002
#
# number of rings (size 3 to 8) (size 9 to 14) (size 15 to 20)
#    0.750    1.000    0.000    3.750    0.000   12.000 
#    0.000    2.500    0.000    0.000    0.000    0.000 
#    0.000    0.000    0.000    0.000    0.000    0.000 
#
# Total GULP energy -89090.124469 kJ/mol
# GULP energy per Si atom -5568.132779 kJ/mol
# Density = 2.256429 g / cm^3
# Si number density = 22.615760 Si / 1000 Ang^3
#
#
#
# Elastic Constant Matrix: (Units=GPa)
#
#
# Indices 1 2 3 4 5 6 
#
# 1 75.7512 23.3011 18.3111 0.0000 11.2377 0.0000
# 2 23.3011 92.3748 6.3137 0.0000 16.0881 0.0000
# 3 18.3111 6.3137 45.8733 0.0000 17.6370 0.0000
# 4 0.0000 0.0000 0.0000 24.0235 0.0000 4.8776
# 5 11.2377 16.0881 17.6370 0.0000 31.6921 0.0000
# 6 0.0000 0.0000 0.0000 4.8776 0.0000 32.0848
#
#
#
# Elastic Compliance Matrix: (Units=1/GPa)
#
#
# Indices 1 2 3 4 5 6 
#
# 1 0.015706 -0.003455 -0.005505 0.000000 -0.000752 0.000000
# 2 -0.003455 0.012662 0.002082 0.000000 -0.006362 0.000000
# 3 -0.005505 0.002082 0.029726 0.000000 -0.015648 0.000000
# 4 0.000000 0.000000 0.000000 0.042952 0.000000 -0.006530
# 5 -0.000752 -0.006362 -0.015648 0.000000 0.043758 0.000000
# 6 0.000000 0.000000 0.000000 -0.006530 0.000000 0.032160
#
#
# Mechanical properties :
#
#
# Convention : Reuss Voigt Hill
#
# Bulk Modulus (GPa) = 22.55289 34.42791 28.49040
# Shear Modulus (GPa) = 24.33108 28.63165 26.48136
#
# Velocity S-wave (km/s) = 3.28357 3.56196 3.42559
# Velocity P-wave (km/s) = 4.93656 5.67210 5.31706
#
# Compressibility (1/GPa) = 0.04434021
#
# Stress axis : x y z
#
# Youngs Moduli (GPa) = 63.67021 78.97339 33.64049
#
# Poissons Ratio (x) = 0.27281 0.18518
# Poissons Ratio (y) = 0.21995 -0.07004
# Poissons Ratio (z) = 0.35048 -0.16443
#
# Static dielectric constant tensor:
#      x y z
#    x 1.847230 0.000000 -0.000010 
#    y 0.000000 1.948400 0.000000 
#    z -0.000010 0.000000 1.881710 
# 
# From -- ./inp_files/13925.got.cif
#   From: 2010.05.17/outbox.cif.g08.bks.cpg/sg9_7_cif.got.tgz:13925.got - 2010.06.03 20:04:27.
