data_PCOD9137607
_publ_section_title
;
Structure prediction by ZEFSAII (Michael W. Deem and Ramdas Pophale) SiO2 
 PCOD9137607
Probable space group: C C
;
_chemical_formula_sum "Si O2"
_cell_formula_units_Z 24
_cell_length_a 7.223307
_cell_length_b 17.871490
_cell_length_c 9.378803
_cell_angle_alpha 90.000000
_cell_angle_beta 92.321403
_cell_angle_gamma 90.000000
_cell_volume 1209.727888
_symmetry_space_group_name_H-M "C C"
_symmetry_group_IT_number 9
_symmetry_cell_setting 'monoclinic'
loop_
_space_group_symop_operation_xyz
x,y,z
x,-y,1/2+z
1/2+x,1/2+y,z
1/2+x,1/2-y,1/2+z
loop_
_atom_site_type_symbol
_atom_site_label
_atom_site_fract_x
_atom_site_fract_y
_atom_site_fract_z
Si Si1 0.437000 0.671688 0.192640
Si Si2 0.803073 0.378580 0.797446
Si Si3 0.188355 0.602835 0.407738
Si Si4 0.645179 0.461729 0.231695
Si Si5 0.894070 0.041330 0.985264
Si Si6 0.396098 0.839002 0.101962
O O1 0.659487 0.660364 0.187821
O O2 0.366869 0.641406 0.343775
O O3 0.348788 0.614880 0.074769
O O4 0.392975 0.757699 0.169162
O O5 0.741847 0.464630 0.798667
O O6 0.024094 0.381187 0.787926
O O7 0.782604 0.339429 0.950000
O O8 0.232197 0.515629 0.433933
O O9 0.100045 0.636022 0.550533
O O10 0.527155 0.491289 0.092556
O O11 0.503895 0.434492 0.347709
O O12 0.797855 0.401272 0.194487
#
# Coordination Sequence:
#
# PCOD9137607 Si02
#       6
#     4   4   4   4   4   4
#     4  11  23  45  62  98 136 174 216 286 338 382
#     4   9  22  43  60  95 132 168 224 275 318 396
#     4  10  22  43  65  94 128 173 231 265 322 408
#     4  11  20  42  68  94 134 176 216 277 329 388
#     4  11  21  41  72  90 132 176 226 273 327 396
#     4  10  24  40  65  97 134 171 221 274 340 384
#
# _framework density 19.839172999999999
#
# number of rings (size 3 to 8) (size 9 to 14) (size 15 to 20)
#    1.000    0.667    5.000    0.000    4.667    0.000 
#   12.000    0.000    0.000    0.000    0.000    0.000 
#    0.000    0.000    0.000    0.000    0.000    0.000 
#
# Total GULP energy -66803.093492 kJ/mol
# GULP energy per Si atom -5566.924458 kJ/mol
# Density = 1.979402 g / cm^3
# Si number density = 19.839173 Si / 1000 Ang^3
#
#
#
# Elastic Constant Matrix: (Units=GPa)
#
#
# Indices 1 2 3 4 5 6 
#
# 1 69.1188 9.7363 11.5796 0.0000 -2.8807 0.0000
# 2 9.7363 90.4041 6.8252 0.0000 -8.6739 0.0000
# 3 11.5796 6.8252 56.7744 0.0000 -21.1565 0.0000
# 4 0.0000 0.0000 0.0000 17.3329 0.0000 -2.3789
# 5 -2.8807 -8.6739 -21.1565 0.0000 33.7540 0.0000
# 6 0.0000 0.0000 0.0000 -2.3789 0.0000 17.8892
#
#
#
# Elastic Compliance Matrix: (Units=1/GPa)
#
#
# Indices 1 2 3 4 5 6 
#
# 1 0.015193 -0.001497 -0.003365 0.000000 -0.001197 0.000000
# 2 -0.001497 0.011494 -0.000031 0.000000 0.002807 0.000000
# 3 -0.003365 -0.000031 0.023738 0.000000 0.014584 0.000000
# 4 0.000000 0.000000 0.000000 0.058766 0.000000 0.007815
# 5 -0.001197 0.002807 0.014584 0.000000 0.039386 0.000000
# 6 0.000000 0.000000 0.000000 0.007815 0.000000 0.056939
#
#
# Mechanical properties :
#
#
# Convention : Reuss Voigt Hill
#
# Bulk Modulus (GPa) = 24.60621 30.28662 27.44641
# Shear Modulus (GPa) = 21.84864 26.33897 24.09380
#
# Velocity S-wave (km/s) = 3.32217 3.64761 3.48869
# Velocity P-wave (km/s) = 5.21013 5.74798 5.48565
#
# Compressibility (1/GPa) = 0.04064015
#
# Stress axis : x y z
#
# Youngs Moduli (GPa) = 65.82180 86.99977 42.12658
#
# Poissons Ratio (x) = 0.13024 0.14175
# Poissons Ratio (y) = 0.09854 0.00129
# Poissons Ratio (z) = 0.22148 0.00265
#
# Static dielectric constant tensor:
#      x y z
#    x 1.734880 0.000000 0.019180 
#    y 0.000000 1.656100 0.000000 
#    z 0.019180 0.000000 1.709700 
# 
# From -- ./inp_files/5220.got.cif
#   From: 2010.05.17/outbox.cif.g08.bks.cpg/sg9_3_cif.got.tgz:5220.got - 2010.06.03 20:04:27.
