data_PCOD9137841
_publ_section_title
;
Structure prediction by ZEFSAII (Michael W. Deem and Ramdas Pophale) SiO2 
 PCOD9137841
Probable space group: C C
;
_chemical_formula_sum "Si O2"
_cell_formula_units_Z 32
_cell_length_a 13.322339
_cell_length_b 7.026391
_cell_length_c 14.421372
_cell_angle_alpha 90.000000
_cell_angle_beta 70.215612
_cell_angle_gamma 90.000000
_cell_volume 1270.271491
_symmetry_space_group_name_H-M "C C"
_symmetry_group_IT_number 9
_symmetry_cell_setting 'monoclinic'
loop_
_space_group_symop_operation_xyz
x,y,z
x,-y,1/2+z
1/2+x,1/2+y,z
1/2+x,1/2-y,1/2+z
loop_
_atom_site_type_symbol
_atom_site_label
_atom_site_fract_x
_atom_site_fract_y
_atom_site_fract_z
Si Si1 0.993980 0.840991 0.646840
Si Si2 0.892476 0.088110 0.543709
Si Si3 0.537466 0.931151 0.570798
Si Si4 0.588128 0.128964 0.264380
Si Si5 0.379184 0.774448 0.919887
Si Si6 0.235319 0.902704 0.560262
Si Si7 0.195167 0.369963 0.365567
Si Si8 0.122406 0.055996 0.276342
O O1 0.083492 0.361834 0.655107
O O2 0.022050 0.864738 0.747147
O O3 0.901478 0.975645 0.638804
O O4 0.110733 0.902770 0.568491
O O5 0.965186 0.272019 0.545195
O O6 0.791136 0.197490 0.531841
O O7 0.917248 0.906371 0.469467
O O8 0.478251 0.125660 0.618097
O O9 0.631132 0.969568 0.468333
O O10 0.670285 0.978850 0.278630
O O11 0.972452 0.598189 0.346484
O O12 0.616149 0.334914 0.292456
O O13 0.300334 0.919976 0.998381
O O14 0.313629 0.675936 0.857917
O O15 0.222412 0.917697 0.675712
O O16 0.139997 0.167360 0.363908
#
# Coordination Sequence:
#
# PCOD9137841 Si02
#       8
#     4   4   4   4   4   4   4   4
#     4  10  22  44  75 102 140 199 246 307 383 451
#     4  12  23  43  75 108 146 197 248 309 382 452
#     4  12  24  47  78 104 153 201 248 318 384 453
#     4  12  25  49  74 110 151 200 250 315 388 451
#     4  12  28  44  72 119 149 198 262 310 383 466
#     4  10  24  46  73 107 146 194 246 312 377 453
#     4  12  26  47  74 108 157 198 254 313 381 462
#     4  10  24  46  73 104 148 195 248 308 388 450
#
# _framework density 25.191465999999998
#
# number of rings (size 3 to 8) (size 9 to 14) (size 15 to 20)
#    0.750    0.000    2.500    5.250    1.750    3.000 
#    0.000    0.000    2.750    0.000    0.000    0.000 
#    0.000    0.000    0.000    0.000    0.000    0.000 
#
# Total GULP energy -89424.752720 kJ/mol
# GULP energy per Si atom -5589.047045 kJ/mol
# Density = 2.513413 g / cm^3
# Si number density = 25.191466 Si / 1000 Ang^3
#
#
#
# Elastic Constant Matrix: (Units=GPa)
#
#
# Indices 1 2 3 4 5 6 
#
# 1 108.5893 33.9545 32.3240 0.0000 27.8504 0.0000
# 2 33.9545 99.7261 -12.3553 0.0000 6.7266 0.0000
# 3 32.3240 -12.3553 42.5277 0.0000 8.9256 0.0000
# 4 0.0000 0.0000 0.0000 29.8439 0.0000 4.5929
# 5 27.8504 6.7266 8.9256 0.0000 35.5327 0.0000
# 6 0.0000 0.0000 0.0000 4.5929 0.0000 42.2456
#
#
#
# Elastic Compliance Matrix: (Units=1/GPa)
#
#
# Indices 1 2 3 4 5 6 
#
# 1 0.017923 -0.007186 -0.013774 0.000000 -0.009227 0.000000
# 2 -0.007186 0.013570 0.009249 0.000000 0.000740 0.000000
# 3 -0.013774 0.009249 0.036707 0.000000 -0.000176 0.000000
# 4 0.000000 0.000000 0.000000 0.034078 0.000000 -0.003705
# 5 -0.009227 0.000740 -0.000176 0.000000 0.035280 0.000000
# 6 0.000000 0.000000 0.000000 -0.003705 0.000000 0.024074
#
#
# Mechanical properties :
#
#
# Convention : Reuss Voigt Hill
#
# Bulk Modulus (GPa) = 22.33222 39.85439 31.09331
# Shear Modulus (GPa) = 25.00260 34.65243 29.82751
#
# Velocity S-wave (km/s) = 3.15382 3.71288 3.44471
# Velocity P-wave (km/s) = 4.70599 5.85112 5.30952
#
# Compressibility (1/GPa) = 0.04477835
#
# Stress axis : x y z
#
# Youngs Moduli (GPa) = 55.79499 73.69070 27.24273
#
# Poissons Ratio (x) = 0.52957 0.37523
# Poissons Ratio (y) = 0.40096 -0.25197
# Poissons Ratio (z) = 0.76850 -0.68158
#
# Static dielectric constant tensor:
#      x y z
#    x 2.063680 0.000000 -0.036000 
#    y 0.000000 1.947580 0.000000 
#    z -0.036000 0.000000 2.002620 
# 
# From -- ./inp_files/33481.got.cif
#   From: 2010.05.17/outbox.cif.g08.bks.cpg/sg9_17_cif.got.tgz:33481.got - 2010.06.03 20:04:27.
