data_PCOD9137728
_publ_section_title
;
Structure prediction by ZEFSAII (Michael W. Deem and Ramdas Pophale) SiO2 
 PCOD9137728
Probable space group: C C
;
_chemical_formula_sum "Si O2"
_cell_formula_units_Z 32
_cell_length_a 7.810162
_cell_length_b 12.538433
_cell_length_c 14.916657
_cell_angle_alpha 90.000000
_cell_angle_beta 126.044805
_cell_angle_gamma 90.000000
_cell_volume 1181.096834
_symmetry_space_group_name_H-M "C C"
_symmetry_group_IT_number 9
_symmetry_cell_setting 'monoclinic'
loop_
_space_group_symop_operation_xyz
x,y,z
x,-y,1/2+z
1/2+x,1/2+y,z
1/2+x,1/2-y,1/2+z
loop_
_atom_site_type_symbol
_atom_site_label
_atom_site_fract_x
_atom_site_fract_y
_atom_site_fract_z
Si Si1 0.175410 0.050486 0.625000
Si Si2 0.192466 0.414358 0.981260
Si Si3 0.229717 0.388025 0.199221
Si Si4 0.686043 0.374134 0.934065
Si Si5 0.653906 0.843217 0.502517
Si Si6 0.708029 0.124290 0.224226
Si Si7 0.732966 0.582525 0.837127
Si Si8 0.850553 0.669445 0.236913
O O1 0.196111 0.926245 0.658538
O O2 0.249876 0.071369 0.547850
O O3 0.280055 0.099909 0.746109
O O4 0.942467 0.101210 0.548649
O O5 0.035895 0.356677 0.865445
O O6 0.149088 0.388755 0.072013
O O7 0.178528 0.542049 0.964192
O O8 0.155735 0.497516 0.221490
O O9 0.486200 0.398369 0.277095
O O10 0.208868 0.267901 0.227203
O O11 0.432204 0.363915 0.841640
O O12 0.754894 0.459925 0.879529
O O13 0.744788 0.250818 0.969745
O O14 0.743589 0.851588 0.630445
O O15 0.398042 0.842311 0.438048
O O16 0.504947 0.187232 0.198454
#
# Coordination Sequence:
#
# PCOD9137728 Si02
#       8
#     4   4   4   4   4   4   4   4
#     4  11  24  44  66 103 139 172 242 292 348 441
#     4  10  23  45  61 100 142 169 237 297 340 441
#     4   9  23  41  66  96 136 179 233 292 351 418
#     4  11  24  42  71 100 138 188 235 296 358 421
#     4  11  23  43  69  94 139 191 227 296 368 415
#     4  10  23  41  65 104 138 175 251 291 337 457
#     4  10  22  44  64 102 137 175 243 296 334 446
#     4  12  22  42  72  95 137 195 218 296 378 397
#
# _framework density 27.093461000000001
#
# number of rings (size 3 to 8) (size 9 to 14) (size 15 to 20)
#    0.000    1.500    2.500    2.250    5.250    2.000 
#    9.000    0.000    0.000    0.000    0.000    0.000 
#    0.000    0.000    0.000    0.000    0.000    0.000 
#
# Total GULP energy -89495.827870 kJ/mol
# GULP energy per Si atom -5593.489242 kJ/mol
# Density = 2.703179 g / cm^3
# Si number density = 27.093461 Si / 1000 Ang^3
#
#
#
# Elastic Constant Matrix: (Units=GPa)
#
#
# Indices 1 2 3 4 5 6 
#
# 1 73.5771 2.7452 22.0758 0.0000 0.0725 0.0000
# 2 2.7452 168.3978 50.5741 0.0000 1.8955 0.0000
# 3 22.0758 50.5741 158.2999 0.0000 3.4270 0.0000
# 4 0.0000 0.0000 0.0000 30.3577 0.0000 -1.1642
# 5 0.0725 1.8955 3.4270 0.0000 39.8297 0.0000
# 6 0.0000 0.0000 0.0000 -1.1642 0.0000 35.7216
#
#
#
# Elastic Compliance Matrix: (Units=1/GPa)
#
#
# Indices 1 2 3 4 5 6 
#
# 1 0.014210 0.000401 -0.002113 0.000000 0.000137 0.000000
# 2 0.000401 0.006581 -0.002156 0.000000 -0.000128 0.000000
# 3 -0.002113 -0.002156 0.007312 0.000000 -0.000523 0.000000
# 4 0.000000 0.000000 0.000000 0.032982 0.000000 0.001075
# 5 0.000137 -0.000128 -0.000523 0.000000 0.025158 0.000000
# 6 0.000000 0.000000 0.000000 0.001075 0.000000 0.028029
#
#
# Mechanical properties :
#
#
# Convention : Reuss Voigt Hill
#
# Bulk Modulus (GPa) = 49.09612 61.22944 55.16278
# Shear Modulus (GPa) = 38.82145 42.84044 40.83094
#
# Velocity S-wave (km/s) = 3.78944 3.98076 3.88627
# Velocity P-wave (km/s) = 6.10793 6.61642 6.36725
#
# Compressibility (1/GPa) = 0.02036821
#
# Stress axis : x y z
#
# Youngs Moduli (GPa) = 70.37296 151.96189 136.76610
#
# Poissons Ratio (x) = -0.06099 0.28897
# Poissons Ratio (y) = -0.02824 0.29481
# Poissons Ratio (z) = 0.14869 0.32757
#
# Static dielectric constant tensor:
#      x y z
#    x 2.253560 0.000000 0.054700 
#    y 0.000000 2.177910 0.000000 
#    z 0.054700 0.000000 2.046680 
# 
# From -- ./inp_files/16152.got.cif
#   From: 2010.05.17/outbox.cif.g08.bks.cpg/sg9_9_cif.got.tgz:16152.got - 2010.06.03 20:04:27.
