data_PCOD9137804
_publ_section_title
;
Structure prediction by ZEFSAII (Michael W. Deem and Ramdas Pophale) SiO2 
 PCOD9137804
Probable space group: C C
;
_chemical_formula_sum "Si O2"
_cell_formula_units_Z 28
_cell_length_a 11.211047
_cell_length_b 22.355706
_cell_length_c 5.001376
_cell_angle_alpha 90.000000
_cell_angle_beta 114.348606
_cell_angle_gamma 90.000000
_cell_volume 1142.005288
_symmetry_space_group_name_H-M "C C"
_symmetry_group_IT_number 9
_symmetry_cell_setting 'monoclinic'
loop_
_space_group_symop_operation_xyz
x,y,z
x,-y,1/2+z
1/2+x,1/2+y,z
1/2+x,1/2-y,1/2+z
loop_
_atom_site_type_symbol
_atom_site_label
_atom_site_fract_x
_atom_site_fract_y
_atom_site_fract_z
Si Si1 0.791290 0.965379 0.182270
Si Si2 0.418366 0.849354 0.362489
Si Si3 0.999241 0.542221 0.291466
Si Si4 0.092480 0.271045 0.202637
Si Si5 0.351736 0.732722 0.614942
Si Si6 0.011274 0.882005 0.158753
Si Si7 0.670041 0.360474 0.828293
O O1 0.792999 0.974363 0.501751
O O2 0.916285 0.930206 0.198674
O O3 0.652331 0.939468 0.960668
O O4 0.554791 0.825469 0.362025
O O5 0.210862 0.716304 0.606800
O O6 0.433719 0.900021 0.599130
O O7 0.319788 0.871365 0.040971
O O8 0.974097 0.511172 0.553589
O O9 0.853302 0.290435 0.430316
O O10 0.138374 0.208660 0.372838
O O11 0.955574 0.253099 0.937378
O O12 0.419106 0.676065 0.539596
O O13 0.123840 0.868847 0.482813
O O14 0.079965 0.898445 0.945835
#
# Coordination Sequence:
#
# PCOD9137804 Si02
#       7
#     4   4   4   4   4   4   4
#     4  10  22  44  70 101 133 178 238 291 346 414
#     4  12  25  44  72  97 150 189 236 296 372 419
#     4  10  26  45  70 102 138 185 246 299 351 424
#     4  11  24  41  66 100 143 187 230 287 362 430
#     4  11  25  40  67 104 142 185 239 282 369 432
#     4  11  24  44  68  98 145 176 231 294 349 417
#     4  11  24  44  63 104 141 182 230 289 343 438
#
# _framework density 24.518274999999999
#
# number of rings (size 3 to 8) (size 9 to 14) (size 15 to 20)
#    0.000    1.143    2.857    2.571    4.000    4.571 
#    0.000    4.286    0.000    0.000    0.000    0.000 
#    0.000    0.000    0.000    0.000    0.000    0.000 
#
# Total GULP energy -78315.124131 kJ/mol
# GULP energy per Si atom -5593.937438 kJ/mol
# Density = 2.446247 g / cm^3
# Si number density = 24.518275 Si / 1000 Ang^3
#
#
#
# Elastic Constant Matrix: (Units=GPa)
#
#
# Indices 1 2 3 4 5 6 
#
# 1 110.3307 14.5156 34.5302 0.0000 -4.0998 0.0000
# 2 14.5156 35.6927 31.9237 0.0000 14.3758 0.0000
# 3 34.5302 31.9237 72.8193 0.0000 9.0290 0.0000
# 4 0.0000 0.0000 0.0000 28.5237 0.0000 2.6229
# 5 -4.0998 14.3758 9.0290 0.0000 36.0142 0.0000
# 6 0.0000 0.0000 0.0000 2.6229 0.0000 34.1958
#
#
#
# Elastic Compliance Matrix: (Units=1/GPa)
#
#
# Indices 1 2 3 4 5 6 
#
# 1 0.010899 -0.001102 -0.005050 0.000000 0.002947 0.000000
# 2 -0.001102 0.053911 -0.021083 0.000000 -0.016359 0.000000
# 3 -0.005050 -0.021083 0.025181 0.000000 0.001528 0.000000
# 4 0.000000 0.000000 0.000000 0.035308 0.000000 -0.002708
# 5 0.002947 -0.016359 0.001528 0.000000 0.034249 0.000000
# 6 0.000000 0.000000 0.000000 -0.002708 0.000000 0.029451
#
#
# Mechanical properties :
#
#
# Convention : Reuss Voigt Hill
#
# Bulk Modulus (GPa) = 28.15387 42.30909 35.23148
# Shear Modulus (GPa) = 19.58400 28.93828 24.26114
#
# Velocity S-wave (km/s) = 2.82928 3.43924 3.14906
# Velocity P-wave (km/s) = 4.70966 5.75020 5.25574
#
# Compressibility (1/GPa) = 0.03551910
#
# Stress axis : x y z
#
# Youngs Moduli (GPa) = 91.75367 18.54899 39.71271
#
# Poissons Ratio (x) = 0.02045 0.20056
# Poissons Ratio (y) = 0.10113 0.83728
# Poissons Ratio (z) = 0.46338 0.39108
#
# Static dielectric constant tensor:
#      x y z
#    x 1.986460 0.000000 -0.001770 
#    y 0.000000 1.963240 0.000000 
#    z -0.001770 0.000000 1.978160 
# 
# From -- ./inp_files/2674.got.cif
#   From: 2010.05.17/outbox.cif.g08.bks.cpg/sg9_2_cif.got.tgz:2674.got - 2010.06.03 20:04:27.
