data_PCOD9137436
_publ_section_title
;
Structure prediction by ZEFSAII (Michael W. Deem and Ramdas Pophale) SiO2 
 PCOD9137436
Probable space group: C C
;
_chemical_formula_sum "Si O2"
_cell_formula_units_Z 28
_cell_length_a 7.448696
_cell_length_b 11.655524
_cell_length_c 13.922708
_cell_angle_alpha 90.000000
_cell_angle_beta 72.831582
_cell_angle_gamma 90.000000
_cell_volume 1154.887655
_symmetry_space_group_name_H-M "C C"
_symmetry_group_IT_number 9
_symmetry_cell_setting 'monoclinic'
loop_
_space_group_symop_operation_xyz
x,y,z
x,-y,1/2+z
1/2+x,1/2+y,z
1/2+x,1/2-y,1/2+z
loop_
_atom_site_type_symbol
_atom_site_label
_atom_site_fract_x
_atom_site_fract_y
_atom_site_fract_z
Si Si1 0.651450 0.120083 0.600380
Si Si2 0.174867 0.007456 0.353411
Si Si3 0.974889 0.042034 0.060580
Si Si4 0.206592 0.120485 0.653163
Si Si5 0.942573 0.238484 0.419657
Si Si6 0.094090 0.554671 0.821896
Si Si7 0.295945 0.327531 0.746379
O O1 0.433728 0.115576 0.602293
O O2 0.783784 0.209327 0.522828
O O3 0.651820 0.125352 0.716617
O O4 0.764828 0.000369 0.568939
O O5 0.154234 0.960820 0.250230
O O6 0.394940 0.007275 0.338525
O O7 0.075662 0.925250 0.447072
O O8 0.079185 0.130123 0.384172
O O9 0.090885 0.932625 0.084156
O O10 0.959587 0.135695 0.146449
O O11 0.164937 0.249376 0.697993
O O12 0.847326 0.249261 0.329270
O O13 0.062356 0.354645 0.411824
O O14 0.231166 0.446756 0.804182
#
# Coordination Sequence:
#
# PCOD9137436 Si02
#       7
#     4   4   4   4   4   4   4
#     4   9  22  41  63  95 131 167 226 263 330 398
#     4  10  22  42  63  98 128 172 226 266 330 397
#     4  10  23  43  65  97 134 174 223 274 332 394
#     4  11  22  43  69  97 133 178 217 279 334 388
#     4  11  21  42  64  91 132 170 211 281 325 386
#     4  10  23  41  61  96 129 169 224 268 322 400
#     4  11  23  40  65  96 129 172 219 269 333 395
#
# _framework density 24.244785
#
# number of rings (size 3 to 8) (size 9 to 14) (size 15 to 20)
#    0.000    1.714    4.286    0.000    4.000    2.286 
#    0.000    7.143    0.000    0.000    0.000    0.000 
#    0.000    0.000    0.000    0.000    0.000    0.000 
#
# Total GULP energy -78170.858482 kJ/mol
# GULP energy per Si atom -5583.632749 kJ/mol
# Density = 2.418960 g / cm^3
# Si number density = 24.244785 Si / 1000 Ang^3
#
#
#
# Elastic Constant Matrix: (Units=GPa)
#
#
# Indices 1 2 3 4 5 6 
#
# 1 62.4795 41.1024 43.4132 0.0000 -17.8980 0.0000
# 2 41.1024 121.2450 37.6497 0.0000 -15.6312 0.0000
# 3 43.4132 37.6497 117.8879 0.0000 -33.1491 0.0000
# 4 0.0000 0.0000 0.0000 46.3587 0.0000 -11.6626
# 5 -17.8980 -15.6312 -33.1491 0.0000 34.9971 0.0000
# 6 0.0000 0.0000 0.0000 -11.6626 0.0000 30.9620
#
#
#
# Elastic Compliance Matrix: (Units=1/GPa)
#
#
# Indices 1 2 3 4 5 6 
#
# 1 0.025689 -0.006200 -0.006222 0.000000 0.004475 0.000000
# 2 -0.006200 0.010736 -0.000939 0.000000 0.000735 0.000000
# 3 -0.006222 -0.000939 0.013714 0.000000 0.009388 0.000000
# 4 0.000000 0.000000 0.000000 0.023829 0.000000 0.008976
# 5 0.004475 0.000735 0.009388 0.000000 0.040084 0.000000
# 6 0.000000 0.000000 0.000000 0.008976 0.000000 0.035679
#
#
# Mechanical properties :
#
#
# Convention : Reuss Voigt Hill
#
# Bulk Modulus (GPa) = 42.70256 60.66034 51.68145
# Shear Modulus (GPa) = 27.13620 34.42666 30.78143
#
# Velocity S-wave (km/s) = 3.34916 3.77233 3.56702
# Velocity P-wave (km/s) = 5.71027 6.63688 6.19094
#
# Compressibility (1/GPa) = 0.02341780
#
# Stress axis : x y z
#
# Youngs Moduli (GPa) = 38.92744 93.14648 72.92036
#
# Poissons Ratio (x) = 0.57747 0.45369
# Poissons Ratio (y) = 0.24133 0.06846
# Poissons Ratio (z) = 0.24220 0.08745
#
# Static dielectric constant tensor:
#      x y z
#    x 1.950070 0.000000 -0.009560 
#    y 0.000000 2.000900 0.000000 
#    z -0.009560 0.000000 1.933880 
# 
# From -- ./inp_files/22666.got.cif
#   From: 2010.05.17/outbox.cif.g08.bks.cpg/sg9_12_cif.got.tgz:22666.got - 2010.06.03 20:04:27.
