data_PCOD9137212
_publ_section_title
;
Structure prediction by ZEFSAII (Michael W. Deem and Ramdas Pophale) SiO2 
 PCOD9137212
Probable space group: C C
;
_chemical_formula_sum "Si O2"
_cell_formula_units_Z 28
_cell_length_a 27.126866
_cell_length_b 5.047370
_cell_length_c 13.057216
_cell_angle_alpha 90.000000
_cell_angle_beta 138.731975
_cell_angle_gamma 90.000000
_cell_volume 1179.191529
_symmetry_space_group_name_H-M "C C"
_symmetry_group_IT_number 9
_symmetry_cell_setting 'monoclinic'
loop_
_space_group_symop_operation_xyz
x,y,z
x,-y,1/2+z
1/2+x,1/2+y,z
1/2+x,1/2-y,1/2+z
loop_
_atom_site_type_symbol
_atom_site_label
_atom_site_fract_x
_atom_site_fract_y
_atom_site_fract_z
Si Si1 0.556150 0.649236 0.399210
Si Si2 0.383513 0.189834 0.394240
Si Si3 0.089258 0.633421 0.319429
Si Si4 0.211668 0.321190 0.734751
Si Si5 0.781608 0.326376 0.928083
Si Si6 0.762355 0.970510 0.602448
Si Si7 0.477108 0.314058 0.979900
O O1 0.573773 0.369093 0.375283
O O2 0.629117 0.739919 0.576403
O O3 0.491241 0.644153 0.381695
O O4 0.548853 0.872653 0.300842
O O5 0.351419 0.180868 0.459679
O O6 0.316509 0.289377 0.216048
O O7 0.445257 0.418795 0.478738
O O8 0.418998 0.917876 0.413065
O O9 0.177186 0.566775 0.449189
O O10 0.052417 0.725801 0.156421
O O11 0.220886 0.624021 0.783211
O O12 0.256788 0.299845 0.698304
O O13 0.248452 0.120722 0.872445
O O14 0.792407 0.203177 0.056059
#
# Coordination Sequence:
#
# PCOD9137212 Si02
#       7
#     4   4   4   4   4   4   4
#     4  11  23  42  68  96 134 175 221 279 334 392
#     4  11  25  43  65  99 137 174 224 269 330 411
#     4  11  25  44  71 102 128 172 234 274 329 409
#     4  10  22  40  65 102 131 165 226 282 330 397
#     4  11  23  41  67  97 136 176 218 277 337 392
#     4  10  24  45  72 100 133 177 225 283 336 392
#     4  12  26  45  66  96 139 179 216 276 338 393
#
# _framework density 23.745085
#
# number of rings (size 3 to 8) (size 9 to 14) (size 15 to 20)
#    0.000    1.143    0.000    6.857    0.000   13.714 
#    0.000    1.429    0.000    0.000    0.000    0.000 
#    0.000    0.000    0.000    0.000    0.000    0.000 
#
# Total GULP energy -78457.315562 kJ/mol
# GULP energy per Si atom -5604.093969 kJ/mol
# Density = 2.369104 g / cm^3
# Si number density = 23.745085 Si / 1000 Ang^3
#
#
#
# Elastic Constant Matrix: (Units=GPa)
#
#
# Indices 1 2 3 4 5 6 
#
# 1 147.6348 58.2320 27.0471 0.0000 -13.9805 0.0000
# 2 58.2320 117.2598 11.6043 0.0001 7.4512 0.0001
# 3 27.0471 11.6043 81.7373 0.0000 -1.7315 0.0000
# 4 0.0000 0.0001 0.0000 38.3468 0.0000 -1.9208
# 5 -13.9805 7.4512 -1.7315 0.0000 25.7898 0.0000
# 6 0.0000 0.0001 0.0000 -1.9208 0.0000 28.1682
#
#
#
# Elastic Compliance Matrix: (Units=1/GPa)
#
#
# Indices 1 2 3 4 5 6 
#
# 1 0.009842 -0.005072 -0.002396 0.000000 0.006640 0.000000
# 2 -0.005072 0.011439 -0.000074 0.000000 -0.006060 0.000000
# 3 -0.002396 -0.000074 0.013029 0.000000 -0.000403 0.000000
# 4 0.000000 0.000000 0.000000 0.026167 0.000000 0.001784
# 5 0.006640 -0.006060 -0.000403 0.000000 0.044098 0.000000
# 6 0.000000 0.000000 0.000000 0.001784 0.000000 0.035623
#
#
# Mechanical properties :
#
#
# Convention : Reuss Voigt Hill
#
# Bulk Modulus (GPa) = 52.01318 60.04430 56.02874
# Shear Modulus (GPa) = 30.92306 35.11086 33.01696
#
# Velocity S-wave (km/s) = 3.61264 3.84950 3.73295
# Velocity P-wave (km/s) = 6.27327 6.71567 6.49824
#
# Compressibility (1/GPa) = 0.01922590
#
# Stress axis : x y z
#
# Youngs Moduli (GPa) = 101.60641 87.41694 76.75123
#
# Poissons Ratio (x) = 0.44341 0.18389
# Poissons Ratio (y) = 0.51539 0.00568
# Poissons Ratio (z) = 0.24344 0.00647
#
# Static dielectric constant tensor:
#      x y z
#    x 1.894470 0.000000 -0.007440 
#    y 0.000000 1.850480 0.000000 
#    z -0.007440 0.000000 1.938760 
# 
# From -- ./inp_files/26257.got.cif
#   From: 2010.05.17/outbox.cif.g08.bks.cpg/sg9_14_cif.got.tgz:26257.got - 2010.06.03 20:04:27.
