data_PCOD9137245
_publ_section_title
;
Structure prediction by ZEFSAII (Michael W. Deem and Ramdas Pophale) SiO2 
 PCOD9137245
Probable space group: C C
;
_chemical_formula_sum "Si O2"
_cell_formula_units_Z 32
_cell_length_a 20.768839
_cell_length_b 14.139422
_cell_length_c 14.560774
_cell_angle_alpha 90.000000
_cell_angle_beta 18.730288
_cell_angle_gamma 90.000000
_cell_volume 1373.052442
_symmetry_space_group_name_H-M "C C"
_symmetry_group_IT_number 9
_symmetry_cell_setting 'monoclinic'
loop_
_space_group_symop_operation_xyz
x,y,z
x,-y,1/2+z
1/2+x,1/2+y,z
1/2+x,1/2-y,1/2+z
loop_
_atom_site_type_symbol
_atom_site_label
_atom_site_fract_x
_atom_site_fract_y
_atom_site_fract_z
Si Si1 0.204750 0.847018 0.706270
Si Si2 0.775588 0.325133 0.399690
Si Si3 0.311817 0.282132 0.195395
Si Si4 0.525111 0.953150 0.957644
Si Si5 0.769641 0.114604 0.374722
Si Si6 0.207720 0.938159 0.219537
Si Si7 0.375337 0.574659 0.437860
Si Si8 0.508889 0.931621 0.654177
O O1 0.286312 0.821597 0.495914
O O2 0.331052 0.820118 0.623422
O O3 0.143814 0.954142 0.789679
O O4 0.006384 0.787963 0.995002
O O5 0.707719 0.225023 0.449899
O O6 0.612256 0.408516 0.601258
O O7 0.981034 0.358604 0.075598
O O8 0.136078 0.335320 0.485029
O O9 0.342565 0.351136 0.064897
O O10 0.758493 0.978146 0.622111
O O11 0.382033 0.941277 0.062186
O O12 0.462578 0.037328 0.112423
O O13 0.776414 0.100446 0.475132
O O14 0.637992 0.024565 0.516165
O O15 0.999726 0.111006 0.027386
O O16 0.317566 0.913689 0.976249
#
# Coordination Sequence:
#
# PCOD9137245 Si02
#       8
#     4   4   4   4   4   4   4   4
#     4  11  23  40  70 102 132 177 238 290 341 416
#     4  11  24  42  71 108 137 177 243 302 345 428
#     4  10  23  41  65 100 134 175 236 286 338 422
#     4  11  24  40  70 101 140 183 233 292 358 418
#     4  12  24  44  70 102 140 184 238 296 354 424
#     4  12  25  44  69 102 143 185 226 299 367 413
#     4  10  22  40  67 102 135 177 233 285 352 414
#     4  11  25  43  64 101 145 182 227 292 363 421
#
# _framework density 23.305738000000002
#
# number of rings (size 3 to 8) (size 9 to 14) (size 15 to 20)
#    0.000    1.000    6.250    0.000    8.750    0.000 
#    0.000    2.500    0.000    0.000    0.000    0.000 
#    0.000    0.000    0.000    0.000    0.000    0.000 
#
# Total GULP energy -89204.987427 kJ/mol
# GULP energy per Si atom -5575.311714 kJ/mol
# Density = 2.325269 g / cm^3
# Si number density = 23.305738 Si / 1000 Ang^3
#
#
#
# Elastic Constant Matrix: (Units=GPa)
#
#
# Indices 1 2 3 4 5 6 
#
# 1 50.6558 12.3787 -8.5076 -0.0007 -4.7381 0.0012
# 2 12.3787 77.4701 49.0007 -0.0047 1.5081 0.0013
# 3 -8.5076 49.0007 110.0421 -0.0055 -6.5801 0.0018
# 4 -0.0007 -0.0047 -0.0055 31.9854 0.0021 -0.8944
# 5 -4.7381 1.5081 -6.5801 0.0021 17.7670 -0.0013
# 6 0.0012 0.0013 0.0018 -0.8944 -0.0013 31.5078
#
#
#
# Elastic Compliance Matrix: (Units=1/GPa)
#
#
# Indices 1 2 3 4 5 6 
#
# 1 0.023369 -0.007505 0.005685 0.000000 0.008975 0.000000
# 2 -0.007505 0.020753 -0.010274 0.000002 -0.007568 0.000000
# 3 0.005685 -0.010274 0.014567 0.000001 0.007783 0.000000
# 4 0.000000 0.000002 0.000001 0.031289 -0.000004 0.000888
# 5 0.008975 -0.007568 0.007783 -0.000004 0.062202 0.000002
# 6 0.000000 0.000000 0.000000 0.000888 0.000002 0.031763
#
#
# Mechanical properties :
#
#
# Convention : Reuss Voigt Hill
#
# Bulk Modulus (GPa) = 28.98329 38.21242 33.59785
# Shear Modulus (GPa) = 22.76533 28.60512 25.68522
#
# Velocity S-wave (km/s) = 3.12879 3.50721 3.32339
# Velocity P-wave (km/s) = 5.05129 5.72996 5.40129
#
# Compressibility (1/GPa) = 0.03450264
#
# Stress axis : x y z
#
# Youngs Moduli (GPa) = 42.79119 48.18572 68.64729
#
# Poissons Ratio (x) = 0.36162 -0.39027
# Poissons Ratio (y) = 0.32114 0.70527
# Poissons Ratio (z) = -0.24328 0.49505
#
# Static dielectric constant tensor:
#      x y z
#    x 1.927380 0.000000 -0.069040 
#    y 0.000000 1.946090 0.000000 
#    z -0.069040 0.000000 1.990810 
# 
# From -- ./inp_files/27453.got.cif
#   From: 2010.05.17/outbox.cif.g08.bks.cpg/sg9_14_cif.got.tgz:27453.got - 2010.06.03 20:04:27.
