data_PCOD9137023
_publ_section_title
;
Structure prediction by ZEFSAII (Michael W. Deem and Ramdas Pophale) SiO2 
 PCOD9137023
Probable space group: C C
;
_chemical_formula_sum "Si O2"
_cell_formula_units_Z 24
_cell_length_a 25.031911
_cell_length_b 7.021504
_cell_length_c 14.206588
_cell_angle_alpha 90.000000
_cell_angle_beta 155.384060
_cell_angle_gamma 90.000000
_cell_volume 1040.073702
_symmetry_space_group_name_H-M "C C"
_symmetry_group_IT_number 9
_symmetry_cell_setting 'monoclinic'
loop_
_space_group_symop_operation_xyz
x,y,z
x,-y,1/2+z
1/2+x,1/2+y,z
1/2+x,1/2-y,1/2+z
loop_
_atom_site_type_symbol
_atom_site_label
_atom_site_fract_x
_atom_site_fract_y
_atom_site_fract_z
Si Si1 0.110290 0.095342 0.057140
Si Si2 0.836292 0.545130 0.287791
Si Si3 0.714538 0.440699 0.408783
Si Si4 0.845381 0.095344 0.535800
Si Si5 0.741137 0.940693 0.184163
Si Si6 0.119381 0.454861 0.805153
O O1 0.226992 0.993908 0.188175
O O2 0.137787 0.315994 0.077293
O O3 0.129787 0.052522 0.198031
O O4 0.977834 0.037806 0.796469
O O5 0.827043 0.777633 0.270595
O O6 0.977835 0.499994 0.546472
O O7 0.792979 0.461979 0.118112
O O8 0.817887 0.315998 0.515650
O O9 0.628632 0.277640 0.322353
O O10 0.728676 0.993916 0.404760
O O11 0.825887 0.052520 0.394913
O O12 0.662697 0.038015 0.974836
#
# Coordination Sequence:
#
# PCOD9137023 Si02
#       6
#     4   4   4   4   4   4
#     4  10  22  37  61  85 116 150 194 237 283 342
#     4   9  21  39  61  82 119 154 189 235 289 341
#     4   9  22  39  59  87 115 154 193 231 293 334
#     4  10  22  37  61  85 116 150 194 237 283 342
#     4   9  22  39  59  87 115 154 193 231 293 334
#     4   9  21  39  61  82 119 154 189 235 289 341
#
# _framework density 23.075288
#
# number of rings (size 3 to 8) (size 9 to 14) (size 15 to 20)
#    2.000    0.667    0.000    0.000    4.667    4.000 
#    0.000    3.333    0.000    0.000    0.000    0.000 
#    0.000    0.000    0.000    0.000    0.000    0.000 
#
# Total GULP energy -66875.569039 kJ/mol
# GULP energy per Si atom -5572.964087 kJ/mol
# Density = 2.302277 g / cm^3
# Si number density = 23.075288 Si / 1000 Ang^3
#
#
#
# Elastic Constant Matrix: (Units=GPa)
#
#
# Indices 1 2 3 4 5 6 
#
# 1 76.0211 11.6853 89.4907 0.0000 -20.2504 0.0000
# 2 11.6853 25.0301 27.1326 0.0000 -3.7768 0.0000
# 3 89.4907 27.1326 269.1894 0.0000 -12.1449 0.0000
# 4 0.0000 0.0000 0.0000 28.9127 0.0000 -5.6814
# 5 -20.2504 -3.7768 -12.1449 0.0000 56.7588 0.0000
# 6 0.0000 0.0000 0.0000 -5.6814 0.0000 30.7880
#
#
#
# Elastic Compliance Matrix: (Units=1/GPa)
#
#
# Indices 1 2 3 4 5 6 
#
# 1 0.024139 -0.002099 -0.007504 0.000000 0.006867 0.000000
# 2 -0.002099 0.045270 -0.003800 0.000000 0.001450 0.000000
# 3 -0.007504 -0.003800 0.006523 0.000000 -0.001534 0.000000
# 4 0.000000 0.000000 0.000000 0.035888 0.000000 0.006622
# 5 0.006867 0.001450 -0.001534 0.000000 0.019837 0.000000
# 6 0.000000 0.000000 0.000000 0.006622 0.000000 0.033702
#
#
# Mechanical properties :
#
#
# Convention : Reuss Voigt Hill
#
# Bulk Modulus (GPa) = 20.35541 69.65085 45.00313
# Shear Modulus (GPa) = 23.97626 39.42071 31.69849
#
# Velocity S-wave (km/s) = 3.22692 4.13771 3.71036
# Velocity P-wave (km/s) = 4.76702 7.28541 6.15636
#
# Compressibility (1/GPa) = 0.04912699
#
# Stress axis : x y z
#
# Youngs Moduli (GPa) = 41.42631 22.08991 153.30087
#
# Poissons Ratio (x) = 0.04638 1.15030
# Poissons Ratio (y) = 0.08697 0.58247
# Poissons Ratio (z) = 0.31084 0.08393
#
# Static dielectric constant tensor:
#      x y z
#    x 1.908000 0.000000 -0.011110 
#    y 0.000000 1.966120 0.000000 
#    z -0.011110 0.000000 1.835410 
# 
# From -- ./inp_files/28283.got.cif
#   From: 2010.05.17/outbox.cif.g08.bks.cpg/sg9_15_cif.got.tgz:28283.got - 2010.06.03 20:04:27.
