data_PCOD9137351
_publ_section_title
;
Structure prediction by ZEFSAII (Michael W. Deem and Ramdas Pophale) SiO2 
 PCOD9137351
Probable space group: C C
;
_chemical_formula_sum "Si O2"
_cell_formula_units_Z 32
_cell_length_a 23.123768
_cell_length_b 10.569715
_cell_length_c 9.372423
_cell_angle_alpha 90.000000
_cell_angle_beta 40.607007
_cell_angle_gamma 90.000000
_cell_volume 1490.960231
_symmetry_space_group_name_H-M "C C"
_symmetry_group_IT_number 9
_symmetry_cell_setting 'monoclinic'
loop_
_space_group_symop_operation_xyz
x,y,z
x,-y,1/2+z
1/2+x,1/2+y,z
1/2+x,1/2-y,1/2+z
loop_
_atom_site_type_symbol
_atom_site_label
_atom_site_fract_x
_atom_site_fract_y
_atom_site_fract_z
Si Si1 0.413340 0.888845 0.477140
Si Si2 0.871817 0.889172 0.750481
Si Si3 0.174461 0.559103 0.550661
Si Si4 0.470435 0.486802 0.811394
Si Si5 0.984770 0.776359 0.092445
Si Si6 0.832683 0.604767 0.824273
Si Si7 0.637837 0.348215 0.605415
Si Si8 0.563713 0.969570 0.537193
O O1 0.430931 0.771149 0.552808
O O2 0.343074 0.892827 0.477743
O O3 0.389328 0.999642 0.635174
O O4 0.503310 0.920513 0.218812
O O5 0.864127 0.743948 0.716958
O O6 0.910578 0.888025 0.836959
O O7 0.773379 0.946891 0.925412
O O8 0.936392 0.971446 0.529761
O O9 0.161974 0.703593 0.516161
O O10 0.152422 0.463949 0.465313
O O11 0.101255 0.524832 0.807295
O O12 0.452309 0.612843 0.753191
O O13 0.570261 0.430330 0.635044
O O14 0.003051 0.653827 0.153958
O O15 0.079748 0.822989 0.855424
O O16 0.730448 0.586753 0.969650
#
# Coordination Sequence:
#
# PCOD9137351 Si02
#       8
#     4   4   4   4   4   4   4   4
#     4  12  22  43  69  97 132 172 226 278 328 398
#     4  11  25  42  67  97 134 172 227 273 337 397
#     4  10  22  41  66  97 129 170 217 279 324 395
#     4  12  24  44  68  93 136 181 220 271 342 402
#     4  11  23  41  65  97 129 177 220 266 334 405
#     4  11  26  41  69  99 130 176 224 282 330 384
#     4  10  23  45  64  92 138 171 220 271 330 397
#     4  11  19  39  68  90 132 165 216 266 335 384
#
# _framework density 21.462679000000001
#
# number of rings (size 3 to 8) (size 9 to 14) (size 15 to 20)
#    0.000    1.000    5.000    2.250    1.750    0.000 
#    0.000    0.000    0.000    0.000    0.000    0.000 
#    0.000    0.000    0.000    0.000    0.000    0.000 
#
# Total GULP energy -89194.632586 kJ/mol
# GULP energy per Si atom -5574.664537 kJ/mol
# Density = 2.141383 g / cm^3
# Si number density = 21.462679 Si / 1000 Ang^3
#
#
#
# Elastic Constant Matrix: (Units=GPa)
#
#
# Indices 1 2 3 4 5 6 
#
# 1 171.2866 53.9996 35.8575 0.0000 -6.5536 0.0000
# 2 53.9996 51.7861 26.9016 0.0000 6.9680 0.0000
# 3 35.8575 26.9016 43.0863 0.0000 5.9911 0.0000
# 4 0.0000 0.0000 0.0000 29.0635 0.0000 5.7513
# 5 -6.5536 6.9680 5.9911 0.0000 38.8670 0.0000
# 6 0.0000 0.0000 0.0000 5.7513 0.0000 37.6108
#
#
#
# Elastic Compliance Matrix: (Units=1/GPa)
#
#
# Indices 1 2 3 4 5 6 
#
# 1 0.009315 -0.008745 -0.002789 0.000000 0.003568 0.000000
# 2 -0.008745 0.037015 -0.015027 0.000000 -0.005794 0.000000
# 3 -0.002789 -0.015027 0.035361 0.000000 -0.003227 0.000000
# 4 0.000000 0.000000 0.000000 0.035481 0.000000 -0.005426
# 5 0.003568 -0.005794 -0.003227 0.000000 0.027867 0.000000
# 6 0.000000 0.000000 0.000000 -0.005426 0.000000 0.027418
#
#
# Mechanical properties :
#
#
# Convention : Reuss Voigt Hill
#
# Bulk Modulus (GPa) = 35.00223 55.51962 45.26093
# Shear Modulus (GPa) = 21.26731 31.06826 26.16778
#
# Velocity S-wave (km/s) = 3.15127 3.80879 3.49553
# Velocity P-wave (km/s) = 5.43916 6.72805 6.11764
#
# Compressibility (1/GPa) = 0.02856960
#
# Stress axis : x y z
#
# Youngs Moduli (GPa) = 107.34850 27.01599 28.27964
#
# Poissons Ratio (x) = 0.23626 0.07886
# Poissons Ratio (y) = 0.93878 0.42497
# Poissons Ratio (z) = 0.29935 0.40598
#
# Static dielectric constant tensor:
#      x y z
#    x 1.831550 0.000000 -0.009300 
#    y 0.000000 1.855890 0.000000 
#    z -0.009300 0.000000 1.747920 
# 
# From -- ./inp_files/11636.got.cif
#   From: 2010.05.17/outbox.cif.g08.bks.cpg/sg9_6_cif.got.tgz:11636.got - 2010.06.03 20:04:27.
