data_PCOD9137404
_publ_section_title
;
Structure prediction by ZEFSAII (Michael W. Deem and Ramdas Pophale) SiO2 
 PCOD9137404
Probable space group: C C
;
_chemical_formula_sum "Si O2"
_cell_formula_units_Z 32
_cell_length_a 10.556499
_cell_length_b 13.690283
_cell_length_c 12.261626
_cell_angle_alpha 90.000000
_cell_angle_beta 53.929672
_cell_angle_gamma 90.000000
_cell_volume 1432.353598
_symmetry_space_group_name_H-M "C C"
_symmetry_group_IT_number 9
_symmetry_cell_setting 'monoclinic'
loop_
_space_group_symop_operation_xyz
x,y,z
x,-y,1/2+z
1/2+x,1/2+y,z
1/2+x,1/2-y,1/2+z
loop_
_atom_site_type_symbol
_atom_site_label
_atom_site_fract_x
_atom_site_fract_y
_atom_site_fract_z
Si Si1 0.393360 0.332782 0.968610
Si Si2 0.308954 0.672131 0.925019
Si Si3 0.709668 0.154673 0.337257
Si Si4 0.851330 0.364751 0.017626
Si Si5 0.259489 0.790446 0.733713
Si Si6 0.711791 0.011408 0.127295
Si Si7 0.164292 0.869742 0.304006
Si Si8 0.367616 0.015516 0.291805
O O1 0.313298 0.352347 0.892058
O O2 0.574439 0.309208 0.850595
O O3 0.314024 0.250551 0.087958
O O4 0.351745 0.433867 0.051734
O O5 0.266146 0.766897 0.018706
O O6 0.303460 0.708306 0.803498
O O7 0.484531 0.644049 0.871107
O O8 0.213423 0.581744 0.020002
O O9 0.527631 0.155840 0.466154
O O10 0.727556 0.076575 0.229816
O O11 0.739013 0.262850 0.275909
O O12 0.869318 0.429939 0.904370
O O13 0.749143 0.417596 0.158256
O O14 0.343578 0.893430 0.720501
O O15 0.538473 0.964183 0.203862
O O16 0.224193 0.939898 0.367172
#
# Coordination Sequence:
#
# PCOD9137404 Si02
#       8
#     4   4   4   4   4   4   4   4
#     4  12  28  44  74 104 153 192 242 307 373 435
#     4  10  22  41  71  95 134 185 240 287 351 439
#     4  10  24  42  69 105 141 183 240 297 368 429
#     4   9  20  39  66  97 133 179 231 292 347 428
#     4  11  27  47  68 108 148 195 239 307 369 437
#     4  11  23  46  72 103 138 191 241 301 360 445
#     4  11  21  40  71 100 133 180 233 300 350 433
#     4  10  23  41  69 100 138 179 242 287 366 428
#
# _framework density 22.340851000000001
#
# number of rings (size 3 to 8) (size 9 to 14) (size 15 to 20)
#    0.000    1.500    1.250    3.000    8.750    1.000 
#    2.250    0.000    0.000    0.000    0.000    0.000 
#    0.000    0.000    0.000    0.000    0.000    0.000 
#
# Total GULP energy -89268.062770 kJ/mol
# GULP energy per Si atom -5579.253923 kJ/mol
# Density = 2.229000 g / cm^3
# Si number density = 22.340851 Si / 1000 Ang^3
#
#
#
# Elastic Constant Matrix: (Units=GPa)
#
#
# Indices 1 2 3 4 5 6 
#
# 1 108.0864 38.3995 24.4176 0.0000 -0.9331 0.0000
# 2 38.3995 45.2611 23.0055 0.0000 -4.0496 0.0000
# 3 24.4176 23.0055 63.2053 0.0000 -3.9730 0.0000
# 4 0.0000 0.0000 0.0000 24.8993 0.0000 -2.6574
# 5 -0.9331 -4.0496 -3.9730 0.0000 31.6757 0.0000
# 6 0.0000 0.0000 0.0000 -2.6574 0.0000 53.4158
#
#
#
# Elastic Compliance Matrix: (Units=1/GPa)
#
#
# Indices 1 2 3 4 5 6 
#
# 1 0.013367 -0.010775 -0.001314 0.000000 -0.001149 0.000000
# 2 -0.010775 0.035955 -0.008724 0.000000 0.003185 0.000000
# 3 -0.001314 -0.008724 0.019586 0.000000 0.001303 0.000000
# 4 0.000000 0.000000 0.000000 0.040376 0.000000 0.002009
# 5 -0.001149 0.003185 0.001303 0.000000 0.032107 0.000000
# 6 0.000000 0.000000 0.000000 0.002009 0.000000 0.018821
#
#
# Mechanical properties :
#
#
# Convention : Reuss Voigt Hill
#
# Bulk Modulus (GPa) = 36.65489 43.13311 39.89400
# Shear Modulus (GPa) = 23.70421 30.71350 27.20886
#
# Velocity S-wave (km/s) = 3.26087 3.71181 3.49362
# Velocity P-wave (km/s) = 5.53357 6.14156 5.84548
#
# Compressibility (1/GPa) = 0.02728149
#
# Stress axis : x y z
#
# Youngs Moduli (GPa) = 74.81146 27.81249 51.05590
#
# Poissons Ratio (x) = 0.29969 0.06709
# Poissons Ratio (y) = 0.80612 0.44541
# Poissons Ratio (z) = 0.09831 0.24264
#
# Static dielectric constant tensor:
#      x y z
#    x 1.851850 0.000000 0.002290 
#    y 0.000000 1.828790 0.000000 
#    z 0.002290 0.000000 1.873080 
# 
# From -- ./inp_files/14702.got.cif
#   From: 2010.05.17/outbox.cif.g08.bks.cpg/sg9_8_cif.got.tgz:14702.got - 2010.06.03 20:04:27.
