data_PCOD9137445
_publ_section_title
;
Structure prediction by ZEFSAII (Michael W. Deem and Ramdas Pophale) SiO2 
 PCOD9137445
Probable space group: C C
;
_chemical_formula_sum "Si O2"
_cell_formula_units_Z 28
_cell_length_a 6.923267
_cell_length_b 17.405530
_cell_length_c 14.087450
_cell_angle_alpha 90.000000
_cell_angle_beta 42.127988
_cell_angle_gamma 90.000000
_cell_volume 1138.719193
_symmetry_space_group_name_H-M "C C"
_symmetry_group_IT_number 9
_symmetry_cell_setting 'monoclinic'
loop_
_space_group_symop_operation_xyz
x,y,z
x,-y,1/2+z
1/2+x,1/2+y,z
1/2+x,1/2-y,1/2+z
loop_
_atom_site_type_symbol
_atom_site_label
_atom_site_fract_x
_atom_site_fract_y
_atom_site_fract_z
Si Si1 0.898700 0.733359 0.842010
Si Si2 0.278345 0.509423 0.600469
Si Si3 0.231774 0.673936 0.102497
Si Si4 0.611788 0.153523 0.948216
Si Si5 0.231971 0.814007 0.213475
Si Si6 0.429598 0.012836 0.906899
Si Si7 0.195081 0.603022 0.436929
O O1 0.959591 0.701085 0.714868
O O2 0.901320 0.825385 0.843687
O O3 0.066670 0.703443 0.871194
O O4 0.567993 0.700607 0.974288
O O5 0.213874 0.417709 0.618460
O O6 0.056200 0.541649 0.760235
O O7 0.254745 0.551182 0.507626
O O8 0.608512 0.517147 0.511995
O O9 0.123363 0.728274 0.226515
O O10 0.060361 0.693165 0.067890
O O11 0.951898 0.135146 0.835548
O O12 0.435735 0.077640 0.986282
O O13 0.391866 0.855634 0.070123
O O14 0.652607 0.949127 0.861348
#
# Coordination Sequence:
#
# PCOD9137445 Si02
#       7
#     4   4   4   4   4   4   4
#     4  10  22  42  67  95 139 182 236 293 356 416
#     4  12  26  44  72 102 145 189 238 293 362 422
#     4  10  22  42  64  98 135 181 234 291 349 418
#     4  11  22  42  68  95 136 185 231 292 359 412
#     4  10  23  42  69  99 139 185 239 296 350 430
#     4  12  26  45  70 103 144 191 237 293 361 426
#     4  11  25  43  68 106 140 181 243 298 351 432
#
# _framework density 24.589029
#
# number of rings (size 3 to 8) (size 9 to 14) (size 15 to 20)
#    0.000    1.143    2.857    2.571    2.000    9.143 
#    2.571    0.000    0.000    0.000    0.000    0.000 
#    0.000    0.000    0.000    0.000    0.000    0.000 
#
# Total GULP energy -78252.796170 kJ/mol
# GULP energy per Si atom -5589.485441 kJ/mol
# Density = 2.453306 g / cm^3
# Si number density = 24.589029 Si / 1000 Ang^3
#
#
#
# Elastic Constant Matrix: (Units=GPa)
#
#
# Indices 1 2 3 4 5 6 
#
# 1 112.5974 22.3991 14.9823 -0.0003 27.8475 0.0002
# 2 22.3991 107.2426 -13.9923 -0.0001 25.4696 0.0001
# 3 14.9823 -13.9923 52.0811 -0.0002 11.2901 0.0002
# 4 -0.0003 -0.0001 -0.0002 31.4054 0.0001 9.5877
# 5 27.8475 25.4696 11.2901 0.0001 48.1463 -0.0001
# 6 0.0002 0.0001 0.0002 9.5877 -0.0001 23.4235
#
#
#
# Elastic Compliance Matrix: (Units=1/GPa)
#
#
# Indices 1 2 3 4 5 6 
#
# 1 0.010682 -0.001381 -0.002384 0.000000 -0.004889 0.000000
# 2 -0.001381 0.011846 0.005021 0.000000 -0.006645 0.000000
# 3 -0.002384 0.005021 0.022664 0.000000 -0.006592 0.000000
# 4 0.000000 0.000000 0.000000 0.036389 0.000000 -0.014895
# 5 -0.004889 -0.006645 -0.006592 0.000000 0.028659 0.000000
# 6 0.000000 0.000000 0.000000 -0.014895 0.000000 0.048789
#
#
# Mechanical properties :
#
#
# Convention : Reuss Voigt Hill
#
# Bulk Modulus (GPa) = 20.96286 35.41104 28.18695
# Shear Modulus (GPa) = 28.99885 37.16383 33.08134
#
# Velocity S-wave (km/s) = 3.43788 3.89189 3.67191
# Velocity P-wave (km/s) = 4.92975 5.88457 5.42820
#
# Compressibility (1/GPa) = 0.04770341
#
# Stress axis : x y z
#
# Youngs Moduli (GPa) = 93.61273 84.41397 44.12192
#
# Poissons Ratio (x) = 0.11659 0.10520
# Poissons Ratio (y) = 0.12929 -0.22152
# Poissons Ratio (z) = 0.22320 -0.42380
#
# Static dielectric constant tensor:
#      x y z
#    x 1.931620 0.000000 0.024050 
#    y 0.000000 1.992150 0.000000 
#    z 0.024050 0.000000 2.015610 
# 
# From -- ./inp_files/13067.got.cif
#   From: 2010.05.17/outbox.cif.g08.bks.cpg/sg9_7_cif.got.tgz:13067.got - 2010.06.03 20:04:27.
