data_PCOD9137136
_publ_section_title
;
Structure prediction by ZEFSAII (Michael W. Deem and Ramdas Pophale) SiO2 
 PCOD9137136
Probable space group: C C
;
_chemical_formula_sum "Si O2"
_cell_formula_units_Z 32
_cell_length_a 19.614885
_cell_length_b 12.519909
_cell_length_c 12.571485
_cell_angle_alpha 90.000000
_cell_angle_beta 156.518840
_cell_angle_gamma 90.000000
_cell_volume 1230.111917
_symmetry_space_group_name_H-M "C C"
_symmetry_group_IT_number 9
_symmetry_cell_setting 'monoclinic'
loop_
_space_group_symop_operation_xyz
x,y,z
x,-y,1/2+z
1/2+x,1/2+y,z
1/2+x,1/2-y,1/2+z
loop_
_atom_site_type_symbol
_atom_site_label
_atom_site_fract_x
_atom_site_fract_y
_atom_site_fract_z
Si Si1 0.157010 0.252641 0.050620
Si Si2 0.387710 0.315981 0.581797
Si Si3 0.105400 0.624229 0.850432
Si Si4 0.132564 0.106608 0.697242
Si Si5 0.861205 0.470433 0.375708
Si Si6 0.168316 0.329726 0.839932
Si Si7 0.962421 0.945509 0.158612
Si Si8 0.458839 0.963335 0.785877
O O1 0.275584 0.266140 0.323681
O O2 0.235483 0.298193 0.052730
O O3 0.083480 0.137814 0.901761
O O4 0.013538 0.340788 0.874632
O O5 0.268265 0.341274 0.513377
O O6 0.530280 0.226406 0.803509
O O7 0.471193 0.426954 0.664562
O O8 0.960178 0.574436 0.563305
O O9 0.108859 0.528669 0.941676
O O10 0.165811 0.057533 0.629151
O O11 0.172011 0.230848 0.765437
O O12 0.284984 0.039223 0.970344
O O13 0.978142 0.091419 0.557996
O O14 0.899019 0.480366 0.306530
O O15 0.975605 0.370188 0.578144
O O16 0.278750 0.422900 0.947372
#
# Coordination Sequence:
#
# PCOD9137136 Si02
#       8
#     4   4   4   4   4   4   4   4
#     4  11  22  41  80 104 134 188 245 299 372 430
#     4  12  27  46  69 106 146 192 239 303 367 446
#     4  11  26  45  70  97 149 188 236 306 371 440
#     4  10  22  39  67 102 139 178 234 302 358 439
#     4  11  22  43  71  97 141 187 237 296 377 442
#     4  11  19  42  68 103 136 177 243 304 359 439
#     4  11  23  41  68 105 147 176 244 309 352 440
#     4  11  21  45  71 100 134 192 238 293 378 438
#
# _framework density 26.013892999999999
#
# number of rings (size 3 to 8) (size 9 to 14) (size 15 to 20)
#    0.000    1.000    6.250    0.750    8.750    0.000 
#    4.500    0.000    2.750    0.000    0.000    0.000 
#    0.000    0.000    0.000    0.000    0.000    0.000 
#
# Total GULP energy -89370.460792 kJ/mol
# GULP energy per Si atom -5585.653799 kJ/mol
# Density = 2.595468 g / cm^3
# Si number density = 26.013893 Si / 1000 Ang^3
#
#
#
# Elastic Constant Matrix: (Units=GPa)
#
#
# Indices 1 2 3 4 5 6 
#
# 1 148.2188 52.6412 18.0544 0.0000 16.6058 0.0000
# 2 52.6412 161.3790 13.2951 0.0000 17.7703 0.0000
# 3 18.0544 13.2951 41.0829 0.0000 1.6184 0.0000
# 4 0.0000 0.0000 0.0000 32.9984 0.0000 11.1676
# 5 16.6058 17.7703 1.6184 0.0000 31.2953 0.0000
# 6 0.0000 0.0000 0.0000 11.1676 0.0000 49.4093
#
#
#
# Elastic Compliance Matrix: (Units=1/GPa)
#
#
# Indices 1 2 3 4 5 6 
#
# 1 0.008170 -0.002105 -0.002791 0.000000 -0.002995 0.000000
# 2 -0.002105 0.007320 -0.001327 0.000000 -0.002971 0.000000
# 3 -0.002791 -0.001327 0.025962 0.000000 0.000892 0.000000
# 4 0.000000 0.000000 0.000000 0.032815 0.000000 -0.007417
# 5 -0.002995 -0.002971 0.000892 0.000000 0.035184 0.000000
# 6 0.000000 0.000000 0.000000 -0.007417 0.000000 0.021915
#
#
# Mechanical properties :
#
#
# Convention : Reuss Voigt Hill
#
# Bulk Modulus (GPa) = 34.47606 57.62913 46.05259
# Shear Modulus (GPa) = 32.57755 40.51993 36.54874
#
# Velocity S-wave (km/s) = 3.54264 3.95096 3.75236
# Velocity P-wave (km/s) = 5.47864 6.55856 6.04277
#
# Compressibility (1/GPa) = 0.02900564
#
# Stress axis : x y z
#
# Youngs Moduli (GPa) = 122.39807 136.61719 38.51810
#
# Poissons Ratio (x) = 0.28761 0.10751
# Poissons Ratio (y) = 0.25768 0.05110
# Poissons Ratio (z) = 0.34163 0.18123
#
# Static dielectric constant tensor:
#      x y z
#    x 2.207320 0.000000 -0.086300 
#    y 0.000000 1.974620 0.000000 
#    z -0.086300 0.000000 2.126450 
# 
# From -- ./inp_files/27399.got.cif
#   From: 2010.05.17/outbox.cif.g08.bks.cpg/sg9_14_cif.got.tgz:27399.got - 2010.06.03 20:04:27.
