data_PCOD9137920
_publ_section_title
;
Structure prediction by ZEFSAII (Michael W. Deem and Ramdas Pophale) SiO2 
 PCOD9137920
Probable space group: C C
;
_chemical_formula_sum "Si O2"
_cell_formula_units_Z 32
_cell_length_a 17.039623
_cell_length_b 10.574044
_cell_length_c 11.408044
_cell_angle_alpha 90.000000
_cell_angle_beta 45.626951
_cell_angle_gamma 90.000000
_cell_volume 1469.257329
_symmetry_space_group_name_H-M "C C"
_symmetry_group_IT_number 9
_symmetry_cell_setting 'monoclinic'
loop_
_space_group_symop_operation_xyz
x,y,z
x,-y,1/2+z
1/2+x,1/2+y,z
1/2+x,1/2-y,1/2+z
loop_
_atom_site_type_symbol
_atom_site_label
_atom_site_fract_x
_atom_site_fract_y
_atom_site_fract_z
Si Si1 0.479310 0.780387 0.189720
Si Si2 0.323281 0.439615 0.782226
Si Si3 0.091378 0.095855 0.238598
Si Si4 0.447618 0.304453 0.098293
Si Si5 0.738144 0.956856 0.607236
Si Si6 0.459984 0.666614 0.830308
Si Si7 0.342034 0.895396 0.546788
Si Si8 0.009791 0.395175 0.930183
O O1 0.391011 0.689622 0.217042
O O2 0.569978 0.688190 0.151485
O O3 0.411759 0.846435 0.363486
O O4 0.530836 0.879240 0.046098
O O5 0.404594 0.559778 0.687955
O O6 0.262699 0.464877 0.721836
O O7 0.266021 0.447175 0.970933
O O8 0.218143 0.078697 0.136967
O O9 0.036881 0.166043 0.406884
O O10 0.022039 0.967705 0.285292
O O11 0.490493 0.258142 0.178897
O O12 0.358788 0.212947 0.129703
O O13 0.608141 0.949642 0.749992
O O14 0.827209 0.848430 0.479844
O O15 0.498018 0.754734 0.894697
O O16 0.401680 0.021313 0.528725
#
# Coordination Sequence:
#
# PCOD9137920 Si02
#       8
#     4   4   4   4   4   4   4   4
#     4  11  24  47  71 104 143 192 244 296 373 449
#     4  11  21  46  76 104 137 194 253 297 360 458
#     4  11  23  47  75 103 136 193 245 300 365 452
#     4  10  22  45  71 101 139 182 242 295 362 442
#     4  11  24  41  74 102 141 186 248 299 367 436
#     4  11  24  45  72 103 137 191 246 294 370 449
#     4  11  29  43  71 108 149 185 242 306 379 431
#     4  12  29  44  68 107 150 183 238 309 376 435
#
# _framework density 21.779713000000001
#
# number of rings (size 3 to 8) (size 9 to 14) (size 15 to 20)
#    0.000    1.000    5.000    0.750    7.000    6.000 
#    0.000    0.000    0.000    0.000    0.000    0.000 
#    0.000    0.000    0.000    0.000    0.000    0.000 
#
# Total GULP energy -89139.793750 kJ/mol
# GULP energy per Si atom -5571.237109 kJ/mol
# Density = 2.173014 g / cm^3
# Si number density = 21.779713 Si / 1000 Ang^3
#
#
#
# Elastic Constant Matrix: (Units=GPa)
#
#
# Indices 1 2 3 4 5 6 
#
# 1 112.4716 27.1557 57.1501 0.0000 11.3791 0.0000
# 2 27.1557 49.7195 24.9944 0.0000 -1.5989 0.0000
# 3 57.1501 24.9944 111.1571 0.0000 12.3214 0.0000
# 4 0.0000 0.0000 0.0000 -37.1338 0.0000 104.1339
# 5 11.3791 -1.5989 12.3214 0.0000 45.2170 0.0000
# 6 0.0000 0.0000 0.0000 104.1339 0.0000 -123.1404
#
#
#
# Elastic Compliance Matrix: (Units=1/GPa)
#
#
# Indices 1 2 3 4 5 6 
#
# 1 0.012905 -0.004377 -0.005438 0.000000 -0.001921 0.000000
# 2 -0.004377 0.024386 -0.003558 0.000000 0.002933 0.000000
# 3 -0.005438 -0.003558 0.012843 0.000000 -0.002257 0.000000
# 4 0.000000 0.000000 0.000000 0.019636 0.000000 0.016605
# 5 -0.001921 0.002933 -0.002257 0.000000 0.023318 0.000000
# 6 0.000000 0.000000 0.000000 0.016605 0.000000 0.005921
#
#
# Mechanical properties :
#
#
# Convention : Reuss Voigt Hill
#
# Bulk Modulus (GPa) = 42.75699 54.66096 48.70898
# Shear Modulus (GPa) = 37.43869 -12.07491 12.68189
#
# Velocity S-wave (km/s) = 4.15054 -2.35715 2.41567
# Velocity P-wave (km/s) = 6.53020 4.21230 5.49486
#
# Compressibility (1/GPa) = 0.02338799
#
# Stress axis : x y z
#
# Youngs Moduli (GPa) = 77.48656 41.00641 77.86613
#
# Poissons Ratio (x) = 0.17947 0.42345
# Poissons Ratio (y) = 0.33913 0.27708
# Poissons Ratio (z) = 0.42139 0.14592
#
# Static dielectric constant tensor:
#      x y z
#    x 1.953640 0.000000 0.059770 
#    y 0.000000 1.826700 0.000000 
#    z 0.059770 0.000000 1.796180 
# 
# From -- ./inp_files/18297.got.cif
#   From: 2010.05.17/outbox.cif.g08.bks.cpg/sg9_10_cif.got.tgz:18297.got - 2010.06.03 20:04:27.
