data_PCOD9137224
_publ_section_title
;
Structure prediction by ZEFSAII (Michael W. Deem and Ramdas Pophale) SiO2 
 PCOD9137224
Probable space group: C C
;
_chemical_formula_sum "Si O2"
_cell_formula_units_Z 32
_cell_length_a 13.787170
_cell_length_b 5.012065
_cell_length_c 20.171697
_cell_angle_alpha 90.000000
_cell_angle_beta 104.602251
_cell_angle_gamma 90.000000
_cell_volume 1348.884217
_symmetry_space_group_name_H-M "C C"
_symmetry_group_IT_number 9
_symmetry_cell_setting 'monoclinic'
loop_
_space_group_symop_operation_xyz
x,y,z
x,-y,1/2+z
1/2+x,1/2+y,z
1/2+x,1/2-y,1/2+z
loop_
_atom_site_type_symbol
_atom_site_label
_atom_site_fract_x
_atom_site_fract_y
_atom_site_fract_z
Si Si1 0.932910 0.671069 0.254940
Si Si2 0.544357 0.672087 0.312483
Si Si3 0.707525 0.448556 0.419164
Si Si4 0.041124 0.415308 0.577260
Si Si5 0.722915 0.051797 0.013398
Si Si6 0.239847 0.874665 0.787673
Si Si7 0.647144 0.585848 0.138536
Si Si8 0.843689 0.562489 0.604286
O O1 0.835684 0.776331 0.277578
O O2 0.903011 0.525557 0.181236
O O3 0.000669 0.933222 0.259756
O O4 0.974872 0.426814 0.306505
O O5 0.589646 0.510199 0.382714
O O6 0.645488 0.794018 0.297202
O O7 0.739317 0.702009 0.466664
O O8 0.757434 0.443071 0.354924
O O9 0.731407 0.197217 0.467085
O O10 0.109688 0.446890 0.523435
O O11 0.060536 0.114071 0.602343
O O12 0.924407 0.484920 0.561833
O O13 0.099598 0.623195 0.635439
O O14 0.804407 0.133730 0.084680
O O15 0.198786 0.015320 0.714431
O O16 0.735477 0.580365 0.098475
#
# Coordination Sequence:
#
# PCOD9137224 Si02
#       8
#     4   4   4   4   4   4   4   4
#     4  11  22  41  67 101 121 157 213 267 330 371
#     4  10  23  40  64  93 130 159 210 260 314 375
#     4  10  24  44  65  84 136 173 206 262 304 378
#     4  11  23  40  67  91 126 170 208 261 323 359
#     4  11  23  45  59  94 130 172 218 248 306 387
#     4   9  23  40  66  95 127 166 203 265 327 363
#     4  10  22  40  65  98 128 154 209 270 321 380
#     4  10  24  40  69  94 128 163 209 269 317 375
#
# _framework density 23.723309
#
# number of rings (size 3 to 8) (size 9 to 14) (size 15 to 20)
#    0.750    1.000    0.000    3.750    0.000   13.000 
#    6.750    0.000    0.000    0.000    0.000    0.000 
#    0.000    0.000    0.000    0.000    0.000    0.000 
#
# Total GULP energy -89131.084927 kJ/mol
# GULP energy per Si atom -5570.692808 kJ/mol
# Density = 2.366931 g / cm^3
# Si number density = 23.723309 Si / 1000 Ang^3
#
#
#
# Elastic Constant Matrix: (Units=GPa)
#
#
# Indices 1 2 3 4 5 6 
#
# 1 141.5123 19.8378 18.7273 0.0000 -7.5496 0.0000
# 2 19.8378 100.9271 15.9793 0.0000 8.5587 0.0000
# 3 18.7273 15.9793 84.5540 0.0000 -11.4367 0.0000
# 4 0.0000 0.0000 0.0000 16.4945 0.0000 3.1604
# 5 -7.5496 8.5587 -11.4367 0.0000 26.3655 0.0000
# 6 0.0000 0.0000 0.0000 3.1604 0.0000 21.7404
#
#
#
# Elastic Compliance Matrix: (Units=1/GPa)
#
#
# Indices 1 2 3 4 5 6 
#
# 1 0.007536 -0.001492 -0.001094 0.000000 0.002168 0.000000
# 2 -0.001492 0.011016 -0.002436 0.000000 -0.005060 0.000000
# 3 -0.001094 -0.002436 0.013379 0.000000 0.006281 0.000000
# 4 0.000000 0.000000 0.000000 0.062363 0.000000 -0.009066
# 5 0.002168 -0.005060 0.006281 0.000000 0.042916 0.000000
# 6 0.000000 0.000000 0.000000 -0.009066 0.000000 0.047315
#
#
# Mechanical properties :
#
#
# Convention : Reuss Voigt Hill
#
# Bulk Modulus (GPa) = 45.68760 48.45357 47.07059
# Shear Modulus (GPa) = 24.76903 31.08334 27.92618
#
# Velocity S-wave (km/s) = 3.23473 3.62366 3.43470
# Velocity P-wave (km/s) = 5.76642 6.16252 5.96776
#
# Compressibility (1/GPa) = 0.02188778
#
# Stress axis : x y z
#
# Youngs Moduli (GPa) = 132.69496 90.77613 74.74432
#
# Poissons Ratio (x) = 0.13543 0.08177
# Poissons Ratio (y) = 0.19796 0.18206
# Poissons Ratio (z) = 0.14517 0.22111
#
# Static dielectric constant tensor:
#      x y z
#    x 1.911400 0.000000 0.015330 
#    y 0.000000 1.900650 0.000000 
#    z 0.015330 0.000000 1.989470 
# 
# From -- ./inp_files/35470.got.cif
#   From: 2010.05.17/outbox.cif.g08.bks.cpg/sg9_18_cif.got.tgz:35470.got - 2010.06.03 20:04:27.
