data_PCOD9137338
_publ_section_title
;
Structure prediction by ZEFSAII (Michael W. Deem and Ramdas Pophale) SiO2 
 PCOD9137338
Probable space group: C C
;
_chemical_formula_sum "Si O2"
_cell_formula_units_Z 32
_cell_length_a 5.362076
_cell_length_b 17.893797
_cell_length_c 14.647214
_cell_angle_alpha 90.000000
_cell_angle_beta 102.661590
_cell_angle_gamma 90.000000
_cell_volume 1371.193229
_symmetry_space_group_name_H-M "C C"
_symmetry_group_IT_number 9
_symmetry_cell_setting 'monoclinic'
loop_
_space_group_symop_operation_xyz
x,y,z
x,-y,1/2+z
1/2+x,1/2+y,z
1/2+x,1/2-y,1/2+z
loop_
_atom_site_type_symbol
_atom_site_label
_atom_site_fract_x
_atom_site_fract_y
_atom_site_fract_z
Si Si1 0.426410 0.182224 0.689370
Si Si2 0.713063 0.407566 0.869692
Si Si3 0.182413 0.029165 0.014929
Si Si4 0.397382 0.990255 0.218426
Si Si5 0.732780 0.118091 0.211376
Si Si6 0.754671 0.757966 0.362619
Si Si7 0.703023 0.880495 0.508249
Si Si8 0.925641 0.763511 0.189361
O O1 0.443921 0.097579 0.725315
O O2 0.494925 0.236135 0.780653
O O3 0.646583 0.208002 0.637957
O O4 0.137032 0.199585 0.643157
O O5 0.710355 0.452617 0.962413
O O6 0.828856 0.465871 0.805176
O O7 0.435388 0.385414 0.808190
O O8 0.839779 0.326238 0.889100
O O9 0.420899 0.083597 0.004084
O O10 0.904201 0.064325 0.975401
O O11 0.196825 0.008910 0.122872
O O12 0.644423 0.032405 0.200159
O O13 0.491270 0.175324 0.201424
O O14 0.825587 0.137606 0.117203
O O15 0.705883 0.807464 0.446253
O O16 0.938673 0.791030 0.296915
#
# Coordination Sequence:
#
# PCOD9137338 Si02
#       8
#     4   4   4   4   4   4   4   4
#     4  10  23  38  69  98 134 180 228 285 340 420
#     4  12  24  44  73 101 141 189 237 296 354 428
#     4  11  28  45  69 107 140 186 237 293 354 424
#     4  11  24  45  68 106 141 188 232 299 356 428
#     4  11  23  45  72  98 145 190 231 291 364 420
#     4  10  24  42  66 103 131 187 227 291 342 421
#     4  11  26  46  69 102 143 184 234 289 360 423
#     4  10  22  41  66 101 131 180 236 268 352 412
#
# _framework density 23.337337000000002
#
# number of rings (size 3 to 8) (size 9 to 14) (size 15 to 20)
#    0.750    0.500    3.750    0.750    8.750    1.000 
#    0.000    0.000    0.000    0.000    0.000    0.000 
#    0.000    0.000    0.000    0.000    0.000    0.000 
#
# Total GULP energy -89175.663526 kJ/mol
# GULP energy per Si atom -5573.478970 kJ/mol
# Density = 2.328422 g / cm^3
# Si number density = 23.337337 Si / 1000 Ang^3
#
#
#
# Elastic Constant Matrix: (Units=GPa)
#
#
# Indices 1 2 3 4 5 6 
#
# 1 112.9528 19.9662 -11.3024 0.0000 -17.8214 0.0000
# 2 19.9662 110.5274 -14.5837 0.0000 -11.3412 0.0000
# 3 -11.3024 -14.5837 46.4254 0.0000 -5.6180 0.0000
# 4 0.0000 0.0000 0.0000 31.9285 0.0000 -4.1076
# 5 -17.8214 -11.3412 -5.6180 0.0000 22.1968 0.0000
# 6 0.0000 0.0000 0.0000 -4.1076 0.0000 18.3502
#
#
#
# Elastic Compliance Matrix: (Units=1/GPa)
#
#
# Indices 1 2 3 4 5 6 
#
# 1 0.010769 -0.000520 0.003582 0.000000 0.009287 0.000000
# 2 -0.000520 0.010233 0.003786 0.000000 0.005769 0.000000
# 3 0.003582 0.003786 0.024948 0.000000 0.011125 0.000000
# 4 0.000000 0.000000 0.000000 0.032249 0.000000 0.007219
# 5 0.009287 0.005769 0.011125 0.000000 0.058272 0.000000
# 6 0.000000 0.000000 0.000000 0.007219 0.000000 0.056111
#
#
# Mechanical properties :
#
#
# Convention : Reuss Voigt Hill
#
# Bulk Modulus (GPa) = 16.76527 28.67397 22.71962
# Shear Modulus (GPa) = 25.15523 32.88348 29.01935
#
# Velocity S-wave (km/s) = 3.28669 3.75780 3.53012
# Velocity P-wave (km/s) = 4.64786 5.58046 5.13538
#
# Compressibility (1/GPa) = 0.05964712
#
# Stress axis : x y z
#
# Youngs Moduli (GPa) = 92.85982 97.72323 40.08396
#
# Poissons Ratio (x) = 0.05079 -0.14359
# Poissons Ratio (y) = 0.04826 -0.15176
# Poissons Ratio (z) = -0.33266 -0.37000
#
# Static dielectric constant tensor:
#      x y z
#    x 2.020590 0.000000 0.010310 
#    y 0.000000 1.884160 0.000000 
#    z 0.010310 0.000000 1.881930 
# 
# From -- ./inp_files/21958.got.cif
#   From: 2010.05.17/outbox.cif.g08.bks.cpg/sg9_11_cif.got.tgz:21958.got - 2010.06.03 20:04:27.
