data_PCOD9137928
_publ_section_title
;
Structure prediction by ZEFSAII (Michael W. Deem and Ramdas Pophale) SiO2 
 PCOD9137928
Probable space group: C C
;
_chemical_formula_sum "Si O2"
_cell_formula_units_Z 28
_cell_length_a 5.088728
_cell_length_b 17.031925
_cell_length_c 13.911722
_cell_angle_alpha 90.000000
_cell_angle_beta 64.703385
_cell_angle_gamma 90.000000
_cell_volume 1090.119425
_symmetry_space_group_name_H-M "C C"
_symmetry_group_IT_number 9
_symmetry_cell_setting 'monoclinic'
loop_
_space_group_symop_operation_xyz
x,y,z
x,-y,1/2+z
1/2+x,1/2+y,z
1/2+x,1/2-y,1/2+z
loop_
_atom_site_type_symbol
_atom_site_label
_atom_site_fract_x
_atom_site_fract_y
_atom_site_fract_z
Si Si1 0.038840 0.033680 0.345750
Si Si2 0.584932 0.137155 0.209839
Si Si3 0.258609 0.894139 0.405695
Si Si4 0.427227 0.266226 0.361237
Si Si5 0.714073 0.321219 0.586083
Si Si6 0.381114 0.339167 0.010975
Si Si7 0.336141 0.594603 0.724068
O O1 0.359129 0.069732 0.275770
O O2 0.845842 0.102491 0.425428
O O3 0.069235 0.970622 0.426085
O O4 0.932590 0.983427 0.269371
O O5 0.626688 0.197476 0.290424
O O6 0.396106 0.177668 0.155496
O O7 0.919681 0.126549 0.130699
O O8 0.411584 0.873983 0.481708
O O9 0.486658 0.903083 0.283949
O O10 0.075418 0.815713 0.420653
O O11 0.406505 0.329596 0.278771
O O12 0.145811 0.218642 0.439636
O O13 0.650206 0.228991 0.574518
O O14 0.435951 0.389541 0.099623
#
# Coordination Sequence:
#
# PCOD9137928 Si02
#       7
#     4   4   4   4   4   4   4
#     4  10  28  47  71 113 159 203 257 321 395 483
#     4  11  26  46  76 113 149 201 256 324 383 463
#     4  11  25  45  72 110 159 200 259 325 389 472
#     4  10  22  45  72 111 146 197 268 322 377 464
#     4  12  25  46  79 112 149 204 260 319 385 458
#     4  11  23  48  78 112 149 208 264 323 398 456
#     4  11  23  47  72 109 157 203 254 328 393 460
#
# _framework density 25.685257
#
# number of rings (size 3 to 8) (size 9 to 14) (size 15 to 20)
#    0.000    1.143    2.857    1.714    6.000    0.000 
#    5.143    0.000    0.000    0.000    0.000    0.000 
#    0.000    0.000    0.000    0.000    0.000    0.000 
#
# Total GULP energy -78131.489545 kJ/mol
# GULP energy per Si atom -5580.820682 kJ/mol
# Density = 2.562680 g / cm^3
# Si number density = 25.685257 Si / 1000 Ang^3
#
#
#
# Elastic Constant Matrix: (Units=GPa)
#
#
# Indices 1 2 3 4 5 6 
#
# 1 74.0025 44.4481 26.6173 0.0000 5.8470 0.0000
# 2 44.4481 164.6801 74.9609 0.0000 31.0523 0.0000
# 3 26.6173 74.9609 113.8545 0.0000 14.1662 0.0000
# 4 0.0000 0.0000 0.0000 52.2531 0.0000 9.2955
# 5 5.8470 31.0523 14.1662 0.0000 34.0551 0.0000
# 6 0.0000 0.0000 0.0000 9.2955 0.0000 37.9621
#
#
#
# Elastic Compliance Matrix: (Units=1/GPa)
#
#
# Indices 1 2 3 4 5 6 
#
# 1 0.016322 -0.004087 -0.001308 0.000000 0.001468 0.000000
# 2 -0.004087 0.010953 -0.005379 0.000000 -0.007048 0.000000
# 3 -0.001308 -0.005379 0.012647 0.000000 -0.000132 0.000000
# 4 0.000000 0.000000 0.000000 0.020009 0.000000 -0.004899
# 5 0.001468 -0.007048 -0.000132 0.000000 0.035593 0.000000
# 6 0.000000 0.000000 0.000000 -0.004899 0.000000 0.027542
#
#
# Mechanical properties :
#
#
# Convention : Reuss Voigt Hill
#
# Bulk Modulus (GPa) = 54.42321 71.62109 63.02215
# Shear Modulus (GPa) = 33.17014 38.62146 35.89580
#
# Velocity S-wave (km/s) = 3.59751 3.88189 3.74240
# Velocity P-wave (km/s) = 6.20408 6.93086 6.57752
#
# Compressibility (1/GPa) = 0.01837451
#
# Stress axis : x y z
#
# Youngs Moduli (GPa) = 61.26624 91.30020 79.07246
#
# Poissons Ratio (x) = 0.37315 0.10340
# Poissons Ratio (y) = 0.25040 0.42532
# Poissons Ratio (z) = 0.08011 0.49109
#
# Static dielectric constant tensor:
#      x y z
#    x 2.074560 0.000000 -0.047630 
#    y 0.000000 2.023700 0.000000 
#    z -0.047630 0.000000 2.202280 
# 
# From -- ./inp_files/22030.got.cif
#   From: 2010.05.17/outbox.cif.g08.bks.cpg/sg9_12_cif.got.tgz:22030.got - 2010.06.03 20:04:27.
