data_PCOD9137793
_publ_section_title
;
Structure prediction by ZEFSAII (Michael W. Deem and Ramdas Pophale) SiO2 
 PCOD9137793
Probable space group: C C
;
_chemical_formula_sum "Si O2"
_cell_formula_units_Z 32
_cell_length_a 5.111302
_cell_length_b 22.388964
_cell_length_c 11.715331
_cell_angle_alpha 90.000000
_cell_angle_beta 80.240789
_cell_angle_gamma 90.000000
_cell_volume 1321.263485
_symmetry_space_group_name_H-M "C C"
_symmetry_group_IT_number 9
_symmetry_cell_setting 'monoclinic'
loop_
_space_group_symop_operation_xyz
x,y,z
x,-y,1/2+z
1/2+x,1/2+y,z
1/2+x,1/2-y,1/2+z
loop_
_atom_site_type_symbol
_atom_site_label
_atom_site_fract_x
_atom_site_fract_y
_atom_site_fract_z
Si Si1 0.156680 0.625469 0.427750
Si Si2 0.861074 0.068870 0.780349
Si Si3 0.829505 0.525747 0.578809
Si Si4 0.843039 0.646115 0.798419
Si Si5 0.944971 0.731962 0.578315
Si Si6 0.042451 0.034597 0.394881
Si Si7 0.941176 0.691348 0.042110
Si Si8 0.497586 0.078478 0.198150
O O1 0.084320 0.691702 0.469314
O O2 0.430469 0.597007 0.450839
O O3 0.956492 0.583570 0.512146
O O4 0.151138 0.608782 0.293551
O O5 0.077121 0.046573 0.671634
O O6 0.048016 0.118016 0.828653
O O7 0.580986 0.097157 0.765961
O O8 0.821512 0.009814 0.860287
O O9 0.698623 0.495705 0.476558
O O10 0.044618 0.483785 0.626365
O O11 0.858111 0.689661 0.688958
O O12 0.909373 0.679290 0.910580
O O13 0.172289 0.776873 0.603897
O O14 0.692567 0.767112 0.549742
O O15 0.228995 0.057337 0.280072
O O16 0.972817 0.629017 0.105504
#
# Coordination Sequence:
#
# PCOD9137793 Si02
#       8
#     4   4   4   4   4   4   4   4
#     4  11  25  44  76 103 149 190 239 303 370 438
#     4  11  24  43  73 108 147 186 240 293 373 441
#     4  10  22  44  69 112 140 191 230 299 369 445
#     4  12  26  49  73 106 148 195 247 307 360 439
#     4  12  29  48  76 102 145 197 256 299 367 429
#     4  10  24  40  73 107 149 189 231 306 364 454
#     4  12  30  48  75 105 145 200 247 311 355 437
#     4  10  26  44  71 107 149 184 246 298 372 431
#
# _framework density 24.219241
#
# number of rings (size 3 to 8) (size 9 to 14) (size 15 to 20)
#    0.000    1.000    1.250    3.000   15.750    1.000 
#    0.000    0.000    0.000    0.000    0.000    0.000 
#    0.000    0.000    0.000    0.000    0.000    0.000 
#
# Total GULP energy -89424.336856 kJ/mol
# GULP energy per Si atom -5589.021053 kJ/mol
# Density = 2.416412 g / cm^3
# Si number density = 24.219241 Si / 1000 Ang^3
#
#
#
# Elastic Constant Matrix: (Units=GPa)
#
#
# Indices 1 2 3 4 5 6 
#
# 1 91.0240 17.0909 8.4430 0.0000 11.4251 0.0000
# 2 17.0909 100.5992 40.6494 0.0000 21.5442 0.0000
# 3 8.4430 40.6494 91.4991 0.0000 13.1375 0.0000
# 4 0.0000 0.0000 0.0000 10.9740 0.0000 25.8313
# 5 11.4251 21.5442 13.1375 0.0000 29.2844 0.0000
# 6 0.0000 0.0000 0.0000 25.8313 0.0000 18.3997
#
#
#
# Elastic Compliance Matrix: (Units=1/GPa)
#
#
# Indices 1 2 3 4 5 6 
#
# 1 0.011672 -0.001188 -0.000022 0.000000 -0.003670 0.000000
# 2 -0.001188 0.013720 -0.004920 0.000000 -0.007423 0.000000
# 3 -0.000022 -0.004920 0.013463 0.000000 -0.002412 0.000000
# 4 0.000000 0.000000 0.000000 -0.039541 0.000000 0.055511
# 5 -0.003670 -0.007423 -0.002412 0.000000 0.042123 0.000000
# 6 0.000000 0.000000 0.000000 0.055511 0.000000 -0.023583
#
#
# Mechanical properties :
#
#
# Convention : Reuss Voigt Hill
#
# Bulk Modulus (GPa) = 37.60171 46.16545 41.88358
# Shear Modulus (GPa) = 128.27455 26.19423 77.23439
#
# Velocity S-wave (km/s) = 7.28553 3.29225 5.65322
# Velocity P-wave (km/s) = 9.29145 5.79265 7.74228
#
# Compressibility (1/GPa) = 0.02659454
#
# Stress axis : x y z
#
# Youngs Moduli (GPa) = 85.67618 72.88667 74.27737
#
# Poissons Ratio (x) = 0.08659 0.00166
# Poissons Ratio (y) = 0.10179 0.36543
# Poissons Ratio (z) = 0.00191 0.35859
#
# Static dielectric constant tensor:
#      x y z
#    x 1.931130 0.000000 0.036030 
#    y 0.000000 1.951520 0.000000 
#    z 0.036030 0.000000 2.033290 
# 
# From -- ./inp_files/13753.got.cif
#   From: 2010.05.17/outbox.cif.g08.bks.cpg/sg9_7_cif.got.tgz:13753.got - 2010.06.03 20:04:27.
