data_PCOD9137776
_publ_section_title
;
Structure prediction by ZEFSAII (Michael W. Deem and Ramdas Pophale) SiO2 
 PCOD9137776
Probable space group: C C
;
_chemical_formula_sum "Si O2"
_cell_formula_units_Z 32
_cell_length_a 16.687996
_cell_length_b 7.729551
_cell_length_c 26.122785
_cell_angle_alpha 90.000000
_cell_angle_beta 155.299724
_cell_angle_gamma 90.000000
_cell_volume 1408.058279
_symmetry_space_group_name_H-M "C C"
_symmetry_group_IT_number 9
_symmetry_cell_setting 'monoclinic'
loop_
_space_group_symop_operation_xyz
x,y,z
x,-y,1/2+z
1/2+x,1/2+y,z
1/2+x,1/2-y,1/2+z
loop_
_atom_site_type_symbol
_atom_site_label
_atom_site_fract_x
_atom_site_fract_y
_atom_site_fract_z
Si Si1 0.578210 0.562293 0.518620
Si Si2 0.274467 0.422881 0.196226
Si Si3 0.674692 0.752828 0.938012
Si Si4 0.060315 0.581031 0.168772
Si Si5 0.359916 0.133837 0.835277
Si Si6 0.456199 0.213154 0.776183
Si Si7 0.235220 0.512676 0.881112
Si Si8 0.555873 0.805119 0.970119
O O1 0.486222 0.740858 0.445186
O O2 0.799782 0.593309 0.656895
O O3 0.459999 0.504025 0.499842
O O4 0.537460 0.402593 0.457467
O O5 0.452588 0.299721 0.310842
O O6 0.153213 0.473065 0.176153
O O7 0.372476 0.595466 0.230055
O O8 0.145977 0.343694 0.077267
O O9 0.695090 0.862936 0.898730
O O10 0.699670 0.850324 0.006918
O O11 0.832739 0.601250 0.030672
O O12 0.153463 0.773811 0.216518
O O13 0.129571 0.514745 0.264808
O O14 0.451170 0.153419 0.832044
O O15 0.376434 0.934750 0.861032
O O16 0.654192 0.183531 0.861550
#
# Coordination Sequence:
#
# PCOD9137776 Si02
#       8
#     4   4   4   4   4   4   4   4
#     4  11  24  45  67  98 144 175 230 291 342 415
#     4  11  25  45  71 101 138 191 233 285 362 422
#     4  12  23  43  69 102 139 183 239 286 353 423
#     4  10  24  43  69  98 143 187 226 300 350 407
#     4  10  22  44  68  96 136 185 230 277 350 413
#     4  11  21  43  67  97 138 177 225 291 345 409
#     4  11  23  41  65  98 135 177 223 288 342 400
#     4  12  24  44  72 102 133 193 234 284 352 423
#
# _framework density 22.726330999999998
#
# number of rings (size 3 to 8) (size 9 to 14) (size 15 to 20)
#    0.000    1.000    2.500    6.000    1.750    1.000 
#    2.250    1.250    2.750    0.000    0.000    0.000 
#    0.000    0.000    0.000    0.000    0.000    0.000 
#
# Total GULP energy -89382.165133 kJ/mol
# GULP energy per Si atom -5586.385321 kJ/mol
# Density = 2.267460 g / cm^3
# Si number density = 22.726331 Si / 1000 Ang^3
#
#
#
# Elastic Constant Matrix: (Units=GPa)
#
#
# Indices 1 2 3 4 5 6 
#
# 1 117.6329 9.8691 15.6105 -0.0001 -15.1565 -0.0001
# 2 9.8691 62.1948 -10.8673 0.0001 -0.3336 0.0000
# 3 15.6105 -10.8673 42.5315 0.0012 -1.2017 0.0001
# 4 -0.0001 0.0001 0.0012 31.0790 0.0001 -1.1656
# 5 -15.1565 -0.3336 -1.2017 0.0001 26.0461 -0.0001
# 6 -0.0001 0.0000 0.0001 -1.1656 -0.0001 39.5635
#
#
#
# Elastic Compliance Matrix: (Units=1/GPa)
#
#
# Indices 1 2 3 4 5 6 
#
# 1 0.009949 -0.002260 -0.004072 0.000000 0.005573 0.000000
# 2 -0.002260 0.017348 0.005238 0.000000 -0.000851 0.000000
# 3 -0.004072 0.005238 0.026314 -0.000001 -0.001088 0.000000
# 4 0.000000 0.000000 -0.000001 0.032212 0.000000 0.000949
# 5 0.005573 -0.000851 -0.001088 0.000000 0.041575 0.000000
# 6 0.000000 0.000000 0.000000 0.000949 0.000000 0.025304
#
#
# Mechanical properties :
#
#
# Convention : Reuss Voigt Hill
#
# Bulk Modulus (GPa) = 19.44646 27.95376 23.70011
# Shear Modulus (GPa) = 29.06466 33.18752 31.12609
#
# Velocity S-wave (km/s) = 3.58005 3.82555 3.70483
# Velocity P-wave (km/s) = 5.06600 5.64269 5.36210
#
# Compressibility (1/GPa) = 0.05142324
#
# Stress axis : x y z
#
# Youngs Moduli (GPa) = 100.51259 57.64401 38.00246
#
# Poissons Ratio (x) = 0.13029 0.15473
# Poissons Ratio (y) = 0.22719 -0.19906
# Poissons Ratio (z) = 0.40926 -0.30195
#
# Static dielectric constant tensor:
#      x y z
#    x 1.859050 0.000000 -0.024570 
#    y 0.000000 1.894290 0.000000 
#    z -0.024570 0.000000 1.892860 
# 
# From -- ./inp_files/35581.got.cif
#   From: 2010.05.17/outbox.cif.g08.bks.cpg/sg9_18_cif.got.tgz:35581.got - 2010.06.03 20:04:27.
