data_PCOD9137371
_publ_section_title
;
Structure prediction by ZEFSAII (Michael W. Deem and Ramdas Pophale) SiO2 
 PCOD9137371
Probable space group: C C
;
_chemical_formula_sum "Si O2"
_cell_formula_units_Z 32
_cell_length_a 16.618236
_cell_length_b 8.854042
_cell_length_c 11.735452
_cell_angle_alpha 90.000000
_cell_angle_beta 61.368125
_cell_angle_gamma 90.000000
_cell_volume 1515.586052
_symmetry_space_group_name_H-M "C C"
_symmetry_group_IT_number 9
_symmetry_cell_setting 'monoclinic'
loop_
_space_group_symop_operation_xyz
x,y,z
x,-y,1/2+z
1/2+x,1/2+y,z
1/2+x,1/2-y,1/2+z
loop_
_atom_site_type_symbol
_atom_site_label
_atom_site_fract_x
_atom_site_fract_y
_atom_site_fract_z
Si Si1 0.474560 0.113375 0.798720
Si Si2 0.849839 0.076357 0.625444
Si Si3 0.044530 0.780497 0.944074
Si Si4 0.838446 0.268440 0.209933
Si Si5 0.725643 0.222478 0.514880
Si Si6 0.100277 0.547489 0.082026
Si Si7 0.301655 0.988492 0.029284
Si Si8 0.737729 0.738193 0.394044
O O1 0.533707 0.241199 0.819766
O O2 0.429214 0.170012 0.712450
O O3 0.532987 0.962633 0.734561
O O4 0.394551 0.080662 0.943805
O O5 0.794028 0.124796 0.549753
O O6 0.795841 0.164896 0.764091
O O7 0.956105 0.127581 0.545075
O O8 0.848239 0.897342 0.648689
O O9 0.147195 0.839032 0.899888
O O10 0.048162 0.620439 0.010667
O O11 0.768922 0.250439 0.361983
O O12 0.806457 0.389837 0.138773
O O13 0.636561 0.122656 0.552311
O O14 0.721950 0.386354 0.576781
O O15 0.190463 0.651738 0.020271
O O16 0.295546 0.882141 0.922884
#
# Coordination Sequence:
#
# PCOD9137371 Si02
#       8
#     4   4   4   4   4   4   4   4
#     4  11  22  43  68 100 139 182 231 288 350 424
#     4  12  22  45  73  98 145 194 229 299 345 428
#     4  10  22  41  68 101 134 178 233 286 350 407
#     4  11  24  41  71 101 140 183 247 277 361 426
#     4  11  24  43  72  99 138 186 237 284 359 415
#     4  10  22  42  67 100 134 185 227 285 350 424
#     4  11  24  41  71 104 139 188 227 300 348 427
#     4  10  24  40  70 105 139 182 235 285 355 417
#
# _framework density 21.113945000000001
#
# number of rings (size 3 to 8) (size 9 to 14) (size 15 to 20)
#    0.750    0.500    3.750    3.000    3.500    2.000 
#    0.000    0.000    2.750    0.000    0.000    0.000 
#    0.000    0.000    0.000    0.000    0.000    0.000 
#
# Total GULP energy -89185.181771 kJ/mol
# GULP energy per Si atom -5574.073861 kJ/mol
# Density = 2.106589 g / cm^3
# Si number density = 21.113945 Si / 1000 Ang^3
#
#
#
# Elastic Constant Matrix: (Units=GPa)
#
#
# Indices 1 2 3 4 5 6 
#
# 1 66.8473 31.4064 23.5316 0.0000 14.9034 0.0000
# 2 31.4064 112.4135 36.1894 0.0000 19.7149 0.0000
# 3 23.5316 36.1894 66.6508 0.0000 9.5472 0.0000
# 4 0.0000 0.0000 0.0000 34.0548 0.0000 0.5986
# 5 14.9034 19.7149 9.5472 0.0000 32.8110 0.0000
# 6 0.0000 0.0000 0.0000 0.5986 0.0000 30.2068
#
#
#
# Elastic Compliance Matrix: (Units=1/GPa)
#
#
# Indices 1 2 3 4 5 6 
#
# 1 0.019137 -0.002958 -0.004341 0.000000 -0.005652 0.000000
# 2 -0.002958 0.012079 -0.004870 0.000000 -0.004497 0.000000
# 3 -0.004341 -0.004870 0.019282 0.000000 -0.000713 0.000000
# 4 0.000000 0.000000 0.000000 0.029375 0.000000 -0.000582
# 5 -0.005652 -0.004497 -0.000713 0.000000 0.035954 0.000000
# 6 0.000000 0.000000 0.000000 -0.000582 0.000000 0.033117
#
#
# Mechanical properties :
#
#
# Convention : Reuss Voigt Hill
#
# Bulk Modulus (GPa) = 38.22471 47.57403 42.89937
# Shear Modulus (GPa) = 27.47228 29.73349 28.60288
#
# Velocity S-wave (km/s) = 3.61105 3.75672 3.68461
# Velocity P-wave (km/s) = 5.96067 6.43415 6.20193
#
# Compressibility (1/GPa) = 0.02616109
#
# Stress axis : x y z
#
# Youngs Moduli (GPa) = 52.25374 82.79151 51.86063
#
# Poissons Ratio (x) = 0.24489 0.22512
# Poissons Ratio (y) = 0.15456 0.25255
# Poissons Ratio (z) = 0.22683 0.40318
#
# Static dielectric constant tensor:
#      x y z
#    x 1.794570 0.000000 -0.032070 
#    y 0.000000 1.773670 0.000000 
#    z -0.032070 0.000000 1.777140 
# 
# From -- ./inp_files/19038.got.cif
#   From: 2010.05.17/outbox.cif.g08.bks.cpg/sg9_10_cif.got.tgz:19038.got - 2010.06.03 20:04:27.
