data_PCOD9137588
_publ_section_title
;
Structure prediction by ZEFSAII (Michael W. Deem and Ramdas Pophale) SiO2 
 PCOD9137588
Probable space group: C C
;
_chemical_formula_sum "Si O2"
_cell_formula_units_Z 28
_cell_length_a 11.837006
_cell_length_b 13.949631
_cell_length_c 15.239855
_cell_angle_alpha 90.000000
_cell_angle_beta 32.004472
_cell_angle_gamma 90.000000
_cell_volume 1333.673040
_symmetry_space_group_name_H-M "C C"
_symmetry_group_IT_number 9
_symmetry_cell_setting 'monoclinic'
loop_
_space_group_symop_operation_xyz
x,y,z
x,-y,1/2+z
1/2+x,1/2+y,z
1/2+x,1/2-y,1/2+z
loop_
_atom_site_type_symbol
_atom_site_label
_atom_site_fract_x
_atom_site_fract_y
_atom_site_fract_z
Si Si1 0.463920 0.899135 0.833180
Si Si2 0.546479 0.029884 0.621873
Si Si3 0.489621 0.458342 0.341625
Si Si4 0.367063 0.624859 0.523709
Si Si5 0.412641 0.977030 0.528631
Si Si6 0.181109 0.704497 0.824152
Si Si7 0.594337 0.280997 0.172586
O O1 0.523215 0.963931 0.877658
O O2 0.423705 0.971396 0.778622
O O3 0.957186 0.016521 0.453522
O O4 0.268421 0.833120 0.996501
O O5 0.664446 0.120245 0.590082
O O6 0.421520 0.036277 0.613972
O O7 0.754631 0.968286 0.456050
O O8 0.560538 0.350914 0.277804
O O9 0.138005 0.324480 0.681328
O O10 0.660352 0.522417 0.175118
O O11 0.284064 0.653425 0.672717
O O12 0.552180 0.700649 0.381768
O O13 0.510446 0.872097 0.473582
O O14 0.374578 0.726644 0.762463
#
# Coordination Sequence:
#
# PCOD9137588 Si02
#       7
#     4   4   4   4   4   4   4
#     4  11  24  41  66 100 135 167 228 272 332 390
#     4  10  22  43  60  94 137 170 212 274 329 392
#     4   9  21  40  60  94 131 166 217 271 328 390
#     4  10  23  37  59  95 137 161 211 287 312 403
#     4  11  22  41  69  92 134 178 211 274 338 395
#     4  12  21  38  64 100 124 172 225 268 336 371
#     4  11  23  38  68  99 128 174 220 282 319 395
#
# _framework density 20.994651000000001
#
# number of rings (size 3 to 8) (size 9 to 14) (size 15 to 20)
#    0.857    0.571    2.857    2.571    6.000    0.000 
#    0.000    2.857    0.000    0.000    0.000    0.000 
#    0.000    0.000    0.000    0.000    0.000    0.000 
#
# Total GULP energy -77943.709086 kJ/mol
# GULP energy per Si atom -5567.407792 kJ/mol
# Density = 2.094687 g / cm^3
# Si number density = 20.994651 Si / 1000 Ang^3
#
#
#
# Elastic Constant Matrix: (Units=GPa)
#
#
# Indices 1 2 3 4 5 6 
#
# 1 99.6798 51.2848 19.3843 -0.0019 24.0900 0.0006
# 2 51.2848 100.7159 24.3238 -0.0041 1.8233 0.0029
# 3 19.3843 24.3238 81.5937 -0.0081 12.5028 0.0053
# 4 -0.0019 -0.0041 -0.0081 42.2149 0.0044 9.6030
# 5 24.0900 1.8233 12.5028 0.0044 24.6458 -0.0006
# 6 0.0006 0.0029 0.0053 9.6030 -0.0006 29.9342
#
#
#
# Elastic Compliance Matrix: (Units=1/GPa)
#
#
# Indices 1 2 3 4 5 6 
#
# 1 0.019418 -0.009839 0.001211 0.000002 -0.018867 -0.000001
# 2 -0.009839 0.015702 -0.003946 -0.000001 0.010457 0.000000
# 3 0.001211 -0.003946 0.014401 0.000004 -0.008197 -0.000004
# 4 0.000002 -0.000001 0.000004 0.025553 -0.000009 -0.008197
# 5 -0.018867 0.010457 -0.008197 -0.000009 0.062401 0.000005
# 6 -0.000001 0.000000 -0.000004 -0.008197 0.000005 0.036036
#
#
# Mechanical properties :
#
#
# Convention : Reuss Voigt Hill
#
# Bulk Modulus (GPa) = 41.02823 52.44169 46.73496
# Shear Modulus (GPa) = 24.17988 31.82541 28.00264
#
# Velocity S-wave (km/s) = 3.39738 3.89766 3.65608
# Velocity P-wave (km/s) = 5.91390 6.72967 6.33493
#
# Compressibility (1/GPa) = 0.02437346
#
# Stress axis : x y z
#
# Youngs Moduli (GPa) = 51.49821 63.68423 69.44156
#
# Poissons Ratio (x) = 0.62657 -0.08408
# Poissons Ratio (y) = 0.50667 0.27402
# Poissons Ratio (z) = -0.06235 0.25130
#
# Static dielectric constant tensor:
#      x y z
#    x 1.769450 0.000000 -0.025880 
#    y 0.000000 1.768600 0.000000 
#    z -0.025880 0.000000 1.881840 
# 
# From -- ./inp_files/33805.got.cif
#   From: 2010.05.17/outbox.cif.g08.bks.cpg/sg9_17_cif.got.tgz:33805.got - 2010.06.03 20:04:27.
