data_PCOD9137738
_publ_section_title
;
Structure prediction by ZEFSAII (Michael W. Deem and Ramdas Pophale) SiO2 
 PCOD9137738
Probable space group: C C
;
_chemical_formula_sum "Si O2"
_cell_formula_units_Z 28
_cell_length_a 13.686513
_cell_length_b 11.205480
_cell_length_c 8.567978
_cell_angle_alpha 90.000000
_cell_angle_beta 63.884053
_cell_angle_gamma 90.000000
_cell_volume 1179.864290
_symmetry_space_group_name_H-M "C C"
_symmetry_group_IT_number 9
_symmetry_cell_setting 'monoclinic'
loop_
_space_group_symop_operation_xyz
x,y,z
x,-y,1/2+z
1/2+x,1/2+y,z
1/2+x,1/2-y,1/2+z
loop_
_atom_site_type_symbol
_atom_site_label
_atom_site_fract_x
_atom_site_fract_y
_atom_site_fract_z
Si Si1 0.739840 0.416765 0.914910
Si Si2 0.386908 0.781853 0.593941
Si Si3 0.321419 0.765241 0.133356
Si Si4 0.420705 0.412136 0.323442
Si Si5 0.116103 0.906489 0.687937
Si Si6 0.741149 0.882282 0.970015
Si Si7 0.009867 0.343142 0.205743
O O1 0.847970 0.382352 0.743249
O O2 0.655054 0.387058 0.837488
O O3 0.747263 0.333375 0.061144
O O4 0.711444 0.544962 0.007420
O O5 0.432335 0.674791 0.667610
O O6 0.293011 0.707925 0.563712
O O7 0.463489 0.843570 0.413396
O O8 0.248595 0.693728 0.306810
O O9 0.407963 0.849916 0.160912
O O10 0.394560 0.670526 0.988423
O O11 0.528122 0.489235 0.259706
O O12 0.320002 0.505024 0.388480
O O13 0.057759 0.791591 0.660250
O O14 0.618137 0.919074 0.098609
#
# Coordination Sequence:
#
# PCOD9137738 Si02
#       7
#     4   4   4   4   4   4   4
#     4  11  26  40  69 100 144 171 231 292 345 389
#     4  10  22  44  66 101 140 177 224 288 338 407
#     4  10  24  43  66 101 140 180 229 285 338 408
#     4  11  22  41  73 104 133 172 236 282 334 411
#     4  12  23  40  74 109 123 182 233 285 333 407
#     4  11  22  39  69 102 143 174 224 289 338 404
#     4  11  23  43  73  99 139 184 229 277 350 402
#
# _framework density 23.731544
#
# number of rings (size 3 to 8) (size 9 to 14) (size 15 to 20)
#    0.000    1.143    4.286    2.571    4.000    0.000 
#    0.000    0.000   18.857    0.000    0.000    0.000 
#    0.000    0.000    0.000    0.000    0.000    0.000 
#
# Total GULP energy -78311.580576 kJ/mol
# GULP energy per Si atom -5593.684327 kJ/mol
# Density = 2.367753 g / cm^3
# Si number density = 23.731544 Si / 1000 Ang^3
#
#
#
# Elastic Constant Matrix: (Units=GPa)
#
#
# Indices 1 2 3 4 5 6 
#
# 1 110.0875 26.5728 52.8990 0.0000 5.1837 0.0000
# 2 26.5728 79.7895 25.2336 0.0000 2.9074 0.0000
# 3 52.8990 25.2336 140.9352 0.0000 -1.3115 0.0000
# 4 0.0000 0.0000 0.0000 29.3952 0.0000 -12.1526
# 5 5.1837 2.9074 -1.3115 0.0000 48.7988 0.0000
# 6 0.0000 0.0000 0.0000 -12.1526 0.0000 29.8040
#
#
#
# Elastic Compliance Matrix: (Units=1/GPa)
#
#
# Indices 1 2 3 4 5 6 
#
# 1 0.011649 -0.002597 -0.003919 0.000000 -0.001188 0.000000
# 2 -0.002597 0.013900 -0.001519 0.000000 -0.000593 0.000000
# 3 -0.003919 -0.001519 0.008845 0.000000 0.000744 0.000000
# 4 0.000000 0.000000 0.000000 0.040917 0.000000 0.016684
# 5 -0.001188 -0.000593 0.000744 0.000000 0.020674 0.000000
# 6 0.000000 0.000000 0.000000 0.016684 0.000000 0.040355
#
#
# Mechanical properties :
#
#
# Convention : Reuss Voigt Hill
#
# Bulk Modulus (GPa) = 54.57187 60.02476 57.29831
# Shear Modulus (GPa) = 31.54198 36.67339 34.10769
#
# Velocity S-wave (km/s) = 3.64966 3.93535 3.79519
# Velocity P-wave (km/s) = 6.38791 6.78214 6.58798
#
# Compressibility (1/GPa) = 0.01832446
#
# Stress axis : x y z
#
# Youngs Moduli (GPa) = 85.84085 71.94221 113.05511
#
# Poissons Ratio (x) = 0.18684 0.44302
# Poissons Ratio (y) = 0.22294 0.17178
# Poissons Ratio (z) = 0.33638 0.10931
#
# Static dielectric constant tensor:
#      x y z
#    x 1.932880 0.000000 -0.036840 
#    y 0.000000 1.905000 0.000000 
#    z -0.036840 0.000000 1.901410 
# 
# From -- ./inp_files/8892.got.cif
#   From: 2010.05.17/outbox.cif.g08.bks.cpg/sg9_5_cif.got.tgz:8892.got - 2010.06.03 20:04:27.
