data_PCOD9137500
_publ_section_title
;
Structure prediction by ZEFSAII (Michael W. Deem and Ramdas Pophale) SiO2 
 PCOD9137500
Probable space group: C C
;
_chemical_formula_sum "Si O2"
_cell_formula_units_Z 32
_cell_length_a 5.388454
_cell_length_b 31.052936
_cell_length_c 8.497735
_cell_angle_alpha 90.000000
_cell_angle_beta 62.491801
_cell_angle_gamma 90.000000
_cell_volume 1261.149575
_symmetry_space_group_name_H-M "C C"
_symmetry_group_IT_number 9
_symmetry_cell_setting 'monoclinic'
loop_
_space_group_symop_operation_xyz
x,y,z
x,-y,1/2+z
1/2+x,1/2+y,z
1/2+x,1/2-y,1/2+z
loop_
_atom_site_type_symbol
_atom_site_label
_atom_site_fract_x
_atom_site_fract_y
_atom_site_fract_z
Si Si1 0.750000 0.746763 0.061930
Si Si2 0.019828 0.918998 0.102828
Si Si3 0.716895 0.199013 0.096983
Si Si4 0.817672 0.954478 0.873075
Si Si5 0.126077 0.315292 0.280641
Si Si6 0.305612 0.011439 0.049080
Si Si7 0.486218 0.098132 0.921271
Si Si8 0.015328 0.386304 0.773652
O O1 0.449495 0.730580 0.092421
O O2 0.783722 0.797934 0.082238
O O3 0.916312 0.722048 0.155970
O O4 0.940183 0.727195 0.865285
O O5 0.138730 0.967430 0.068431
O O6 0.267990 0.888148 0.974674
O O7 0.808807 0.920691 0.016725
O O8 0.821270 0.909712 0.306576
O O9 0.683584 0.157986 0.219498
O O10 0.793569 0.182791 0.896751
O O11 0.620023 0.994260 0.975864
O O12 0.699756 0.928621 0.757931
O O13 0.129606 0.969924 0.745476
O O14 0.947372 0.358843 0.330082
O O15 0.336331 0.052879 0.925170
O O16 0.410580 0.109479 0.123467
#
# Coordination Sequence:
#
# PCOD9137500 Si02
#       8
#     4   4   4   4   4   4   4   4
#     4  10  22  42  68 101 138 180 232 284 363 429
#     4  11  25  43  68 104 135 186 243 286 360 426
#     4   9  23  41  74  97 142 185 229 289 364 431
#     4  11  25  41  69  95 143 187 241 292 362 422
#     4   9  24  43  69 102 138 184 234 292 365 432
#     4  11  24  41  65  97 140 188 232 290 354 426
#     4  11  23  47  68 102 140 182 239 297 352 434
#     4  10  24  46  67 102 138 190 228 300 358 430
#
# _framework density 25.373674000000001
#
# number of rings (size 3 to 8) (size 9 to 14) (size 15 to 20)
#    0.750    1.000    2.500    0.000    8.750    1.000 
#    2.250    0.000    0.000    0.000    0.000    0.000 
#    0.000    0.000    0.000    0.000    0.000    0.000 
#
# Total GULP energy -89171.400777 kJ/mol
# GULP energy per Si atom -5573.212549 kJ/mol
# Density = 2.531592 g / cm^3
# Si number density = 25.373674 Si / 1000 Ang^3
#
#
#
# Elastic Constant Matrix: (Units=GPa)
#
#
# Indices 1 2 3 4 5 6 
#
# 1 74.4198 25.9579 16.4709 0.0000 -8.5771 0.0000
# 2 25.9579 72.6875 15.3436 0.0000 0.1480 0.0000
# 3 16.4709 15.3436 57.5039 0.0000 -16.6737 0.0000
# 4 0.0000 0.0000 0.0000 41.1657 0.0000 -4.2607
# 5 -8.5771 0.1480 -16.6737 0.0000 23.3732 0.0000
# 6 0.0000 0.0000 0.0000 -4.2607 0.0000 19.5492
#
#
#
# Elastic Compliance Matrix: (Units=1/GPa)
#
#
# Indices 1 2 3 4 5 6 
#
# 1 0.016283 -0.005433 -0.001856 0.000000 0.004686 0.000000
# 2 -0.005433 0.016638 -0.004403 0.000000 -0.005240 0.000000
# 3 -0.001856 -0.004403 0.023838 0.000000 0.016352 0.000000
# 4 0.000000 0.000000 0.000000 0.024853 0.000000 0.005417
# 5 0.004686 -0.005240 0.016352 0.000000 0.056202 0.000000
# 6 0.000000 0.000000 0.000000 0.005417 0.000000 0.052333
#
#
# Mechanical properties :
#
#
# Convention : Reuss Voigt Hill
#
# Bulk Modulus (GPa) = 29.96118 35.57291 32.76705
# Shear Modulus (GPa) = 22.25650 26.60687 24.43169
#
# Velocity S-wave (km/s) = 2.96488 3.24172 3.10639
# Velocity P-wave (km/s) = 4.85328 5.29733 5.08016
#
# Compressibility (1/GPa) = 0.03337652
#
# Stress axis : x y z
#
# Youngs Moduli (GPa) = 61.41366 60.10465 41.95031
#
# Poissons Ratio (x) = 0.32653 0.07785
# Poissons Ratio (y) = 0.33365 0.18469
# Poissons Ratio (z) = 0.11396 0.26461
#
# Static dielectric constant tensor:
#      x y z
#    x 1.996280 0.000000 -0.023030 
#    y 0.000000 2.899190 0.000000 
#    z -0.023030 0.000000 2.099850 
# 
# From -- ./inp_files/4468.got.cif
#   From: 2010.05.17/outbox.cif.g08.bks.cpg/sg9_3_cif.got.tgz:4468.got - 2010.06.03 20:04:27.
