data_PCOD9137390
_publ_section_title
;
Structure prediction by ZEFSAII (Michael W. Deem and Ramdas Pophale) SiO2 
 PCOD9137390
Probable space group: C C
;
_chemical_formula_sum "Si O2"
_cell_formula_units_Z 32
_cell_length_a 11.319329
_cell_length_b 10.530542
_cell_length_c 11.163144
_cell_angle_alpha 90.000000
_cell_angle_beta 104.182016
_cell_angle_gamma 90.000000
_cell_volume 1290.077310
_symmetry_space_group_name_H-M "C C"
_symmetry_group_IT_number 9
_symmetry_cell_setting 'monoclinic'
loop_
_space_group_symop_operation_xyz
x,y,z
x,-y,1/2+z
1/2+x,1/2+y,z
1/2+x,1/2-y,1/2+z
loop_
_atom_site_type_symbol
_atom_site_label
_atom_site_fract_x
_atom_site_fract_y
_atom_site_fract_z
Si Si1 0.651710 0.765619 0.942990
Si Si2 0.906711 0.746767 0.277685
Si Si3 0.417068 0.025717 0.676951
Si Si4 0.850542 0.769991 0.815632
Si Si5 0.515961 0.360655 0.066193
Si Si6 0.162312 0.634725 0.686263
Si Si7 0.530345 0.600688 0.201625
Si Si8 0.711052 0.472293 0.960178
O O1 0.507011 0.770060 0.903133
O O2 0.716443 0.791771 0.832152
O O3 0.695758 0.864913 0.054002
O O4 0.690058 0.621289 0.981097
O O5 0.873193 0.607077 0.222093
O O6 0.789846 0.831850 0.281615
O O7 0.983289 0.809584 0.188372
O O8 0.372544 0.136421 0.755947
O O9 0.564205 0.030626 0.701777
O O10 0.352637 0.043973 0.531082
O O11 0.906808 0.877647 0.745185
O O12 0.932841 0.782680 0.955003
O O13 0.646997 0.370734 0.034549
O O14 0.497605 0.489074 0.583422
O O15 0.081620 0.762645 0.679921
O O16 0.637229 0.547156 0.317080
#
# Coordination Sequence:
#
# PCOD9137390 Si02
#       8
#     4   4   4   4   4   4   4   4
#     4  12  23  41  69 100 134 191 238 295 368 432
#     4  12  25  41  69 100 148 187 237 305 373 440
#     4  11  25  46  68 102 146 189 242 307 367 445
#     4  10  24  42  68  99 140 186 244 297 369 441
#     4  11  20  42  70 100 138 188 233 306 361 433
#     4  11  25  46  65 106 141 185 248 296 367 443
#     4  10  22  41  70 101 138 183 246 300 359 439
#     4  11  22  41  75  98 131 187 244 296 366 439
#
# _framework density 24.804713
#
# number of rings (size 3 to 8) (size 9 to 14) (size 15 to 20)
#    0.000    1.000    5.000    0.750    3.500    2.000 
#    0.000    0.000    5.500    0.000    0.000    0.000 
#    0.000    0.000    0.000    0.000    0.000    0.000 
#
# Total GULP energy -89332.944377 kJ/mol
# GULP energy per Si atom -5583.309024 kJ/mol
# Density = 2.474826 g / cm^3
# Si number density = 24.804713 Si / 1000 Ang^3
#
#
#
# Elastic Constant Matrix: (Units=GPa)
#
#
# Indices 1 2 3 4 5 6 
#
# 1 150.6795 21.1486 29.2604 0.0000 17.8577 0.0000
# 2 21.1486 63.5714 10.7742 0.0000 5.3886 0.0000
# 3 29.2604 10.7742 52.9121 0.0000 14.9531 0.0000
# 4 0.0000 0.0000 0.0000 37.4711 0.0000 0.2548
# 5 17.8577 5.3886 14.9531 0.0000 42.3285 0.0000
# 6 0.0000 0.0000 0.0000 0.2548 0.0000 29.2826
#
#
#
# Elastic Compliance Matrix: (Units=1/GPa)
#
#
# Indices 1 2 3 4 5 6 
#
# 1 0.007776 -0.001854 -0.003402 0.000000 -0.001843 0.000000
# 2 -0.001854 0.016773 -0.002230 0.000000 -0.000565 0.000000
# 3 -0.003402 -0.002230 0.023050 0.000000 -0.006424 0.000000
# 4 0.000000 0.000000 0.000000 0.026689 0.000000 -0.000232
# 5 -0.001843 -0.000565 -0.006424 0.000000 0.026743 0.000000
# 6 0.000000 0.000000 0.000000 -0.000232 0.000000 0.034152
#
#
# Mechanical properties :
#
#
# Convention : Reuss Voigt Hill
#
# Bulk Modulus (GPa) = 30.65005 43.28105 36.96555
# Shear Modulus (GPa) = 31.04996 35.54842 33.29919
#
# Velocity S-wave (km/s) = 3.54188 3.78978 3.66793
# Velocity P-wave (km/s) = 5.39536 6.05281 5.73352
#
# Compressibility (1/GPa) = 0.03262637
#
# Stress axis : x y z
#
# Youngs Moduli (GPa) = 128.60412 59.61942 43.38413
#
# Poissons Ratio (x) = 0.11054 0.14758
# Poissons Ratio (y) = 0.23844 0.09676
# Poissons Ratio (z) = 0.43747 0.13298
#
# Static dielectric constant tensor:
#      x y z
#    x 2.042690 0.000000 -0.049720 
#    y 0.000000 1.970430 0.000000 
#    z -0.049720 0.000000 2.018020 
# 
# From -- ./inp_files/16587.got.cif
#   From: 2010.05.17/outbox.cif.g08.bks.cpg/sg9_9_cif.got.tgz:16587.got - 2010.06.03 20:04:27.
