data_PCOD9137221
_publ_section_title
;
Structure prediction by ZEFSAII (Michael W. Deem and Ramdas Pophale) SiO2 
 PCOD9137221
Probable space group: C C
;
_chemical_formula_sum "Si O2"
_cell_formula_units_Z 32
_cell_length_a 20.567403
_cell_length_b 11.485612
_cell_length_c 10.697155
_cell_angle_alpha 90.000000
_cell_angle_beta 39.453330
_cell_angle_gamma 90.000000
_cell_volume 1605.768449
_symmetry_space_group_name_H-M "C C"
_symmetry_group_IT_number 9
_symmetry_cell_setting 'monoclinic'
loop_
_space_group_symop_operation_xyz
x,y,z
x,-y,1/2+z
1/2+x,1/2+y,z
1/2+x,1/2-y,1/2+z
loop_
_atom_site_type_symbol
_atom_site_label
_atom_site_fract_x
_atom_site_fract_y
_atom_site_fract_z
Si Si1 0.547990 0.666693 0.703450
Si Si2 0.079286 0.656811 0.940563
Si Si3 0.327716 0.353019 0.459269
Si Si4 0.772533 0.369203 0.887062
Si Si5 0.417212 0.207798 0.973635
Si Si6 0.937184 0.451502 0.207136
Si Si7 0.885387 0.234235 0.129450
Si Si8 0.796304 0.883647 0.007875
O O1 0.574915 0.780903 0.581583
O O2 0.653636 0.598675 0.560340
O O3 0.450065 0.618515 0.772304
O O4 0.496905 0.692527 0.913884
O O5 0.189489 0.666831 0.715070
O O6 0.000097 0.713279 0.959919
O O7 0.036699 0.526156 0.023844
O O8 0.287946 0.261246 0.418389
O O9 0.317417 0.287941 0.607710
O O10 0.279112 0.478898 0.528853
O O11 0.821501 0.360605 0.676968
O O12 0.845590 0.454688 0.857681
O O13 0.380434 0.333371 0.979849
O O14 0.453663 0.129639 0.803001
O O15 0.900433 0.365629 0.151872
O O16 0.835599 0.163188 0.316575
#
# Coordination Sequence:
#
# PCOD9137221 Si02
#       8
#     4   4   4   4   4   4   4   4
#     4  10  22  44  60  95 126 170 210 255 330 381
#     4  11  23  39  74  92 124 175 215 267 321 383
#     4  10  24  41  63  91 132 167 212 263 324 383
#     4  11  22  39  68  92 127 172 206 266 325 384
#     4  10  22  42  63  96 129 158 224 263 315 384
#     4  10  22  40  65  97 124 167 213 275 304 387
#     4   9  23  44  60  92 133 159 213 267 314 383
#     4  11  24  43  63  95 131 168 213 270 319 383
#
# _framework density 19.928153999999999
#
# number of rings (size 3 to 8) (size 9 to 14) (size 15 to 20)
#    0.750    1.000    3.750    0.000   10.500    1.000 
#    9.000    0.000    0.000    0.000    0.000    0.000 
#    0.000    0.000    0.000    0.000    0.000    0.000 
#
# Total GULP energy -89122.901348 kJ/mol
# GULP energy per Si atom -5570.181334 kJ/mol
# Density = 1.988280 g / cm^3
# Si number density = 19.928154 Si / 1000 Ang^3
#
#
#
# Elastic Constant Matrix: (Units=GPa)
#
#
# Indices 1 2 3 4 5 6 
#
# 1 46.5878 2.6278 25.3725 0.0000 0.4693 0.0000
# 2 2.6278 30.0111 2.2809 0.0000 11.8779 0.0000
# 3 25.3725 2.2809 112.5937 0.0000 4.2492 0.0000
# 4 0.0000 0.0000 0.0000 17.1083 0.0000 7.2564
# 5 0.4693 11.8779 4.2492 0.0000 32.1103 0.0000
# 6 0.0000 0.0000 0.0000 7.2564 0.0000 7.2562
#
#
#
# Elastic Compliance Matrix: (Units=1/GPa)
#
#
# Indices 1 2 3 4 5 6 
#
# 1 0.024596 -0.002203 -0.005543 0.000000 0.001189 0.000000
# 2 -0.002203 0.039240 0.000249 0.000000 -0.014516 0.000000
# 3 -0.005543 0.000249 0.010177 0.000000 -0.001358 0.000000
# 4 0.000000 0.000000 0.000000 0.101505 0.000000 -0.101508
# 5 0.001189 -0.014516 -0.001358 0.000000 0.036675 0.000000
# 6 0.000000 0.000000 0.000000 -0.101508 0.000000 0.239325
#
#
# Mechanical properties :
#
#
# Convention : Reuss Voigt Hill
#
# Bulk Modulus (GPa) = 16.94343 27.75054 22.34698
# Shear Modulus (GPa) = 10.28419 21.88905 16.08662
#
# Velocity S-wave (km/s) = 2.27417 3.31780 2.84426
# Velocity P-wave (km/s) = 3.92639 5.35095 4.69303
#
# Compressibility (1/GPa) = 0.05901993
#
# Stress axis : x y z
#
# Youngs Moduli (GPa) = 40.65725 25.48415 98.26332
#
# Poissons Ratio (x) = 0.05614 0.54466
# Poissons Ratio (y) = 0.08956 -0.02450
# Poissons Ratio (z) = 0.22536 -0.00635
#
# Static dielectric constant tensor:
#      x y z
#    x 1.710430 0.000000 -0.002120 
#    y 0.000000 1.695400 0.000000 
#    z -0.002120 0.000000 1.730420 
# 
# From -- ./inp_files/18118.got.cif
#   From: 2010.05.17/outbox.cif.g08.bks.cpg/sg9_10_cif.got.tgz:18118.got - 2010.06.03 20:04:27.
