data_PCOD9137969
_publ_section_title
;
Structure prediction by ZEFSAII (Michael W. Deem and Ramdas Pophale) SiO2 
 PCOD9137969
Probable space group: C C
;
_chemical_formula_sum "Si O2"
_cell_formula_units_Z 28
_cell_length_a 20.181890
_cell_length_b 11.570472
_cell_length_c 8.449734
_cell_angle_alpha 90.000000
_cell_angle_beta 148.120647
_cell_angle_gamma 90.000000
_cell_volume 1042.074412
_symmetry_space_group_name_H-M "C C"
_symmetry_group_IT_number 9
_symmetry_cell_setting 'monoclinic'
loop_
_space_group_symop_operation_xyz
x,y,z
x,-y,1/2+z
1/2+x,1/2+y,z
1/2+x,1/2-y,1/2+z
loop_
_atom_site_type_symbol
_atom_site_label
_atom_site_fract_x
_atom_site_fract_y
_atom_site_fract_z
Si Si1 0.075800 0.306133 0.544210
Si Si2 0.021652 0.250727 0.105481
Si Si3 0.718044 0.510898 0.634115
Si Si4 0.960609 0.070114 0.724205
Si Si5 0.752562 0.766882 0.195827
Si Si6 0.902916 0.486073 0.756161
Si Si7 0.354476 0.636347 0.195917
O O1 0.114162 0.262000 0.445379
O O2 0.997269 0.425036 0.364309
O O3 0.975330 0.214902 0.406185
O O4 0.168147 0.316071 0.881957
O O5 0.893088 0.206589 0.926251
O O6 0.987000 0.380628 0.983230
O O7 0.032394 0.165700 0.976679
O O8 0.568650 0.504787 0.350798
O O9 0.744442 0.372220 0.682607
O O10 0.813262 0.557671 0.694031
O O11 0.786882 0.565959 0.922514
O O12 0.862990 0.122599 0.401254
O O13 0.884287 0.988063 0.684097
O O14 0.743946 0.814809 0.358816
#
# Coordination Sequence:
#
# PCOD9137969 Si02
#       7
#     4   4   4   4   4   4   4
#     4  11  22  46  70 100 147 184 235 299 356 425
#     4  10  25  46  68 102 142 188 238 299 351 432
#     4  11  23  40  70 105 132 184 238 293 350 416
#     4  12  25  46  70 105 141 192 239 294 365 419
#     4  10  22  46  67  99 139 189 233 287 366 416
#     4  11  22  43  71 104 139 178 236 300 349 422
#     4  11  23  43  70  99 142 187 239 300 345 432
#
# _framework density 26.869482999999999
#
# number of rings (size 3 to 8) (size 9 to 14) (size 15 to 20)
#    0.000    1.143    5.714    2.571    4.000    0.000 
#    7.714    0.000    0.000    0.000    0.000    0.000 
#    0.000    0.000    0.000    0.000    0.000    0.000 
#
# Total GULP energy -78174.752381 kJ/mol
# GULP energy per Si atom -5583.910884 kJ/mol
# Density = 2.680833 g / cm^3
# Si number density = 26.869483 Si / 1000 Ang^3
#
#
#
# Elastic Constant Matrix: (Units=GPa)
#
#
# Indices 1 2 3 4 5 6 
#
# 1 57.9284 30.4403 42.4745 0.0000 -13.7862 0.0000
# 2 30.4403 102.5624 48.4385 0.0000 -15.8074 0.0000
# 3 42.4745 48.4385 198.6326 0.0000 -27.8612 0.0000
# 4 0.0000 0.0000 0.0000 48.4936 0.0000 -7.0974
# 5 -13.7862 -15.8074 -27.8612 0.0000 49.6620 0.0000
# 6 0.0000 0.0000 0.0000 -7.0974 0.0000 33.8017
#
#
#
# Elastic Compliance Matrix: (Units=1/GPa)
#
#
# Indices 1 2 3 4 5 6 
#
# 1 0.022913 -0.004775 -0.003317 0.000000 0.002980 0.000000
# 2 -0.004775 0.012234 -0.001739 0.000000 0.001593 0.000000
# 3 -0.003317 -0.001739 0.006470 0.000000 0.002155 0.000000
# 4 0.000000 0.000000 0.000000 0.021275 0.000000 0.004467
# 5 0.002980 0.001593 0.002155 0.000000 0.022680 0.000000
# 6 0.000000 0.000000 0.000000 0.004467 0.000000 0.030522
#
#
# Mechanical properties :
#
#
# Convention : Reuss Voigt Hill
#
# Bulk Modulus (GPa) = 45.54632 66.86999 56.20816
# Shear Modulus (GPa) = 34.94675 42.24279 38.59477
#
# Velocity S-wave (km/s) = 3.61031 3.96933 3.79407
# Velocity P-wave (km/s) = 5.86233 6.77853 6.33701
#
# Compressibility (1/GPa) = 0.02195567
#
# Stress axis : x y z
#
# Youngs Moduli (GPa) = 43.64299 81.73898 154.55519
#
# Poissons Ratio (x) = 0.39027 0.51271
# Poissons Ratio (y) = 0.20838 0.26877
# Poissons Ratio (z) = 0.14478 0.14214
#
# Static dielectric constant tensor:
#      x y z
#    x 2.561530 0.000000 -0.191370 
#    y 0.000000 2.084270 0.000000 
#    z -0.191370 0.000000 2.205680 
# 
# From -- ./inp_files/11613.got.cif
#   From: 2010.05.17/outbox.cif.g08.bks.cpg/sg9_6_cif.got.tgz:11613.got - 2010.06.03 20:04:27.
