data_PCOD9137389
_publ_section_title
;
Structure prediction by ZEFSAII (Michael W. Deem and Ramdas Pophale) SiO2 
 PCOD9137389
Probable space group: C C
;
_chemical_formula_sum "Si O2"
_cell_formula_units_Z 28
_cell_length_a 10.767777
_cell_length_b 10.846947
_cell_length_c 17.963715
_cell_angle_alpha 90.000000
_cell_angle_beta 145.235658
_cell_angle_gamma 90.000000
_cell_volume 1196.351449
_symmetry_space_group_name_H-M "C C"
_symmetry_group_IT_number 9
_symmetry_cell_setting 'monoclinic'
loop_
_space_group_symop_operation_xyz
x,y,z
x,-y,1/2+z
1/2+x,1/2+y,z
1/2+x,1/2-y,1/2+z
loop_
_atom_site_type_symbol
_atom_site_label
_atom_site_fract_x
_atom_site_fract_y
_atom_site_fract_z
Si Si1 0.571040 0.517025 0.126960
Si Si2 0.880196 0.853399 0.928710
Si Si3 0.052464 0.661110 0.515230
Si Si4 0.131587 0.262570 0.226657
Si Si5 0.529300 0.687391 0.711729
Si Si6 0.308086 0.032354 0.603916
Si Si7 0.852749 0.411754 0.469539
O O1 0.535003 0.624830 0.167323
O O2 0.643940 0.394162 0.205211
O O3 0.364547 0.466676 0.978691
O O4 0.750137 0.541794 0.150930
O O5 0.654677 0.815808 0.781175
O O6 0.950271 0.723577 0.001556
O O7 0.078312 0.896145 0.974953
O O8 0.116421 0.695028 0.632191
O O9 0.272986 0.681266 0.578039
O O10 0.861794 0.741098 0.381791
O O11 0.966211 0.520661 0.478448
O O12 0.988801 0.361837 0.200337
O O13 0.602751 0.612217 0.821799
O O14 0.354223 0.953080 0.554558
#
# Coordination Sequence:
#
# PCOD9137389 Si02
#       7
#     4   4   4   4   4   4   4
#     4  10  22  42  68 100 133 183 232 284 343 407
#     4   8  21  41  67 102 128 184 222 287 344 398
#     4  11  25  42  70 102 144 181 232 289 347 421
#     4  11  24  46  69 105 138 187 230 289 353 406
#     4  10  22  41  69  98 137 180 229 283 353 404
#     4   9  22  42  70 102 138 178 235 284 337 420
#     4   9  20  44  67 101 136 185 226 280 357 398
#
# _framework density 23.404494
#
# number of rings (size 3 to 8) (size 9 to 14) (size 15 to 20)
#    1.714    0.571    1.429    0.000    4.000    4.571 
#    5.143    1.429    0.000    0.000    0.000    0.000 
#    0.000    0.000    0.000    0.000    0.000    0.000 
#
# Total GULP energy -77969.725621 kJ/mol
# GULP energy per Si atom -5569.266116 kJ/mol
# Density = 2.335122 g / cm^3
# Si number density = 23.404494 Si / 1000 Ang^3
#
#
#
# Elastic Constant Matrix: (Units=GPa)
#
#
# Indices 1 2 3 4 5 6 
#
# 1 50.4757 19.6233 32.6822 0.0000 -0.6352 0.0000
# 2 19.6233 91.8635 56.8088 0.0000 2.8684 0.0000
# 3 32.6822 56.8088 125.8601 0.0000 13.7538 0.0000
# 4 0.0000 0.0000 0.0000 35.0631 0.0000 4.7279
# 5 -0.6352 2.8684 13.7538 0.0000 24.3414 0.0000
# 6 0.0000 0.0000 0.0000 4.7279 0.0000 18.2683
#
#
#
# Elastic Compliance Matrix: (Units=1/GPa)
#
#
# Indices 1 2 3 4 5 6 
#
# 1 0.024427 -0.001582 -0.006095 0.000000 0.004268 0.000000
# 2 -0.001582 0.015315 -0.006715 0.000000 0.001948 0.000000
# 3 -0.006095 -0.006715 0.013312 0.000000 -0.006890 0.000000
# 4 0.000000 0.000000 0.000000 0.029551 0.000000 -0.007648
# 5 0.004268 0.001948 -0.006890 0.000000 0.044857 0.000000
# 6 0.000000 0.000000 0.000000 -0.007648 0.000000 0.056719
#
#
# Mechanical properties :
#
#
# Convention : Reuss Voigt Hill
#
# Bulk Modulus (GPa) = 41.20336 54.04754 47.62545
# Shear Modulus (GPa) = 22.61877 26.14022 24.37950
#
# Velocity S-wave (km/s) = 3.11212 3.34561 3.23098
# Velocity P-wave (km/s) = 5.52782 6.16986 5.85764
#
# Compressibility (1/GPa) = 0.02426986
#
# Stress axis : x y z
#
# Youngs Moduli (GPa) = 40.93862 65.29407 75.12085
#
# Poissons Ratio (x) = 0.10328 0.45789
# Poissons Ratio (y) = 0.06475 0.50443
# Poissons Ratio (z) = 0.24954 0.43845
#
# Static dielectric constant tensor:
#      x y z
#    x 1.881510 0.000000 -0.070110 
#    y 0.000000 1.949400 0.000000 
#    z -0.070110 0.000000 1.936820 
# 
# From -- ./inp_files/33353.got.cif
#   From: 2010.05.17/outbox.cif.g08.bks.cpg/sg9_17_cif.got.tgz:33353.got - 2010.06.03 20:04:27.
