data_PCOD9137081
_publ_section_title
;
Structure prediction by ZEFSAII (Michael W. Deem and Ramdas Pophale) SiO2 
 PCOD9137081
Probable space group: C C
;
_chemical_formula_sum "Si O2"
_cell_formula_units_Z 32
_cell_length_a 10.571901
_cell_length_b 10.946801
_cell_length_c 13.756899
_cell_angle_alpha 90.000000
_cell_angle_beta 91.810703
_cell_angle_gamma 90.000000
_cell_volume 1591.270279
_symmetry_space_group_name_H-M "C C"
_symmetry_group_IT_number 9
_symmetry_cell_setting 'monoclinic'
loop_
_space_group_symop_operation_xyz
x,y,z
x,-y,1/2+z
1/2+x,1/2+y,z
1/2+x,1/2-y,1/2+z
loop_
_atom_site_type_symbol
_atom_site_label
_atom_site_fract_x
_atom_site_fract_y
_atom_site_fract_z
Si Si1 0.471210 0.533192 0.736010
Si Si2 0.867625 0.276680 0.661038
Si Si3 0.632145 0.663068 0.908027
Si Si4 0.956993 0.535545 0.307965
Si Si5 0.865172 0.476727 0.507063
Si Si6 0.575773 0.315465 0.618808
Si Si7 0.339843 0.836759 0.172603
Si Si8 0.723114 0.123724 0.277552
O O1 0.422097 0.641996 0.666194
O O2 0.553273 0.594703 0.823068
O O3 0.555497 0.443883 0.672285
O O4 0.351157 0.456400 0.775915
O O5 0.918470 0.370414 0.579652
O O6 0.718297 0.273223 0.639600
O O7 0.898512 0.338628 0.765771
O O8 0.744991 0.578972 0.949725
O O9 0.692846 0.789592 0.869846
O O10 0.550173 0.682377 0.003101
O O11 0.099589 0.538136 0.268748
O O12 0.956885 0.521529 0.423846
O O13 0.866639 0.431766 0.260071
O O14 0.817813 0.584399 0.576131
O O15 0.474512 0.227279 0.663414
O O16 0.241248 0.729646 0.195799
#
# Coordination Sequence:
#
# PCOD9137081 Si02
#       8
#     4   4   4   4   4   4   4   4
#     4  11  24  43  66  96 131 169 214 267 320 379
#     4  10  22  39  68  93 128 170 215 264 321 375
#     4  11  22  40  65  92 129 168 213 264 316 381
#     4  11  20  39  67  89 131 170 210 263 319 377
#     4  10  22  38  68  95 125 176 212 263 322 383
#     4  10  23  41  64  94 130 170 213 268 316 381
#     4  10  22  40  61  94 127 166 216 262 318 376
#     4  11  23  40  67  91 129 169 207 263 318 378
#
# _framework density 20.109719999999999
#
# number of rings (size 3 to 8) (size 9 to 14) (size 15 to 20)
#    0.000    1.500    2.500    2.250    3.500    2.000 
#    0.000    6.250    8.250    0.000    0.000    0.000 
#    0.000    0.000    0.000    0.000    0.000    0.000 
#
# Total GULP energy -89274.128294 kJ/mol
# GULP energy per Si atom -5579.633018 kJ/mol
# Density = 2.006395 g / cm^3
# Si number density = 20.109720 Si / 1000 Ang^3
#
#
#
# Elastic Constant Matrix: (Units=GPa)
#
#
# Indices 1 2 3 4 5 6 
#
# 1 55.6368 11.8400 17.1249 0.0000 6.9637 0.0000
# 2 11.8400 84.1190 31.3437 0.0000 11.0698 0.0000
# 3 17.1249 31.3437 97.6143 0.0000 -1.6838 0.0000
# 4 0.0000 0.0000 0.0000 11.9802 0.0000 -0.1873
# 5 6.9637 11.0698 -1.6838 0.0000 25.8792 0.0000
# 6 0.0000 0.0000 0.0000 -0.1873 0.0000 27.7462
#
#
#
# Elastic Compliance Matrix: (Units=1/GPa)
#
#
# Indices 1 2 3 4 5 6 
#
# 1 0.019819 -0.000887 -0.003281 0.000000 -0.005167 0.000000
# 2 -0.000887 0.014566 -0.004630 0.000000 -0.006293 0.000000
# 3 -0.003281 -0.004630 0.012370 0.000000 0.003668 0.000000
# 4 0.000000 0.000000 0.000000 0.083480 0.000000 0.000564
# 5 -0.005167 -0.006293 0.003668 0.000000 0.042962 0.000000
# 6 0.000000 0.000000 0.000000 0.000564 0.000000 0.036045
#
#
# Mechanical properties :
#
#
# Convention : Reuss Voigt Hill
#
# Bulk Modulus (GPa) = 34.29520 39.77639 37.03580
# Shear Modulus (GPa) = 21.13645 24.92522 23.03083
#
# Velocity S-wave (km/s) = 3.24552 3.52442 3.38784
# Velocity P-wave (km/s) = 5.57993 6.03197 5.81035
#
# Compressibility (1/GPa) = 0.02915860
#
# Stress axis : x y z
#
# Youngs Moduli (GPa) = 50.45619 68.65222 80.84040
#
# Poissons Ratio (x) = 0.06089 0.26526
# Poissons Ratio (y) = 0.04475 0.37430
# Poissons Ratio (z) = 0.16556 0.31787
#
# Static dielectric constant tensor:
#      x y z
#    x 1.717580 0.000000 -0.026920 
#    y 0.000000 1.732310 0.000000 
#    z -0.026920 0.000000 1.738050 
# 
# From -- ./inp_files/16218.got.cif
#   From: 2010.05.17/outbox.cif.g08.bks.cpg/sg9_9_cif.got.tgz:16218.got - 2010.06.03 20:04:27.
