data_PCOD9137332
_publ_section_title
;
Structure prediction by ZEFSAII (Michael W. Deem and Ramdas Pophale) SiO2 
 PCOD9137332
Probable space group: C C
;
_chemical_formula_sum "Si O2"
_cell_formula_units_Z 20
_cell_length_a 25.694301
_cell_length_b 4.855032
_cell_length_c 15.815778
_cell_angle_alpha 90.000000
_cell_angle_beta 155.691395
_cell_angle_gamma 90.000000
_cell_volume 812.173632
_symmetry_space_group_name_H-M "C C"
_symmetry_group_IT_number 9
_symmetry_cell_setting 'monoclinic'
loop_
_space_group_symop_operation_xyz
x,y,z
x,-y,1/2+z
1/2+x,1/2+y,z
1/2+x,1/2-y,1/2+z
loop_
_atom_site_type_symbol
_atom_site_label
_atom_site_fract_x
_atom_site_fract_y
_atom_site_fract_z
Si Si1 0.822410 0.472516 0.455740
Si Si2 0.560623 0.291464 0.885158
Si Si3 0.232391 0.077968 0.493578
Si Si4 0.893482 0.922590 0.272126
Si Si5 0.802104 0.025057 0.813908
O O1 0.790516 0.665090 0.329109
O O2 0.839261 0.165245 0.447936
O O3 0.850211 0.392216 0.700059
O O4 0.948856 0.601240 0.683070
O O5 0.620885 0.455124 0.895247
O O6 0.505978 0.485029 0.878228
O O7 0.670620 0.099443 0.086004
O O8 0.217916 0.996005 0.374715
O O9 0.275470 0.395292 0.562454
O O10 0.899463 0.990468 0.380124
#
# Coordination Sequence:
#
# PCOD9137332 Si02
#       5
#     4   4   4   4   4
#     4  11  24  41  65  98 129 166 219 261 312 388
#     4  10  24  44  68  90 134 176 202 270 328 358
#     4  10  22  41  65  94 127 167 215 259 314 385
#     4  10  22  41  65  94 127 167 215 259 314 385
#     4  11  24  41  65  98 129 166 219 261 312 388
#
# _framework density 24.625278000000002
#
# number of rings (size 3 to 8) (size 9 to 14) (size 15 to 20)
#    0.000    1.600    0.000    4.800    0.000   17.600 
#    0.000    0.000    0.000    0.000    0.000    0.000 
#    0.000    0.000    0.000    0.000    0.000    0.000 
#
# Total GULP energy -56007.556806 kJ/mol
# GULP energy per Si atom -5600.755681 kJ/mol
# Density = 2.456923 g / cm^3
# Si number density = 24.625278 Si / 1000 Ang^3
#
#
#
# Elastic Constant Matrix: (Units=GPa)
#
#
# Indices 1 2 3 4 5 6 
#
# 1 227.6524 11.8469 26.4311 0.0001 -4.2231 0.0001
# 2 11.8469 71.7415 3.6780 0.0005 2.7228 0.0004
# 3 26.4311 3.6780 78.3440 0.0001 13.4619 0.0002
# 4 0.0001 0.0005 0.0001 44.1635 0.0001 -10.9769
# 5 -4.2231 2.7228 13.4619 0.0001 38.5204 0.0000
# 6 0.0001 0.0004 0.0002 -10.9769 0.0000 35.0439
#
#
#
# Elastic Compliance Matrix: (Units=1/GPa)
#
#
# Indices 1 2 3 4 5 6 
#
# 1 0.004654 -0.000724 -0.001737 0.000000 0.001168 0.000000
# 2 -0.000724 0.014109 -0.000248 0.000000 -0.000990 0.000000
# 3 -0.001737 -0.000248 0.014247 0.000000 -0.005152 0.000000
# 4 0.000000 0.000000 0.000000 0.024555 0.000000 0.007691
# 5 0.001168 -0.000990 -0.005152 0.000000 0.027959 0.000000
# 6 0.000000 0.000000 0.000000 0.007691 0.000000 0.030945
#
#
# Mechanical properties :
#
#
# Convention : Reuss Voigt Hill
#
# Bulk Modulus (GPa) = 36.24215 51.29442 43.76828
# Shear Modulus (GPa) = 38.14389 45.93101 42.03745
#
# Velocity S-wave (km/s) = 3.93997 4.32348 4.13617
# Velocity P-wave (km/s) = 5.95376 6.76746 6.37361
#
# Compressibility (1/GPa) = 0.02759219
#
# Stress axis : x y z
#
# Youngs Moduli (GPa) = 214.88525 70.87808 70.18992
#
# Poissons Ratio (x) = 0.05130 0.12191
# Poissons Ratio (y) = 0.15553 0.01741
# Poissons Ratio (z) = 0.37321 0.01758
#
# Static dielectric constant tensor:
#      x y z
#    x 1.968840 0.000000 -0.010710 
#    y 0.000000 1.869710 0.000000 
#    z -0.010710 0.000000 1.978280 
# 
# From -- ./inp_files/27863.got.cif
#   From: 2010.05.17/outbox.cif.g08.bks.cpg/sg9_14_cif.got.tgz:27863.got - 2010.06.03 20:04:27.
