data_PCOD9137159
_publ_section_title
;
Structure prediction by ZEFSAII (Michael W. Deem and Ramdas Pophale) SiO2 
 PCOD9137159
Probable space group: C C
;
_chemical_formula_sum "Si O2"
_cell_formula_units_Z 24
_cell_length_a 7.209088
_cell_length_b 13.913312
_cell_length_c 9.899831
_cell_angle_alpha 90.000000
_cell_angle_beta 70.736289
_cell_angle_gamma 90.000000
_cell_volume 937.379112
_symmetry_space_group_name_H-M "C C"
_symmetry_group_IT_number 9
_symmetry_cell_setting 'monoclinic'
loop_
_space_group_symop_operation_xyz
x,y,z
x,-y,1/2+z
1/2+x,1/2+y,z
1/2+x,1/2-y,1/2+z
loop_
_atom_site_type_symbol
_atom_site_label
_atom_site_fract_x
_atom_site_fract_y
_atom_site_fract_z
Si Si1 0.904120 0.516278 0.556650
Si Si2 0.535139 0.473301 0.307381
Si Si3 0.410291 0.197142 0.385543
Si Si4 0.786695 0.770576 0.686576
Si Si5 0.689149 0.331939 0.678962
Si Si6 0.793773 0.986525 0.622350
O O1 0.745105 0.560469 0.700507
O O2 0.907195 0.583227 0.424821
O O3 0.827910 0.405737 0.558304
O O4 0.114799 0.523748 0.576422
O O5 0.559691 0.589010 0.291114
O O6 0.466331 0.459044 0.475204
O O7 0.375714 0.451498 0.227586
O O8 0.617438 0.255515 0.334563
O O9 0.271093 0.237295 0.536289
O O10 0.325480 0.214786 0.257965
O O11 0.734129 0.883620 0.693032
O O12 0.019205 0.762766 0.663547
#
# Coordination Sequence:
#
# PCOD9137159 Si02
#       6
#     4   4   4   4   4   4
#     4  10  22  39  71  92 131 171 233 280 328 393
#     4   9  21  35  66  97 126 168 228 280 335 390
#     4  12  25  47  66 103 135 183 221 284 340 417
#     4  11  26  45  65  97 146 171 227 272 353 409
#     4   9  22  43  66  96 133 176 222 278 333 405
#     4  11  20  41  64  97 131 175 227 286 331 408
#
# _framework density 25.603300999999998
#
# number of rings (size 3 to 8) (size 9 to 14) (size 15 to 20)
#    1.000    0.667    1.667    3.000    2.333    1.333 
#    3.000    0.000    0.000    0.000    0.000    0.000 
#    0.000    0.000    0.000    0.000    0.000    0.000 
#
# Total GULP energy -66897.256577 kJ/mol
# GULP energy per Si atom -5574.771381 kJ/mol
# Density = 2.554503 g / cm^3
# Si number density = 25.603301 Si / 1000 Ang^3
#
#
#
# Elastic Constant Matrix: (Units=GPa)
#
#
# Indices 1 2 3 4 5 6 
#
# 1 121.8314 7.0419 19.2175 0.0000 18.9475 0.0000
# 2 7.0419 38.8954 7.1826 0.0000 -3.6127 0.0000
# 3 19.2175 7.1826 109.0774 0.0000 -17.0359 0.0000
# 4 0.0000 0.0000 0.0000 31.8262 0.0000 0.2158
# 5 18.9475 -3.6127 -17.0359 0.0000 39.4835 0.0000
# 6 0.0000 0.0000 0.0000 0.2158 0.0000 8.1369
#
#
#
# Elastic Compliance Matrix: (Units=1/GPa)
#
#
# Indices 1 2 3 4 5 6 
#
# 1 0.009617 -0.001825 -0.002489 0.000000 -0.005856 0.000000
# 2 -0.001825 0.026488 -0.000973 0.000000 0.002880 0.000000
# 3 -0.002489 -0.000973 0.010554 0.000000 0.005659 0.000000
# 4 0.000000 0.000000 0.000000 0.031426 0.000000 -0.000834
# 5 -0.005856 0.002880 0.005659 0.000000 0.030842 0.000000
# 6 0.000000 0.000000 0.000000 -0.000834 0.000000 0.122919
#
#
# Mechanical properties :
#
#
# Convention : Reuss Voigt Hill
#
# Bulk Modulus (GPa) = 27.71250 37.40980 32.56115
# Shear Modulus (GPa) = 19.65036 31.64680 25.64858
#
# Velocity S-wave (km/s) = 2.77337 3.51956 3.16851
# Velocity P-wave (km/s) = 4.59377 5.58206 5.11186
#
# Compressibility (1/GPa) = 0.03608480
#
# Stress axis : x y z
#
# Youngs Moduli (GPa) = 103.98425 37.75353 94.74940
#
# Poissons Ratio (x) = 0.06892 0.23580
# Poissons Ratio (y) = 0.18982 0.09217
# Poissons Ratio (z) = 0.25878 0.03673
#
# Static dielectric constant tensor:
#      x y z
#    x 2.138390 0.000000 0.027600 
#    y 0.000000 2.127980 0.000000 
#    z 0.027600 0.000000 1.923350 
# 
# From -- ./inp_files/5207.got.cif
#   From: 2010.05.17/outbox.cif.g08.bks.cpg/sg9_3_cif.got.tgz:5207.got - 2010.06.03 20:04:27.
