data_PCOD9137971
_publ_section_title
;
Structure prediction by ZEFSAII (Michael W. Deem and Ramdas Pophale) SiO2 
 PCOD9137971
Probable space group: C C
;
_chemical_formula_sum "Si O2"
_cell_formula_units_Z 32
_cell_length_a 10.698680
_cell_length_b 10.970033
_cell_length_c 17.875819
_cell_angle_alpha 90.000000
_cell_angle_beta 37.092325
_cell_angle_gamma 90.000000
_cell_volume 1265.302109
_symmetry_space_group_name_H-M "C C"
_symmetry_group_IT_number 9
_symmetry_cell_setting 'monoclinic'
loop_
_space_group_symop_operation_xyz
x,y,z
x,-y,1/2+z
1/2+x,1/2+y,z
1/2+x,1/2-y,1/2+z
loop_
_atom_site_type_symbol
_atom_site_label
_atom_site_fract_x
_atom_site_fract_y
_atom_site_fract_z
Si Si1 0.409280 0.465106 0.589080
Si Si2 0.618724 0.844976 0.837663
Si Si3 0.860229 0.982775 0.852610
Si Si4 0.141068 0.111210 0.600282
Si Si5 0.051061 0.693781 0.024299
Si Si6 0.161980 0.693102 0.690356
Si Si7 0.130967 0.837253 0.841271
Si Si8 0.747198 0.398796 0.313076
O O1 0.203787 0.410214 0.723171
O O2 0.563821 0.506732 0.580404
O O3 0.322076 0.587231 0.593639
O O4 0.555391 0.395021 0.463174
O O5 0.665741 0.704361 0.796476
O O6 0.763305 0.893737 0.836233
O O7 0.387085 0.874069 0.974653
O O8 0.676384 0.070544 0.967245
O O9 0.032459 0.066788 0.728283
O O10 0.948050 0.903110 0.879009
O O11 0.056030 0.236610 0.601907
O O12 0.156201 0.781655 0.912365
O O13 0.810483 0.687041 0.109956
O O14 0.128693 0.709112 0.794785
O O15 0.956298 0.657370 0.746807
O O16 0.274004 0.960716 0.776399
#
# Coordination Sequence:
#
# PCOD9137971 Si02
#       8
#     4   4   4   4   4   4   4   4
#     4  10  23  47  69 102 147 199 244 311 386 445
#     4  11  24  43  72 103 147 201 247 311 379 457
#     4  11  26  47  73 112 154 196 255 321 382 452
#     4  10  22  46  68 101 146 196 245 309 387 442
#     4  11  24  47  75 105 150 203 249 314 385 454
#     4  11  25  48  73 106 149 198 249 315 381 448
#     4  12  25  48  76 114 148 197 261 309 385 455
#     4  12  25  46  72 109 149 194 256 314 379 455
#
# _framework density 25.290405
#
# number of rings (size 3 to 8) (size 9 to 14) (size 15 to 20)
#    0.000    1.000    3.750    3.750    1.750    4.000 
#    4.500    0.000    0.000    0.000    0.000    0.000 
#    0.000    0.000    0.000    0.000    0.000    0.000 
#
# Total GULP energy -89188.328791 kJ/mol
# GULP energy per Si atom -5574.270549 kJ/mol
# Density = 2.523284 g / cm^3
# Si number density = 25.290405 Si / 1000 Ang^3
#
#
#
# Elastic Constant Matrix: (Units=GPa)
#
#
# Indices 1 2 3 4 5 6 
#
# 1 91.2605 16.6825 42.1453 0.0000 -15.4992 0.0000
# 2 16.6825 59.0338 9.4538 -0.0001 -12.2589 0.0000
# 3 42.1453 9.4538 79.4951 -0.0002 -32.1901 0.0001
# 4 0.0000 -0.0001 -0.0002 23.6270 0.0000 6.0750
# 5 -15.4992 -12.2589 -32.1901 0.0000 45.2296 0.0000
# 6 0.0000 0.0000 0.0001 6.0750 0.0000 20.2301
#
#
#
# Elastic Compliance Matrix: (Units=1/GPa)
#
#
# Indices 1 2 3 4 5 6 
#
# 1 0.015101 -0.003275 -0.008261 0.000000 -0.001593 0.000000
# 2 -0.003275 0.018663 0.001560 0.000000 0.005047 0.000000
# 3 -0.008261 0.001560 0.022195 0.000000 0.013388 0.000000
# 4 0.000000 0.000000 0.000000 0.045866 0.000000 -0.013773
# 5 -0.001593 0.005047 0.013388 0.000000 0.032460 0.000000
# 6 0.000000 0.000000 0.000000 -0.013773 0.000000 0.053567
#
#
# Mechanical properties :
#
#
# Convention : Reuss Voigt Hill
#
# Bulk Modulus (GPa) = 27.77243 40.70584 34.23914
# Shear Modulus (GPa) = 22.74722 28.58452 25.66587
#
# Velocity S-wave (km/s) = 3.00232 3.36557 3.18912
# Velocity P-wave (km/s) = 4.79832 5.58865 5.20850
#
# Compressibility (1/GPa) = 0.03600693
#
# Stress axis : x y z
#
# Youngs Moduli (GPa) = 66.22036 53.58171 45.05519
#
# Poissons Ratio (x) = 0.17549 0.37222
# Poissons Ratio (y) = 0.21688 -0.07031
# Poissons Ratio (z) = 0.54707 -0.08361
#
# Static dielectric constant tensor:
#      x y z
#    x 1.994690 0.000000 0.018670 
#    y 0.000000 2.041290 0.000000 
#    z 0.018670 0.000000 2.233020 
# 
# From -- ./inp_files/33364.got.cif
#   From: 2010.05.17/outbox.cif.g08.bks.cpg/sg9_17_cif.got.tgz:33364.got - 2010.06.03 20:04:27.
