data_PCOD9137220
_publ_section_title
;
Structure prediction by ZEFSAII (Michael W. Deem and Ramdas Pophale) SiO2 
 PCOD9137220
Probable space group: C C
;
_chemical_formula_sum "Si O2"
_cell_formula_units_Z 32
_cell_length_a 18.916221
_cell_length_b 4.897596
_cell_length_c 19.517998
_cell_angle_alpha 90.000000
_cell_angle_beta 137.801910
_cell_angle_gamma 90.000000
_cell_volume 1214.577689
_symmetry_space_group_name_H-M "C C"
_symmetry_group_IT_number 9
_symmetry_cell_setting 'monoclinic'
loop_
_space_group_symop_operation_xyz
x,y,z
x,-y,1/2+z
1/2+x,1/2+y,z
1/2+x,1/2-y,1/2+z
loop_
_atom_site_type_symbol
_atom_site_label
_atom_site_fract_x
_atom_site_fract_y
_atom_site_fract_z
Si Si1 0.824730 0.032212 0.216100
Si Si2 0.663173 0.958159 0.855673
Si Si3 0.027433 0.060123 0.286482
Si Si4 0.902771 0.458162 0.445914
Si Si5 0.741213 0.532212 0.085486
Si Si6 0.204181 0.233836 0.247696
Si Si7 0.361762 0.733834 0.053891
Si Si8 0.538510 0.439880 0.515105
O O1 0.763621 0.849412 0.115264
O O2 0.774868 0.925756 0.249643
O O3 0.946391 0.980075 0.288009
O O4 0.802322 0.349412 0.186323
O O5 0.585584 0.156703 0.842140
O O6 0.659169 0.080228 0.776175
O O7 0.480360 0.156707 0.459447
O O8 0.782390 0.010040 0.965293
O O9 0.951635 0.105098 0.165934
O O10 0.114848 0.837921 0.330728
O O11 0.951096 0.162083 0.470860
O O12 0.906775 0.580231 0.525412
O O13 0.791076 0.425755 0.051943
O O14 0.619553 0.480072 0.013578
O O15 0.283554 0.010042 0.336294
O O16 0.114309 0.105098 0.135653
#
# Coordination Sequence:
#
# PCOD9137220 Si02
#       8
#     4   4   4   4   4   4   4   4
#     4  10  22  40  65  94 130 174 212 263 325 376
#     4  11  26  43  69  99 126 174 218 262 328 382
#     4  11  24  43  67  96 131 171 216 265 323 385
#     4  11  26  43  69  99 126 174 218 262 328 382
#     4  10  22  40  65  94 130 174 212 263 325 376
#     4  10  25  45  67  97 136 166 216 274 316 383
#     4  10  25  45  67  97 136 166 216 274 316 383
#     4  11  24  43  67  96 131 171 216 265 323 385
#
# _framework density 26.346608
#
# number of rings (size 3 to 8) (size 9 to 14) (size 15 to 20)
#    0.000    1.500    0.000    3.750    0.000   22.000 
#    0.000    0.000    0.000    0.000    0.000    0.000 
#    0.000    0.000    0.000    0.000    0.000    0.000 
#
# Total GULP energy -89823.796958 kJ/mol
# GULP energy per Si atom -5613.987310 kJ/mol
# Density = 2.628664 g / cm^3
# Si number density = 26.346608 Si / 1000 Ang^3
#
#
#
# Elastic Constant Matrix: (Units=GPa)
#
#
# Indices 1 2 3 4 5 6 
#
# 1 138.1266 15.4595 -15.5698 -0.0001 27.7825 -0.0008
# 2 15.4595 110.4089 32.4288 0.0003 8.6668 -0.0020
# 3 -15.5698 32.4288 121.5129 -0.0001 20.9742 0.0004
# 4 -0.0001 0.0003 -0.0001 42.3073 0.0000 11.8450
# 5 27.7825 8.6668 20.9742 0.0000 34.4324 -0.0003
# 6 -0.0008 -0.0020 0.0004 11.8450 -0.0003 39.8606
#
#
#
# Elastic Compliance Matrix: (Units=1/GPa)
#
#
# Indices 1 2 3 4 5 6 
#
# 1 0.009681 -0.001582 0.003288 0.000000 -0.009416 0.000000
# 2 -0.001582 0.010116 -0.002999 0.000000 0.000557 0.000001
# 3 0.003288 -0.002999 0.010928 0.000000 -0.008555 0.000000
# 4 0.000000 0.000000 0.000000 0.025782 0.000000 -0.007661
# 5 -0.009416 0.000557 -0.008555 0.000000 0.041711 0.000000
# 6 0.000000 0.000001 0.000000 -0.007661 0.000000 0.027364
#
#
# Mechanical properties :
#
#
# Convention : Reuss Voigt Hill
#
# Bulk Modulus (GPa) = 35.53694 48.29838 41.91766
# Shear Modulus (GPa) = 36.35125 45.83540 41.09333
#
# Velocity S-wave (km/s) = 3.71850 4.17551 3.95361
# Velocity P-wave (km/s) = 5.65278 6.45121 6.06515
#
# Compressibility (1/GPa) = 0.02813974
#
# Stress axis : x y z
#
# Youngs Moduli (GPa) = 103.29042 98.85553 91.50995
#
# Poissons Ratio (x) = 0.15641 -0.30089
# Poissons Ratio (y) = 0.16343 0.27439
# Poissons Ratio (z) = -0.33963 0.29642
#
# Static dielectric constant tensor:
#      x y z
#    x 2.055510 0.000000 -0.058530 
#    y 0.000000 1.967220 0.000000 
#    z -0.058530 0.000000 2.081380 
# 
# From -- ./inp_files/35931.got.cif
#   From: 2010.05.17/outbox.cif.g08.bks.cpg/sg9_18_cif.got.tgz:35931.got - 2010.06.03 20:04:27.
