data_PCOD9137991
_publ_section_title
;
Structure prediction by ZEFSAII (Michael W. Deem and Ramdas Pophale) SiO2 
 PCOD9137991
Probable space group: C C
;
_chemical_formula_sum "Si O2"
_cell_formula_units_Z 32
_cell_length_a 8.281632
_cell_length_b 10.830797
_cell_length_c 16.012448
_cell_angle_alpha 90.000000
_cell_angle_beta 96.547285
_cell_angle_gamma 90.000000
_cell_volume 1426.896169
_symmetry_space_group_name_H-M "C C"
_symmetry_group_IT_number 9
_symmetry_cell_setting 'monoclinic'
loop_
_space_group_symop_operation_xyz
x,y,z
x,-y,1/2+z
1/2+x,1/2+y,z
1/2+x,1/2-y,1/2+z
loop_
_atom_site_type_symbol
_atom_site_label
_atom_site_fract_x
_atom_site_fract_y
_atom_site_fract_z
Si Si1 0.196270 0.589608 0.477830
Si Si2 0.623075 0.962244 0.632002
Si Si3 0.779565 0.257990 0.243518
Si Si4 0.293444 0.028044 0.188870
Si Si5 0.223211 0.726919 0.639988
Si Si6 0.847148 0.628421 0.376723
Si Si7 0.465297 0.659255 0.790002
Si Si8 0.986160 0.105073 0.362800
O O1 0.194838 0.476022 0.543704
O O2 0.222394 0.706508 0.541229
O O3 0.343276 0.587839 0.421757
O O4 0.012544 0.593794 0.432672
O O5 0.721995 0.861925 0.689369
O O6 0.432546 0.937755 0.630222
O O7 0.630209 0.104085 0.666930
O O8 0.764899 0.382237 0.187578
O O9 0.643490 0.282521 0.306230
O O10 0.942374 0.223598 0.303129
O O11 0.163857 0.136967 0.162108
O O12 0.348587 0.057751 0.287192
O O13 0.393610 0.699658 0.696561
O O14 0.857760 0.772664 0.352573
O O15 0.670976 0.606881 0.406934
O O16 0.475592 0.515209 0.803417
#
# Coordination Sequence:
#
# PCOD9137991 Si02
#       8
#     4   4   4   4   4   4   4   4
#     4  10  24  49  69 104 153 194 232 300 366 440
#     4  10  22  46  70  99 148 187 228 306 357 422
#     4  12  23  42  78 109 133 189 252 297 354 428
#     4  11  23  43  75 104 134 191 249 296 351 429
#     4   9  22  45  71  98 147 188 235 300 357 423
#     4  11  24  45  73 108 137 193 243 295 360 429
#     4  11  22  45  70 105 142 185 253 294 348 440
#     4  12  24  45  72 107 146 189 234 304 367 425
#
# _framework density 22.426300000000001
#
# number of rings (size 3 to 8) (size 9 to 14) (size 15 to 20)
#    0.750    0.500    6.250    0.000    3.500    0.000 
#   11.250    0.000    0.000    0.000    0.000    0.000 
#    0.000    0.000    0.000    0.000    0.000    0.000 
#
# Total GULP energy -89120.671948 kJ/mol
# GULP energy per Si atom -5570.041997 kJ/mol
# Density = 2.237526 g / cm^3
# Si number density = 22.426300 Si / 1000 Ang^3
#
#
#
# Elastic Constant Matrix: (Units=GPa)
#
#
# Indices 1 2 3 4 5 6 
#
# 1 131.9097 26.0339 43.1123 0.0000 -11.5140 0.0000
# 2 26.0339 138.5425 32.2382 0.0000 -3.6543 0.0000
# 3 43.1123 32.2382 72.6544 0.0000 -10.0380 0.0000
# 4 0.0000 0.0000 0.0000 21.1776 0.0000 -9.0914
# 5 -11.5140 -3.6543 -10.0380 0.0000 18.9481 0.0000
# 6 0.0000 0.0000 0.0000 -9.0914 0.0000 25.3842
#
#
#
# Elastic Compliance Matrix: (Units=1/GPa)
#
#
# Indices 1 2 3 4 5 6 
#
# 1 0.009601 -0.000553 -0.005028 0.000000 0.003064 0.000000
# 2 -0.000553 0.008083 -0.003333 0.000000 -0.000543 0.000000
# 3 -0.005028 -0.003333 0.019115 0.000000 0.006428 0.000000
# 4 0.000000 0.000000 0.000000 0.055799 0.000000 0.019984
# 5 0.003064 -0.000543 0.006428 0.000000 0.057938 0.000000
# 6 0.000000 0.000000 0.000000 0.019984 0.000000 0.046552
#
#
# Mechanical properties :
#
#
# Convention : Reuss Voigt Hill
#
# Bulk Modulus (GPa) = 52.71790 60.65278 56.68534
# Shear Modulus (GPa) = 22.59980 29.21680 25.90830
#
# Velocity S-wave (km/s) = 3.17793 3.61334 3.40261
# Velocity P-wave (km/s) = 6.08472 6.67176 6.38499
#
# Compressibility (1/GPa) = 0.01896889
#
# Stress axis : x y z
#
# Youngs Moduli (GPa) = 104.15616 123.71145 52.31555
#
# Poissons Ratio (x) = 0.06845 0.26306
# Poissons Ratio (y) = 0.05763 0.17439
# Poissons Ratio (z) = 0.52373 0.41239
#
# Static dielectric constant tensor:
#      x y z
#    x 1.901250 0.000000 -0.018370 
#    y 0.000000 1.894890 0.000000 
#    z -0.018370 0.000000 1.827090 
# 
# From -- ./inp_files/29176.got.cif
#   From: 2010.05.17/outbox.cif.g08.bks.cpg/sg9_15_cif.got.tgz:29176.got - 2010.06.03 20:04:27.
