data_PCOD9137438
_publ_section_title
;
Structure prediction by ZEFSAII (Michael W. Deem and Ramdas Pophale) SiO2 
 PCOD9137438
Probable space group: C C
;
_chemical_formula_sum "Si O2"
_cell_formula_units_Z 28
_cell_length_a 5.106507
_cell_length_b 19.156630
_cell_length_c 12.578048
_cell_angle_alpha 90.000000
_cell_angle_beta 71.182175
_cell_angle_gamma 90.000000
_cell_volume 1164.660566
_symmetry_space_group_name_H-M "C C"
_symmetry_group_IT_number 9
_symmetry_cell_setting 'monoclinic'
loop_
_space_group_symop_operation_xyz
x,y,z
x,-y,1/2+z
1/2+x,1/2+y,z
1/2+x,1/2-y,1/2+z
loop_
_atom_site_type_symbol
_atom_site_label
_atom_site_fract_x
_atom_site_fract_y
_atom_site_fract_z
Si Si1 0.819220 0.544267 0.262620
Si Si2 0.679299 0.137448 0.613364
Si Si3 0.577846 0.402528 0.237230
Si Si4 0.521413 0.299200 0.435782
Si Si5 0.009432 0.763928 0.770829
Si Si6 0.730049 0.659413 0.420732
Si Si7 0.879227 0.111482 0.159256
O O1 0.681631 0.468127 0.292146
O O2 0.836528 0.582172 0.376613
O O3 0.621759 0.574748 0.194510
O O4 0.127458 0.558232 0.179631
O O5 0.363644 0.114016 0.634368
O O6 0.640031 0.213975 0.667900
O O7 0.830105 0.091701 0.685481
O O8 0.910065 0.144548 0.493439
O O9 0.484927 0.340468 0.328628
O O10 0.843071 0.279261 0.380833
O O11 0.360913 0.224669 0.468522
O O12 0.463434 0.352679 0.537648
O O13 0.813318 0.820667 0.741355
O O14 0.233196 0.807502 0.802918
#
# Coordination Sequence:
#
# PCOD9137438 Si02
#       7
#     4   4   4   4   4   4   4
#     4  11  26  47  66  99 142 184 228 277 342 422
#     4  11  25  41  71  99 137 178 225 286 346 406
#     4  11  26  47  66  99 142 184 228 277 342 422
#     4  11  24  41  71 102 132 176 229 289 344 399
#     4  10  22  42  64 106 136 170 218 296 342 406
#     4  11  24  41  71 102 132 176 229 289 344 399
#     4  11  25  41  71  99 137 178 225 286 346 406
#
# _framework density 24.041340000000002
#
# number of rings (size 3 to 8) (size 9 to 14) (size 15 to 20)
#    0.000    1.143    2.857    1.714   12.000    2.286 
#    0.000    0.000    0.000    0.000    0.000    0.000 
#    0.000    0.000    0.000    0.000    0.000    0.000 
#
# Total GULP energy -78040.095646 kJ/mol
# GULP energy per Si atom -5574.292546 kJ/mol
# Density = 2.398662 g / cm^3
# Si number density = 24.041340 Si / 1000 Ang^3
#
#
#
# Elastic Constant Matrix: (Units=GPa)
#
#
# Indices 1 2 3 4 5 6 
#
# 1 126.9479 19.9972 19.2685 0.0000 -5.0249 0.0000
# 2 19.9972 109.0298 20.7748 0.0000 -2.1317 0.0000
# 3 19.2685 20.7748 51.7876 0.0000 -3.8188 0.0000
# 4 0.0000 0.0000 0.0000 23.6101 0.0000 4.0647
# 5 -5.0249 -2.1317 -3.8188 0.0000 19.1907 0.0000
# 6 0.0000 0.0000 0.0000 4.0647 0.0000 37.3665
#
#
#
# Elastic Compliance Matrix: (Units=1/GPa)
#
#
# Indices 1 2 3 4 5 6 
#
# 1 0.008502 -0.001026 -0.002634 0.000000 0.001588 0.000000
# 2 -0.001026 0.010057 -0.003643 0.000000 0.000123 0.000000
# 3 -0.002634 -0.003643 0.021993 0.000000 0.003282 0.000000
# 4 0.000000 0.000000 0.000000 0.043163 0.000000 -0.004695
# 5 0.001588 0.000123 0.003282 0.000000 0.053191 0.000000
# 6 0.000000 0.000000 0.000000 -0.004695 0.000000 0.027273
#
#
# Mechanical properties :
#
#
# Convention : Reuss Voigt Hill
#
# Bulk Modulus (GPa) = 38.54509 45.31624 41.93067
# Shear Modulus (GPa) = 26.67600 31.21511 28.94555
#
# Velocity S-wave (km/s) = 3.33466 3.60723 3.47362
# Velocity P-wave (km/s) = 5.55826 6.01994 5.79370
#
# Compressibility (1/GPa) = 0.02594364
#
# Stress axis : x y z
#
# Youngs Moduli (GPa) = 117.62469 99.43672 45.46831
#
# Poissons Ratio (x) = 0.10205 0.11978
# Poissons Ratio (y) = 0.12072 0.16566
# Poissons Ratio (z) = 0.30987 0.36228
#
# Static dielectric constant tensor:
#      x y z
#    x 1.940680 0.000000 0.037410 
#    y 0.000000 2.045290 0.000000 
#    z 0.037410 0.000000 1.966080 
# 
# From -- ./inp_files/13209.got.cif
#   From: 2010.05.17/outbox.cif.g08.bks.cpg/sg9_7_cif.got.tgz:13209.got - 2010.06.03 20:04:27.
