data_PCOD9137299
_publ_section_title
;
Structure prediction by ZEFSAII (Michael W. Deem and Ramdas Pophale) SiO2 
 PCOD9137299
Probable space group: C C
;
_chemical_formula_sum "Si O2"
_cell_formula_units_Z 32
_cell_length_a 18.656415
_cell_length_b 6.744508
_cell_length_c 12.707651
_cell_angle_alpha 90.000000
_cell_angle_beta 67.564610
_cell_angle_gamma 90.000000
_cell_volume 1477.956407
_symmetry_space_group_name_H-M "C C"
_symmetry_group_IT_number 9
_symmetry_cell_setting 'monoclinic'
loop_
_space_group_symop_operation_xyz
x,y,z
x,-y,1/2+z
1/2+x,1/2+y,z
1/2+x,1/2-y,1/2+z
loop_
_atom_site_type_symbol
_atom_site_label
_atom_site_fract_x
_atom_site_fract_y
_atom_site_fract_z
Si Si1 0.563640 0.994474 0.355590
Si Si2 0.160361 0.471078 0.610626
Si Si3 0.333450 0.460551 0.553888
Si Si4 0.354710 0.796011 0.831102
Si Si5 0.951640 0.015843 0.174136
Si Si6 0.406812 0.196648 0.886999
Si Si7 0.183295 0.789103 0.890778
Si Si8 0.109034 0.824197 0.497879
O O1 0.588281 0.068983 0.226770
O O2 0.576152 0.168074 0.431937
O O3 0.477675 0.909681 0.406059
O O4 0.624140 0.817153 0.345587
O O5 0.241804 0.453199 0.626229
O O6 0.165976 0.315347 0.512541
O O7 0.148870 0.687584 0.564351
O O8 0.350792 0.311133 0.447255
O O9 0.389370 0.420097 0.620310
O O10 0.355050 0.676491 0.495165
O O11 0.425125 0.702255 0.726089
O O12 0.273657 0.750616 0.818607
O O13 0.362002 0.026945 0.849407
O O14 0.941991 0.153478 0.281611
O O15 0.037340 0.047651 0.082273
O O16 0.166760 0.021252 0.911420
#
# Coordination Sequence:
#
# PCOD9137299 Si02
#       8
#     4   4   4   4   4   4   4   4
#     4  11  23  40  63  94 129 166 211 267 317 380
#     4  10  22  41  62  91 131 165 213 264 318 376
#     4  10  22  41  62  92 128 167 210 269 314 378
#     4  10  23  40  64  93 125 168 219 260 317 380
#     4  11  23  40  65  93 128 165 211 263 318 379
#     4  11  23  41  65  91 127 167 213 264 321 377
#     4  10  23  41  63  91 127 169 214 265 315 380
#     4  11  23  40  64  91 127 171 213 260 324 380
#
# _framework density 21.651517999999999
#
# number of rings (size 3 to 8) (size 9 to 14) (size 15 to 20)
#    0.000    1.500    1.250    3.000    1.750    7.000 
#    0.000    2.500    0.000    0.000    0.000    0.000 
#    0.000    0.000    0.000    0.000    0.000    0.000 
#
# Total GULP energy -89480.005835 kJ/mol
# GULP energy per Si atom -5592.500365 kJ/mol
# Density = 2.160224 g / cm^3
# Si number density = 21.651518 Si / 1000 Ang^3
#
#
#
# Elastic Constant Matrix: (Units=GPa)
#
#
# Indices 1 2 3 4 5 6 
#
# 1 77.0646 6.4479 -10.5633 0.0000 2.0220 0.0000
# 2 6.4479 59.9356 4.3301 0.0000 -11.3733 0.0000
# 3 -10.5633 4.3301 27.8721 0.0000 -2.5198 0.0000
# 4 0.0000 0.0000 0.0000 3.8671 0.0000 -0.2591
# 5 2.0220 -11.3733 -2.5198 0.0000 24.6464 0.0000
# 6 0.0000 0.0000 0.0000 -0.2591 0.0000 27.8254
#
#
#
# Elastic Compliance Matrix: (Units=1/GPa)
#
#
# Indices 1 2 3 4 5 6 
#
# 1 0.013954 -0.002201 0.005486 0.000000 -0.001600 0.000000
# 2 -0.002201 0.018755 -0.002977 0.000000 0.008531 0.000000
# 3 0.005486 -0.002977 0.038612 0.000000 0.002124 0.000000
# 4 0.000000 0.000000 0.000000 0.258752 0.000000 0.002410
# 5 -0.001600 0.008531 0.002124 0.000000 0.044859 0.000000
# 6 0.000000 0.000000 0.000000 0.002410 0.000000 0.035961
#
#
# Mechanical properties :
#
#
# Convention : Reuss Voigt Hill
#
# Bulk Modulus (GPa) = 13.90100 18.36687 16.13393
# Shear Modulus (GPa) = 11.51395 22.24496 16.87945
#
# Velocity S-wave (km/s) = 2.30855 3.20880 2.79516
# Velocity P-wave (km/s) = 3.67969 4.71486 4.22907
#
# Compressibility (1/GPa) = 0.07193728
#
# Stress axis : x y z
#
# Youngs Moduli (GPa) = 71.66295 53.31834 25.89890
#
# Poissons Ratio (x) = 0.11736 -0.14208
# Poissons Ratio (y) = 0.15774 0.07709
# Poissons Ratio (z) = -0.39313 0.15871
#
# Static dielectric constant tensor:
#      x y z
#    x 1.764920 0.000000 0.007300 
#    y 0.000000 1.772010 0.000000 
#    z 0.007300 0.000000 1.773970 
# 
# From -- ./inp_files/19789.got.cif
#   From: 2010.05.17/outbox.cif.g08.bks.cpg/sg9_10_cif.got.tgz:19789.got - 2010.06.03 20:04:27.
