data_PCOD9137485
_publ_section_title
;
Structure prediction by ZEFSAII (Michael W. Deem and Ramdas Pophale) SiO2 
 PCOD9137485
Probable space group: C C
;
_chemical_formula_sum "Si O2"
_cell_formula_units_Z 24
_cell_length_a 8.730317
_cell_length_b 14.805102
_cell_length_c 9.631084
_cell_angle_alpha 90.000000
_cell_angle_beta 74.956727
_cell_angle_gamma 90.000000
_cell_volume 1202.187879
_symmetry_space_group_name_H-M "C C"
_symmetry_group_IT_number 9
_symmetry_cell_setting 'monoclinic'
loop_
_space_group_symop_operation_xyz
x,y,z
x,-y,1/2+z
1/2+x,1/2+y,z
1/2+x,1/2-y,1/2+z
loop_
_atom_site_type_symbol
_atom_site_label
_atom_site_fract_x
_atom_site_fract_y
_atom_site_fract_z
Si Si1 0.350640 0.496451 0.052450
Si Si2 0.558989 0.657088 0.910514
Si Si3 0.620804 0.988156 0.357355
Si Si4 0.662322 0.576382 0.593503
Si Si5 0.408119 0.839649 0.840367
Si Si6 0.837232 0.615809 0.047808
O O1 0.247680 0.469473 0.209184
O O2 0.512677 0.441830 0.029530
O O3 0.418174 0.599348 0.018487
O O4 0.230675 0.479019 0.956714
O O5 0.609129 0.604144 0.759179
O O6 0.503110 0.753346 0.869446
O O7 0.711020 0.662922 0.975749
O O8 0.511310 0.069022 0.327742
O O9 0.506188 0.907059 0.435243
O O10 0.768430 0.646858 0.484799
O O11 0.760458 0.483572 0.589139
O O12 0.356250 0.835421 0.691434
#
# Coordination Sequence:
#
# PCOD9137485 Si02
#       6
#     4   4   4   4   4   4
#     4  11  22  41  68  98 127 172 221 259 315 396
#     4  11  25  42  64  98 133 170 214 272 331 378
#     4  11  22  40  70  97 129 170 219 261 316 399
#     4  10  22  42  67  93 130 176 215 262 322 393
#     4  11  25  41  65  97 134 169 214 274 329 380
#     4  10  22  44  66  93 129 177 215 262 321 392
#
# _framework density 19.9636
#
# number of rings (size 3 to 8) (size 9 to 14) (size 15 to 20)
#    0.000    1.333    3.333    3.000    7.000    1.333 
#    0.000    1.667    0.000    0.000    0.000    0.000 
#    0.000    0.000    0.000    0.000    0.000    0.000 
#
# Total GULP energy -66979.198677 kJ/mol
# GULP energy per Si atom -5581.599890 kJ/mol
# Density = 1.991816 g / cm^3
# Si number density = 19.963600 Si / 1000 Ang^3
#
#
#
# Elastic Constant Matrix: (Units=GPa)
#
#
# Indices 1 2 3 4 5 6 
#
# 1 98.1287 21.9107 41.9833 0.0000 18.2324 0.0000
# 2 21.9107 53.5408 25.7249 0.0000 1.8248 0.0000
# 3 41.9833 25.7249 105.4347 0.0000 15.6644 0.0000
# 4 0.0000 0.0000 0.0000 14.2151 0.0000 2.6645
# 5 18.2324 1.8248 15.6644 0.0000 56.3467 0.0000
# 6 0.0000 0.0000 0.0000 2.6645 0.0000 7.3076
#
#
#
# Elastic Compliance Matrix: (Units=1/GPa)
#
#
# Indices 1 2 3 4 5 6 
#
# 1 0.013221 -0.003393 -0.003982 0.000000 -0.003061 0.000000
# 2 -0.003393 0.022061 -0.004265 0.000000 0.001569 0.000000
# 3 -0.003982 -0.004265 0.012411 0.000000 -0.002024 0.000000
# 4 0.000000 0.000000 0.000000 0.075509 0.000000 -0.027532
# 5 -0.003061 0.001569 -0.002024 0.000000 0.019250 0.000000
# 6 0.000000 0.000000 0.000000 -0.027532 0.000000 0.146882
#
#
# Mechanical properties :
#
#
# Convention : Reuss Voigt Hill
#
# Bulk Modulus (GPa) = 40.95933 48.48245 44.72089
# Shear Modulus (GPa) = 15.58842 26.73958 21.16400
#
# Velocity S-wave (km/s) = 2.79739 3.66377 3.25950
# Velocity P-wave (km/s) = 5.56735 6.49891 6.05108
#
# Compressibility (1/GPa) = 0.02441446
#
# Stress axis : x y z
#
# Youngs Moduli (GPa) = 75.63978 45.32787 80.57180
#
# Poissons Ratio (x) = 0.15379 0.32081
# Poissons Ratio (y) = 0.25663 0.34363
# Poissons Ratio (z) = 0.30118 0.19332
#
# Static dielectric constant tensor:
#      x y z
#    x 1.684860 0.000000 -0.040390 
#    y 0.000000 1.693160 0.000000 
#    z -0.040390 0.000000 1.661180 
# 
# From -- ./inp_files/4897.got.cif
#   From: 2010.05.17/outbox.cif.g08.bks.cpg/sg9_3_cif.got.tgz:4897.got - 2010.06.03 20:04:27.
