data_PCOD9137368
_publ_section_title
;
Structure prediction by ZEFSAII (Michael W. Deem and Ramdas Pophale) SiO2 
 PCOD9137368
Probable space group: C C
;
_chemical_formula_sum "Si O2"
_cell_formula_units_Z 32
_cell_length_a 11.373809
_cell_length_b 11.189106
_cell_length_c 23.105192
_cell_angle_alpha 90.000000
_cell_angle_beta 151.238113
_cell_angle_gamma 90.000000
_cell_volume 1414.848798
_symmetry_space_group_name_H-M "C C"
_symmetry_group_IT_number 9
_symmetry_cell_setting 'monoclinic'
loop_
_space_group_symop_operation_xyz
x,y,z
x,-y,1/2+z
1/2+x,1/2+y,z
1/2+x,1/2-y,1/2+z
loop_
_atom_site_type_symbol
_atom_site_label
_atom_site_fract_x
_atom_site_fract_y
_atom_site_fract_z
Si Si1 0.571700 0.423810 0.375000
Si Si2 0.940856 0.276772 0.468290
Si Si3 0.833414 0.973532 0.982689
Si Si4 0.447360 0.796535 0.226229
Si Si5 0.650028 0.216240 0.635809
Si Si6 0.477376 0.316552 0.451136
Si Si7 0.815836 0.520871 0.231608
Si Si8 0.082809 0.800236 0.908899
O O1 0.317989 0.385928 0.234937
O O2 0.620454 0.353410 0.456113
O O3 0.558648 0.559381 0.388918
O O4 0.787225 0.388179 0.424294
O O5 0.228281 0.279257 0.606437
O O6 0.928711 0.248418 0.395610
O O7 0.850047 0.157484 0.462342
O O8 0.549026 0.996268 0.873784
O O9 0.034216 0.983108 0.120106
O O10 0.916084 0.071495 0.968804
O O11 0.711295 0.777711 0.312645
O O12 0.487457 0.758917 0.309555
O O13 0.380975 0.937832 0.203177
O O14 0.601394 0.218464 0.545589
O O15 0.794564 0.339117 0.709985
O O16 0.374610 0.221627 0.542219
#
# Coordination Sequence:
#
# PCOD9137368 Si02
#       8
#     4   4   4   4   4   4   4   4
#     4  12  24  39  71 102 134 184 234 286 353 428
#     4  11  22  40  61 100 135 173 235 282 343 429
#     4   9  16  34  60  93 123 163 218 284 327 415
#     4   9  21  41  68  95 135 178 228 288 349 415
#     4  10  22  41  67  99 135 177 234 290 353 425
#     4   9  19  40  66  96 128 177 225 285 348 414
#     4   9  17  35  67  92 125 169 228 279 346 408
#     4  11  25  44  66  99 145 187 222 292 363 418
#
# _framework density 22.617256999999999
#
# number of rings (size 3 to 8) (size 9 to 14) (size 15 to 20)
#    0.000    2.000    2.500    1.500    1.750    1.000 
#    0.000    3.750    0.000    0.000    0.000    0.000 
#    0.000    0.000    0.000    0.000    0.000    0.000 
#
# Total GULP energy -89266.350681 kJ/mol
# GULP energy per Si atom -5579.146918 kJ/mol
# Density = 2.256578 g / cm^3
# Si number density = 22.617257 Si / 1000 Ang^3
#
#
#
# Elastic Constant Matrix: (Units=GPa)
#
#
# Indices 1 2 3 4 5 6 
#
# 1 86.2018 42.2701 22.6553 -0.0002 -4.1018 0.0000
# 2 42.2701 -12.7741 6.3869 -0.0002 -5.5905 -0.0001
# 3 22.6553 6.3869 129.2109 -0.0004 15.1060 -0.0003
# 4 -0.0002 -0.0002 -0.0004 27.6306 -0.0003 4.8578
# 5 -4.1018 -5.5905 15.1060 -0.0003 12.8294 -0.0001
# 6 0.0000 -0.0001 -0.0003 4.8578 -0.0001 15.1149
#
#
#
# Elastic Compliance Matrix: (Units=1/GPa)
#
#
# Indices 1 2 3 4 5 6 
#
# 1 0.006202 0.013829 -0.003139 0.000000 0.011705 0.000000
# 2 0.013829 -0.028972 -0.000039 0.000000 -0.008157 0.000000
# 3 -0.003139 -0.000039 0.009754 0.000000 -0.012505 0.000000
# 4 0.000000 0.000000 0.000000 0.038359 0.000001 -0.012328
# 5 0.011705 -0.008157 -0.012505 0.000001 0.092857 0.000000
# 6 0.000000 0.000000 0.000000 -0.012328 0.000000 0.070122
#
#
# Mechanical properties :
#
#
# Convention : Reuss Voigt Hill
#
# Bulk Modulus (GPa) = 120.71110 38.36259 79.53684
# Shear Modulus (GPa) = 29.44961 19.87008 24.65984
#
# Velocity S-wave (km/s) = 3.61236 2.96723 3.30557
# Velocity P-wave (km/s) = 8.41938 5.36076 7.05775
#
# Compressibility (1/GPa) = 0.00828424
#
# Stress axis : x y z
#
# Youngs Moduli (GPa) = 161.24974 -34.51581 102.52614
#
# Poissons Ratio (x) = 0.47732 0.32187
# Poissons Ratio (y) = -2.22991 0.00399
# Poissons Ratio (z) = 0.50622 -0.00134
#
# Static dielectric constant tensor:
#      x y z
#    x 1.828750 0.000000 0.031710 
#    y 0.000000 1.909050 0.000000 
#    z 0.031710 0.000000 1.904120 
# 
# From -- ./inp_files/16148.got.cif
#   From: 2010.05.17/outbox.cif.g08.bks.cpg/sg9_9_cif.got.tgz:16148.got - 2010.06.03 20:04:27.
