data_PCOD9137134
_publ_section_title
;
Structure prediction by ZEFSAII (Michael W. Deem and Ramdas Pophale) SiO2 
 PCOD9137134
Probable space group: C C
;
_chemical_formula_sum "Si O2"
_cell_formula_units_Z 28
_cell_length_a 8.997483
_cell_length_b 10.269498
_cell_length_c 19.912929
_cell_angle_alpha 90.000000
_cell_angle_beta 134.365628
_cell_angle_gamma 90.000000
_cell_volume 1315.364157
_symmetry_space_group_name_H-M "C C"
_symmetry_group_IT_number 9
_symmetry_cell_setting 'monoclinic'
loop_
_space_group_symop_operation_xyz
x,y,z
x,-y,1/2+z
1/2+x,1/2+y,z
1/2+x,1/2-y,1/2+z
loop_
_atom_site_type_symbol
_atom_site_label
_atom_site_fract_x
_atom_site_fract_y
_atom_site_fract_z
Si Si1 0.402750 0.463460 0.912040
Si Si2 0.159439 0.690888 0.897503
Si Si3 0.600494 0.539965 0.340874
Si Si4 0.208317 0.765229 0.052502
Si Si5 0.571017 0.251388 0.302456
Si Si6 0.191510 0.167785 0.693902
Si Si7 0.129115 0.127578 0.197193
O O1 0.329277 0.596487 0.920670
O O2 0.409242 0.460125 0.833014
O O3 0.230753 0.357866 0.876369
O O4 0.622579 0.408805 0.007144
O O5 0.235007 0.839585 0.911039
O O6 0.938851 0.671246 0.790252
O O7 0.115474 0.676187 0.963043
O O8 0.651437 0.388511 0.357023
O O9 0.577656 0.582943 0.257006
O O10 0.152989 0.752149 0.113476
O O11 0.449525 0.728790 0.121207
O O12 0.577097 0.274938 0.223558
O O13 0.346612 0.202011 0.256091
O O14 0.135435 0.015081 0.664282
#
# Coordination Sequence:
#
# PCOD9137134 Si02
#       7
#     4   4   4   4   4   4   4
#     4  11  22  43  68  98 137 177 227 277 341 404
#     4  11  21  43  71  94 137 180 223 279 343 403
#     4  10  22  39  66  99 131 174 221 272 339 402
#     4  11  23  42  67 101 135 176 225 284 339 402
#     4  11  22  40  71  98 127 183 227 270 345 411
#     4  11  22  43  67  96 135 182 222 281 345 402
#     4  11  22  40  68  98 136 176 229 279 340 408
#
# _framework density 21.286881999999999
#
# number of rings (size 3 to 8) (size 9 to 14) (size 15 to 20)
#    0.000    1.143    5.714    1.714    0.000    0.000 
#    0.000   12.857    0.000    0.000    0.000    0.000 
#    0.000    0.000    0.000    0.000    0.000    0.000 
#
# Total GULP energy -77937.173237 kJ/mol
# GULP energy per Si atom -5566.940945 kJ/mol
# Density = 2.123843 g / cm^3
# Si number density = 21.286882 Si / 1000 Ang^3
#
#
#
# Elastic Constant Matrix: (Units=GPa)
#
#
# Indices 1 2 3 4 5 6 
#
# 1 80.8465 52.7582 30.8867 0.0000 -11.8056 0.0000
# 2 52.7582 138.8743 18.7334 0.0000 -6.5552 0.0000
# 3 30.8867 18.7334 58.6830 0.0000 -18.4385 0.0000
# 4 0.0000 0.0000 0.0000 6.3979 0.0000 0.1589
# 5 -11.8056 -6.5552 -18.4385 0.0000 23.3423 0.0000
# 6 0.0000 0.0000 0.0000 0.1589 0.0000 45.7569
#
#
#
# Elastic Compliance Matrix: (Units=1/GPa)
#
#
# Indices 1 2 3 4 5 6 
#
# 1 0.019786 -0.006376 -0.007711 0.000000 0.002126 0.000000
# 2 -0.006376 0.009581 0.000172 0.000000 -0.000398 0.000000
# 3 -0.007711 0.000172 0.026382 0.000000 0.016988 0.000000
# 4 0.000000 0.000000 0.000000 0.156314 0.000000 -0.000543
# 5 0.002126 -0.000398 0.016988 0.000000 0.057223 0.000000
# 6 0.000000 0.000000 0.000000 -0.000543 0.000000 0.021857
#
#
# Mechanical properties :
#
#
# Convention : Reuss Voigt Hill
#
# Bulk Modulus (GPa) = 35.81677 53.68450 44.75064
# Shear Modulus (GPa) = 15.23093 26.83446 21.03270
#
# Velocity S-wave (km/s) = 2.67780 3.55436 3.14675
# Velocity P-wave (km/s) = 5.14034 6.48991 5.85414
#
# Compressibility (1/GPa) = 0.02791988
#
# Stress axis : x y z
#
# Youngs Moduli (GPa) = 50.53988 104.37251 37.90484
#
# Poissons Ratio (x) = 0.66551 0.29228
# Poissons Ratio (y) = 0.32226 -0.00654
# Poissons Ratio (z) = 0.38970 -0.01799
#
# Static dielectric constant tensor:
#      x y z
#    x 1.797590 0.000000 -0.039920 
#    y 0.000000 1.806840 0.000000 
#    z -0.039920 0.000000 1.819060 
# 
# From -- ./inp_files/32590.got.cif
#   From: 2010.05.17/outbox.cif.g08.bks.cpg/sg9_17_cif.got.tgz:32590.got - 2010.06.03 20:04:27.
