data_PCOD9137225
_publ_section_title
;
Structure prediction by ZEFSAII (Michael W. Deem and Ramdas Pophale) SiO2 
 PCOD9137225
Probable space group: C C
;
_chemical_formula_sum "Si O2"
_cell_formula_units_Z 32
_cell_length_a 4.876322
_cell_length_b 30.534624
_cell_length_c 8.402568
_cell_angle_alpha 90.000000
_cell_angle_beta 101.491788
_cell_angle_gamma 90.000000
_cell_volume 1226.033549
_symmetry_space_group_name_H-M "C C"
_symmetry_group_IT_number 9
_symmetry_cell_setting 'monoclinic'
loop_
_space_group_symop_operation_xyz
x,y,z
x,-y,1/2+z
1/2+x,1/2+y,z
1/2+x,1/2-y,1/2+z
loop_
_atom_site_type_symbol
_atom_site_label
_atom_site_fract_x
_atom_site_fract_y
_atom_site_fract_z
Si Si1 0.049180 0.404098 0.596760
Si Si2 0.703712 0.009264 0.278224
Si Si3 0.697482 0.810102 0.564588
Si Si4 0.196727 0.122791 0.370061
Si Si5 0.464243 0.204936 0.376355
Si Si6 0.596202 0.227368 0.721993
Si Si7 0.727760 0.082288 0.513993
Si Si8 0.204105 0.051538 0.790784
O O1 0.192435 0.451555 0.647878
O O2 0.246972 0.363202 0.559093
O O3 0.835233 0.395158 0.722640
O O4 0.843245 0.415787 0.429393
O O5 0.652404 0.034964 0.436780
O O6 0.459779 0.973355 0.232746
O O7 0.008267 0.988041 0.330745
O O8 0.545241 0.813586 0.716102
O O9 0.526036 0.796666 0.382690
O O10 0.904954 0.768762 0.637377
O O11 0.193192 0.175236 0.383597
O O12 0.898168 0.105577 0.388246
O O13 0.445379 0.107687 0.518436
O O14 0.636358 0.202521 0.559150
O O15 0.390322 0.253505 0.314249
O O16 0.968532 0.078161 0.668982
#
# Coordination Sequence:
#
# PCOD9137225 Si02
#       8
#     4   4   4   4   4   4   4   4
#     4  10  24  43  67 101 133 185 237 288 346 432
#     4  11  23  42  66  96 138 180 224 288 357 412
#     4  10  22  44  67 103 141 183 237 294 356 431
#     4  10  24  42  66  93 136 178 225 281 346 413
#     4  10  22  40  65  98 136 183 230 290 356 422
#     4  10  22  41  71  99 139 189 228 298 359 429
#     4  11  23  42  64  95 126 177 225 275 348 412
#     4  12  24  42  68  99 137 175 232 292 346 413
#
# _framework density 26.100425999999999
#
# number of rings (size 3 to 8) (size 9 to 14) (size 15 to 20)
#    0.000    1.500    0.000    4.500    7.000    2.000 
#    2.250    2.500    0.000    0.000    0.000    0.000 
#    0.000    0.000    0.000    0.000    0.000    0.000 
#
# Total GULP energy -89067.560484 kJ/mol
# GULP energy per Si atom -5566.722530 kJ/mol
# Density = 2.604102 g / cm^3
# Si number density = 26.100426 Si / 1000 Ang^3
#
#
#
# Elastic Constant Matrix: (Units=GPa)
#
#
# Indices 1 2 3 4 5 6 
#
# 1 89.3853 -3.6597 -5.8533 0.0000 -3.6426 0.0000
# 2 -3.6597 48.1963 6.9758 0.0000 -8.4529 0.0000
# 3 -5.8533 6.9758 141.9338 0.0000 -6.2870 0.0000
# 4 0.0000 0.0000 0.0000 51.3745 0.0000 9.1671
# 5 -3.6426 -8.4529 -6.2870 0.0000 20.2193 0.0000
# 6 0.0000 0.0000 0.0000 9.1671 0.0000 46.0672
#
#
#
# Elastic Compliance Matrix: (Units=1/GPa)
#
#
# Indices 1 2 3 4 5 6 
#
# 1 0.011386 0.001270 0.000529 0.000000 0.002746 0.000000
# 2 0.001270 0.022600 -0.000639 0.000000 0.009478 0.000000
# 3 0.000529 -0.000639 0.007190 0.000000 0.002064 0.000000
# 4 0.000000 0.000000 0.000000 0.020182 0.000000 -0.004016
# 5 0.002746 0.009478 0.002064 0.000000 0.054557 0.000000
# 6 0.000000 0.000000 0.000000 -0.004016 0.000000 0.022507
#
#
# Mechanical properties :
#
#
# Convention : Reuss Voigt Hill
#
# Bulk Modulus (GPa) = 22.99067 30.49345 26.74206
# Shear Modulus (GPa) = 33.20068 42.33569 37.76818
#
# Velocity S-wave (km/s) = 3.57043 4.03181 3.80812
# Velocity P-wave (km/s) = 5.08183 5.77776 5.44093
#
# Compressibility (1/GPa) = 0.04349590
#
# Stress axis : x y z
#
# Youngs Moduli (GPa) = 87.82667 44.24843 139.07906
#
# Poissons Ratio (x) = -0.05618 -0.07355
# Poissons Ratio (y) = -0.11152 0.08881
# Poissons Ratio (z) = -0.04644 0.02825
#
# Static dielectric constant tensor:
#      x y z
#    x 2.036890 0.000000 -0.055840 
#    y 0.000000 2.147870 0.000000 
#    z -0.055840 0.000000 2.316680 
# 
# From -- ./inp_files/4407.got.cif
#   From: 2010.05.17/outbox.cif.g08.bks.cpg/sg9_3_cif.got.tgz:4407.got - 2010.06.03 20:04:27.
