data_PCOD9137392
_publ_section_title
;
Structure prediction by ZEFSAII (Michael W. Deem and Ramdas Pophale) SiO2 
 PCOD9137392
Probable space group: C C
;
_chemical_formula_sum "Si O2"
_cell_formula_units_Z 32
_cell_length_a 5.099173
_cell_length_b 33.420474
_cell_length_c 7.263376
_cell_angle_alpha 90.000000
_cell_angle_beta 101.967918
_cell_angle_gamma 90.000000
_cell_volume 1210.896127
_symmetry_space_group_name_H-M "C C"
_symmetry_group_IT_number 9
_symmetry_cell_setting 'monoclinic'
loop_
_space_group_symop_operation_xyz
x,y,z
x,-y,1/2+z
1/2+x,1/2+y,z
1/2+x,1/2-y,1/2+z
loop_
_atom_site_type_symbol
_atom_site_label
_atom_site_fract_x
_atom_site_fract_y
_atom_site_fract_z
Si Si1 0.776460 0.168740 0.607130
Si Si2 0.330258 0.501877 0.606269
Si Si3 0.422159 0.337640 0.564264
Si Si4 0.934982 0.293382 0.570153
Si Si5 0.586506 0.572913 0.183633
Si Si6 0.020289 0.415231 0.058149
Si Si7 0.771472 0.711449 0.623109
Si Si8 0.345675 0.957704 0.344157
O O1 0.851392 0.166532 0.836138
O O2 0.666827 0.125689 0.540801
O O3 0.545490 0.203099 0.551669
O O4 0.047850 0.178858 0.540715
O O5 0.363700 0.459015 0.718891
O O6 0.201840 0.545648 0.601740
O O7 0.117910 0.482886 0.423941
O O8 0.642490 0.516560 0.687765
O O9 0.156934 0.326845 0.638217
O O10 0.494011 0.382980 0.617674
O O11 0.661831 0.305350 0.634103
O O12 0.103037 0.252389 0.605671
O O13 0.855942 0.295173 0.345156
O O14 0.801809 0.576977 0.373112
O O15 0.699160 0.553182 0.012169
O O16 0.895540 0.416000 0.245509
#
# Coordination Sequence:
#
# PCOD9137392 Si02
#       8
#     4   4   4   4   4   4   4   4
#     4  10  23  44  69 103 145 195 244 309 380 451
#     4  12  26  50  72 106 146 198 250 314 380 452
#     4  10  23  44  69 103 145 195 244 309 380 451
#     4  10  22  41  70 102 143 190 241 304 378 454
#     4  12  29  47  75 109 148 199 257 315 383 456
#     4  12  29  47  75 109 148 199 257 315 383 456
#     4  10  22  41  70 102 143 190 241 304 378 454
#     4  12  28  48  76 104 152 196 258 314 390 450
#
# _framework density 26.426708999999999
#
# number of rings (size 3 to 8) (size 9 to 14) (size 15 to 20)
#    0.000    1.000    1.250    3.750   12.250    2.000 
#    0.000    0.000    0.000    0.000    0.000    0.000 
#    0.000    0.000    0.000    0.000    0.000    0.000 
#
# Total GULP energy -89425.043739 kJ/mol
# GULP energy per Si atom -5589.065234 kJ/mol
# Density = 2.636656 g / cm^3
# Si number density = 26.426709 Si / 1000 Ang^3
#
#
#
# Elastic Constant Matrix: (Units=GPa)
#
#
# Indices 1 2 3 4 5 6 
#
# 1 114.2763 45.2025 68.3048 0.0000 33.0158 0.0000
# 2 45.2025 165.3606 38.7736 0.0000 33.5622 0.0000
# 3 68.3048 38.7736 112.3989 0.0000 30.8871 0.0000
# 4 0.0000 0.0000 0.0000 39.4471 0.0000 23.0229
# 5 33.0158 33.5622 30.8871 0.0000 57.0985 0.0000
# 6 0.0000 0.0000 0.0000 23.0229 0.0000 51.0741
#
#
#
# Elastic Compliance Matrix: (Units=1/GPa)
#
#
# Indices 1 2 3 4 5 6 
#
# 1 0.014922 -0.001578 -0.007527 0.000000 -0.003630 0.000000
# 2 -0.001578 0.007249 -0.000730 0.000000 -0.002954 0.000000
# 3 -0.007527 -0.000730 0.014575 0.000000 -0.003103 0.000000
# 4 0.000000 0.000000 0.000000 0.034401 0.000000 -0.015507
# 5 -0.003630 -0.002954 -0.003103 0.000000 0.023027 0.000000
# 6 0.000000 0.000000 0.000000 -0.015507 0.000000 0.026570
#
#
# Mechanical properties :
#
#
# Convention : Reuss Voigt Hill
#
# Bulk Modulus (GPa) = 58.55484 77.39974 67.97729
# Shear Modulus (GPa) = 34.22165 45.50761 39.86463
#
# Velocity S-wave (km/s) = 3.60247 4.15424 3.88815
# Velocity P-wave (km/s) = 6.28564 7.23618 6.77759
#
# Compressibility (1/GPa) = 0.01707801
#
# Stress axis : x y z
#
# Youngs Moduli (GPa) = 67.01466 137.94204 68.60851
#
# Poissons Ratio (x) = 0.21761 0.51638
# Poissons Ratio (y) = 0.10572 0.05011
# Poissons Ratio (z) = 0.50439 0.10075
#
# Static dielectric constant tensor:
#      x y z
#    x 2.187290 0.000000 -0.117250 
#    y 0.000000 1.933140 0.000000 
#    z -0.117250 0.000000 2.181410 
# 
# From -- ./inp_files/4549.got.cif
#   From: 2010.05.17/outbox.cif.g08.bks.cpg/sg9_3_cif.got.tgz:4549.got - 2010.06.03 20:04:27.
