data_PCOD9137267
_publ_section_title
;
Structure prediction by ZEFSAII (Michael W. Deem and Ramdas Pophale) SiO2 
 PCOD9137267
Probable space group: C C
;
_chemical_formula_sum "Si O2"
_cell_formula_units_Z 28
_cell_length_a 15.644313
_cell_length_b 10.863618
_cell_length_c 8.407393
_cell_angle_alpha 90.000000
_cell_angle_beta 117.938803
_cell_angle_gamma 90.000000
_cell_volume 1262.331972
_symmetry_space_group_name_H-M "C C"
_symmetry_group_IT_number 9
_symmetry_cell_setting 'monoclinic'
loop_
_space_group_symop_operation_xyz
x,y,z
x,-y,1/2+z
1/2+x,1/2+y,z
1/2+x,1/2-y,1/2+z
loop_
_atom_site_type_symbol
_atom_site_label
_atom_site_fract_x
_atom_site_fract_y
_atom_site_fract_z
Si Si1 0.945640 0.163223 0.926200
Si Si2 0.663293 0.338602 0.077745
Si Si3 0.344385 0.078144 0.898532
Si Si4 0.283398 0.826594 0.695147
Si Si5 0.050643 0.007493 0.748059
Si Si6 0.075573 0.594866 0.104322
Si Si7 0.103350 0.662001 0.499255
O O1 0.837789 0.203688 0.799071
O O2 0.992464 0.091770 0.819076
O O3 0.002419 0.291761 0.982814
O O4 0.971604 0.079582 0.096875
O O5 0.776674 0.344067 0.218231
O O6 0.606382 0.406879 0.172127
O O7 0.622713 0.201352 0.038059
O O8 0.629384 0.420190 0.900441
O O9 0.320807 0.127547 0.054990
O O10 0.459589 0.087937 0.972962
O O11 0.306715 0.939542 0.832353
O O12 0.174272 0.778470 0.584243
O O13 0.092643 0.631218 0.303212
O O14 0.124856 0.465091 0.106632
#
# Coordination Sequence:
#
# PCOD9137267 Si02
#       7
#     4   4   4   4   4   4   4
#     4  11  22  44  66  97 140 179 236 286 353 413
#     4  11  22  42  69 101 133 179 237 286 350 418
#     4  12  22  44  75 101 135 193 234 284 353 424
#     4  12  25  44  74 101 141 184 239 291 349 429
#     4  10  22  40  68  98 138 180 228 297 346 412
#     4  12  25  45  69 101 144 185 232 294 358 415
#     4  12  26  45  65 103 143 182 230 302 347 415
#
# _framework density 22.181170000000002
#
# number of rings (size 3 to 8) (size 9 to 14) (size 15 to 20)
#    0.000    0.571    5.714    2.571    2.000    2.286 
#    5.143    0.000    0.000    0.000    0.000    0.000 
#    0.000    0.000    0.000    0.000    0.000    0.000 
#
# Total GULP energy -78333.108704 kJ/mol
# GULP energy per Si atom -5595.222050 kJ/mol
# Density = 2.213069 g / cm^3
# Si number density = 22.181170 Si / 1000 Ang^3
#
#
#
# Elastic Constant Matrix: (Units=GPa)
#
#
# Indices 1 2 3 4 5 6 
#
# 1 54.4274 19.4651 19.3286 0.0000 18.7768 0.0000
# 2 19.4651 123.0568 31.7764 0.0000 -7.9678 0.0000
# 3 19.3286 31.7764 91.0689 0.0000 14.7733 0.0000
# 4 0.0000 0.0000 0.0000 43.8701 0.0000 4.5565
# 5 18.7768 -7.9678 14.7733 0.0000 13.0304 0.0000
# 6 0.0000 0.0000 0.0000 4.5565 0.0000 26.5858
#
#
#
# Elastic Compliance Matrix: (Units=1/GPa)
#
#
# Indices 1 2 3 4 5 6 
#
# 1 0.060200 -0.020128 0.012640 0.000000 -0.113387 0.000000
# 2 -0.020128 0.017171 -0.009960 0.000000 0.050796 0.000000
# 3 0.012640 -0.009960 0.019258 0.000000 -0.046138 0.000000
# 4 0.000000 0.000000 0.000000 0.023208 0.000000 -0.003978
# 5 -0.113387 0.050796 -0.046138 0.000000 0.323506 0.000000
# 6 0.000000 0.000000 0.000000 -0.003978 0.000000 0.038296
#
#
# Mechanical properties :
#
#
# Convention : Reuss Voigt Hill
#
# Bulk Modulus (GPa) = 16.19870 45.52147 30.86008
# Shear Modulus (GPa) = 9.30906 29.89612 19.60259
#
# Velocity S-wave (km/s) = 2.05084 3.67524 2.97602
# Velocity P-wave (km/s) = 3.59537 6.21104 5.07463
#
# Compressibility (1/GPa) = 0.06173334
#
# Stress axis : x y z
#
# Youngs Moduli (GPa) = 16.61134 58.23757 51.92713
#
# Poissons Ratio (x) = 1.17221 -0.65637
# Poissons Ratio (y) = 0.33435 0.51718
# Poissons Ratio (z) = -0.20997 0.58003
#
# Static dielectric constant tensor:
#      x y z
#    x 1.811590 0.000000 0.000190 
#    y 0.000000 1.798140 0.000000 
#    z 0.000190 0.000000 1.851960 
# 
# From -- ./inp_files/9313.got.cif
#   From: 2010.05.17/outbox.cif.g08.bks.cpg/sg9_5_cif.got.tgz:9313.got - 2010.06.03 20:04:27.
