data_PCOD9137730
_publ_section_title
;
Structure prediction by ZEFSAII (Michael W. Deem and Ramdas Pophale) SiO2 
 PCOD9137730
Probable space group: C C
;
_chemical_formula_sum "Si O2"
_cell_formula_units_Z 28
_cell_length_a 8.373138
_cell_length_b 14.602387
_cell_length_c 11.089916
_cell_angle_alpha 90.000000
_cell_angle_beta 56.845549
_cell_angle_gamma 90.000000
_cell_volume 1135.191793
_symmetry_space_group_name_H-M "C C"
_symmetry_group_IT_number 9
_symmetry_cell_setting 'monoclinic'
loop_
_space_group_symop_operation_xyz
x,y,z
x,-y,1/2+z
1/2+x,1/2+y,z
1/2+x,1/2-y,1/2+z
loop_
_atom_site_type_symbol
_atom_site_label
_atom_site_fract_x
_atom_site_fract_y
_atom_site_fract_z
Si Si1 0.943090 0.591753 0.363210
Si Si2 0.387110 0.045908 0.719569
Si Si3 0.636791 0.055823 0.933855
Si Si4 0.587541 0.248044 0.453632
Si Si5 0.058783 0.122850 0.732340
Si Si6 0.437477 0.217380 0.133216
Si Si7 0.501445 0.250269 0.746968
O O1 0.796995 0.520323 0.359889
O O2 0.979791 0.660406 0.237128
O O3 0.090286 0.513571 0.345203
O O4 0.954586 0.664344 0.467648
O O5 0.228587 0.050918 0.678410
O O6 0.462887 0.141901 0.740457
O O7 0.566137 0.997771 0.581409
O O8 0.523935 0.153802 0.991507
O O9 0.856091 0.077995 0.836431
O O10 0.591635 0.315254 0.338486
O O11 0.507143 0.290889 0.608485
O O12 0.805620 0.215682 0.388919
O O13 0.039253 0.185512 0.620270
O O14 0.210094 0.230450 0.213998
#
# Coordination Sequence:
#
# PCOD9137730 Si02
#       7
#     4   4   4   4   4   4   4
#     4  10  22  44  64  97 136 176 222 286 346 405
#     4  10  23  43  66 100 134 174 230 286 348 409
#     4  11  23  43  70  95 137 179 223 295 342 413
#     4  10  24  42  74  96 139 177 239 285 348 417
#     4  10  24  42  68  97 136 182 229 282 347 415
#     4  10  25  41  70  97 134 181 231 278 343 418
#     4  11  23  45  68 106 130 187 230 290 342 423
#
# _framework density 24.665436
#
# number of rings (size 3 to 8) (size 9 to 14) (size 15 to 20)
#    0.000    1.714    1.429    0.857   14.000    2.286 
#    0.000    2.857    0.000    0.000    0.000    0.000 
#    0.000    0.000    0.000    0.000    0.000    0.000 
#
# Total GULP energy -78040.015101 kJ/mol
# GULP energy per Si atom -5574.286793 kJ/mol
# Density = 2.460930 g / cm^3
# Si number density = 24.665436 Si / 1000 Ang^3
#
#
#
# Elastic Constant Matrix: (Units=GPa)
#
#
# Indices 1 2 3 4 5 6 
#
# 1 126.0919 34.7241 29.7728 0.0000 -11.8138 0.0000
# 2 34.7241 52.1004 14.5880 0.0000 2.6235 0.0000
# 3 29.7728 14.5880 70.3607 0.0000 -3.6435 0.0000
# 4 0.0000 0.0000 0.0000 44.4077 0.0000 14.2342
# 5 -11.8138 2.6235 -3.6435 0.0000 42.1151 0.0000
# 6 0.0000 0.0000 0.0000 14.2342 0.0000 22.4382
#
#
#
# Elastic Compliance Matrix: (Units=1/GPa)
#
#
# Indices 1 2 3 4 5 6 
#
# 1 0.010719 -0.006453 -0.003035 0.000000 0.003146 0.000000
# 2 -0.006453 0.024375 -0.002507 0.000000 -0.003545 0.000000
# 3 -0.003035 -0.002507 0.016052 0.000000 0.000694 0.000000
# 4 0.000000 0.000000 0.000000 0.028266 0.000000 -0.017931
# 5 0.003146 -0.003545 0.000694 0.000000 0.024908 0.000000
# 6 0.000000 0.000000 0.000000 -0.017931 0.000000 0.055942
#
#
# Mechanical properties :
#
#
# Convention : Reuss Voigt Hill
#
# Bulk Modulus (GPa) = 36.82260 45.19142 41.00701
# Shear Modulus (GPa) = 25.86605 33.09010 29.47807
#
# Velocity S-wave (km/s) = 3.24184 3.66670 3.46080
# Velocity P-wave (km/s) = 5.38274 6.02394 5.71234
#
# Compressibility (1/GPa) = 0.02715723
#
# Stress axis : x y z
#
# Youngs Moduli (GPa) = 93.29121 41.02597 62.29616
#
# Poissons Ratio (x) = 0.26473 0.18907
# Poissons Ratio (y) = 0.60199 0.15616
# Poissons Ratio (z) = 0.28313 0.10284
#
# Static dielectric constant tensor:
#      x y z
#    x 2.021840 0.000000 0.089120 
#    y 0.000000 2.068160 0.000000 
#    z 0.089120 0.000000 2.098060 
# 
# From -- ./inp_files/14878.got.cif
#   From: 2010.05.17/outbox.cif.g08.bks.cpg/sg9_8_cif.got.tgz:14878.got - 2010.06.03 20:04:27.
