data_PCOD9137981
_publ_section_title
;
Structure prediction by ZEFSAII (Michael W. Deem and Ramdas Pophale) SiO2 
 PCOD9137981
Probable space group: C C
;
_chemical_formula_sum "Si O2"
_cell_formula_units_Z 32
_cell_length_a 11.452643
_cell_length_b 12.344487
_cell_length_c 9.543134
_cell_angle_alpha 90.000000
_cell_angle_beta 93.993599
_cell_angle_gamma 90.000000
_cell_volume 1345.903653
_symmetry_space_group_name_H-M "C C"
_symmetry_group_IT_number 9
_symmetry_cell_setting 'monoclinic'
loop_
_space_group_symop_operation_xyz
x,y,z
x,-y,1/2+z
1/2+x,1/2+y,z
1/2+x,1/2-y,1/2+z
loop_
_atom_site_type_symbol
_atom_site_label
_atom_site_fract_x
_atom_site_fract_y
_atom_site_fract_z
Si Si1 0.984260 0.960230 0.619260
Si Si2 0.713683 0.552747 0.945054
Si Si3 0.047740 0.176227 0.768746
Si Si4 0.483617 0.233746 0.575683
Si Si5 0.274626 0.182319 0.399686
Si Si6 0.922952 0.635112 0.143281
Si Si7 0.113621 0.530426 0.662667
Si Si8 0.751285 0.064318 0.927920
O O1 0.876275 0.969853 0.500834
O O2 0.111633 0.947474 0.555386
O O3 0.964956 0.837568 0.672345
O O4 0.985388 0.064690 0.717557
O O5 0.839552 0.592660 0.012231
O O6 0.677211 0.633932 0.816207
O O7 0.703307 0.428259 0.895989
O O8 0.016581 0.264972 0.648021
O O9 0.010939 0.225485 0.917774
O O10 0.367094 0.166370 0.535049
O O11 0.582115 0.155371 0.640387
O O12 0.333679 0.178191 0.252326
O O13 0.236618 0.305740 0.420360
O O14 0.000554 0.535178 0.204590
O O15 0.222420 0.516996 0.774305
O O16 0.150066 0.481508 0.518285
#
# Coordination Sequence:
#
# PCOD9137981 Si02
#       8
#     4   4   4   4   4   4   4   4
#     4  10  24  43  67 110 140 199 243 315 372 444
#     4  11  23  42  72 103 139 199 251 312 377 452
#     4  10  23  40  71 100 144 184 252 299 385 430
#     4   9  21  44  71  97 145 196 243 307 371 449
#     4  10  22  46  69 104 145 193 246 317 371 444
#     4  11  25  44  73 101 146 195 248 309 378 455
#     4  12  26  49  74 113 148 209 253 305 384 465
#     4  11  28  44  79 106 159 197 250 312 378 461
#
# _framework density 23.775848
#
# number of rings (size 3 to 8) (size 9 to 14) (size 15 to 20)
#    0.000    1.500    1.250    3.000   14.000    1.000 
#    0.000    0.000    0.000    0.000    0.000    0.000 
#    0.000    0.000    0.000    0.000    0.000    0.000 
#
# Total GULP energy -89219.724090 kJ/mol
# GULP energy per Si atom -5576.232756 kJ/mol
# Density = 2.372173 g / cm^3
# Si number density = 23.775848 Si / 1000 Ang^3
#
#
#
# Elastic Constant Matrix: (Units=GPa)
#
#
# Indices 1 2 3 4 5 6 
#
# 1 53.8690 21.9982 27.6612 0.0000 37.6650 0.0000
# 2 21.9982 126.3398 44.3635 0.0000 31.5415 0.0000
# 3 27.6612 44.3635 70.4809 0.0000 32.8027 0.0000
# 4 0.0000 0.0000 0.0000 34.6983 0.0000 10.3032
# 5 37.6650 31.5415 32.8027 0.0000 41.2515 0.0000
# 6 0.0000 0.0000 0.0000 10.3032 0.0000 37.2491
#
#
#
# Elastic Compliance Matrix: (Units=1/GPa)
#
#
# Indices 1 2 3 4 5 6 
#
# 1 0.052628 0.003256 0.001300 0.000000 -0.051576 0.000000
# 2 0.003256 0.010857 -0.004547 0.000000 -0.007659 0.000000
# 3 0.001300 -0.004547 0.024566 0.000000 -0.017245 0.000000
# 4 0.000000 0.000000 0.000000 0.031399 0.000000 -0.008685
# 5 -0.051576 -0.007659 -0.017245 0.000000 0.090902 0.000000
# 6 0.000000 0.000000 0.000000 -0.008685 0.000000 0.029249
#
#
# Mechanical properties :
#
#
# Convention : Reuss Voigt Hill
#
# Bulk Modulus (GPa) = 11.35477 48.74837 30.05157
# Shear Modulus (GPa) = 18.59156 33.08424 25.83790
#
# Velocity S-wave (km/s) = 2.79937 3.73434 3.30013
# Velocity P-wave (km/s) = 3.90318 6.25632 5.21423
#
# Compressibility (1/GPa) = 0.08806869
#
# Stress axis : x y z
#
# Youngs Moduli (GPa) = 19.00130 92.10668 40.70626
#
# Poissons Ratio (x) = -0.29992 -0.05291
# Poissons Ratio (y) = -0.06187 0.18511
# Poissons Ratio (z) = -0.02470 0.41884
#
# Static dielectric constant tensor:
#      x y z
#    x 2.019620 0.000000 0.000990 
#    y 0.000000 1.966110 0.000000 
#    z 0.000990 0.000000 1.903550 
# 
# From -- ./inp_files/16477.got.cif
#   From: 2010.05.17/outbox.cif.g08.bks.cpg/sg9_9_cif.got.tgz:16477.got - 2010.06.03 20:04:27.
