data_PCOD9137281
_publ_section_title
;
Structure prediction by ZEFSAII (Michael W. Deem and Ramdas Pophale) SiO2 
 PCOD9137281
Probable space group: C C
;
_chemical_formula_sum "Si O2"
_cell_formula_units_Z 24
_cell_length_a 9.934050
_cell_length_b 16.818049
_cell_length_c 6.080982
_cell_angle_alpha 90.000000
_cell_angle_beta 117.414933
_cell_angle_gamma 90.000000
_cell_volume 901.861087
_symmetry_space_group_name_H-M "C C"
_symmetry_group_IT_number 9
_symmetry_cell_setting 'monoclinic'
loop_
_space_group_symop_operation_xyz
x,y,z
x,-y,1/2+z
1/2+x,1/2+y,z
1/2+x,1/2-y,1/2+z
loop_
_atom_site_type_symbol
_atom_site_label
_atom_site_fract_x
_atom_site_fract_y
_atom_site_fract_z
Si Si1 0.910880 0.012997 0.418910
Si Si2 0.345717 0.744479 0.845577
Si Si3 0.719703 0.586770 0.108150
Si Si4 0.555745 0.670099 0.629721
Si Si5 0.581969 0.190868 0.860503
Si Si6 0.023773 0.483651 0.397958
O O1 0.954652 0.106272 0.425101
O O2 0.847336 0.008465 0.625313
O O3 0.064054 0.957980 0.555221
O O4 0.257029 0.827594 0.742386
O O5 0.446323 0.713381 0.721854
O O6 0.225160 0.676718 0.811956
O O7 0.457364 0.764015 0.126162
O O8 0.864207 0.531515 0.259203
O O9 0.683134 0.614758 0.834277
O O10 0.634582 0.743881 0.573411
O O11 0.517865 0.111359 0.911202
O O12 0.084735 0.505641 0.689772
#
# Coordination Sequence:
#
# PCOD9137281 Si02
#       6
#     4   4   4   4   4   4
#     4  10  22  40  71 108 147 197 266 321 383 471
#     4  12  26  49  75 117 163 205 272 339 412 479
#     4  11  23  47  80 113 152 216 278 326 397 499
#     4  11  26  45  76 118 162 208 272 342 405 481
#     4  12  29  46  80 120 163 212 272 343 414 485
#     4  12  26  47  80 114 157 214 276 331 399 495
#
# _framework density 26.611640000000001
#
# number of rings (size 3 to 8) (size 9 to 14) (size 15 to 20)
#    0.000    0.667    3.333    4.000    9.333    0.000 
#    0.000    3.333    0.000    0.000    0.000    0.000 
#    0.000    0.000    0.000    0.000    0.000    0.000 
#
# Total GULP energy -67086.367428 kJ/mol
# GULP energy per Si atom -5590.530619 kJ/mol
# Density = 2.655107 g / cm^3
# Si number density = 26.611640 Si / 1000 Ang^3
#
#
#
# Elastic Constant Matrix: (Units=GPa)
#
#
# Indices 1 2 3 4 5 6 
#
# 1 92.5293 1.7291 78.1265 0.0000 -27.1957 0.0000
# 2 1.7291 134.5060 73.9507 0.0000 -11.7819 0.0000
# 3 78.1265 73.9507 157.6217 0.0000 -3.2466 0.0000
# 4 0.0000 0.0000 0.0000 53.4563 0.0000 -11.0319
# 5 -27.1957 -11.7819 -3.2466 0.0000 39.2063 0.0000
# 6 0.0000 0.0000 0.0000 -11.0319 0.0000 29.0164
#
#
#
# Elastic Compliance Matrix: (Units=1/GPa)
#
#
# Indices 1 2 3 4 5 6 
#
# 1 0.051993 0.022287 -0.035407 0.000000 0.039831 0.000000
# 2 0.022287 0.019850 -0.019952 0.000000 0.019772 0.000000
# 3 -0.035407 -0.019952 0.032681 0.000000 -0.027850 0.000000
# 4 0.000000 0.000000 0.000000 0.020300 0.000000 0.007718
# 5 0.039831 0.019772 -0.027850 0.000000 0.056771 0.000000
# 6 0.000000 0.000000 0.000000 0.007718 0.000000 0.037398
#
#
# Mechanical properties :
#
#
# Convention : Reuss Voigt Hill
#
# Bulk Modulus (GPa) = 26.05517 76.91885 51.48701
# Shear Modulus (GPa) = 16.78251 39.72586 28.25418
#
# Velocity S-wave (km/s) = 2.51399 3.86787 3.26194
# Velocity P-wave (km/s) = 4.27071 6.99387 5.79453
#
# Compressibility (1/GPa) = 0.03838010
#
# Stress axis : x y z
#
# Youngs Moduli (GPa) = 19.23329 50.37866 30.59863
#
# Poissons Ratio (x) = -1.12279 1.08340
# Poissons Ratio (y) = -0.42865 0.61051
# Poissons Ratio (z) = 0.68099 1.00517
#
# Static dielectric constant tensor:
#      x y z
#    x 2.149580 0.000000 -0.033490 
#    y 0.000000 1.972240 0.000000 
#    z -0.033490 0.000000 2.189600 
# 
# From -- ./inp_files/1614.got.cif
#   From: 2010.05.17/outbox.cif.g08.bks.cpg/sg9_1_cif.got.tgz:1614.got - 2010.06.03 20:04:27.
