data_PCOD9137233
_publ_section_title
;
Structure prediction by ZEFSAII (Michael W. Deem and Ramdas Pophale) SiO2 
 PCOD9137233
Probable space group: C C
;
_chemical_formula_sum "Si O2"
_cell_formula_units_Z 32
_cell_length_a 15.075303
_cell_length_b 17.993255
_cell_length_c 5.255826
_cell_angle_alpha 90.000000
_cell_angle_beta 110.825653
_cell_angle_gamma 90.000000
_cell_volume 1332.519223
_symmetry_space_group_name_H-M "C C"
_symmetry_group_IT_number 9
_symmetry_cell_setting 'monoclinic'
loop_
_space_group_symop_operation_xyz
x,y,z
x,-y,1/2+z
1/2+x,1/2+y,z
1/2+x,1/2-y,1/2+z
loop_
_atom_site_type_symbol
_atom_site_label
_atom_site_fract_x
_atom_site_fract_y
_atom_site_fract_z
Si Si1 0.304480 0.952775 0.330140
Si Si2 0.969269 0.190116 0.397195
Si Si3 0.266932 0.539775 0.467056
Si Si4 0.262403 0.319871 0.629167
Si Si5 0.218148 0.184303 0.921299
Si Si6 0.591673 0.783184 0.135340
Si Si7 0.916312 0.670635 0.188350
Si Si8 0.996311 0.962687 0.188814
O O1 0.215987 0.898855 0.310319
O O2 0.394351 0.898436 0.480148
O O3 0.304832 0.016069 0.547100
O O4 0.870957 0.168102 0.151911
O O5 0.938500 0.253343 0.563940
O O6 0.007188 0.118530 0.580886
O O7 0.043603 0.228406 0.289774
O O8 0.231438 0.513727 0.704073
O O9 0.247521 0.622556 0.346150
O O10 0.381439 0.530812 0.595728
O O11 0.249503 0.237128 0.722564
O O12 0.179754 0.327352 0.341832
O O13 0.134217 0.227651 0.968094
O O14 0.311439 0.181551 0.203167
O O15 0.507494 0.837014 0.956756
O O16 0.032314 0.020315 0.009412
#
# Coordination Sequence:
#
# PCOD9137233 Si02
#       8
#     4   4   4   4   4   4   4   4
#     4  10  24  46  76 102 142 188 246 302 368 430
#     4  10  22  40  66  93 135 180 231 286 346 426
#     4   9  19  36  60  92 127 168 212 262 330 403
#     4  10  22  40  66  93 135 180 231 286 346 426
#     4   9  23  41  68 100 133 184 238 291 368 416
#     4  12  22  38  66 100 136 174 246 296 346 426
#     4   9  23  41  68 100 133 184 238 291 368 416
#     4   9  19  36  60  92 127 168 212 262 330 403
#
# _framework density 24.014664
#
# number of rings (size 3 to 8) (size 9 to 14) (size 15 to 20)
#    0.750    1.500    0.000    1.500    7.000    0.000 
#    0.000    2.500    0.000    0.000    0.000    0.000 
#    0.000    0.000    0.000    0.000    0.000    0.000 
#
# Total GULP energy -89373.661309 kJ/mol
# GULP energy per Si atom -5585.853832 kJ/mol
# Density = 2.396001 g / cm^3
# Si number density = 24.014664 Si / 1000 Ang^3
#
#
#
# Elastic Constant Matrix: (Units=GPa)
#
#
# Indices 1 2 3 4 5 6 
#
# 1 68.5428 15.0210 30.9054 0.0000 25.2839 0.0000
# 2 15.0210 89.2252 4.7893 0.0000 -1.2738 0.0000
# 3 30.9054 4.7893 68.4587 0.0000 17.1268 0.0000
# 4 0.0000 0.0000 0.0000 35.6012 0.0000 -10.1625
# 5 25.2839 -1.2738 17.1268 0.0000 40.5860 0.0000
# 6 0.0000 0.0000 0.0000 -10.1625 0.0000 12.0870
#
#
#
# Elastic Compliance Matrix: (Units=1/GPa)
#
#
# Indices 1 2 3 4 5 6 
#
# 1 0.022791 -0.003610 -0.007218 0.000000 -0.011265 0.000000
# 2 -0.003610 0.011843 0.000163 0.000000 0.002552 0.000000
# 3 -0.007218 0.000163 0.018703 0.000000 -0.003391 0.000000
# 4 0.000000 0.000000 0.000000 0.036959 0.000000 0.031075
# 5 -0.011265 0.002552 -0.003391 0.000000 0.033168 0.000000
# 6 0.000000 0.000000 0.000000 0.031075 0.000000 0.108860
#
#
# Mechanical properties :
#
#
# Convention : Reuss Voigt Hill
#
# Bulk Modulus (GPa) = 31.24423 36.40647 33.82535
# Shear Modulus (GPa) = 18.91626 29.35558 24.13592
#
# Velocity S-wave (km/s) = 2.80964 3.50008 3.17369
# Velocity P-wave (km/s) = 4.85429 5.61490 5.24839
#
# Compressibility (1/GPa) = 0.03200591
#
# Stress axis : x y z
#
# Youngs Moduli (GPa) = 43.87782 84.43760 53.46831
#
# Poissons Ratio (x) = 0.30484 0.38592
# Poissons Ratio (y) = 0.15841 -0.00871
# Poissons Ratio (z) = 0.31670 -0.01375
#
# Static dielectric constant tensor:
#      x y z
#    x 1.953030 0.000000 0.063000 
#    y 0.000000 1.926030 0.000000 
#    z 0.063000 0.000000 1.997830 
# 
# From -- ./inp_files/2592.got.cif
#   From: 2010.05.17/outbox.cif.g08.bks.cpg/sg9_2_cif.got.tgz:2592.got - 2010.06.03 20:04:27.
