data_PCOD9137694
_publ_section_title
;
Structure prediction by ZEFSAII (Michael W. Deem and Ramdas Pophale) SiO2 
 PCOD9137694
Probable space group: C C
;
_chemical_formula_sum "Si O2"
_cell_formula_units_Z 28
_cell_length_a 22.071111
_cell_length_b 7.744566
_cell_length_c 9.167500
_cell_angle_alpha 90.000000
_cell_angle_beta 43.919335
_cell_angle_gamma 90.000000
_cell_volume 1086.949644
_symmetry_space_group_name_H-M "C C"
_symmetry_group_IT_number 9
_symmetry_cell_setting 'monoclinic'
loop_
_space_group_symop_operation_xyz
x,y,z
x,-y,1/2+z
1/2+x,1/2+y,z
1/2+x,1/2-y,1/2+z
loop_
_atom_site_type_symbol
_atom_site_label
_atom_site_fract_x
_atom_site_fract_y
_atom_site_fract_z
Si Si1 0.755980 0.112436 0.998540
Si Si2 0.473213 0.851834 0.400185
Si Si3 0.066032 0.128211 0.380000
Si Si4 0.107362 0.196636 0.632819
Si Si5 0.567117 0.927441 0.937859
Si Si6 0.813893 0.565568 0.559271
Si Si7 0.244122 0.772736 0.463415
O O1 0.821054 0.256552 0.951353
O O2 0.785633 0.920030 0.902768
O O3 0.702346 0.210724 0.961407
O O4 0.672596 0.080093 0.254643
O O5 0.476485 0.649301 0.440647
O O6 0.513656 0.900291 0.491575
O O7 0.392061 0.972423 0.509970
O O8 0.527213 0.857512 0.154805
O O9 0.073007 0.130160 0.541148
O O10 0.106584 0.945306 0.258639
O O11 0.143140 0.249080 0.177901
O O12 0.047038 0.338788 0.815337
O O13 0.783043 0.409365 0.510260
O O14 0.751453 0.633402 0.795850
#
# Coordination Sequence:
#
# PCOD9137694 Si02
#       7
#     4   4   4   4   4   4   4
#     4  10  25  43  80 112 151 201 280 322 396 474
#     4  12  24  44  73 107 154 209 253 338 403 466
#     4  12  21  42  76 108 156 200 268 328 395 471
#     4  10  23  39  75 119 147 192 281 334 382 476
#     4  10  22  43  71 106 143 201 266 313 393 467
#     4  12  28  47  73 120 163 203 267 332 414 468
#     4  12  25  46  78 108 158 214 265 327 393 482
#
# _framework density 25.760161
#
# number of rings (size 3 to 8) (size 9 to 14) (size 15 to 20)
#    0.857    0.000    2.857    4.286    2.000    0.000 
#    2.571    0.000    3.143    0.000    0.000    0.000 
#    0.000    0.000    0.000    0.000    0.000    0.000 
#
# Total GULP energy -77957.257284 kJ/mol
# GULP energy per Si atom -5568.375520 kJ/mol
# Density = 2.570153 g / cm^3
# Si number density = 25.760161 Si / 1000 Ang^3
#
#
#
# Elastic Constant Matrix: (Units=GPa)
#
#
# Indices 1 2 3 4 5 6 
#
# 1 107.3537 53.1009 28.0737 0.0000 29.4458 0.0000
# 2 53.1009 106.4872 32.5080 0.0000 18.3038 0.0000
# 3 28.0737 32.5080 71.7801 0.0000 34.4767 0.0000
# 4 0.0000 0.0000 0.0000 32.9078 0.0000 6.5621
# 5 29.4458 18.3038 34.4767 0.0000 45.2724 0.0000
# 6 0.0000 0.0000 0.0000 6.5621 0.0000 56.5659
#
#
#
# Elastic Compliance Matrix: (Units=1/GPa)
#
#
# Indices 1 2 3 4 5 6 
#
# 1 0.014090 -0.005988 0.000694 0.000000 -0.007272 0.000000
# 2 -0.005988 0.013472 -0.004752 0.000000 0.002067 0.000000
# 3 0.000694 -0.004752 0.023818 0.000000 -0.016669 0.000000
# 4 0.000000 0.000000 0.000000 0.031108 0.000000 -0.003609
# 5 -0.007272 0.002067 -0.016669 0.000000 0.038676 0.000000
# 6 0.000000 0.000000 0.000000 -0.003609 0.000000 0.018097
#
#
# Mechanical properties :
#
#
# Convention : Reuss Voigt Hill
#
# Bulk Modulus (GPa) = 31.96095 56.99846 44.47971
# Shear Modulus (GPa) = 29.44930 38.41179 33.93055
#
# Velocity S-wave (km/s) = 3.38481 3.86571 3.63322
# Velocity P-wave (km/s) = 5.26403 6.48842 5.90802
#
# Compressibility (1/GPa) = 0.03128818
#
# Stress axis : x y z
#
# Youngs Moduli (GPa) = 70.97235 74.22674 41.98451
#
# Poissons Ratio (x) = 0.44447 -0.02913
# Poissons Ratio (y) = 0.42498 0.19951
# Poissons Ratio (z) = -0.04925 0.35273
#
# Static dielectric constant tensor:
#      x y z
#    x 2.180350 0.000000 -0.170060 
#    y 0.000000 2.526560 0.000000 
#    z -0.170060 0.000000 2.132370 
# 
# From -- ./inp_files/11404.got.cif
#   From: 2010.05.17/outbox.cif.g08.bks.cpg/sg9_6_cif.got.tgz:11404.got - 2010.06.03 20:04:27.
