data_PCOD9137558
_publ_section_title
;
Structure prediction by ZEFSAII (Michael W. Deem and Ramdas Pophale) SiO2 
 PCOD9137558
Probable space group: C C
;
_chemical_formula_sum "Si O2"
_cell_formula_units_Z 28
_cell_length_a 16.572487
_cell_length_b 7.480988
_cell_length_c 8.895950
_cell_angle_alpha 90.000000
_cell_angle_beta 101.032896
_cell_angle_gamma 90.000000
_cell_volume 1082.522701
_symmetry_space_group_name_H-M "C C"
_symmetry_group_IT_number 9
_symmetry_cell_setting 'monoclinic'
loop_
_space_group_symop_operation_xyz
x,y,z
x,-y,1/2+z
1/2+x,1/2+y,z
1/2+x,1/2-y,1/2+z
loop_
_atom_site_type_symbol
_atom_site_label
_atom_site_fract_x
_atom_site_fract_y
_atom_site_fract_z
Si Si1 0.590930 0.892979 0.419480
Si Si2 0.015603 0.911254 0.074921
Si Si3 0.908399 0.741778 0.555949
Si Si4 0.728253 0.248456 0.809075
Si Si5 0.707045 0.555241 0.621390
Si Si6 0.449011 0.113977 0.267821
Si Si7 0.758040 0.100600 0.182332
O O1 0.528332 0.735251 0.446259
O O2 0.634144 0.825431 0.284685
O O3 0.670873 0.923342 0.557618
O O4 0.536974 0.065798 0.375216
O O5 0.112033 0.948071 0.133909
O O6 0.966077 0.790264 0.176357
O O7 0.974993 0.104077 0.045363
O O8 0.889146 0.656607 0.385463
O O9 0.927978 0.565130 0.664191
O O10 0.837003 0.857226 0.609423
O O11 0.742173 0.363471 0.666172
O O12 0.725618 0.374377 0.958768
O O13 0.773033 0.059641 0.799562
O O14 0.744184 0.704093 0.746923
#
# Coordination Sequence:
#
# PCOD9137558 Si02
#       7
#     4   4   4   4   4   4   4
#     4  10  22  47  75 109 143 204 248 315 371 459
#     4  10  24  42  73 110 147 196 254 297 386 459
#     4  12  29  46  78 111 157 205 250 328 396 453
#     4  10  22  42  71 105 146 184 252 306 367 446
#     4  10  24  41  71 107 140 197 244 307 370 447
#     4  12  26  49  75 110 157 200 260 319 383 468
#     4  10  25  47  69 108 148 196 254 312 381 446
#
# _framework density 25.865507000000001
#
# number of rings (size 3 to 8) (size 9 to 14) (size 15 to 20)
#    0.000    1.714    1.429    2.571    8.000    8.000 
#    0.000    0.000    0.000    0.000    0.000    0.000 
#    0.000    0.000    0.000    0.000    0.000    0.000 
#
# Total GULP energy -78032.745341 kJ/mol
# GULP energy per Si atom -5573.767524 kJ/mol
# Density = 2.580664 g / cm^3
# Si number density = 25.865507 Si / 1000 Ang^3
#
#
#
# Elastic Constant Matrix: (Units=GPa)
#
#
# Indices 1 2 3 4 5 6 
#
# 1 91.0237 40.7196 42.5159 0.0000 -17.2810 0.0000
# 2 40.7196 165.3607 70.7104 0.0000 -18.1509 0.0000
# 3 42.5159 70.7104 102.1601 0.0000 -35.0189 0.0000
# 4 0.0000 0.0000 0.0000 51.7202 0.0000 -6.5882
# 5 -17.2810 -18.1509 -35.0189 0.0000 31.6413 0.0000
# 6 0.0000 0.0000 0.0000 -6.5882 0.0000 41.0746
#
#
#
# Elastic Compliance Matrix: (Units=1/GPa)
#
#
# Indices 1 2 3 4 5 6 
#
# 1 0.013953 -0.001478 -0.003967 0.000000 0.002382 0.000000
# 2 -0.001478 0.008888 -0.006551 0.000000 -0.002959 0.000000
# 3 -0.003967 -0.006551 0.022466 0.000000 0.018940 0.000000
# 4 0.000000 0.000000 0.000000 0.019738 0.000000 0.003166
# 5 0.002382 -0.002959 0.018940 0.000000 0.052169 0.000000
# 6 0.000000 0.000000 0.000000 0.003166 0.000000 0.024854
#
#
# Mechanical properties :
#
#
# Convention : Reuss Voigt Hill
#
# Bulk Modulus (GPa) = 46.91730 74.04851 60.48290
# Shear Modulus (GPa) = 28.87439 38.52715 33.70077
#
# Velocity S-wave (km/s) = 3.34477 3.86361 3.61352
# Velocity P-wave (km/s) = 5.75283 6.97092 6.39096
#
# Compressibility (1/GPa) = 0.02131410
#
# Stress axis : x y z
#
# Youngs Moduli (GPa) = 71.67171 112.51395 44.51159
#
# Poissons Ratio (x) = 0.16628 0.17659
# Poissons Ratio (y) = 0.10592 0.29159
# Poissons Ratio (z) = 0.28434 0.73707
#
# Static dielectric constant tensor:
#      x y z
#    x 2.153310 0.000000 0.088540 
#    y 0.000000 2.007720 0.000000 
#    z 0.088540 0.000000 2.147480 
# 
# From -- ./inp_files/10440.got.cif
#   From: 2010.05.17/outbox.cif.g08.bks.cpg/sg9_6_cif.got.tgz:10440.got - 2010.06.03 20:04:27.
