data_PCOD9137029
_publ_section_title
;
Structure prediction by ZEFSAII (Michael W. Deem and Ramdas Pophale) SiO2 
 PCOD9137029
Probable space group: C C
;
_chemical_formula_sum "Si O2"
_cell_formula_units_Z 24
_cell_length_a 10.737845
_cell_length_b 15.305790
_cell_length_c 5.596427
_cell_angle_alpha 90.000000
_cell_angle_beta 68.081248
_cell_angle_gamma 90.000000
_cell_volume 853.292437
_symmetry_space_group_name_H-M "C C"
_symmetry_group_IT_number 9
_symmetry_cell_setting 'monoclinic'
loop_
_space_group_symop_operation_xyz
x,y,z
x,-y,1/2+z
1/2+x,1/2+y,z
1/2+x,1/2-y,1/2+z
loop_
_atom_site_type_symbol
_atom_site_label
_atom_site_fract_x
_atom_site_fract_y
_atom_site_fract_z
Si Si1 0.947120 0.015781 0.496080
Si Si2 0.845773 0.647895 0.819529
Si Si3 0.776268 0.355714 0.843861
Si Si4 0.148388 0.546599 0.200529
Si Si5 0.099012 0.271860 0.958226
Si Si6 0.972858 0.807826 0.155946
O O1 0.899541 0.114929 0.570214
O O2 0.020630 0.996176 0.692703
O O3 0.810275 0.961235 0.586032
O O4 0.815140 0.609896 0.577989
O O5 0.742704 0.730542 0.900987
O O6 0.998929 0.683115 0.716861
O O7 0.808674 0.592241 0.078751
O O8 0.623905 0.320522 0.944827
O O9 0.875022 0.273519 0.737466
O O10 0.104336 0.496570 0.479049
O O11 0.116531 0.648961 0.254252
O O12 0.014398 0.191088 0.907245
#
# Coordination Sequence:
#
# PCOD9137029 Si02
#       6
#     4   4   4   4   4   4
#     4  10  24  40  65  95 135 174 223 270 334 393
#     4  10  22  37  62  97 129 165 223 276 324 378
#     4  10  22  37  62  97 129 165 223 276 324 378
#     4  10  24  40  65  95 135 174 223 270 334 393
#     4  10  23  41  70  99 133 175 229 275 326 399
#     4  10  23  41  70  99 133 175 229 275 326 399
#
# _framework density 28.126348
#
# number of rings (size 3 to 8) (size 9 to 14) (size 15 to 20)
#    0.000    2.000    0.000    1.000   18.667    5.333 
#    0.000    0.000    0.000   26.000    0.000    0.000 
#    0.000    0.000    0.000    0.000    0.000    0.000 
#
# Total GULP energy -66997.314662 kJ/mol
# GULP energy per Si atom -5583.109555 kJ/mol
# Density = 2.806233 g / cm^3
# Si number density = 28.126348 Si / 1000 Ang^3
#
#
#
# Elastic Constant Matrix: (Units=GPa)
#
#
# Indices 1 2 3 4 5 6 
#
# 1 116.3186 42.2164 17.9168 0.0000 -16.0384 0.0000
# 2 42.2164 99.7747 31.6259 0.0000 1.9840 0.0000
# 3 17.9168 31.6259 232.1800 0.0000 38.4817 0.0000
# 4 0.0000 0.0000 0.0000 12.0830 0.0000 3.1690
# 5 -16.0384 1.9840 38.4817 0.0000 57.9084 0.0000
# 6 0.0000 0.0000 0.0000 3.1690 0.0000 33.5727
#
#
#
# Elastic Compliance Matrix: (Units=1/GPa)
#
#
# Indices 1 2 3 4 5 6 
#
# 1 0.010834 -0.004387 -0.000855 0.000000 0.003719 0.000000
# 2 -0.004387 0.012274 -0.001194 0.000000 -0.000842 0.000000
# 3 -0.000855 -0.001194 0.005133 0.000000 -0.003607 0.000000
# 4 0.000000 0.000000 0.000000 0.084862 0.000000 -0.008010
# 5 0.003719 -0.000842 -0.003607 0.000000 0.020725 0.000000
# 6 0.000000 0.000000 0.000000 -0.008010 0.000000 0.030542
#
#
# Mechanical properties :
#
#
# Convention : Reuss Voigt Hill
#
# Bulk Modulus (GPa) = 65.06162 70.19908 67.63035
# Shear Modulus (GPa) = 27.41768 44.48042 35.94905
#
# Velocity S-wave (km/s) = 3.12557 3.98106 3.57897
# Velocity P-wave (km/s) = 6.01729 6.79297 6.41686
#
# Compressibility (1/GPa) = 0.01537004
#
# Stress axis : x y z
#
# Youngs Moduli (GPa) = 92.30454 81.47372 194.80179
#
# Poissons Ratio (x) = 0.35742 0.16652
# Poissons Ratio (y) = 0.40493 0.23254
# Poissons Ratio (z) = 0.07890 0.09726
#
# Static dielectric constant tensor:
#      x y z
#    x 2.156210 0.000000 0.103810 
#    y 0.000000 2.209260 0.000000 
#    z 0.103810 0.000000 2.371840 
# 
# From -- ./inp_files/1598.got.cif
#   From: 2010.05.17/outbox.cif.g08.bks.cpg/sg9_1_cif.got.tgz:1598.got - 2010.06.03 20:04:27.
