data_PCOD9137166
_publ_section_title
;
Structure prediction by ZEFSAII (Michael W. Deem and Ramdas Pophale) SiO2 
 PCOD9137166
Probable space group: C C
;
_chemical_formula_sum "Si O2"
_cell_formula_units_Z 32
_cell_length_a 13.660274
_cell_length_b 8.144379
_cell_length_c 21.476898
_cell_angle_alpha 90.000000
_cell_angle_beta 141.343062
_cell_angle_gamma 90.000000
_cell_volume 1492.553155
_symmetry_space_group_name_H-M "C C"
_symmetry_group_IT_number 9
_symmetry_cell_setting 'monoclinic'
loop_
_space_group_symop_operation_xyz
x,y,z
x,-y,1/2+z
1/2+x,1/2+y,z
1/2+x,1/2-y,1/2+z
loop_
_atom_site_type_symbol
_atom_site_label
_atom_site_fract_x
_atom_site_fract_y
_atom_site_fract_z
Si Si1 0.962860 0.159994 0.018450
Si Si2 0.764009 0.672794 0.938819
Si Si3 0.494357 0.440253 0.394177
Si Si4 0.147328 0.342871 0.208665
Si Si5 0.587352 0.533158 0.263852
Si Si6 0.415211 0.734095 0.286429
Si Si7 0.132188 0.524336 0.833185
Si Si8 0.059501 0.173116 0.636572
O O1 0.037042 0.309495 0.094481
O O2 0.002957 0.137923 0.966258
O O3 0.773901 0.147451 0.924212
O O4 0.027902 0.992451 0.081539
O O5 0.643854 0.620464 0.932122
O O6 0.738732 0.537372 0.873770
O O7 0.697877 0.846050 0.880846
O O8 0.935313 0.696905 0.050055
O O9 0.327007 0.383837 0.282010
O O10 0.486399 0.638397 0.381763
O O11 0.101406 0.463187 0.243501
O O12 0.139468 0.171697 0.241999
O O13 0.466821 0.615348 0.253516
O O14 0.525138 0.383821 0.190414
O O15 0.488435 0.908848 0.302513
O O16 0.233481 0.761845 0.210490
#
# Coordination Sequence:
#
# PCOD9137166 Si02
#       8
#     4   4   4   4   4   4   4   4
#     4   9  20  41  61  92 121 158 212 252 313 384
#     4  10  22  41  61  92 122 161 207 265 315 376
#     4  10  22  40  60  92 128 157 212 253 316 381
#     4   9  19  40  63  86 120 165 197 261 307 374
#     4   9  21  42  60  88 131 155 213 261 314 380
#     4  10  22  42  61  91 124 171 205 259 322 376
#     4   9  20  40  63  86 125 162 203 261 314 367
#     4  10  22  40  63  91 123 165 213 260 313 380
#
# _framework density 21.439772999999999
#
# number of rings (size 3 to 8) (size 9 to 14) (size 15 to 20)
#    0.000    2.500    0.000    0.000    8.750    2.000 
#   20.250    0.000    0.000    0.000    0.000    0.000 
#    0.000    0.000    0.000    0.000    0.000    0.000 
#
# Total GULP energy -89229.269711 kJ/mol
# GULP energy per Si atom -5576.829357 kJ/mol
# Density = 2.139098 g / cm^3
# Si number density = 21.439773 Si / 1000 Ang^3
#
#
#
# Elastic Constant Matrix: (Units=GPa)
#
#
# Indices 1 2 3 4 5 6 
#
# 1 43.4418 3.9416 16.0002 0.0000 9.6352 0.0000
# 2 3.9416 61.2053 13.2571 0.0000 2.9915 0.0000
# 3 16.0002 13.2571 61.7528 0.0000 -9.9186 0.0000
# 4 0.0000 0.0000 0.0000 35.6915 0.0000 4.5503
# 5 9.6352 2.9915 -9.9186 0.0000 23.3568 0.0000
# 6 0.0000 0.0000 0.0000 4.5503 0.0000 15.0868
#
#
#
# Elastic Compliance Matrix: (Units=1/GPa)
#
#
# Indices 1 2 3 4 5 6 
#
# 1 0.030908 0.001279 -0.011115 0.000000 -0.017635 0.000000
# 2 0.001279 0.017549 -0.004877 0.000000 -0.004847 0.000000
# 3 -0.011115 -0.004877 0.022492 0.000000 0.014761 0.000000
# 4 0.000000 0.000000 0.000000 0.029138 0.000000 -0.008788
# 5 -0.017635 -0.004847 0.014761 0.000000 0.056978 0.000000
# 6 0.000000 0.000000 0.000000 -0.008788 0.000000 0.068934
#
#
# Mechanical properties :
#
#
# Convention : Reuss Voigt Hill
#
# Bulk Modulus (GPa) = 24.08359 25.86639 24.97499
# Shear Modulus (GPa) = 18.56886 23.70708 21.13797
#
# Velocity S-wave (km/s) = 2.94614 3.32889 3.14335
# Velocity P-wave (km/s) = 4.77813 5.18326 4.98481
#
# Compressibility (1/GPa) = 0.04152204
#
# Stress axis : x y z
#
# Youngs Moduli (GPa) = 32.35358 56.98198 44.46096
#
# Poissons Ratio (x) = -0.07288 0.49420
# Poissons Ratio (y) = -0.04138 0.21685
# Poissons Ratio (z) = 0.35962 0.27792
#
# Static dielectric constant tensor:
#      x y z
#    x 1.775150 0.000000 -0.048020 
#    y 0.000000 1.855150 0.000000 
#    z -0.048020 0.000000 1.784160 
# 
# From -- ./inp_files/17734.got.cif
#   From: 2010.05.17/outbox.cif.g08.bks.cpg/sg9_9_cif.got.tgz:17734.got - 2010.06.03 20:04:27.
