data_PCOD9137749
_publ_section_title
;
Structure prediction by ZEFSAII (Michael W. Deem and Ramdas Pophale) SiO2 
 PCOD9137749
Probable space group: C C
;
_chemical_formula_sum "Si O2"
_cell_formula_units_Z 24
_cell_length_a 6.808579
_cell_length_b 26.573385
_cell_length_c 5.332538
_cell_angle_alpha 90.000000
_cell_angle_beta 80.470507
_cell_angle_gamma 90.000000
_cell_volume 951.486309
_symmetry_space_group_name_H-M "C C"
_symmetry_group_IT_number 9
_symmetry_cell_setting 'monoclinic'
loop_
_space_group_symop_operation_xyz
x,y,z
x,-y,1/2+z
1/2+x,1/2+y,z
1/2+x,1/2-y,1/2+z
loop_
_atom_site_type_symbol
_atom_site_label
_atom_site_fract_x
_atom_site_fract_y
_atom_site_fract_z
Si Si1 0.257200 0.124908 0.711880
Si Si2 0.203223 0.693907 0.005273
Si Si3 0.985674 0.276763 0.052388
Si Si4 0.495266 0.497122 0.158974
Si Si5 0.700948 0.097761 0.702337
Si Si6 0.000038 0.107164 0.266003
O O1 0.147260 0.105982 0.481946
O O2 0.312936 0.183353 0.659635
O O3 0.466985 0.095694 0.697776
O O4 0.130136 0.121152 0.995835
O O5 0.055814 0.706369 0.262677
O O6 0.405322 0.720499 0.046351
O O7 0.132950 0.719236 0.758257
O O8 0.621413 0.504767 0.883821
O O9 0.322727 0.454678 0.207946
O O10 0.407799 0.552617 0.214974
O O11 0.720085 0.135112 0.935964
O O12 0.809352 0.129564 0.454248
#
# Coordination Sequence:
#
# PCOD9137749 Si02
#       6
#     4   4   4   4   4   4
#     4  11  25  46  74 106 148 194 248 302 374 437
#     4  11  25  47  73 106 153 193 247 303 382 429
#     4  11  25  47  70 112 148 194 250 303 369 460
#     4  10  22  44  67 102 140 179 241 297 351 437
#     4  10  25  49  75 105 150 196 243 308 365 446
#     4  11  24  45  75 105 143 194 247 305 369 437
#
# _framework density 25.223690999999999
#
# number of rings (size 3 to 8) (size 9 to 14) (size 15 to 20)
#    0.000    1.333    0.000    5.000    2.333   12.000 
#    3.000   20.000    0.000    0.000    0.000    0.000 
#    0.000    0.000    0.000    0.000    0.000    0.000 
#
# Total GULP energy -66876.333962 kJ/mol
# GULP energy per Si atom -5573.027830 kJ/mol
# Density = 2.516628 g / cm^3
# Si number density = 25.223691 Si / 1000 Ang^3
#
#
#
# Elastic Constant Matrix: (Units=GPa)
#
#
# Indices 1 2 3 4 5 6 
#
# 1 120.1917 44.2924 55.0681 0.0000 -0.2606 0.0000
# 2 44.2924 107.4273 22.2583 0.0000 1.8865 0.0000
# 3 55.0681 22.2583 267.1205 0.0000 -6.8047 0.0000
# 4 0.0000 0.0000 0.0000 28.0281 0.0000 5.9179
# 5 -0.2606 1.8865 -6.8047 0.0000 49.2281 0.0000
# 6 0.0000 0.0000 0.0000 5.9179 0.0000 52.7295
#
#
#
# Elastic Compliance Matrix: (Units=1/GPa)
#
#
# Indices 1 2 3 4 5 6 
#
# 1 0.010649 -0.004004 -0.001863 0.000000 -0.000048 0.000000
# 2 -0.004004 0.010988 -0.000102 0.000000 -0.000456 0.000000
# 3 -0.001863 -0.000102 0.004151 0.000000 0.000568 0.000000
# 4 0.000000 0.000000 0.000000 0.036544 0.000000 -0.004101
# 5 -0.000048 -0.000456 0.000568 0.000000 0.020409 0.000000
# 6 0.000000 0.000000 0.000000 -0.004101 0.000000 0.019425
#
#
# Mechanical properties :
#
#
# Convention : Reuss Voigt Hill
#
# Bulk Modulus (GPa) = 72.19708 81.99745 77.09727
# Shear Modulus (GPa) = 42.11559 50.87185 46.49372
#
# Velocity S-wave (km/s) = 4.09061 4.49578 4.29797
# Velocity P-wave (km/s) = 7.14112 7.71545 7.43383
#
# Compressibility (1/GPa) = 0.01385097
#
# Stress axis : x y z
#
# Youngs Moduli (GPa) = 93.90642 91.00442 240.92732
#
# Poissons Ratio (x) = 0.36436 0.44883
# Poissons Ratio (y) = 0.37598 0.02454
# Poissons Ratio (z) = 0.17494 0.00927
#
# Static dielectric constant tensor:
#      x y z
#    x 2.015600 0.000000 0.095120 
#    y 0.000000 2.140620 0.000000 
#    z 0.095120 0.000000 2.185040 
# 
# From -- ./inp_files/1136.got.cif
#   From: 2010.05.17/outbox.cif.g08.bks.cpg/sg9_1_cif.got.tgz:1136.got - 2010.06.03 20:04:27.
