data_PCOD9137781
_publ_section_title
;
Structure prediction by ZEFSAII (Michael W. Deem and Ramdas Pophale) SiO2 
 PCOD9137781
Probable space group: C C
;
_chemical_formula_sum "Si O2"
_cell_formula_units_Z 32
_cell_length_a 7.568476
_cell_length_b 29.370291
_cell_length_c 5.141485
_cell_angle_alpha 90.000000
_cell_angle_beta 82.579596
_cell_angle_gamma 90.000000
_cell_volume 1133.320723
_symmetry_space_group_name_H-M "C C"
_symmetry_group_IT_number 9
_symmetry_cell_setting 'monoclinic'
loop_
_space_group_symop_operation_xyz
x,y,z
x,-y,1/2+z
1/2+x,1/2+y,z
1/2+x,1/2-y,1/2+z
loop_
_atom_site_type_symbol
_atom_site_label
_atom_site_fract_x
_atom_site_fract_y
_atom_site_fract_z
Si Si1 0.004770 0.304497 0.642240
Si Si2 0.176070 0.608895 0.988831
Si Si3 0.254172 0.472444 0.116014
Si Si4 0.784318 0.603724 0.976427
Si Si5 0.325911 0.024574 0.608828
Si Si6 0.728365 0.324769 0.080405
Si Si7 0.954530 0.139336 0.309664
Si Si8 0.327387 0.733799 0.291659
O O1 0.132620 0.337533 0.444015
O O2 0.133482 0.289392 0.860105
O O3 0.854673 0.335407 0.811480
O O4 0.916970 0.262420 0.505478
O O5 0.275187 0.576789 0.760193
O O6 0.278345 0.614146 0.242817
O O7 0.976827 0.588357 0.049732
O O8 0.318871 0.491080 0.823256
O O9 0.040496 0.473816 0.098723
O O10 0.799656 0.651651 0.821834
O O11 0.750529 0.570616 0.737857
O O12 0.608952 0.606792 0.178515
O O13 0.268717 0.987001 0.831133
O O14 0.528846 0.343363 0.073110
O O15 0.765996 0.271310 0.095357
O O16 0.949500 0.191079 0.185378
#
# Coordination Sequence:
#
# PCOD9137781 Si02
#       8
#     4   4   4   4   4   4   4   4
#     4  11  24  42  64  95 134 177 234 279 346 409
#     4  10  22  44  68  99 128 181 227 275 353 413
#     4   9  19  39  67  99 137 175 227 287 346 426
#     4  11  24  45  68  99 139 181 229 285 353 413
#     4   9  20  38  70 105 137 182 232 287 354 431
#     4  12  24  40  68  91 136 180 221 296 340 403
#     4  11  25  45  64  98 141 171 236 285 341 414
#     4  11  24  43  63  96 128 185 232 284 341 403
#
# _framework density 28.235607000000002
#
# number of rings (size 3 to 8) (size 9 to 14) (size 15 to 20)
#    0.000    1.500    3.750    0.000    5.250    3.000 
#    6.750    1.250    0.000    0.000    0.000    0.000 
#    0.000    0.000    0.000    0.000    0.000    0.000 
#
# Total GULP energy -89285.668613 kJ/mol
# GULP energy per Si atom -5580.354288 kJ/mol
# Density = 2.817134 g / cm^3
# Si number density = 28.235607 Si / 1000 Ang^3
#
#
#
# Elastic Constant Matrix: (Units=GPa)
#
#
# Indices 1 2 3 4 5 6 
#
# 1 137.2946 23.8146 30.9019 0.0000 35.2249 0.0000
# 2 23.8146 110.5900 17.9156 0.0000 11.5202 0.0000
# 3 30.9019 17.9156 112.2176 0.0000 25.6669 0.0000
# 4 0.0000 0.0000 0.0000 45.0527 0.0000 3.4331
# 5 35.2249 11.5202 25.6669 0.0000 31.3055 0.0000
# 6 0.0000 0.0000 0.0000 3.4331 0.0000 31.3840
#
#
#
# Elastic Compliance Matrix: (Units=1/GPa)
#
#
# Indices 1 2 3 4 5 6 
#
# 1 0.010359 -0.001046 -0.000132 0.000000 -0.011162 0.000000
# 2 -0.001046 0.009579 -0.000867 0.000000 -0.001637 0.000000
# 3 -0.000132 -0.000867 0.011052 0.000000 -0.008593 0.000000
# 4 0.000000 0.000000 0.000000 0.022383 0.000000 -0.002448
# 5 -0.011162 -0.001637 -0.008593 0.000000 0.052150 0.000000
# 6 0.000000 0.000000 0.000000 -0.002448 0.000000 0.032131
#
#
# Mechanical properties :
#
#
# Convention : Reuss Voigt Hill
#
# Bulk Modulus (GPa) = 37.17791 56.15181 46.66486
# Shear Modulus (GPa) = 33.17624 40.71311 36.94468
#
# Velocity S-wave (km/s) = 3.43152 3.80136 3.62116
# Velocity P-wave (km/s) = 5.37550 6.26077 5.83495
#
# Compressibility (1/GPa) = 0.02689770
#
# Stress axis : x y z
#
# Youngs Moduli (GPa) = 96.53734 104.39862 90.48518
#
# Poissons Ratio (x) = 0.10925 0.01198
# Poissons Ratio (y) = 0.10102 0.07842
# Poissons Ratio (z) = 0.01279 0.09048
#
# Static dielectric constant tensor:
#      x y z
#    x 2.231880 0.000000 -0.020040 
#    y 0.000000 2.397210 0.000000 
#    z -0.020040 0.000000 2.221030 
# 
# From -- ./inp_files/1251.got.cif
#   From: 2010.05.17/outbox.cif.g08.bks.cpg/sg9_1_cif.got.tgz:1251.got - 2010.06.03 20:04:27.
