data_PCOD9137830
_publ_section_title
;
Structure prediction by ZEFSAII (Michael W. Deem and Ramdas Pophale) SiO2 
 PCOD9137830
Probable space group: C C
;
_chemical_formula_sum "Si O2"
_cell_formula_units_Z 24
_cell_length_a 7.116917
_cell_length_b 13.853455
_cell_length_c 13.549079
_cell_angle_alpha 90.000000
_cell_angle_beta 47.978096
_cell_angle_gamma 90.000000
_cell_volume 992.392975
_symmetry_space_group_name_H-M "C C"
_symmetry_group_IT_number 9
_symmetry_cell_setting 'monoclinic'
loop_
_space_group_symop_operation_xyz
x,y,z
x,-y,1/2+z
1/2+x,1/2+y,z
1/2+x,1/2-y,1/2+z
loop_
_atom_site_type_symbol
_atom_site_label
_atom_site_fract_x
_atom_site_fract_y
_atom_site_fract_z
Si Si1 0.177000 0.403410 0.376120
Si Si2 0.461003 0.464205 0.919898
Si Si3 0.638554 0.721637 0.800389
Si Si4 0.323858 0.851302 0.655314
Si Si5 0.135345 0.645180 0.678118
Si Si6 0.867799 0.154556 0.065580
O O1 0.262651 0.495015 0.409749
O O2 0.399700 0.323243 0.323207
O O3 0.899539 0.376334 0.515891
O O4 0.162115 0.420746 0.265225
O O5 0.690299 0.427979 0.772781
O O6 0.482445 0.551681 0.992471
O O7 0.348470 0.377920 0.023965
O O8 0.861462 0.642172 0.724707
O O9 0.778307 0.814000 0.704780
O O10 0.543012 0.731846 0.946355
O O11 0.600437 0.838120 0.603498
O O12 0.171585 0.752432 0.707720
#
# Coordination Sequence:
#
# PCOD9137830 Si02
#       6
#     4   4   4   4   4   4
#     4  10  25  47  67 102 144 181 229 298 346 411
#     4  10  25  43  70 106 138 186 237 287 348 421
#     4  10  24  43  69 107 132 187 234 285 354 420
#     4  10  22  44  72  97 142 184 230 290 355 410
#     4  12  24  44  73 101 138 190 235 288 357 412
#     4  10  24  45  69  99 144 180 233 294 340 416
#
# _framework density 24.183966999999999
#
# number of rings (size 3 to 8) (size 9 to 14) (size 15 to 20)
#    0.000    2.000    1.667    1.000   16.333    1.333 
#    3.000    0.000    0.000    0.000    0.000    0.000 
#    0.000    0.000    0.000    0.000    0.000    0.000 
#
# Total GULP energy -66955.111779 kJ/mol
# GULP energy per Si atom -5579.592648 kJ/mol
# Density = 2.412892 g / cm^3
# Si number density = 24.183967 Si / 1000 Ang^3
#
#
#
# Elastic Constant Matrix: (Units=GPa)
#
#
# Indices 1 2 3 4 5 6 
#
# 1 53.0442 14.3260 25.3108 -0.0003 4.2892 0.0003
# 2 14.3260 94.0238 54.3844 0.0000 3.1111 -0.0001
# 3 25.3108 54.3844 180.9333 -0.0003 -6.6688 0.0004
# 4 -0.0003 0.0000 -0.0003 52.4250 0.0003 12.1687
# 5 4.2892 3.1111 -6.6688 0.0003 28.0768 -0.0004
# 6 0.0003 -0.0001 0.0004 12.1687 -0.0004 -2.4977
#
#
#
# Elastic Compliance Matrix: (Units=1/GPa)
#
#
# Indices 1 2 3 4 5 6 
#
# 1 0.020794 -0.001560 -0.002573 0.000000 -0.003615 0.000002
# 2 -0.001560 0.013149 -0.003812 0.000000 -0.002124 -0.000001
# 3 -0.002573 -0.003812 0.007125 0.000000 0.002508 0.000000
# 4 0.000000 0.000000 0.000000 0.008952 0.000001 0.043612
# 5 -0.003615 -0.002124 0.002508 0.000001 0.037000 -0.000003
# 6 0.000002 -0.000001 0.000000 0.043612 -0.000003 -0.187891
#
#
# Mechanical properties :
#
#
# Convention : Reuss Voigt Hill
#
# Bulk Modulus (GPa) = 39.71994 57.33820 48.52907
# Shear Modulus (GPa) = -65.28440 31.19948 -17.04246
#
# Velocity S-wave (km/s) = -5.20130 3.59568 -2.65750
# Velocity P-wave (km/s) = 4.42850 6.40306 3.27014
#
# Compressibility (1/GPa) = 0.02517627
#
# Stress axis : x y z
#
# Youngs Moduli (GPa) = 48.09144 76.05343 140.34816
#
# Poissons Ratio (x) = 0.11867 0.36113
# Poissons Ratio (y) = 0.07504 0.53503
# Poissons Ratio (z) = 0.12374 0.28993
#
# Static dielectric constant tensor:
#      x y z
#    x 1.962460 0.000000 0.040870 
#    y 0.000000 2.018740 0.000000 
#    z 0.040870 0.000000 2.014970 
# 
# From -- ./inp_files/23309.got.cif
#   From: 2010.05.17/outbox.cif.g08.bks.cpg/sg9_12_cif.got.tgz:23309.got - 2010.06.03 20:04:27.
