data_PCOD9137492
_publ_section_title
;
Structure prediction by ZEFSAII (Michael W. Deem and Ramdas Pophale) SiO2 
 PCOD9137492
Probable space group: C C
;
_chemical_formula_sum "Si O2"
_cell_formula_units_Z 32
_cell_length_a 11.141440
_cell_length_b 9.773604
_cell_length_c 14.610889
_cell_angle_alpha 90.000000
_cell_angle_beta 109.488979
_cell_angle_gamma 90.000000
_cell_volume 1499.853465
_symmetry_space_group_name_H-M "C C"
_symmetry_group_IT_number 9
_symmetry_cell_setting 'monoclinic'
loop_
_space_group_symop_operation_xyz
x,y,z
x,-y,1/2+z
1/2+x,1/2+y,z
1/2+x,1/2-y,1/2+z
loop_
_atom_site_type_symbol
_atom_site_label
_atom_site_fract_x
_atom_site_fract_y
_atom_site_fract_z
Si Si1 0.900430 0.350542 0.839940
Si Si2 0.518514 0.884987 0.183751
Si Si3 0.307478 0.859940 0.269022
Si Si4 0.744803 0.245380 0.632836
Si Si5 0.836089 0.000188 0.527161
Si Si6 0.662564 0.114950 0.330827
Si Si7 0.133558 0.978239 0.061095
Si Si8 0.801776 0.699835 0.504426
O O1 0.851426 0.506901 0.836967
O O2 0.852447 0.295699 0.730284
O O3 0.839997 0.274722 0.910108
O O4 0.051975 0.340580 0.873470
O O5 0.437266 0.822792 0.247266
O O6 0.626860 0.792475 0.168103
O O7 0.587138 0.022227 0.237192
O O8 0.411403 0.895893 0.077444
O O9 0.240334 0.739469 0.306782
O O10 0.206701 0.914492 0.167768
O O11 0.791819 0.117048 0.586417
O O12 0.696186 0.373436 0.561310
O O13 0.759438 0.025178 0.414209
O O14 0.985744 0.010502 0.545173
O O15 0.804505 0.847477 0.553460
O O16 0.169833 0.876926 0.987868
#
# Coordination Sequence:
#
# PCOD9137492 Si02
#       8
#     4   4   4   4   4   4   4   4
#     4  10  23  43  67  97 140 182 224 288 346 402
#     4  10  22  42  67  95 142 172 225 280 344 403
#     4   9  22  43  66 101 133 179 230 278 348 413
#     4  11  23  44  69  97 139 180 226 288 341 410
#     4  12  26  42  68 106 132 179 238 276 347 416
#     4  11  24  41  67 105 135 178 231 283 345 414
#     4  10  24  44  66  97 135 178 229 277 350 403
#     4  11  24  45  68 102 138 180 231 286 343 413
#
# _framework density 21.335417
#
# number of rings (size 3 to 8) (size 9 to 14) (size 15 to 20)
#    0.000    1.500    1.250    3.000    5.250    3.000 
#    0.000    1.250    0.000    0.000    0.000    0.000 
#    0.000    0.000    0.000    0.000    0.000    0.000 
#
# Total GULP energy -89381.373211 kJ/mol
# GULP energy per Si atom -5586.335826 kJ/mol
# Density = 2.128686 g / cm^3
# Si number density = 21.335417 Si / 1000 Ang^3
#
#
#
# Elastic Constant Matrix: (Units=GPa)
#
#
# Indices 1 2 3 4 5 6 
#
# 1 125.4112 76.9522 17.4416 0.0000 -2.6334 0.0000
# 2 76.9522 147.6643 39.5313 0.0000 -14.1994 0.0000
# 3 17.4416 39.5313 56.8121 0.0000 4.2312 0.0000
# 4 0.0000 0.0000 0.0000 30.5973 0.0000 -10.7139
# 5 -2.6334 -14.1994 4.2312 0.0000 23.3786 0.0000
# 6 0.0000 0.0000 0.0000 -10.7139 0.0000 39.8639
#
#
#
# Elastic Compliance Matrix: (Units=1/GPa)
#
#
# Indices 1 2 3 4 5 6 
#
# 1 0.011944 -0.006882 0.001351 0.000000 -0.003079 0.000000
# 2 -0.006882 0.013275 -0.007772 0.000000 0.008694 0.000000
# 3 0.001351 -0.007772 0.023249 0.000000 -0.008776 0.000000
# 4 0.000000 0.000000 0.000000 0.036078 0.000000 0.009696
# 5 -0.003079 0.008694 -0.008776 0.000000 0.049296 0.000000
# 6 0.000000 0.000000 0.000000 0.009696 0.000000 0.027691
#
#
# Mechanical properties :
#
#
# Convention : Reuss Voigt Hill
#
# Bulk Modulus (GPa) = 45.74115 66.41529 56.07822
# Shear Modulus (GPa) = 25.58498 31.83213 28.70855
#
# Velocity S-wave (km/s) = 3.46667 3.86681 3.67220
# Velocity P-wave (km/s) = 6.12449 7.15074 6.65742
#
# Compressibility (1/GPa) = 0.02186215
#
# Stress axis : x y z
#
# Youngs Moduli (GPa) = 83.72302 75.32740 43.01336
#
# Poissons Ratio (x) = 0.51843 -0.05812
# Poissons Ratio (y) = 0.57621 0.33430
# Poissons Ratio (z) = -0.11314 0.58544
#
# Static dielectric constant tensor:
#      x y z
#    x 1.775630 0.000000 0.001750 
#    y 0.000000 1.789930 0.000000 
#    z 0.001750 0.000000 1.795640 
# 
# From -- ./inp_files/24184.got.cif
#   From: 2010.05.17/outbox.cif.g08.bks.cpg/sg9_13_cif.got.tgz:24184.got - 2010.06.03 20:04:27.
