data_PCOD9137133
_publ_section_title
;
Structure prediction by ZEFSAII (Michael W. Deem and Ramdas Pophale) SiO2 
 PCOD9137133
Probable space group: C C
;
_chemical_formula_sum "Si O2"
_cell_formula_units_Z 32
_cell_length_a 13.585496
_cell_length_b 19.151137
_cell_length_c 8.742025
_cell_angle_alpha 90.000000
_cell_angle_beta 138.876694
_cell_angle_gamma 90.000000
_cell_volume 1495.883853
_symmetry_space_group_name_H-M "C C"
_symmetry_group_IT_number 9
_symmetry_cell_setting 'monoclinic'
loop_
_space_group_symop_operation_xyz
x,y,z
x,-y,1/2+z
1/2+x,1/2+y,z
1/2+x,1/2-y,1/2+z
loop_
_atom_site_type_symbol
_atom_site_label
_atom_site_fract_x
_atom_site_fract_y
_atom_site_fract_z
Si Si1 0.052440 0.739385 0.032150
Si Si2 0.793682 0.053384 0.854674
Si Si3 0.952783 0.544878 0.575315
Si Si4 0.982978 0.413953 0.453639
Si Si5 0.787204 0.684346 0.286733
Si Si6 0.988910 0.809828 0.646679
Si Si7 0.791642 0.921909 0.004131
Si Si8 0.342938 0.735203 0.542033
O O1 0.229829 0.733939 0.265037
O O2 0.999440 0.749724 0.145073
O O3 0.965667 0.667383 0.893368
O O4 0.028322 0.795943 0.871284
O O5 0.625293 0.056915 0.724318
O O6 0.768274 0.048102 0.644650
O O7 0.874812 0.983133 0.009950
O O8 0.888520 0.121122 0.010557
O O9 0.855138 0.607192 0.389408
O O10 0.895727 0.467537 0.461710
O O11 0.963796 0.549531 0.769415
O O12 0.142971 0.412098 0.727831
O O13 0.630245 0.687051 0.195674
O O14 0.795910 0.710933 0.119707
O O15 0.893714 0.742045 0.488934
O O16 0.852502 0.844815 0.106513
#
# Coordination Sequence:
#
# PCOD9137133 Si02
#       8
#     4   4   4   4   4   4   4   4
#     4  11  25  41  67  96 131 170 222 269 325 390
#     4  11  23  41  69  96 131 172 223 272 326 392
#     4  11  23  41  69  96 131 172 223 272 326 392
#     4  10  22  39  66  97 129 171 223 264 325 384
#     4  12  25  44  68  98 133 174 220 270 335 391
#     4  12  25  44  68  98 133 174 220 270 335 391
#     4  10  22  39  66  97 129 171 223 264 325 384
#     4  11  25  41  67  96 131 170 222 269 325 390
#
# _framework density 21.392036000000001
#
# number of rings (size 3 to 8) (size 9 to 14) (size 15 to 20)
#    0.000    1.000    2.500    5.250   10.500    0.000 
#    0.000    2.500    0.000    0.000    0.000    0.000 
#    0.000    0.000    0.000    0.000    0.000    0.000 
#
# Total GULP energy -89136.414937 kJ/mol
# GULP energy per Si atom -5571.025934 kJ/mol
# Density = 2.134335 g / cm^3
# Si number density = 21.392036 Si / 1000 Ang^3
#
#
#
# Elastic Constant Matrix: (Units=GPa)
#
#
# Indices 1 2 3 4 5 6 
#
# 1 69.9521 4.2864 17.3443 0.0000 -11.7871 0.0000
# 2 4.2864 96.7528 22.8493 0.0000 -1.5964 0.0000
# 3 17.3443 22.8493 68.1135 0.0000 -24.4121 0.0000
# 4 0.0000 0.0000 0.0000 7.3352 0.0000 -18.4775
# 5 -11.7871 -1.5964 -24.4121 0.0000 47.5939 0.0000
# 6 0.0000 0.0000 0.0000 -18.4775 0.0000 22.2866
#
#
#
# Elastic Compliance Matrix: (Units=1/GPa)
#
#
# Indices 1 2 3 4 5 6 
#
# 1 0.015448 0.000103 -0.003180 0.000000 0.002198 0.000000
# 2 0.000103 0.011368 -0.004526 0.000000 -0.001915 0.000000
# 3 -0.003180 -0.004526 0.020428 0.000000 0.009539 0.000000
# 4 0.000000 0.000000 0.000000 -0.125246 0.000000 -0.103840
# 5 0.002198 -0.001915 0.009539 0.000000 0.026384 0.000000
# 6 0.000000 0.000000 0.000000 -0.103840 0.000000 -0.041222
#
#
# Mechanical properties :
#
#
# Convention : Reuss Voigt Hill
#
# Bulk Modulus (GPa) = 31.21329 35.97536 33.59432
# Shear Modulus (GPa) = -74.67915 28.13235 -23.27340
#
# Velocity S-wave (km/s) = -5.91486 3.63034 -3.30198
# Velocity P-wave (km/s) = 5.65904 5.86739 1.09580
#
# Compressibility (1/GPa) = 0.03203764
#
# Stress axis : x y z
#
# Youngs Moduli (GPa) = 64.73269 87.96344 48.95179
#
# Poissons Ratio (x) = -0.00906 0.15569
# Poissons Ratio (y) = -0.00667 0.22156
# Poissons Ratio (z) = 0.20588 0.39813
#
# Static dielectric constant tensor:
#      x y z
#    x 1.915300 0.000000 -0.117950 
#    y 0.000000 1.854430 0.000000 
#    z -0.117950 0.000000 1.858910 
# 
# From -- ./inp_files/10058.got.cif
#   From: 2010.05.17/outbox.cif.g08.bks.cpg/sg9_6_cif.got.tgz:10058.got - 2010.06.03 20:04:27.
