data_PCOD9137964
_publ_section_title
;
Structure prediction by ZEFSAII (Michael W. Deem and Ramdas Pophale) SiO2 
 PCOD9137964
Probable space group: C C
;
_chemical_formula_sum "Si O2"
_cell_formula_units_Z 28
_cell_length_a 27.042122
_cell_length_b 4.960561
_cell_length_c 8.886308
_cell_angle_alpha 90.000000
_cell_angle_beta 59.413195
_cell_angle_gamma 90.000000
_cell_volume 1026.183593
_symmetry_space_group_name_H-M "C C"
_symmetry_group_IT_number 9
_symmetry_cell_setting 'monoclinic'
loop_
_space_group_symop_operation_xyz
x,y,z
x,-y,1/2+z
1/2+x,1/2+y,z
1/2+x,1/2-y,1/2+z
loop_
_atom_site_type_symbol
_atom_site_label
_atom_site_fract_x
_atom_site_fract_y
_atom_site_fract_z
Si Si1 0.228890 0.864224 0.675610
Si Si2 0.023715 0.807398 0.991287
Si Si3 0.631276 0.985333 0.171030
Si Si4 0.945592 0.083850 0.859116
Si Si5 0.873231 0.270361 0.245497
Si Si6 0.123641 0.849314 0.414117
Si Si7 0.298324 0.268874 0.357053
O O1 0.189953 0.654214 0.639889
O O2 0.273732 0.745849 0.726022
O O3 0.180091 0.987419 0.860690
O O4 0.257279 0.109613 0.537456
O O5 0.071748 0.623743 0.837382
O O6 0.063082 0.015236 0.023778
O O7 0.988190 0.950237 0.914963
O O8 0.979230 0.718977 0.190272
O O9 0.630014 0.289875 0.226842
O O10 0.627139 0.920819 0.003964
O O11 0.916345 0.852202 0.802229
O O12 0.898840 0.222080 0.039541
O O13 0.854989 0.580545 0.280837
O O14 0.816837 0.077908 0.353228
#
# Coordination Sequence:
#
# PCOD9137964 Si02
#       7
#     4   4   4   4   4   4   4
#     4  11  26  41  70  98 144 185 233 287 363 421
#     4  10  22  46  66  98 144 174 235 284 363 417
#     4  11  25  42  66 106 139 184 234 292 349 447
#     4  10  22  47  68  96 136 185 231 304 349 422
#     4  11  26  47  70 104 138 183 250 292 353 415
#     4  11  25  42  66 106 139 184 234 292 349 447
#     4  12  26  47  72 102 142 189 235 301 350 421
#
# _framework density 27.285568000000001
#
# number of rings (size 3 to 8) (size 9 to 14) (size 15 to 20)
#    0.000    1.143    2.857    1.714    8.000    0.000 
#   15.429    0.000    0.000    0.000    0.000    0.000 
#    0.000    0.000    0.000    0.000    0.000    0.000 
#
# Total GULP energy -78421.588827 kJ/mol
# GULP energy per Si atom -5601.542059 kJ/mol
# Density = 2.722346 g / cm^3
# Si number density = 27.285568 Si / 1000 Ang^3
#
#
#
# Elastic Constant Matrix: (Units=GPa)
#
#
# Indices 1 2 3 4 5 6 
#
# 1 119.9290 0.6188 37.6014 0.0000 -5.0067 0.0000
# 2 0.6188 57.7337 1.9603 0.0000 -7.5270 0.0000
# 3 37.6014 1.9603 152.4003 0.0000 -2.9359 0.0000
# 4 0.0000 0.0000 0.0000 36.5961 0.0000 1.8173
# 5 -5.0067 -7.5270 -2.9359 0.0000 45.0920 0.0000
# 6 0.0000 0.0000 0.0000 1.8173 0.0000 27.4886
#
#
#
# Elastic Compliance Matrix: (Units=1/GPa)
#
#
# Indices 1 2 3 4 5 6 
#
# 1 0.009071 0.000093 -0.002222 0.000000 0.000878 0.000000
# 2 0.000093 0.017712 -0.000194 0.000000 0.002954 0.000000
# 3 -0.002222 -0.000194 0.007116 0.000000 0.000184 0.000000
# 4 0.000000 0.000000 0.000000 0.027415 0.000000 -0.001812
# 5 0.000878 0.002954 0.000184 0.000000 0.022779 0.000000
# 6 0.000000 0.000000 0.000000 -0.001812 0.000000 0.036498
#
#
# Mechanical properties :
#
#
# Convention : Reuss Voigt Hill
#
# Bulk Modulus (GPa) = 34.18579 45.60267 39.89423
# Shear Modulus (GPa) = 37.03983 41.16085 39.10034
#
# Velocity S-wave (km/s) = 3.68841 3.88818 3.78961
# Velocity P-wave (km/s) = 5.54033 6.07509 5.81386
#
# Compressibility (1/GPa) = 0.02925192
#
# Stress axis : x y z
#
# Youngs Moduli (GPa) = 110.23865 56.46009 140.52770
#
# Poissons Ratio (x) = -0.00523 0.31231
# Poissons Ratio (y) = -0.01022 0.02723
# Poissons Ratio (z) = 0.24499 0.01094
#
# Static dielectric constant tensor:
#      x y z
#    x 2.059580 0.000000 -0.050420 
#    y 0.000000 2.115860 0.000000 
#    z -0.050420 0.000000 2.075310 
# 
# From -- ./inp_files/11917.got.cif
#   From: 2010.05.17/outbox.cif.g08.bks.cpg/sg9_6_cif.got.tgz:11917.got - 2010.06.03 20:04:27.
