data_PCOD9137881
_publ_section_title
;
Structure prediction by ZEFSAII (Michael W. Deem and Ramdas Pophale) SiO2 
 PCOD9137881
Probable space group: C C
;
_chemical_formula_sum "Si O2"
_cell_formula_units_Z 32
_cell_length_a 6.736080
_cell_length_b 19.408303
_cell_length_c 9.973471
_cell_angle_alpha 90.000000
_cell_angle_beta 108.412987
_cell_angle_gamma 90.000000
_cell_volume 1237.137119
_symmetry_space_group_name_H-M "C C"
_symmetry_group_IT_number 9
_symmetry_cell_setting 'monoclinic'
loop_
_space_group_symop_operation_xyz
x,y,z
x,-y,1/2+z
1/2+x,1/2+y,z
1/2+x,1/2-y,1/2+z
loop_
_atom_site_type_symbol
_atom_site_label
_atom_site_fract_x
_atom_site_fract_y
_atom_site_fract_z
Si Si1 0.107860 0.746051 0.140240
Si Si2 0.676959 0.790010 0.157304
Si Si3 0.011386 0.365817 0.390241
Si Si4 0.480426 0.667510 0.219874
Si Si5 0.821387 0.358472 0.993930
Si Si6 0.783181 0.490081 0.606885
Si Si7 0.095331 0.053488 0.803994
Si Si8 0.732039 0.968614 0.608773
O O1 0.304037 0.712080 0.260546
O O2 0.203653 0.806184 0.069418
O O3 0.916159 0.774456 0.184006
O O4 0.037725 0.684912 0.023167
O O5 0.619434 0.826728 0.287391
O O6 0.547009 0.718344 0.114450
O O7 0.564088 0.840659 0.029977
O O8 0.133895 0.438904 0.445722
O O9 0.763486 0.383508 0.321815
O O10 0.699555 0.655215 0.334384
O O11 0.379970 0.594610 0.175982
O O12 0.795338 0.433152 0.049494
O O13 0.721232 0.495645 0.746888
O O14 0.613563 0.456597 0.468567
O O15 0.017444 0.463700 0.645890
O O16 0.867682 0.037407 0.683557
#
# Coordination Sequence:
#
# PCOD9137881 Si02
#       8
#     4   4   4   4   4   4   4   4
#     4  10  24  44  71 107 142 194 236 305 388 437
#     4  11  23  45  74 106 146 192 236 306 391 432
#     4  10  22  48  70 110 155 179 259 310 359 470
#     4  10  22  45  68 101 146 178 247 304 350 456
#     4  11  22  46  65 105 145 177 249 305 348 457
#     4  11  25  46  68 103 144 192 249 299 364 447
#     4  11  24  47  71 101 146 196 247 308 364 439
#     4  10  24  45  71 101 144 200 237 305 372 428
#
# _framework density 25.866171999999999
#
# number of rings (size 3 to 8) (size 9 to 14) (size 15 to 20)
#    0.000    1.500    3.750    0.000    0.000    7.000 
#    4.500    3.750    0.000    0.000    0.000    0.000 
#    0.000    0.000    0.000    0.000    0.000    0.000 
#
# Total GULP energy -89168.556285 kJ/mol
# GULP energy per Si atom -5573.034768 kJ/mol
# Density = 2.580730 g / cm^3
# Si number density = 25.866172 Si / 1000 Ang^3
#
#
#
# Elastic Constant Matrix: (Units=GPa)
#
#
# Indices 1 2 3 4 5 6 
#
# 1 126.0679 25.6114 13.3561 0.0000 26.3136 0.0000
# 2 25.6114 62.4882 2.9084 0.0000 13.2576 0.0000
# 3 13.3561 2.9084 81.6664 0.0000 20.1562 0.0000
# 4 0.0000 0.0000 0.0000 43.2899 0.0000 15.3290
# 5 26.3136 13.2576 20.1562 0.0000 44.8988 0.0000
# 6 0.0000 0.0000 0.0000 15.3290 0.0000 53.1937
#
#
#
# Elastic Compliance Matrix: (Units=1/GPa)
#
#
# Indices 1 2 3 4 5 6 
#
# 1 0.009512 -0.002914 -0.000324 0.000000 -0.004569 0.000000
# 2 -0.002914 0.018003 0.000816 0.000000 -0.003974 0.000000
# 3 -0.000324 0.000816 0.013812 0.000000 -0.006251 0.000000
# 4 0.000000 0.000000 0.000000 0.025725 0.000000 -0.007413
# 5 -0.004569 -0.003974 -0.006251 0.000000 0.028930 0.000000
# 6 0.000000 0.000000 0.000000 -0.007413 0.000000 0.020936
#
#
# Mechanical properties :
#
#
# Convention : Reuss Voigt Hill
#
# Bulk Modulus (GPa) = 27.41052 39.33048 33.37050
# Shear Modulus (GPa) = 37.33506 43.49959 40.41733
#
# Velocity S-wave (km/s) = 3.80332 4.10532 3.95721
# Velocity P-wave (km/s) = 5.46874 6.14084 5.81451
#
# Compressibility (1/GPa) = 0.03648234
#
# Stress axis : x y z
#
# Youngs Moduli (GPa) = 105.12761 55.54739 72.40171
#
# Poissons Ratio (x) = 0.16188 0.02348
# Poissons Ratio (y) = 0.30637 -0.05911
# Poissons Ratio (z) = 0.03409 -0.04535
#
# Static dielectric constant tensor:
#      x y z
#    x 2.062370 0.000000 0.061310 
#    y 0.000000 2.104020 0.000000 
#    z 0.061310 0.000000 2.125600 
# 
# From -- ./inp_files/13550.got.cif
#   From: 2010.05.17/outbox.cif.g08.bks.cpg/sg9_7_cif.got.tgz:13550.got - 2010.06.03 20:04:27.
