data_PCOD9137355
_publ_section_title
;
Structure prediction by ZEFSAII (Michael W. Deem and Ramdas Pophale) SiO2 
 PCOD9137355
Probable space group: C C
;
_chemical_formula_sum "Si O2"
_cell_formula_units_Z 28
_cell_length_a 14.455431
_cell_length_b 17.204967
_cell_length_c 8.517989
_cell_angle_alpha 90.000000
_cell_angle_beta 38.900589
_cell_angle_gamma 90.000000
_cell_volume 1330.336762
_symmetry_space_group_name_H-M "C C"
_symmetry_group_IT_number 9
_symmetry_cell_setting 'monoclinic'
loop_
_space_group_symop_operation_xyz
x,y,z
x,-y,1/2+z
1/2+x,1/2+y,z
1/2+x,1/2-y,1/2+z
loop_
_atom_site_type_symbol
_atom_site_label
_atom_site_fract_x
_atom_site_fract_y
_atom_site_fract_z
Si Si1 0.090190 0.109386 0.037040
Si Si2 0.776708 0.857962 0.854962
Si Si3 0.111753 0.229671 0.277639
Si Si4 0.823268 0.312938 0.752214
Si Si5 0.326233 0.019587 0.113488
Si Si6 0.477753 0.087359 0.613348
Si Si7 0.324743 0.783427 0.110077
O O1 0.104134 0.147027 0.194895
O O2 0.917896 0.097218 0.233516
O O3 0.159444 0.182611 0.851545
O O4 0.188426 0.037563 0.838164
O O5 0.830484 0.807150 0.636371
O O6 0.720215 0.790637 0.048066
O O7 0.633856 0.904782 0.989671
O O8 0.173615 0.218149 0.371139
O O9 0.954732 0.271488 0.483991
O O10 0.818475 0.404255 0.728798
O O11 0.857520 0.299575 0.887516
O O12 0.468835 0.970671 0.979030
O O13 0.362435 0.051505 0.892109
O O14 0.420393 0.168112 0.611986
#
# Coordination Sequence:
#
# PCOD9137355 Si02
#       7
#     4   4   4   4   4   4   4
#     4  10  22  41  67 102 138 183 227 283 351 410
#     4  11  21  42  66 100 136 181 226 295 338 406
#     4  11  23  42  72 105 136 181 234 293 344 411
#     4  12  24  42  70 104 137 174 238 285 344 417
#     4  11  22  43  67  95 135 190 222 270 351 428
#     4  11  23  43  67  97 139 187 230 278 353 415
#     4  10  23  39  69  97 137 180 231 288 345 409
#
# _framework density 21.047302999999999
#
# number of rings (size 3 to 8) (size 9 to 14) (size 15 to 20)
#    0.000    1.143    2.857    6.000    4.000    0.000 
#    0.000    7.143    0.000    0.000    0.000    0.000 
#    0.000    0.000    0.000    0.000    0.000    0.000 
#
# Total GULP energy -78032.526701 kJ/mol
# GULP energy per Si atom -5573.751907 kJ/mol
# Density = 2.099940 g / cm^3
# Si number density = 21.047303 Si / 1000 Ang^3
#
#
#
# Elastic Constant Matrix: (Units=GPa)
#
#
# Indices 1 2 3 4 5 6 
#
# 1 124.3052 40.3256 60.4337 0.0001 -23.0042 0.0000
# 2 40.3256 86.2156 25.1950 0.0000 -8.1041 0.0000
# 3 60.4337 25.1950 67.0684 0.0001 -1.8174 -0.0001
# 4 0.0001 0.0000 0.0001 25.4983 -0.0001 -1.1005
# 5 -23.0042 -8.1041 -1.8174 -0.0001 45.7922 0.0001
# 6 0.0000 0.0000 -0.0001 -1.1005 0.0001 27.2542
#
#
#
# Elastic Compliance Matrix: (Units=1/GPa)
#
#
# Indices 1 2 3 4 5 6 
#
# 1 0.017477 -0.003275 -0.014311 0.000000 0.007632 0.000000
# 2 -0.003275 0.013851 -0.002233 0.000000 0.000717 0.000000
# 3 -0.014311 -0.002233 0.028470 0.000000 -0.006455 0.000000
# 4 0.000000 0.000000 0.000000 0.039287 0.000000 0.001586
# 5 0.007632 0.000717 -0.006455 0.000000 0.025543 0.000000
# 6 0.000000 0.000000 0.000000 0.001586 0.000000 0.036756
#
#
# Mechanical properties :
#
#
# Convention : Reuss Voigt Hill
#
# Bulk Modulus (GPa) = 49.60438 58.83308 54.21873
# Shear Modulus (GPa) = 24.06849 29.81793 26.94321
#
# Velocity S-wave (km/s) = 3.38530 3.76800 3.58177
# Velocity P-wave (km/s) = 6.23695 6.85157 6.55147
#
# Compressibility (1/GPa) = 0.02015951
#
# Stress axis : x y z
#
# Youngs Moduli (GPa) = 57.21675 72.19940 35.12526
#
# Poissons Ratio (x) = 0.23646 0.50269
# Poissons Ratio (y) = 0.18739 0.07842
# Poissons Ratio (z) = 0.81885 0.16119
#
# Static dielectric constant tensor:
#      x y z
#    x 1.842670 0.000000 0.015440 
#    y 0.000000 1.757010 0.000000 
#    z 0.015440 0.000000 1.793160 
# 
# From -- ./inp_files/9919.got.cif
#   From: 2010.05.17/outbox.cif.g08.bks.cpg/sg9_5_cif.got.tgz:9919.got - 2010.06.03 20:04:27.
