data_PCOD9137873
_publ_section_title
;
Structure prediction by ZEFSAII (Michael W. Deem and Ramdas Pophale) SiO2 
 PCOD9137873
Probable space group: C C
;
_chemical_formula_sum "Si O2"
_cell_formula_units_Z 28
_cell_length_a 7.248800
_cell_length_b 12.373525
_cell_length_c 13.063281
_cell_angle_alpha 90.000000
_cell_angle_beta 115.061085
_cell_angle_gamma 90.000000
_cell_volume 1061.381050
_symmetry_space_group_name_H-M "C C"
_symmetry_group_IT_number 9
_symmetry_cell_setting 'monoclinic'
loop_
_space_group_symop_operation_xyz
x,y,z
x,-y,1/2+z
1/2+x,1/2+y,z
1/2+x,1/2-y,1/2+z
loop_
_atom_site_type_symbol
_atom_site_label
_atom_site_fract_x
_atom_site_fract_y
_atom_site_fract_z
Si Si1 0.295300 0.922374 0.600180
Si Si2 0.336148 0.375192 0.551184
Si Si3 0.436750 0.661486 0.288479
Si Si4 0.627883 0.354890 0.040764
Si Si5 0.618131 0.647892 0.756336
Si Si6 0.379558 0.800357 0.820286
Si Si7 0.449616 0.013938 0.925905
O O1 0.408870 0.865074 0.719728
O O2 0.060940 0.883927 0.557009
O O3 0.398347 0.912666 0.514011
O O4 0.288863 0.052070 0.603881
O O5 0.352159 0.411171 0.675465
O O6 0.244436 0.254816 0.540263
O O7 0.142720 0.211346 0.288899
O O8 0.170964 0.442728 0.449417
O O9 0.499372 0.610633 0.411550
O O10 0.288376 0.759216 0.281264
O O11 0.506417 0.351085 0.119735
O O12 0.481858 0.687005 0.818422
O O13 0.748801 0.541451 0.811926
O O14 0.461383 0.883748 0.925228
#
# Coordination Sequence:
#
# PCOD9137873 Si02
#       7
#     4   4   4   4   4   4   4
#     4  11  24  43  68  98 140 178 232 288 337 419
#     4  10  25  42  66  99 135 181 224 280 352 405
#     4  10  22  45  67  94 137 175 227 285 334 412
#     4  11  21  44  70  97 139 179 226 293 342 405
#     4  11  25  43  70  99 136 180 227 290 354 403
#     4  11  25  44  69 101 134 183 235 282 346 420
#     4  12  24  41  68 102 135 178 231 282 351 416
#
# _framework density 26.380724000000001
#
# number of rings (size 3 to 8) (size 9 to 14) (size 15 to 20)
#    0.000    1.143    4.286    1.714    4.000    0.000 
#    0.000    4.286    0.000    0.000    0.000    0.000 
#    0.000    0.000    0.000    0.000    0.000    0.000 
#
# Total GULP energy -78265.969044 kJ/mol
# GULP energy per Si atom -5590.426360 kJ/mol
# Density = 2.632068 g / cm^3
# Si number density = 26.380724 Si / 1000 Ang^3
#
#
#
# Elastic Constant Matrix: (Units=GPa)
#
#
# Indices 1 2 3 4 5 6 
#
# 1 110.5165 32.1017 16.6816 0.0000 -3.6659 0.0000
# 2 32.1017 69.4728 11.8660 0.0000 6.9250 0.0000
# 3 16.6816 11.8660 148.9260 0.0000 -19.5280 0.0000
# 4 0.0000 0.0000 0.0000 31.1764 0.0000 -11.1539
# 5 -3.6659 6.9250 -19.5280 0.0000 37.8234 0.0000
# 6 0.0000 0.0000 0.0000 -11.1539 0.0000 38.0323
#
#
#
# Elastic Compliance Matrix: (Units=1/GPa)
#
#
# Indices 1 2 3 4 5 6 
#
# 1 0.010637 -0.004980 -0.000579 0.000000 0.001644 0.000000
# 2 -0.004980 0.017372 -0.001402 0.000000 -0.004387 0.000000
# 3 -0.000579 -0.001402 0.007420 0.000000 0.004031 0.000000
# 4 0.000000 0.000000 0.000000 0.035835 0.000000 0.010510
# 5 0.001644 -0.004387 0.004031 0.000000 0.029483 0.000000
# 6 0.000000 0.000000 0.000000 0.010510 0.000000 0.029376
#
#
# Mechanical properties :
#
#
# Convention : Reuss Voigt Hill
#
# Bulk Modulus (GPa) = 46.49570 50.02374 48.25972
# Shear Modulus (GPa) = 33.06599 39.29083 36.17841
#
# Velocity S-wave (km/s) = 3.54420 3.86343 3.70725
# Velocity P-wave (km/s) = 5.86614 6.23738 6.05460
#
# Compressibility (1/GPa) = 0.02150736
#
# Stress axis : x y z
#
# Youngs Moduli (GPa) = 94.01239 57.56420 134.77268
#
# Poissons Ratio (x) = 0.28667 0.07805
# Poissons Ratio (y) = 0.46818 0.18889
# Poissons Ratio (z) = 0.05445 0.08068
#
# Static dielectric constant tensor:
#      x y z
#    x 2.046020 0.000000 -0.074700 
#    y 0.000000 2.047090 0.000000 
#    z -0.074700 0.000000 2.261840 
# 
# From -- ./inp_files/24562.got.cif
#   From: 2010.05.17/outbox.cif.g08.bks.cpg/sg9_13_cif.got.tgz:24562.got - 2010.06.03 20:04:27.
