data_PCOD9137300
_publ_section_title
;
Structure prediction by ZEFSAII (Michael W. Deem and Ramdas Pophale) SiO2 
 PCOD9137300
Probable space group: C C
;
_chemical_formula_sum "Si O2"
_cell_formula_units_Z 32
_cell_length_a 5.343868
_cell_length_b 21.769398
_cell_length_c 15.588070
_cell_angle_alpha 90.000000
_cell_angle_beta 61.467190
_cell_angle_gamma 90.000000
_cell_volume 1593.154414
_symmetry_space_group_name_H-M "C C"
_symmetry_group_IT_number 9
_symmetry_cell_setting 'monoclinic'
loop_
_space_group_symop_operation_xyz
x,y,z
x,-y,1/2+z
1/2+x,1/2+y,z
1/2+x,1/2-y,1/2+z
loop_
_atom_site_type_symbol
_atom_site_label
_atom_site_fract_x
_atom_site_fract_y
_atom_site_fract_z
Si Si1 0.844540 0.329191 0.764220
Si Si2 0.535812 0.147577 0.548608
Si Si3 0.177277 0.903515 0.957580
Si Si4 0.125893 0.800758 0.249730
Si Si5 0.101850 0.417325 0.579476
Si Si6 0.114279 0.354945 0.404501
Si Si7 0.309006 0.744180 0.391325
Si Si8 0.714588 0.462329 0.500385
O O1 0.839368 0.364611 0.856896
O O2 0.522225 0.303789 0.810433
O O3 0.032061 0.266652 0.730283
O O4 0.937178 0.376401 0.675816
O O5 0.313365 0.109970 0.527868
O O6 0.392471 0.169992 0.659032
O O7 0.584057 0.207834 0.482863
O O8 0.844131 0.115632 0.508476
O O9 0.219526 0.976447 0.942829
O O10 0.188877 0.787343 0.338188
O O11 0.862655 0.848275 0.294161
O O12 0.209749 0.373860 0.483992
O O13 0.384134 0.447570 0.571630
O O14 0.890451 0.463120 0.561818
O O15 0.985487 0.286834 0.426922
O O16 0.875131 0.406337 0.425706
#
# Coordination Sequence:
#
# PCOD9137300 Si02
#       8
#     4   4   4   4   4   4   4   4
#     4  10  24  39  69  98 133 174 223 267 338 403
#     4  11  26  40  71  94 139 173 215 278 330 395
#     4  11  24  50  64  99 136 176 220 275 328 390
#     4  11  23  39  67 102 136 170 221 270 346 389
#     4  10  23  41  68 103 123 180 223 272 320 395
#     4   9  23  40  66  98 135 165 227 264 327 386
#     4  10  22  41  63 103 132 173 215 276 333 397
#     4  10  23  44  70  89 138 173 222 276 320 379
#
# _framework density 20.085937999999999
#
# number of rings (size 3 to 8) (size 9 to 14) (size 15 to 20)
#    0.750    1.000    1.250    1.500   10.500    0.000 
#    2.250    2.500    0.000    0.000    0.000    0.000 
#    0.000    0.000    0.000    0.000    0.000    0.000 
#
# Total GULP energy -89143.487867 kJ/mol
# GULP energy per Si atom -5571.467992 kJ/mol
# Density = 2.004022 g / cm^3
# Si number density = 20.085938 Si / 1000 Ang^3
#
#
#
# Elastic Constant Matrix: (Units=GPa)
#
#
# Indices 1 2 3 4 5 6 
#
# 1 99.3961 25.2086 25.5569 0.0000 -2.7241 0.0000
# 2 25.2086 75.5218 45.8255 0.0000 -12.7153 0.0000
# 3 25.5569 45.8255 55.8114 0.0000 -12.7613 0.0000
# 4 0.0000 0.0000 0.0000 14.8752 0.0000 3.2914
# 5 -2.7241 -12.7153 -12.7613 0.0000 20.2168 0.0000
# 6 0.0000 0.0000 0.0000 3.2914 0.0000 21.4863
#
#
#
# Elastic Compliance Matrix: (Units=1/GPa)
#
#
# Indices 1 2 3 4 5 6 
#
# 1 0.011553 -0.001422 -0.004641 0.000000 -0.002267 0.000000
# 2 -0.001422 0.026766 -0.020476 0.000000 0.003718 0.000000
# 3 -0.004641 -0.020476 0.039463 0.000000 0.011406 0.000000
# 4 0.000000 0.000000 0.000000 0.069585 0.000000 -0.010660
# 5 -0.002267 0.003718 0.011406 0.000000 0.058697 0.000000
# 6 0.000000 0.000000 0.000000 -0.010660 0.000000 0.048174
#
#
# Mechanical properties :
#
#
# Convention : Reuss Voigt Hill
#
# Bulk Modulus (GPa) = 40.47881 47.10126 43.79004
# Shear Modulus (GPa) = 15.84532 20.25821 18.05176
#
# Velocity S-wave (km/s) = 2.81174 3.17925 3.00113
# Velocity P-wave (km/s) = 5.54416 6.08093 5.81874
#
# Compressibility (1/GPa) = 0.02470428
#
# Stress axis : x y z
#
# Youngs Moduli (GPa) = 86.56111 37.36026 25.33995
#
# Poissons Ratio (x) = 0.05311 0.11761
# Poissons Ratio (y) = 0.12306 0.51887
# Poissons Ratio (z) = 0.40174 0.76500
#
# Static dielectric constant tensor:
#      x y z
#    x 1.782070 0.000000 0.012120 
#    y 0.000000 1.723830 0.000000 
#    z 0.012120 0.000000 1.673400 
# 
# From -- ./inp_files/22176.got.cif
#   From: 2010.05.17/outbox.cif.g08.bks.cpg/sg9_12_cif.got.tgz:22176.got - 2010.06.03 20:04:27.
