data_PCOD9137471
_publ_section_title
;
Structure prediction by ZEFSAII (Michael W. Deem and Ramdas Pophale) SiO2 
 PCOD9137471
Probable space group: C C
;
_chemical_formula_sum "Si O2"
_cell_formula_units_Z 16
_cell_length_a 11.299311
_cell_length_b 6.030871
_cell_length_c 7.129221
_cell_angle_alpha 90.000000
_cell_angle_beta 89.999949
_cell_angle_gamma 90.000000
_cell_volume 485.818534
_symmetry_space_group_name_H-M "C C"
_symmetry_group_IT_number 9
_symmetry_cell_setting 'monoclinic'
loop_
_space_group_symop_operation_xyz
x,y,z
x,-y,1/2+z
1/2+x,1/2+y,z
1/2+x,1/2-y,1/2+z
loop_
_atom_site_type_symbol
_atom_site_label
_atom_site_fract_x
_atom_site_fract_y
_atom_site_fract_z
Si Si1 0.484810 0.476054 0.378550
Si Si2 0.732953 0.862913 0.276949
Si Si3 0.732953 0.441317 0.148196
Si Si4 0.481095 0.023946 0.878551
O O1 0.358026 0.484488 0.272705
O O2 0.607660 0.458988 0.260492
O O3 0.487475 0.726369 0.465398
O O4 0.478431 0.226370 0.465398
O O5 0.732953 0.704060 0.094337
O O6 0.732953 0.735578 0.481597
O O7 0.607879 0.984487 0.272706
O O8 0.858246 0.458988 0.260494
#
# Coordination Sequence:
#
# PCOD9137471 Si02
#       4
#     4   4   4   4
#     4  10  22  42  66  96 134 176 224 278 338 404
#     4  10  23  44  71 104 142 184 234 290 350 418
#     4  10  23  44  71 104 142 184 234 290 350 418
#     4  10  22  42  66  96 134 176 224 278 338 404
#
# _framework density 32.934108999999999
#
# number of rings (size 3 to 8) (size 9 to 14) (size 15 to 20)
#    0.000    2.000    0.000    1.500    0.000   16.000 
#    0.000   20.000    0.000    0.000    0.000    0.000 
#    0.000    0.000    0.000    0.000    0.000    0.000 
#
# Total GULP energy -44555.851341 kJ/mol
# GULP energy per Si atom -5569.481418 kJ/mol
# Density = 3.285915 g / cm^3
# Si number density = 32.934109 Si / 1000 Ang^3
#
#
#
# Elastic Constant Matrix: (Units=GPa)
#
#
# Indices 1 2 3 4 5 6 
#
# 1 382.0418 49.0443 87.7658 0.0000 11.4888 0.0000
# 2 49.0443 332.8637 57.4201 0.0000 -0.9110 0.0000
# 3 87.7658 57.4201 94.3858 0.0000 19.7863 0.0000
# 4 0.0000 0.0000 0.0000 60.8239 0.0000 1.4991
# 5 11.4888 -0.9110 19.7863 0.0000 93.4016 0.0000
# 6 0.0000 0.0000 0.0000 1.4991 0.0000 74.6103
#
#
#
# Elastic Compliance Matrix: (Units=1/GPa)
#
#
# Indices 1 2 3 4 5 6 
#
# 1 0.003336 0.000060 -0.003194 0.000000 0.000267 0.000000
# 2 0.000060 0.003379 -0.002215 0.000000 0.000495 0.000000
# 3 -0.003194 -0.002215 0.015524 0.000000 -0.002917 0.000000
# 4 0.000000 0.000000 0.000000 0.016449 0.000000 -0.000331
# 5 0.000267 0.000495 -0.002917 0.000000 0.011296 0.000000
# 6 0.000000 0.000000 0.000000 -0.000331 0.000000 0.013410
#
#
# Mechanical properties :
#
#
# Convention : Reuss Voigt Hill
#
# Bulk Modulus (GPa) = 86.65413 133.08352 109.86882
# Shear Modulus (GPa) = 64.15258 86.77123 75.46191
#
# Velocity S-wave (km/s) = 4.41830 5.13849 4.79195
# Velocity P-wave (km/s) = 7.23857 8.70070 8.00310
#
# Compressibility (1/GPa) = 0.01154013
#
# Stress axis : x y z
#
# Youngs Moduli (GPa) = 299.80008 295.95798 64.41505
#
# Poissons Ratio (x) = -0.01784 0.20576
# Poissons Ratio (y) = -0.01807 0.14270
# Poissons Ratio (z) = 0.95764 0.65565
#
# Static dielectric constant tensor:
#      x y z
#    x 2.442100 0.000000 -0.038080 
#    y 0.000000 2.751810 0.000000 
#    z -0.038080 0.000000 2.792330 
# 
# From -- ./inp_files/6595.got.cif
#   From: 2010.05.17/outbox.cif.g08.bks.cpg/sg9_4_cif.got.tgz:6595.got - 2010.06.03 20:04:27.
