data_PCOD9137273
_publ_section_title
;
Structure prediction by ZEFSAII (Michael W. Deem and Ramdas Pophale) SiO2 
 PCOD9137273
Probable space group: C C
;
_chemical_formula_sum "Si O2"
_cell_formula_units_Z 28
_cell_length_a 7.956055
_cell_length_b 13.576885
_cell_length_c 13.490954
_cell_angle_alpha 90.000000
_cell_angle_beta 129.259746
_cell_angle_gamma 90.000000
_cell_volume 1128.343754
_symmetry_space_group_name_H-M "C C"
_symmetry_group_IT_number 9
_symmetry_cell_setting 'monoclinic'
loop_
_space_group_symop_operation_xyz
x,y,z
x,-y,1/2+z
1/2+x,1/2+y,z
1/2+x,1/2-y,1/2+z
loop_
_atom_site_type_symbol
_atom_site_label
_atom_site_fract_x
_atom_site_fract_y
_atom_site_fract_z
Si Si1 0.140250 0.902888 0.310340
Si Si2 0.063451 0.349934 0.947565
Si Si3 0.864101 0.016699 0.046926
Si Si4 0.456623 0.743122 0.475805
Si Si5 0.357345 0.313686 0.683165
Si Si6 0.720868 0.773932 0.216490
Si Si7 0.551443 0.445201 0.917495
O O1 0.336060 0.826694 0.368116
O O2 0.048448 0.957401 0.179140
O O3 0.927066 0.848192 0.279511
O O4 0.210950 0.982295 0.420302
O O5 0.135628 0.463214 0.984566
O O6 0.097784 0.292818 0.065088
O O7 0.259383 0.312374 0.951866
O O8 0.847950 0.324761 0.804464
O O9 0.854096 0.129048 0.076831
O O10 0.931595 0.004129 0.958631
O O11 0.613896 0.784060 0.617588
O O12 0.611562 0.662124 0.482349
O O13 0.534617 0.227972 0.732444
O O14 0.403717 0.403048 0.774625
#
# Coordination Sequence:
#
# PCOD9137273 Si02
#       7
#     4   4   4   4   4   4   4
#     4   9  21  45  65  92 134 182 223 279 352 419
#     4   9  21  41  67  88 131 181 220 270 358 412
#     4   9  21  40  63  94 134 171 224 279 342 417
#     4  10  23  40  68  94 134 175 225 286 345 408
#     4  11  25  39  65 103 131 170 237 285 342 416
#     4  10  22  40  69  94 129 177 225 282 343 420
#     4  10  23  41  65  95 139 172 232 277 348 424
#
# _framework density 24.815134
#
# number of rings (size 3 to 8) (size 9 to 14) (size 15 to 20)
#    0.000    2.286    0.000    0.000   16.000    2.286 
#    5.143    1.429    9.429    0.000    0.000    0.000 
#    0.000    0.000    0.000    0.000    0.000    0.000 
#
# Total GULP energy -77946.879285 kJ/mol
# GULP energy per Si atom -5567.634235 kJ/mol
# Density = 2.475865 g / cm^3
# Si number density = 24.815134 Si / 1000 Ang^3
#
#
#
# Elastic Constant Matrix: (Units=GPa)
#
#
# Indices 1 2 3 4 5 6 
#
# 1 81.1436 11.4207 42.8948 0.0000 4.6085 0.0000
# 2 11.4207 54.7932 9.7750 0.0000 -6.0728 0.0000
# 3 42.8948 9.7750 51.5584 0.0000 -12.8000 0.0000
# 4 0.0000 0.0000 0.0000 28.3556 0.0000 -10.0169
# 5 4.6085 -6.0728 -12.8000 0.0000 40.5303 0.0000
# 6 0.0000 0.0000 0.0000 -10.0169 0.0000 6.6643
#
#
#
# Elastic Compliance Matrix: (Units=1/GPa)
#
#
# Indices 1 2 3 4 5 6 
#
# 1 0.025780 -0.002342 -0.023675 0.000000 -0.010759 0.000000
# 2 -0.002342 0.019230 -0.000994 0.000000 0.002834 0.000000
# 3 -0.023675 -0.000994 0.043307 0.000000 0.016220 0.000000
# 4 0.000000 0.000000 0.000000 0.075190 0.000000 0.113016
# 5 -0.010759 0.002834 0.016220 0.000000 0.031443 0.000000
# 6 0.000000 0.000000 0.000000 0.113016 0.000000 0.319923
#
#
# Mechanical properties :
#
#
# Convention : Reuss Voigt Hill
#
# Bulk Modulus (GPa) = 29.15827 35.07515 32.11671
# Shear Modulus (GPa) = 8.61582 23.33700 15.97641
#
# Velocity S-wave (km/s) = 1.86535 3.06998 2.54011
# Velocity P-wave (km/s) = 4.05155 5.17026 4.64471
#
# Compressibility (1/GPa) = 0.03429559
#
# Stress axis : x y z
#
# Youngs Moduli (GPa) = 38.79008 52.00217 23.09073
#
# Poissons Ratio (x) = 0.12180 0.54667
# Poissons Ratio (y) = 0.09086 0.02294
# Poissons Ratio (z) = 0.91835 0.05167
#
# Static dielectric constant tensor:
#      x y z
#    x 1.967240 0.000000 -0.039880 
#    y 0.000000 2.080190 0.000000 
#    z -0.039880 0.000000 2.086470 
# 
# From -- ./inp_files/23420.got.cif
#   From: 2010.05.17/outbox.cif.g08.bks.cpg/sg9_12_cif.got.tgz:23420.got - 2010.06.03 20:04:27.
