data_PCOD9137188
_publ_section_title
;
Structure prediction by ZEFSAII (Michael W. Deem and Ramdas Pophale) SiO2 
 PCOD9137188
Probable space group: C C
;
_chemical_formula_sum "Si O2"
_cell_formula_units_Z 28
_cell_length_a 14.165273
_cell_length_b 4.898914
_cell_length_c 18.447159
_cell_angle_alpha 90.000000
_cell_angle_beta 83.780375
_cell_angle_gamma 90.000000
_cell_volume 1272.595572
_symmetry_space_group_name_H-M "C C"
_symmetry_group_IT_number 9
_symmetry_cell_setting 'monoclinic'
loop_
_space_group_symop_operation_xyz
x,y,z
x,-y,1/2+z
1/2+x,1/2+y,z
1/2+x,1/2-y,1/2+z
loop_
_atom_site_type_symbol
_atom_site_label
_atom_site_fract_x
_atom_site_fract_y
_atom_site_fract_z
Si Si1 0.940980 0.083155 0.805520
Si Si2 0.473700 0.051786 0.163740
Si Si3 0.845253 0.285457 0.949197
Si Si4 0.884108 0.036268 0.100040
Si Si5 0.774369 0.208732 0.386684
Si Si6 0.189025 0.461370 0.691267
Si Si7 0.657646 0.545166 0.285086
O O1 0.858210 0.859026 0.821601
O O2 0.044159 0.950897 0.795345
O O3 0.935707 0.289633 0.738490
O O4 0.926077 0.250226 0.881160
O O5 0.448156 0.267308 0.102623
O O6 0.585782 0.000378 0.164105
O O7 0.424562 0.765474 0.151461
O O8 0.813008 0.595378 0.947199
O O9 0.761357 0.084476 0.925737
O O10 0.880355 0.173854 0.022061
O O11 0.777065 0.969895 0.133538
O O12 0.696651 0.387297 0.351829
O O13 0.192778 0.653598 0.762550
O O14 0.190605 0.147778 0.716092
#
# Coordination Sequence:
#
# PCOD9137188 Si02
#       7
#     4   4   4   4   4   4   4
#     4   9  24  40  68  93 129 162 225 273 310 395
#     4  11  24  42  69  95 128 174 221 267 333 373
#     4  10  24  43  63  93 133 170 217 259 331 389
#     4  12  25  45  65  94 137 176 209 274 328 391
#     4  10  22  40  62  94 126 167 209 264 328 375
#     4  11  25  39  64 101 126 162 222 264 316 399
#     4  11  22  39  65  98 123 161 217 271 320 364
#
# _framework density 22.002276999999999
#
# number of rings (size 3 to 8) (size 9 to 14) (size 15 to 20)
#    0.857    0.571    0.000    5.143   10.000    0.000 
#    5.143    0.000    0.000    0.000    0.000    0.000 
#    0.000    0.000    0.000    0.000    0.000    0.000 
#
# Total GULP energy -78191.897825 kJ/mol
# GULP energy per Si atom -5585.135559 kJ/mol
# Density = 2.195220 g / cm^3
# Si number density = 22.002277 Si / 1000 Ang^3
#
#
#
# Elastic Constant Matrix: (Units=GPa)
#
#
# Indices 1 2 3 4 5 6 
#
# 1 81.6607 27.7259 14.0177 0.0000 23.0079 0.0000
# 2 27.7259 117.4250 0.1508 0.0000 7.4974 0.0000
# 3 14.0177 0.1508 63.3613 0.0000 12.9061 0.0000
# 4 0.0000 0.0000 0.0000 35.1483 0.0000 9.5564
# 5 23.0079 7.4974 12.9061 0.0000 15.8182 0.0000
# 6 0.0000 0.0000 0.0000 9.5564 0.0000 14.8346
#
#
#
# Elastic Compliance Matrix: (Units=1/GPa)
#
#
# Indices 1 2 3 4 5 6 
#
# 1 0.022014 -0.003167 0.001624 0.000000 -0.031844 0.000000
# 2 -0.003167 0.009290 0.000764 0.000000 -0.000420 0.000000
# 3 0.001624 0.000764 0.019161 0.000000 -0.018357 0.000000
# 4 0.000000 0.000000 0.000000 0.034492 0.000000 -0.022220
# 5 -0.031844 -0.000420 -0.018357 0.000000 0.124713 0.000000
# 6 0.000000 0.000000 0.000000 -0.022220 0.000000 0.081724
#
#
# Mechanical properties :
#
#
# Convention : Reuss Voigt Hill
#
# Bulk Modulus (GPa) = 20.44726 38.47063 29.45894
# Shear Modulus (GPa) = 16.16795 27.86374 22.01584
#
# Velocity S-wave (km/s) = 2.71372 3.56252 3.16668
# Velocity P-wave (km/s) = 4.37406 5.86897 5.17577
#
# Compressibility (1/GPa) = 0.04890632
#
# Stress axis : x y z
#
# Youngs Moduli (GPa) = 45.42479 107.64647 52.19040
#
# Poissons Ratio (x) = 0.34090 -0.08473
# Poissons Ratio (y) = 0.14385 -0.03988
# Poissons Ratio (z) = -0.07375 -0.08225
#
# Static dielectric constant tensor:
#      x y z
#    x 1.779230 0.000000 0.039220 
#    y 0.000000 1.789480 0.000000 
#    z 0.039220 0.000000 1.833440 
# 
# From -- ./inp_files/30312.got.cif
#   From: 2010.05.17/outbox.cif.g08.bks.cpg/sg9_16_cif.got.tgz:30312.got - 2010.06.03 20:04:27.
