data_PCOD9137513
_publ_section_title
;
Structure prediction by ZEFSAII (Michael W. Deem and Ramdas Pophale) SiO2 
 PCOD9137513
Probable space group: C C
;
_chemical_formula_sum "Si O2"
_cell_formula_units_Z 32
_cell_length_a 17.000249
_cell_length_b 10.391335
_cell_length_c 11.230770
_cell_angle_alpha 90.000000
_cell_angle_beta 129.374906
_cell_angle_gamma 90.000000
_cell_volume 1533.635360
_symmetry_space_group_name_H-M "C C"
_symmetry_group_IT_number 9
_symmetry_cell_setting 'monoclinic'
loop_
_space_group_symop_operation_xyz
x,y,z
x,-y,1/2+z
1/2+x,1/2+y,z
1/2+x,1/2-y,1/2+z
loop_
_atom_site_type_symbol
_atom_site_label
_atom_site_fract_x
_atom_site_fract_y
_atom_site_fract_z
Si Si1 0.615850 0.270886 0.719740
Si Si2 0.466564 0.463507 0.698790
Si Si3 0.505747 0.752190 0.691640
Si Si4 0.734986 0.892427 0.524202
Si Si5 0.643766 0.489155 0.549545
Si Si6 0.289682 0.818553 0.549351
Si Si7 0.649307 0.855376 0.023025
Si Si8 0.683663 0.759867 0.706310
O O1 0.518935 0.338926 0.687874
O O2 0.649404 0.386018 0.662517
O O3 0.608654 0.152499 0.618194
O O4 0.690026 0.217159 0.893966
O O5 0.479903 0.601584 0.645380
O O6 0.347586 0.435789 0.597180
O O7 0.533391 0.489187 0.882608
O O8 0.407814 0.831971 0.637099
O O9 0.571374 0.801123 0.643104
O O10 0.578493 0.762068 0.876810
O O11 0.736984 0.850469 0.663692
O O12 0.657244 0.012335 0.459170
O O13 0.726402 0.442823 0.530270
O O14 0.674429 0.623912 0.633537
O O15 0.262087 0.708880 0.621136
O O16 0.247000 0.761626 0.385847
#
# Coordination Sequence:
#
# PCOD9137513 Si02
#       8
#     4   4   4   4   4   4   4   4
#     4  11  24  43  69 104 143 180 232 298 346 415
#     4  12  23  44  74  99 128 189 241 275 345 429
#     4  11  22  45  72  97 129 188 232 279 355 415
#     4  12  28  42  70 106 143 180 238 288 353 420
#     4  11  21  46  70  98 139 172 235 288 340 411
#     4  10  22  42  68  97 129 178 226 281 346 404
#     4  10  24  44  64 100 145 175 225 296 350 415
#     4  11  24  42  67  97 136 176 225 293 335 415
#
# _framework density 20.865455000000001
#
# number of rings (size 3 to 8) (size 9 to 14) (size 15 to 20)
#    0.000    1.000    7.500    0.000    5.250    3.000 
#    4.500    0.000    0.000    0.000    0.000    0.000 
#    0.000    0.000    0.000    0.000    0.000    0.000 
#
# Total GULP energy -89147.286122 kJ/mol
# GULP energy per Si atom -5571.705383 kJ/mol
# Density = 2.081796 g / cm^3
# Si number density = 20.865455 Si / 1000 Ang^3
#
#
#
# Elastic Constant Matrix: (Units=GPa)
#
#
# Indices 1 2 3 4 5 6 
#
# 1 116.4220 30.4564 53.3501 0.0000 2.5423 0.0000
# 2 30.4564 54.3599 16.4509 0.0000 0.8357 0.0000
# 3 53.3501 16.4509 52.3771 0.0000 -4.8565 0.0000
# 4 0.0000 0.0000 0.0000 26.8424 0.0000 0.0697
# 5 2.5423 0.8357 -4.8565 0.0000 31.1836 0.0000
# 6 0.0000 0.0000 0.0000 0.0697 0.0000 34.7921
#
#
#
# Elastic Compliance Matrix: (Units=1/GPa)
#
#
# Indices 1 2 3 4 5 6 
#
# 1 0.017624 -0.004719 -0.016834 0.000000 -0.003932 0.000000
# 2 -0.004719 0.021667 -0.002046 0.000000 -0.000515 0.000000
# 3 -0.016834 -0.002046 0.037556 0.000000 0.007276 0.000000
# 4 0.000000 0.000000 0.000000 0.037255 0.000000 -0.000075
# 5 -0.003932 -0.000515 0.007276 0.000000 0.033536 0.000000
# 6 0.000000 0.000000 0.000000 -0.000075 0.000000 0.028742
#
#
# Mechanical properties :
#
#
# Convention : Reuss Voigt Hill
#
# Bulk Modulus (GPa) = 33.72793 47.07486 40.40139
# Shear Modulus (GPa) = 21.41692 26.75707 24.08700
#
# Velocity S-wave (km/s) = 3.20727 3.58489 3.40133
# Velocity P-wave (km/s) = 5.46946 6.30440 5.90171
#
# Compressibility (1/GPa) = 0.02964902
#
# Stress axis : x y z
#
# Youngs Moduli (GPa) = 56.74133 46.15284 26.62702
#
# Poissons Ratio (x) = 0.21781 0.44823
# Poissons Ratio (y) = 0.26779 0.05448
# Poissons Ratio (z) = 0.95516 0.09443
#
# Static dielectric constant tensor:
#      x y z
#    x 1.794710 0.000000 0.000140 
#    y 0.000000 1.819200 0.000000 
#    z 0.000140 0.000000 1.760240 
# 
# From -- ./inp_files/19279.got.cif
#   From: 2010.05.17/outbox.cif.g08.bks.cpg/sg9_10_cif.got.tgz:19279.got - 2010.06.03 20:04:27.
