data_PCOD9137186
_publ_section_title
;
Structure prediction by ZEFSAII (Michael W. Deem and Ramdas Pophale) SiO2 
 PCOD9137186
Probable space group: C C
;
_chemical_formula_sum "Si O2"
_cell_formula_units_Z 24
_cell_length_a 9.110524
_cell_length_b 24.609699
_cell_length_c 10.214802
_cell_angle_alpha 90.000000
_cell_angle_beta 151.820632
_cell_angle_gamma 90.000000
_cell_volume 1081.524329
_symmetry_space_group_name_H-M "C C"
_symmetry_group_IT_number 9
_symmetry_cell_setting 'monoclinic'
loop_
_space_group_symop_operation_xyz
x,y,z
x,-y,1/2+z
1/2+x,1/2+y,z
1/2+x,1/2-y,1/2+z
loop_
_atom_site_type_symbol
_atom_site_label
_atom_site_fract_x
_atom_site_fract_y
_atom_site_fract_z
Si Si1 0.725270 0.209971 0.913680
Si Si2 0.695375 0.035100 0.444202
Si Si3 0.544262 0.640764 0.658368
Si Si4 0.514677 0.488581 0.931675
Si Si5 0.247920 0.371082 0.671243
Si Si6 0.905571 0.785498 0.277129
O O1 0.410388 0.238416 0.618156
O O2 0.865204 0.187295 0.886875
O O3 0.730910 0.163379 0.025836
O O4 0.774086 0.098216 0.484049
O O5 0.917152 0.008273 0.507190
O O6 0.784768 0.022969 0.662317
O O7 0.351525 0.011588 0.160899
O O8 0.412330 0.663383 0.417179
O O9 0.586860 0.682563 0.809206
O O10 0.885188 0.613942 0.911323
O O11 0.449576 0.426369 0.833858
O O12 0.080872 0.730080 0.454384
#
# Coordination Sequence:
#
# PCOD9137186 Si02
#       6
#     4   4   4   4   4   4
#     4  10  22  40  62  92 129 166 209 259 311 375
#     4  11  23  42  64  91 126 164 211 265 319 377
#     4  11  23  40  63  93 127 166 214 263 315 378
#     4  11  23  42  64  91 126 164 211 265 319 377
#     4  11  23  40  63  93 127 166 214 263 315 378
#     4  10  22  40  62  92 129 166 209 259 311 375
#
# _framework density 22.190899999999999
#
# number of rings (size 3 to 8) (size 9 to 14) (size 15 to 20)
#    0.000    1.333    0.000    7.000    0.000    5.333 
#    0.000   13.333    0.000    0.000    0.000    0.000 
#    0.000    0.000    0.000    0.000    0.000    0.000 
#
# Total GULP energy -66935.590456 kJ/mol
# GULP energy per Si atom -5577.965871 kJ/mol
# Density = 2.214039 g / cm^3
# Si number density = 22.190900 Si / 1000 Ang^3
#
#
#
# Elastic Constant Matrix: (Units=GPa)
#
#
# Indices 1 2 3 4 5 6 
#
# 1 77.7843 11.3327 31.5193 0.0000 12.2559 0.0001
# 2 11.3327 21.1962 26.6008 -0.0003 -0.4098 0.0005
# 3 31.5193 26.6008 115.6766 -0.0004 -0.3471 0.0007
# 4 0.0000 -0.0003 -0.0004 145.6453 0.0001 -196.1558
# 5 12.2559 -0.4098 -0.3471 0.0001 49.5873 -0.0001
# 6 0.0001 0.0005 0.0007 -196.1558 -0.0001 349.6715
#
#
#
# Elastic Compliance Matrix: (Units=1/GPa)
#
#
# Indices 1 2 3 4 5 6 
#
# 1 0.015392 -0.004254 -0.003227 0.000000 -0.003862 0.000000
# 2 -0.004254 0.067502 -0.014359 0.000000 0.001509 0.000000
# 3 -0.003227 -0.014359 0.012828 0.000000 0.000769 0.000000
# 4 0.000000 0.000000 0.000000 0.028084 0.000000 0.015754
# 5 -0.003862 0.001509 0.000769 0.000000 0.021139 0.000000
# 6 0.000000 0.000000 0.000000 0.015754 0.000000 0.011698
#
#
# Mechanical properties :
#
#
# Convention : Reuss Voigt Hill
#
# Bulk Modulus (GPa) = 19.21524 39.28474 29.24999
# Shear Modulus (GPa) = 22.97044 118.66110 70.81577
#
# Velocity S-wave (km/s) = 3.22083 7.32045 5.65521
# Velocity P-wave (km/s) = 4.74442 9.44423 7.47339
#
# Compressibility (1/GPa) = 0.05204203
#
# Stress axis : x y z
#
# Youngs Moduli (GPa) = 64.96819 14.81436 77.95164
#
# Poissons Ratio (x) = 0.06302 0.25158
# Poissons Ratio (y) = 0.27637 1.11931
# Poissons Ratio (z) = 0.20968 0.21272
#
# Static dielectric constant tensor:
#      x y z
#    x 1.836800 0.000000 -0.006420 
#    y 0.000000 -3.242690 0.000000 
#    z -0.006420 0.000000 1.795220 
# 
# From -- ./inp_files/6422.got.cif
#   From: 2010.05.17/outbox.cif.g08.bks.cpg/sg9_4_cif.got.tgz:6422.got - 2010.06.03 20:04:27.
