data_PCOD9137933
_publ_section_title
;
Structure prediction by ZEFSAII (Michael W. Deem and Ramdas Pophale) SiO2 
 PCOD9137933
Probable space group: C C
;
_chemical_formula_sum "Si O2"
_cell_formula_units_Z 32
_cell_length_a 8.634796
_cell_length_b 14.977142
_cell_length_c 11.803814
_cell_angle_alpha 90.000000
_cell_angle_beta 120.801394
_cell_angle_gamma 90.000000
_cell_volume 1311.203125
_symmetry_space_group_name_H-M "C C"
_symmetry_group_IT_number 9
_symmetry_cell_setting 'monoclinic'
loop_
_space_group_symop_operation_xyz
x,y,z
x,-y,1/2+z
1/2+x,1/2+y,z
1/2+x,1/2-y,1/2+z
loop_
_atom_site_type_symbol
_atom_site_label
_atom_site_fract_x
_atom_site_fract_y
_atom_site_fract_z
Si Si1 0.898110 0.684743 0.715120
Si Si2 0.840091 0.251253 0.679092
Si Si3 0.681559 0.061551 0.959228
Si Si4 0.700713 0.420996 0.983856
Si Si5 0.545337 0.635735 0.197132
Si Si6 0.679193 0.697742 0.837040
Si Si7 0.332649 0.620245 0.472965
Si Si8 0.426499 0.916931 0.572415
O O1 0.828993 0.663114 0.562563
O O2 0.716105 0.673604 0.721080
O O3 0.060195 0.626639 0.833582
O O4 0.954731 0.786852 0.737434
O O5 0.677493 0.306509 0.667055
O O6 0.817873 0.161888 0.595430
O O7 0.955897 0.328128 0.656738
O O8 0.987141 0.216592 0.822077
O O9 0.587931 0.060726 0.048350
O O10 0.887977 0.089458 0.065203
O O11 0.691737 0.961463 0.912849
O O12 0.653836 0.422867 0.831789
O O13 0.513392 0.417172 0.981754
O O14 0.831399 0.496791 0.087933
O O15 0.792870 0.786763 0.897153
O O16 0.764813 0.616450 0.932894
#
# Coordination Sequence:
#
# PCOD9137933 Si02
#       8
#     4   4   4   4   4   4   4   4
#     4  11  24  47  73 103 145 195 233 294 364 434
#     4  11  25  45  74 100 147 189 243 293 367 430
#     4  11  27  46  75 108 145 187 246 295 362 429
#     4  12  26  43  75 106 148 187 245 298 363 426
#     4  12  27  44  75 110 147 187 244 302 362 431
#     4  10  22  45  72  99 144 190 239 288 371 425
#     4  11  25  45  72 108 139 191 240 308 352 432
#     4  10  26  43  68 106 143 190 236 300 359 435
#
# _framework density 24.405065
#
# number of rings (size 3 to 8) (size 9 to 14) (size 15 to 20)
#    0.000    1.000    2.500    2.250    8.750    5.000 
#    0.000    0.000    0.000    0.000    0.000    0.000 
#    0.000    0.000    0.000    0.000    0.000    0.000 
#
# Total GULP energy -89113.301419 kJ/mol
# GULP energy per Si atom -5569.581339 kJ/mol
# Density = 2.434952 g / cm^3
# Si number density = 24.405065 Si / 1000 Ang^3
#
#
#
# Elastic Constant Matrix: (Units=GPa)
#
#
# Indices 1 2 3 4 5 6 
#
# 1 75.4782 -15.1615 16.0125 0.0000 12.5420 0.0000
# 2 -15.1615 63.4464 3.5938 0.0000 11.5829 0.0000
# 3 16.0125 3.5938 58.9235 0.0000 9.6967 0.0000
# 4 0.0000 0.0000 0.0000 23.3983 0.0000 11.8873
# 5 12.5420 11.5829 9.6967 0.0000 23.6393 0.0000
# 6 0.0000 0.0000 0.0000 11.8873 0.0000 27.2267
#
#
#
# Elastic Compliance Matrix: (Units=1/GPa)
#
#
# Indices 1 2 3 4 5 6 
#
# 1 0.016955 0.006189 -0.003223 0.000000 -0.010706 0.000000
# 2 0.006189 0.019576 -0.000812 0.000000 -0.012542 0.000000
# 3 -0.003223 -0.000812 0.018820 0.000000 -0.005612 0.000000
# 4 0.000000 0.000000 0.000000 0.054920 0.000000 -0.023978
# 5 -0.010706 -0.012542 -0.005612 0.000000 0.056430 0.000000
# 6 0.000000 0.000000 0.000000 -0.023978 0.000000 0.047198
#
#
# Mechanical properties :
#
#
# Convention : Reuss Voigt Hill
#
# Bulk Modulus (GPa) = 16.76218 22.97086 19.86652
# Shear Modulus (GPa) = 21.78866 27.74641 24.76754
#
# Velocity S-wave (km/s) = 2.99120 3.37547 3.18913
# Velocity P-wave (km/s) = 4.33739 4.96231 4.66034
#
# Compressibility (1/GPa) = 0.05965812
#
# Stress axis : x y z
#
# Youngs Moduli (GPa) = 58.98085 51.08322 53.13471
#
# Poissons Ratio (x) = -0.31613 0.17126
# Poissons Ratio (y) = -0.36501 0.04313
# Poissons Ratio (z) = 0.19010 0.04146
#
# Static dielectric constant tensor:
#      x y z
#    x 2.024750 0.000000 -0.005080 
#    y 0.000000 1.914420 0.000000 
#    z -0.005080 0.000000 2.124690 
# 
# From -- ./inp_files/14719.got.cif
#   From: 2010.05.17/outbox.cif.g08.bks.cpg/sg9_8_cif.got.tgz:14719.got - 2010.06.03 20:04:27.
