data_PCOD9137004
_publ_section_title
;
Structure prediction by ZEFSAII (Michael W. Deem and Ramdas Pophale) SiO2 
 PCOD9137004
Probable space group: C C
;
_chemical_formula_sum "Si O2"
_cell_formula_units_Z 28
_cell_length_a 13.559360
_cell_length_b 20.469595
_cell_length_c 13.966341
_cell_angle_alpha 90.000000
_cell_angle_beta 158.188000
_cell_angle_gamma 90.000000
_cell_volume 1440.332342
_symmetry_space_group_name_H-M "C C"
_symmetry_group_IT_number 9
_symmetry_cell_setting 'monoclinic'
loop_
_space_group_symop_operation_xyz
x,y,z
x,-y,1/2+z
1/2+x,1/2+y,z
1/2+x,1/2-y,1/2+z
loop_
_atom_site_type_symbol
_atom_site_label
_atom_site_fract_x
_atom_site_fract_y
_atom_site_fract_z
Si Si1 0.557240 0.655624 0.487800
Si Si2 0.567075 0.898790 0.645935
Si Si3 0.063609 0.498553 0.794656
Si Si4 0.121528 0.206209 0.331607
Si Si5 0.714547 0.712386 0.814178
Si Si6 0.310056 0.984011 0.261031
Si Si7 0.607953 0.436143 0.751320
O O1 0.274825 0.651324 0.287202
O O2 0.549284 0.680145 0.373201
O O3 0.740218 0.701000 0.721220
O O4 0.661304 0.580968 0.588186
O O5 0.291007 0.860872 0.415937
O O6 0.524007 0.953500 0.526847
O O7 0.658120 0.934083 0.823656
O O8 0.949066 0.483999 0.795628
O O9 0.827972 0.530321 0.518486
O O10 0.314052 0.546892 0.024541
O O11 0.389750 0.247371 0.584341
O O12 0.150992 0.141235 0.294538
O O13 0.424552 0.742913 0.559535
O O14 0.139486 0.031910 0.174280
#
# Coordination Sequence:
#
# PCOD9137004 Si02
#       7
#     4   4   4   4   4   4   4
#     4  11  20  37  57  90 119 158 201 248 306 366
#     4  10  22  36  59  89 123 155 200 254 313 368
#     4  11  22  40  62  91 121 156 205 262 317 366
#     4  12  26  38  59  90 127 168 203 246 309 382
#     4  11  21  33  53  79 116 157 191 236 298 369
#     4  10  22  37  64  90 123 161 204 261 312 360
#     4  11  23  41  62  91 127 161 206 257 309 375
#
# _framework density 19.439957
#
# number of rings (size 3 to 8) (size 9 to 14) (size 15 to 20)
#    0.000    1.143    4.286    2.571    4.000    0.000 
#    0.000    0.000    0.000    1.714    0.000    0.000 
#    0.000    0.000    0.000    0.000    0.000    0.000 
#
# Total GULP energy -78111.200112 kJ/mol
# GULP energy per Si atom -5579.371437 kJ/mol
# Density = 1.939571 g / cm^3
# Si number density = 19.439957 Si / 1000 Ang^3
#
#
#
# Elastic Constant Matrix: (Units=GPa)
#
#
# Indices 1 2 3 4 5 6 
#
# 1 70.6521 21.9478 13.9935 0.0013 -2.4188 0.0006
# 2 21.9478 69.7813 15.4546 0.0011 -16.0254 0.0004
# 3 13.9935 15.4546 99.1906 0.0030 1.4814 0.0015
# 4 0.0013 0.0011 0.0030 36.2649 0.0013 -4.6002
# 5 -2.4188 -16.0254 1.4814 0.0013 12.0292 0.0004
# 6 0.0006 0.0004 0.0015 -4.6002 0.0004 28.3422
#
#
#
# Elastic Compliance Matrix: (Units=1/GPa)
#
#
# Indices 1 2 3 4 5 6 
#
# 1 0.016049 -0.005735 -0.001307 0.000000 -0.004252 0.000000
# 2 -0.005735 0.024093 -0.003413 -0.000001 0.031364 -0.000001
# 3 -0.001307 -0.003413 0.010890 -0.000001 -0.006151 0.000000
# 4 0.000000 -0.000001 -0.000001 0.028155 -0.000005 0.004570
# 5 -0.004252 0.031364 -0.006151 -0.000005 0.124818 -0.000003
# 6 0.000000 -0.000001 0.000000 0.004570 -0.000003 0.036025
#
#
# Mechanical properties :
#
#
# Convention : Reuss Voigt Hill
#
# Bulk Modulus (GPa) = 33.19903 38.04620 35.62262
# Shear Modulus (GPa) = 18.45164 27.87579 23.16371
#
# Velocity S-wave (km/s) = 3.08419 3.79085 3.45563
# Velocity P-wave (km/s) = 5.45873 6.22691 5.85543
#
# Compressibility (1/GPa) = 0.03012136
#
# Stress axis : x y z
#
# Youngs Moduli (GPa) = 62.31070 41.50591 91.83005
#
# Poissons Ratio (x) = 0.23802 0.12003
# Poissons Ratio (y) = 0.35733 0.31344
# Poissons Ratio (z) = 0.08145 0.14167
#
# Static dielectric constant tensor:
#      x y z
#    x 1.670240 0.000000 0.030530 
#    y 0.000000 1.747330 0.000000 
#    z 0.030530 0.000000 1.750310 
# 
# From -- ./inp_files/1779.got.cif
#   From: 2010.05.17/outbox.cif.g08.bks.cpg/sg9_1_cif.got.tgz:1779.got - 2010.06.03 20:04:27.
