data_PCOD9137094
_publ_section_title
;
Structure prediction by ZEFSAII (Michael W. Deem and Ramdas Pophale) SiO2 
 PCOD9137094
Probable space group: C C
;
_chemical_formula_sum "Si O2"
_cell_formula_units_Z 32
_cell_length_a 19.877220
_cell_length_b 4.755109
_cell_length_c 12.599855
_cell_angle_alpha 90.000000
_cell_angle_beta 80.494959
_cell_angle_gamma 90.000000
_cell_volume 1174.567461
_symmetry_space_group_name_H-M "C C"
_symmetry_group_IT_number 9
_symmetry_cell_setting 'monoclinic'
loop_
_space_group_symop_operation_xyz
x,y,z
x,-y,1/2+z
1/2+x,1/2+y,z
1/2+x,1/2-y,1/2+z
loop_
_atom_site_type_symbol
_atom_site_label
_atom_site_fract_x
_atom_site_fract_y
_atom_site_fract_z
Si Si1 0.604130 0.642000 0.870540
Si Si2 0.234536 0.119378 0.950627
Si Si3 0.904940 0.880550 0.512025
Si Si4 0.375949 0.922944 0.650516
Si Si5 0.662492 0.228160 0.676315
Si Si6 0.763499 0.923036 0.312155
Si Si7 0.535350 0.357977 0.592094
Si Si8 0.476983 0.228204 0.286324
O O1 0.668589 0.769153 0.913433
O O2 0.633828 0.445542 0.771104
O O3 0.546001 0.840213 0.834491
O O4 0.569741 0.483671 0.981320
O O5 0.289806 0.313217 0.875758
O O6 0.239578 0.806136 0.906345
O O7 0.215755 0.143662 0.077699
O O8 0.849667 0.686704 0.586888
O O9 0.923721 0.856357 0.384947
O O10 0.970897 0.730806 0.549195
O O11 0.899882 0.193777 0.556332
O O12 0.319722 0.749978 0.731338
O O13 0.432086 0.984132 0.728940
O O14 0.707376 0.015794 0.733704
O O15 0.593478 0.159754 0.628139
O O16 0.505647 0.554402 0.691539
#
# Coordination Sequence:
#
# PCOD9137094 Si02
#       8
#     4   4   4   4   4   4   4   4
#     4   8  16  36  62  92 121 153 195 241 297 356
#     4  10  22  39  61  88 116 153 199 242 293 351
#     4  10  22  39  61  88 116 153 199 242 293 351
#     4  11  24  40  59  86 118 155 200 243 289 350
#     4   9  19  37  62  87 121 157 191 244 296 344
#     4  11  24  40  59  86 118 155 200 243 289 350
#     4   8  16  36  62  92 121 153 195 241 297 356
#     4   9  19  37  62  87 121 157 191 244 296 344
#
# _framework density 27.244073
#
# number of rings (size 3 to 8) (size 9 to 14) (size 15 to 20)
#    0.000    2.500    0.000    0.750    0.000    7.000 
#    0.000   35.000    0.000    0.000    0.000    0.000 
#    0.000    0.000    0.000    0.000    0.000    0.000 
#
# Total GULP energy -89195.813112 kJ/mol
# GULP energy per Si atom -5574.738320 kJ/mol
# Density = 2.718206 g / cm^3
# Si number density = 27.244073 Si / 1000 Ang^3
#
#
#
# Elastic Constant Matrix: (Units=GPa)
#
#
# Indices 1 2 3 4 5 6 
#
# 1 81.6937 -6.1469 7.2490 0.0000 17.5586 0.0000
# 2 -6.1469 104.1744 43.5873 0.0000 -3.9136 0.0000
# 3 7.2490 43.5873 209.9442 0.0000 -0.6653 0.0000
# 4 0.0000 0.0000 0.0000 36.2927 0.0000 5.1457
# 5 17.5586 -3.9136 -0.6653 0.0000 31.2511 0.0000
# 6 0.0000 0.0000 0.0000 5.1457 0.0000 10.4719
#
#
#
# Elastic Compliance Matrix: (Units=1/GPa)
#
#
# Indices 1 2 3 4 5 6 
#
# 1 0.014039 0.000820 -0.000680 0.000000 -0.007800 0.000000
# 2 0.000820 0.010611 -0.002229 0.000000 0.000821 0.000000
# 3 -0.000680 -0.002229 0.005250 0.000000 0.000215 0.000000
# 4 0.000000 0.000000 0.000000 0.029617 0.000000 -0.014553
# 5 -0.007800 0.000821 0.000215 0.000000 0.036489 0.000000
# 6 0.000000 0.000000 0.000000 -0.014553 0.000000 0.102645
#
#
# Mechanical properties :
#
#
# Convention : Reuss Voigt Hill
#
# Bulk Modulus (GPa) = 38.87560 53.91015 46.39287
# Shear Modulus (GPa) = 23.65160 39.01134 31.33147
#
# Velocity S-wave (km/s) = 2.94961 3.78818 3.39489
# Velocity P-wave (km/s) = 5.08927 6.24216 5.69496
#
# Compressibility (1/GPa) = 0.02572308
#
# Stress axis : x y z
#
# Youngs Moduli (GPa) = 71.22880 94.24192 190.47533
#
# Poissons Ratio (x) = -0.07725 0.12946
# Poissons Ratio (y) = -0.05839 0.42451
# Poissons Ratio (z) = 0.04841 0.21004
#
# Static dielectric constant tensor:
#      x y z
#    x 2.460600 0.000000 -0.172240 
#    y 0.000000 2.187230 0.000000 
#    z -0.172240 0.000000 2.271930 
# 
# From -- ./inp_files/20468.got.cif
#   From: 2010.05.17/outbox.cif.g08.bks.cpg/sg9_11_cif.got.tgz:20468.got - 2010.06.03 20:04:27.
