data_PCOD9137905
_publ_section_title
;
Structure prediction by ZEFSAII (Michael W. Deem and Ramdas Pophale) SiO2 
 PCOD9137905
Probable space group: C C
;
_chemical_formula_sum "Si O2"
_cell_formula_units_Z 32
_cell_length_a 26.026156
_cell_length_b 8.308593
_cell_length_c 10.624316
_cell_angle_alpha 90.000000
_cell_angle_beta 34.969546
_cell_angle_gamma 90.000000
_cell_volume 1316.739726
_symmetry_space_group_name_H-M "C C"
_symmetry_group_IT_number 9
_symmetry_cell_setting 'monoclinic'
loop_
_space_group_symop_operation_xyz
x,y,z
x,-y,1/2+z
1/2+x,1/2+y,z
1/2+x,1/2-y,1/2+z
loop_
_atom_site_type_symbol
_atom_site_label
_atom_site_fract_x
_atom_site_fract_y
_atom_site_fract_z
Si Si1 0.897810 0.629665 0.371730
Si Si2 0.756630 0.097522 0.791033
Si Si3 0.084221 0.667770 0.058790
Si Si4 0.900434 0.279073 0.365443
Si Si5 0.592001 0.194200 0.575617
Si Si6 0.214708 0.806578 0.115014
Si Si7 0.872913 0.849027 0.661276
Si Si8 0.564903 0.481405 0.277420
O O1 0.878661 0.452870 0.464617
O O2 0.818247 0.653944 0.434391
O O3 0.892760 0.753188 0.495283
O O4 0.002909 0.646942 0.122909
O O5 0.852977 0.144062 0.541892
O O6 0.779579 0.934385 0.817754
O O7 0.688138 0.144016 0.815787
O O8 0.720636 0.204849 0.976675
O O9 0.079105 0.492678 0.145552
O O10 0.074548 0.837684 0.151779
O O11 0.867566 0.269291 0.289449
O O12 0.006750 0.269437 0.157645
O O13 0.677258 0.213899 0.312694
O O14 0.587514 0.340742 0.682113
O O15 0.139426 0.940752 0.234034
O O16 0.959091 0.962387 0.524623
#
# Coordination Sequence:
#
# PCOD9137905 Si02
#       8
#     4   4   4   4   4   4   4   4
#     4  10  25  44  68 100 140 184 239 287 359 424
#     4  11  25  44  70 102 143 180 240 294 360 425
#     4   9  23  44  65  97 140 179 228 287 345 423
#     4  11  25  44  71 103 143 184 235 298 356 429
#     4  11  22  45  72  99 141 186 232 291 360 420
#     4  11  25  42  72 101 141 184 237 298 351 432
#     4  11  23  44  74 100 142 187 236 296 363 424
#     4  10  22  45  70 102 142 178 237 299 352 423
#
# _framework density 24.302448999999999
#
# number of rings (size 3 to 8) (size 9 to 14) (size 15 to 20)
#    0.000    1.500    2.500    0.750    8.750    1.000 
#    0.000    2.500    2.750    0.000    0.000    0.000 
#    0.000    0.000    0.000    0.000    0.000    0.000 
#
# Total GULP energy -89124.522746 kJ/mol
# GULP energy per Si atom -5570.282672 kJ/mol
# Density = 2.424714 g / cm^3
# Si number density = 24.302449 Si / 1000 Ang^3
#
#
#
# Elastic Constant Matrix: (Units=GPa)
#
#
# Indices 1 2 3 4 5 6 
#
# 1 107.9719 7.1074 23.4934 0.0000 -40.0601 0.0000
# 2 7.1074 68.1491 4.0055 0.0000 -2.0923 0.0000
# 3 23.4934 4.0055 54.0255 0.0000 -20.8323 0.0000
# 4 0.0000 0.0000 0.0000 34.3143 0.0000 -12.3544
# 5 -40.0601 -2.0923 -20.8323 0.0000 34.7198 0.0000
# 6 0.0000 0.0000 0.0000 -12.3544 0.0000 26.3125
#
#
#
# Elastic Compliance Matrix: (Units=1/GPa)
#
#
# Indices 1 2 3 4 5 6 
#
# 1 0.016283 -0.001135 0.000288 0.000000 0.018892 0.000000
# 2 -0.001135 0.014820 -0.000996 0.000000 -0.001014 0.000000
# 3 0.000288 -0.000996 0.024151 0.000000 0.014763 0.000000
# 4 0.000000 0.000000 0.000000 0.035071 0.000000 0.016467
# 5 0.018892 -0.001014 0.014763 0.000000 0.059397 0.000000
# 6 0.000000 0.000000 0.000000 0.016467 0.000000 0.045736
#
#
# Mechanical properties :
#
#
# Convention : Reuss Voigt Hill
#
# Bulk Modulus (GPa) = 19.39212 33.26211 26.32711
# Shear Modulus (GPa) = 23.11245 32.10535 27.60890
#
# Velocity S-wave (km/s) = 3.08723 3.63860 3.37420
# Velocity P-wave (km/s) = 4.55025 5.60080 5.10264
#
# Compressibility (1/GPa) = 0.05156734
#
# Stress axis : x y z
#
# Youngs Moduli (GPa) = 61.41329 67.47864 41.40591
#
# Poissons Ratio (x) = 0.07660 -0.01193
# Poissons Ratio (y) = 0.06971 0.04125
# Poissons Ratio (z) = -0.01770 0.06723
#
# Static dielectric constant tensor:
#      x y z
#    x 2.047880 0.000000 -0.117550 
#    y 0.000000 1.892160 0.000000 
#    z -0.117550 0.000000 1.974250 
# 
# From -- ./inp_files/17950.got.cif
#   From: 2010.05.17/outbox.cif.g08.bks.cpg/sg9_9_cif.got.tgz:17950.got - 2010.06.03 20:04:27.
