data_PCOD9137523
_publ_section_title
;
Structure prediction by ZEFSAII (Michael W. Deem and Ramdas Pophale) SiO2 
 PCOD9137523
Probable space group: C C
;
_chemical_formula_sum "Si O2"
_cell_formula_units_Z 32
_cell_length_a 11.448594
_cell_length_b 13.359681
_cell_length_c 13.698201
_cell_angle_alpha 90.000000
_cell_angle_beta 139.188960
_cell_angle_gamma 90.000000
_cell_volume 1369.309210
_symmetry_space_group_name_H-M "C C"
_symmetry_group_IT_number 9
_symmetry_cell_setting 'monoclinic'
loop_
_space_group_symop_operation_xyz
x,y,z
x,-y,1/2+z
1/2+x,1/2+y,z
1/2+x,1/2-y,1/2+z
loop_
_atom_site_type_symbol
_atom_site_label
_atom_site_fract_x
_atom_site_fract_y
_atom_site_fract_z
Si Si1 0.484850 0.615714 0.031500
Si Si2 0.377994 0.465072 0.661074
Si Si3 0.254926 0.910260 0.000730
Si Si4 0.712448 0.831997 0.010423
Si Si5 0.638874 0.227955 0.059932
Si Si6 0.738299 0.615077 0.018297
Si Si7 0.740877 0.261746 0.334110
Si Si8 0.827287 0.299743 0.856485
O O1 0.424655 0.539016 0.075027
O O2 0.642981 0.676332 0.186927
O O3 0.577529 0.585460 0.989559
O O4 0.326674 0.688388 0.899327
O O5 0.557272 0.441175 0.835046
O O6 0.290716 0.574043 0.616840
O O7 0.243544 0.373599 0.600499
O O8 0.349476 0.868607 0.965156
O O9 0.229239 0.822946 0.063589
O O10 0.349886 0.013391 0.092992
O O11 0.801166 0.724477 0.094844
O O12 0.734986 0.830103 0.907127
O O13 0.504492 0.817279 0.905196
O O14 0.431083 0.222680 0.901297
O O15 0.620171 0.244105 0.164442
O O16 0.698925 0.644639 0.879862
#
# Coordination Sequence:
#
# PCOD9137523 Si02
#       8
#     4   4   4   4   4   4   4   4
#     4  10  22  42  69 101 134 179 233 286 351 415
#     4  11  24  44  73 102 143 185 234 294 354 422
#     4  11  24  44  73 103 142 188 232 291 359 424
#     4   9  24  43  68  99 138 183 235 293 345 416
#     4  12  24  45  68 107 142 188 232 288 359 424
#     4   9  24  41  68  98 133 183 232 287 346 411
#     4  10  26  42  70 101 145 183 237 287 352 424
#     4  10  22  43  69 101 135 179 231 290 348 416
#
# _framework density 23.369447999999998
#
# number of rings (size 3 to 8) (size 9 to 14) (size 15 to 20)
#    0.750    1.000    2.500    0.000    7.000    5.000 
#    0.000    0.000    0.000    0.000    0.000    0.000 
#    0.000    0.000    0.000    0.000    0.000    0.000 
#
# Total GULP energy -89228.992830 kJ/mol
# GULP energy per Si atom -5576.812052 kJ/mol
# Density = 2.331626 g / cm^3
# Si number density = 23.369448 Si / 1000 Ang^3
#
#
#
# Elastic Constant Matrix: (Units=GPa)
#
#
# Indices 1 2 3 4 5 6 
#
# 1 98.6711 35.6265 24.1130 0.0001 -24.9428 0.0000
# 2 35.6265 116.6199 21.7266 0.0000 -26.4112 0.0000
# 3 24.1130 21.7266 48.2212 0.0002 -0.8917 0.0001
# 4 0.0001 0.0000 0.0002 24.7896 0.0001 -1.9043
# 5 -24.9428 -26.4112 -0.8917 0.0001 28.5535 0.0000
# 6 0.0000 0.0000 0.0001 -1.9043 0.0000 28.3146
#
#
#
# Elastic Compliance Matrix: (Units=1/GPa)
#
#
# Indices 1 2 3 4 5 6 
#
# 1 0.015264 -0.000447 -0.007197 0.000000 0.012696 0.000000
# 2 -0.000447 0.012043 -0.005007 0.000000 0.010593 0.000000
# 3 -0.007197 -0.005007 0.026406 0.000000 -0.010093 0.000000
# 4 0.000000 0.000000 0.000000 0.040549 0.000000 0.002727
# 5 0.012696 0.010593 -0.010093 0.000000 0.055595 0.000000
# 6 0.000000 0.000000 0.000000 0.002727 0.000000 0.035501
#
#
# Mechanical properties :
#
#
# Convention : Reuss Voigt Hill
#
# Bulk Modulus (GPa) = 35.19637 47.38269 41.28953
# Shear Modulus (GPa) = 22.71397 28.46797 25.59097
#
# Velocity S-wave (km/s) = 3.12100 3.49402 3.31276
# Velocity P-wave (km/s) = 5.29915 6.04955 5.68674
#
# Compressibility (1/GPa) = 0.02841202
#
# Stress axis : x y z
#
# Youngs Moduli (GPa) = 65.51335 83.03474 37.87083
#
# Poissons Ratio (x) = 0.03713 0.27254
# Poissons Ratio (y) = 0.02929 0.18961
# Poissons Ratio (z) = 0.47147 0.41573
#
# Static dielectric constant tensor:
#      x y z
#    x 1.878310 0.000000 -0.007240 
#    y 0.000000 1.967880 0.000000 
#    z -0.007240 0.000000 1.898220 
# 
# From -- ./inp_files/24868.got.cif
#   From: 2010.05.17/outbox.cif.g08.bks.cpg/sg9_13_cif.got.tgz:24868.got - 2010.06.03 20:04:27.
