data_PCOD9137531
_publ_section_title
;
Structure prediction by ZEFSAII (Michael W. Deem and Ramdas Pophale) SiO2 
 PCOD9137531
Probable space group: C C
;
_chemical_formula_sum "Si O2"
_cell_formula_units_Z 32
_cell_length_a 8.475339
_cell_length_b 11.391978
_cell_length_c 27.389632
_cell_angle_alpha 90.000000
_cell_angle_beta 147.423049
_cell_angle_gamma 90.000000
_cell_volume 1423.879201
_symmetry_space_group_name_H-M "C C"
_symmetry_group_IT_number 9
_symmetry_cell_setting 'monoclinic'
loop_
_space_group_symop_operation_xyz
x,y,z
x,-y,1/2+z
1/2+x,1/2+y,z
1/2+x,1/2-y,1/2+z
loop_
_atom_site_type_symbol
_atom_site_label
_atom_site_fract_x
_atom_site_fract_y
_atom_site_fract_z
Si Si1 0.605670 0.358163 0.199570
Si Si2 0.790767 0.425746 0.503889
Si Si3 0.458058 0.480483 0.571277
Si Si4 0.695959 0.905364 0.405906
Si Si5 0.169560 0.582425 0.672399
Si Si6 0.670964 0.756200 0.547022
Si Si7 0.620710 0.099117 0.225394
Si Si8 0.060041 0.846311 0.915803
O O1 0.495339 0.416140 0.120650
O O2 0.370553 0.363625 0.182771
O O3 0.665280 0.220396 0.208050
O O4 0.893829 0.421370 0.297340
O O5 0.467632 0.409481 0.440348
O O6 0.762467 0.539360 0.460872
O O7 0.995407 0.478531 0.599355
O O8 0.926285 0.306716 0.518746
O O9 0.270279 0.488799 0.471999
O O10 0.314564 0.373789 0.563261
O O11 0.784316 0.439511 0.641016
O O12 0.680942 0.772405 0.423257
O O13 0.309459 0.508871 0.752637
O O14 0.940827 0.675836 0.634779
O O15 0.543079 0.682394 0.468543
O O16 0.746351 0.127546 0.311349
#
# Coordination Sequence:
#
# PCOD9137531 Si02
#       8
#     4   4   4   4   4   4   4   4
#     4  11  24  45  68  97 144 177 233 287 342 418
#     4  11  21  44  67  98 136 172 232 279 346 410
#     4  11  21  42  69  97 133 183 219 285 351 397
#     4  10  23  44  68 104 137 177 236 286 340 415
#     4  11  23  42  66  98 137 178 228 277 340 424
#     4  10  22  42  69  98 130 180 227 281 344 407
#     4  11  23  43  65  98 138 177 228 284 342 408
#     4   9  23  42  66  98 133 178 225 289 339 401
#
# _framework density 22.473814999999998
#
# number of rings (size 3 to 8) (size 9 to 14) (size 15 to 20)
#    0.000    1.500    3.750    0.750    0.000    4.000 
#    2.250    7.500    0.000    0.000    0.000    0.000 
#    0.000    0.000    0.000    0.000    0.000    0.000 
#
# Total GULP energy -89329.173313 kJ/mol
# GULP energy per Si atom -5583.073332 kJ/mol
# Density = 2.242266 g / cm^3
# Si number density = 22.473815 Si / 1000 Ang^3
#
#
#
# Elastic Constant Matrix: (Units=GPa)
#
#
# Indices 1 2 3 4 5 6 
#
# 1 66.8522 47.7971 26.2452 0.0000 1.1377 0.0000
# 2 47.7971 102.8592 31.6680 0.0000 -16.7866 0.0000
# 3 26.2452 31.6680 64.5528 -0.0001 -1.7682 0.0000
# 4 0.0000 0.0000 -0.0001 30.9755 0.0000 -5.7459
# 5 1.1377 -16.7866 -1.7682 0.0000 21.8894 0.0000
# 6 0.0000 0.0000 0.0000 -5.7459 0.0000 38.5153
#
#
#
# Elastic Compliance Matrix: (Units=1/GPa)
#
#
# Indices 1 2 3 4 5 6 
#
# 1 0.025876 -0.012396 -0.004747 0.000000 -0.011235 0.000000
# 2 -0.012396 0.019145 -0.003941 0.000000 0.015008 0.000000
# 3 -0.004747 -0.003941 0.019321 0.000000 -0.001215 0.000000
# 4 0.000000 0.000000 0.000000 0.033202 0.000000 0.004953
# 5 -0.011235 0.015008 -0.001215 0.000000 0.057679 0.000000
# 6 0.000000 0.000000 0.000000 0.004953 0.000000 0.026703
#
#
# Mechanical properties :
#
#
# Convention : Reuss Voigt Hill
#
# Bulk Modulus (GPa) = 45.09789 49.52051 47.30920
# Shear Modulus (GPa) = 21.59954 26.84630 24.22292
#
# Velocity S-wave (km/s) = 3.10352 3.45999 3.28659
# Velocity P-wave (km/s) = 5.74046 6.16803 5.95808
#
# Compressibility (1/GPa) = 0.02217399
#
# Stress axis : x y z
#
# Youngs Moduli (GPa) = 38.64580 52.23289 51.75656
#
# Poissons Ratio (x) = 0.64749 0.24568
# Poissons Ratio (y) = 0.47906 0.20397
# Poissons Ratio (z) = 0.18345 0.20585
#
# Static dielectric constant tensor:
#      x y z
#    x 1.882670 0.000000 -0.044740 
#    y 0.000000 1.863780 0.000000 
#    z -0.044740 0.000000 1.866500 
# 
# From -- ./inp_files/22748.got.cif
#   From: 2010.05.17/outbox.cif.g08.bks.cpg/sg9_12_cif.got.tgz:22748.got - 2010.06.03 20:04:27.
