data_PCOD9137599
_publ_section_title
;
Structure prediction by ZEFSAII (Michael W. Deem and Ramdas Pophale) SiO2 
 PCOD9137599
Probable space group: C C
;
_chemical_formula_sum "Si O2"
_cell_formula_units_Z 28
_cell_length_a 22.334953
_cell_length_b 8.930889
_cell_length_c 15.110193
_cell_angle_alpha 90.000000
_cell_angle_beta 159.481040
_cell_angle_gamma 90.000000
_cell_volume 1056.475011
_symmetry_space_group_name_H-M "C C"
_symmetry_group_IT_number 9
_symmetry_cell_setting 'monoclinic'
loop_
_space_group_symop_operation_xyz
x,y,z
x,-y,1/2+z
1/2+x,1/2+y,z
1/2+x,1/2-y,1/2+z
loop_
_atom_site_type_symbol
_atom_site_label
_atom_site_fract_x
_atom_site_fract_y
_atom_site_fract_z
Si Si1 0.820540 0.740359 0.934110
Si Si2 0.724040 0.030374 0.553344
Si Si3 0.144060 0.521072 0.639597
Si Si4 0.844060 0.242256 0.009709
Si Si5 0.727320 0.703705 0.538445
Si Si6 0.431366 0.023282 0.501503
Si Si7 0.713026 0.353092 0.478968
O O1 0.769455 0.653502 0.953411
O O2 0.665874 0.850060 0.696808
O O3 0.837444 0.634687 0.871017
O O4 0.007924 0.817941 0.204996
O O5 0.630016 0.046551 0.517446
O O6 0.797213 0.196410 0.633916
O O7 0.819138 0.866946 0.691361
O O8 0.591483 0.008909 0.288934
O O9 0.005943 0.585756 0.515225
O O10 0.315069 0.592476 0.915109
O O11 0.815332 0.364342 0.894402
O O12 0.037620 0.235757 0.311312
O O13 0.729751 0.275679 0.935139
O O14 0.750975 0.520289 0.571953
#
# Coordination Sequence:
#
# PCOD9137599 Si02
#       7
#     4   4   4   4   4   4   4
#     4  11  20  40  68  92 127 169 218 259 325 377
#     4  10  24  44  63  98 135 172 209 266 333 378
#     4  12  22  43  63  96 135 164 211 280 309 387
#     4  11  20  40  68  92 127 169 218 259 325 377
#     4  11  22  42  70  95 128 177 213 265 323 390
#     4  10  22  43  64  90 130 176 208 264 324 383
#     4  11  22  42  70  95 128 177 213 265 323 390
#
# _framework density 26.503229999999999
#
# number of rings (size 3 to 8) (size 9 to 14) (size 15 to 20)
#    0.000    1.143    8.571    0.000    0.000    0.000 
#   12.857    0.000    0.000    0.000    0.000    0.000 
#    0.000    0.000    0.000    0.000    0.000    0.000 
#
# Total GULP energy -77999.050242 kJ/mol
# GULP energy per Si atom -5571.360732 kJ/mol
# Density = 2.644291 g / cm^3
# Si number density = 26.503230 Si / 1000 Ang^3
#
#
#
# Elastic Constant Matrix: (Units=GPa)
#
#
# Indices 1 2 3 4 5 6 
#
# 1 139.5521 32.3039 -3.1097 0.0000 4.2503 0.0000
# 2 32.3039 196.2765 0.3169 0.0000 -4.7998 0.0000
# 3 -3.1097 0.3169 36.6908 0.0000 -5.2098 0.0000
# 4 0.0000 0.0000 0.0000 -259.5709 0.0000 -199.5675
# 5 4.2503 -4.7998 -5.2098 0.0000 15.2330 0.0000
# 6 0.0000 0.0000 0.0000 -199.5675 0.0000 -75.7294
#
#
#
# Elastic Compliance Matrix: (Units=1/GPa)
#
#
# Indices 1 2 3 4 5 6 
#
# 1 0.007547 -0.001302 0.000309 0.000000 -0.002410 0.000000
# 2 -0.001302 0.005360 0.000142 0.000000 0.002101 0.000000
# 3 0.000309 0.000142 0.028666 0.000000 0.009762 0.000000
# 4 0.000000 0.000000 0.000000 0.003755 0.000000 -0.009894
# 5 -0.002410 0.002101 0.009762 0.000000 0.070320 0.000000
# 6 0.000000 0.000000 0.000000 -0.009894 0.000000 0.012869
#
#
# Mechanical properties :
#
#
# Convention : Reuss Voigt Hill
#
# Bulk Modulus (GPa) = 25.08096 47.94908 36.51502
# Shear Modulus (GPa) = 34.84073 -41.14623 -3.15275
#
# Velocity S-wave (km/s) = 3.62965 -3.94445 -1.09186
# Velocity P-wave (km/s) = 5.20094 1.61674 3.49542
#
# Compressibility (1/GPa) = 0.03987088
#
# Stress axis : x y z
#
# Youngs Moduli (GPa) = 132.49634 186.55965 34.88462
#
# Poissons Ratio (x) = 0.24283 -0.01077
# Poissons Ratio (y) = 0.17246 -0.00494
# Poissons Ratio (z) = -0.04090 -0.02642
#
# Static dielectric constant tensor:
#      x y z
#    x 2.020340 0.000000 -0.025870 
#    y 0.000000 2.848800 0.000000 
#    z -0.025870 0.000000 2.152790 
# 
# From -- ./inp_files/24126.got.cif
#   From: 2010.05.17/outbox.cif.g08.bks.cpg/sg9_13_cif.got.tgz:24126.got - 2010.06.03 20:04:27.
