data_PCOD9137701
_publ_section_title
;
Structure prediction by ZEFSAII (Michael W. Deem and Ramdas Pophale) SiO2 
 PCOD9137701
Probable space group: C C
;
_chemical_formula_sum "Si O2"
_cell_formula_units_Z 28
_cell_length_a 16.891134
_cell_length_b 10.412955
_cell_length_c 8.684913
_cell_angle_alpha 90.000000
_cell_angle_beta 130.078220
_cell_angle_gamma 90.000000
_cell_volume 1168.837260
_symmetry_space_group_name_H-M "C C"
_symmetry_group_IT_number 9
_symmetry_cell_setting 'monoclinic'
loop_
_space_group_symop_operation_xyz
x,y,z
x,-y,1/2+z
1/2+x,1/2+y,z
1/2+x,1/2-y,1/2+z
loop_
_atom_site_type_symbol
_atom_site_label
_atom_site_fract_x
_atom_site_fract_y
_atom_site_fract_z
Si Si1 0.569770 0.449564 0.400420
Si Si2 0.699017 0.555201 0.337229
Si Si3 0.904861 0.424058 0.671610
Si Si4 0.367338 0.417366 0.598574
Si Si5 0.560312 0.045287 0.109466
Si Si6 0.670600 0.173515 0.963707
Si Si7 0.373384 0.331299 0.254642
O O1 0.615021 0.448210 0.287491
O O2 0.673721 0.448835 0.627271
O O3 0.486494 0.432766 0.797394
O O4 0.497152 0.339677 0.379252
O O5 0.819053 0.527383 0.513981
O O6 0.661745 0.685494 0.375968
O O7 0.840708 0.306106 0.659196
O O8 0.980091 0.473979 0.897379
O O9 0.983186 0.385883 0.632781
O O10 0.295103 0.339557 0.621644
O O11 0.354786 0.368929 0.408496
O O12 0.329717 0.563185 0.582405
O O13 0.624508 0.136884 0.073059
O O14 0.623800 0.935126 0.285665
#
# Coordination Sequence:
#
# PCOD9137701 Si02
#       7
#     4   4   4   4   4   4   4
#     4  10  22  44  65 110 131 186 234 290 359 427
#     4  12  25  43  73 109 144 189 238 303 365 426
#     4  11  25  47  71 109 150 192 238 308 369 427
#     4  10  22  43  72 105 135 189 239 295 365 422
#     4  10  25  47  69 108 143 202 243 293 372 428
#     4  11  25  46  75 103 146 193 250 300 357 445
#     4  10  22  44  71  98 149 181 238 299 357 435
#
# _framework density 23.955428000000001
#
# number of rings (size 3 to 8) (size 9 to 14) (size 15 to 20)
#    0.857    0.571    1.429    2.571    4.000    3.429 
#   15.429    0.000    0.000    0.000    0.000    0.000 
#    0.000    0.000    0.000    0.000    0.000    0.000 
#
# Total GULP energy -77997.582298 kJ/mol
# GULP energy per Si atom -5571.255878 kJ/mol
# Density = 2.390090 g / cm^3
# Si number density = 23.955428 Si / 1000 Ang^3
#
#
#
# Elastic Constant Matrix: (Units=GPa)
#
#
# Indices 1 2 3 4 5 6 
#
# 1 159.3458 44.6637 46.1241 0.0000 -16.7431 0.0000
# 2 44.6637 74.4940 36.6632 0.0000 -12.1129 0.0000
# 3 46.1241 36.6632 86.3606 0.0000 -4.5379 0.0000
# 4 0.0000 0.0000 0.0000 16.3101 0.0000 0.4161
# 5 -16.7431 -12.1129 -4.5379 0.0000 45.6607 0.0000
# 6 0.0000 0.0000 0.0000 0.4161 0.0000 10.7279
#
#
#
# Elastic Compliance Matrix: (Units=1/GPa)
#
#
# Indices 1 2 3 4 5 6 
#
# 1 0.008213 -0.003171 -0.002942 0.000000 0.001878 0.000000
# 2 -0.003171 0.018878 -0.006151 0.000000 0.003234 0.000000
# 3 -0.002942 -0.006151 0.015701 0.000000 -0.001150 0.000000
# 4 0.000000 0.000000 0.000000 0.061372 0.000000 -0.002381
# 5 0.001878 0.003234 -0.001150 0.000000 0.023333 0.000000
# 6 0.000000 0.000000 0.000000 -0.002381 0.000000 0.093307
#
#
# Mechanical properties :
#
#
# Convention : Reuss Voigt Hill
#
# Bulk Modulus (GPa) = 54.74826 63.90028 59.32427
# Shear Modulus (GPa) = 19.88691 27.38972 23.63832
#
# Velocity S-wave (km/s) = 2.88438 3.38503 3.14469
# Velocity P-wave (km/s) = 5.83067 6.48155 6.16471
#
# Compressibility (1/GPa) = 0.01826542
#
# Stress axis : x y z
#
# Youngs Moduli (GPa) = 121.75264 52.97078 63.68897
#
# Poissons Ratio (x) = 0.16798 0.18735
# Poissons Ratio (y) = 0.38611 0.39174
# Poissons Ratio (z) = 0.35815 0.32582
#
# Static dielectric constant tensor:
#      x y z
#    x 1.914650 0.000000 0.012800 
#    y 0.000000 2.059020 0.000000 
#    z 0.012800 0.000000 1.870530 
# 
# From -- ./inp_files/9196.got.cif
#   From: 2010.05.17/outbox.cif.g08.bks.cpg/sg9_5_cif.got.tgz:9196.got - 2010.06.03 20:04:27.
