data_PCOD9137576
_publ_section_title
;
Structure prediction by ZEFSAII (Michael W. Deem and Ramdas Pophale) SiO2 
 PCOD9137576
Probable space group: C C
;
_chemical_formula_sum "Si O2"
_cell_formula_units_Z 28
_cell_length_a 7.763535
_cell_length_b 20.100794
_cell_length_c 11.476748
_cell_angle_alpha 90.000000
_cell_angle_beta 42.276895
_cell_angle_gamma 90.000000
_cell_volume 1204.819995
_symmetry_space_group_name_H-M "C C"
_symmetry_group_IT_number 9
_symmetry_cell_setting 'monoclinic'
loop_
_space_group_symop_operation_xyz
x,y,z
x,-y,1/2+z
1/2+x,1/2+y,z
1/2+x,1/2-y,1/2+z
loop_
_atom_site_type_symbol
_atom_site_label
_atom_site_fract_x
_atom_site_fract_y
_atom_site_fract_z
Si Si1 0.277080 0.948561 0.170960
Si Si2 0.287543 0.471060 0.841364
Si Si3 0.139097 0.154471 0.565435
Si Si4 0.886418 0.849773 0.963560
Si Si5 0.020161 0.887875 0.519401
Si Si6 0.437353 0.286543 0.381541
Si Si7 0.000953 0.764520 0.692324
O O1 0.322727 0.887626 0.057587
O O2 0.227422 0.923999 0.329108
O O3 0.505282 0.997557 0.017003
O O4 0.007956 0.977710 0.263343
O O5 0.361320 0.439830 0.678163
O O6 0.309531 0.410960 0.922430
O O7 0.268683 0.222343 0.463890
O O8 0.928219 0.178333 0.762042
O O9 0.037836 0.122644 0.498721
O O10 0.651701 0.804196 0.120595
O O11 0.017353 0.797471 0.810779
O O12 0.853866 0.844191 0.512276
O O13 0.106044 0.826205 0.560076
O O14 0.719855 0.257895 0.281465
#
# Coordination Sequence:
#
# PCOD9137576 Si02
#       7
#     4   4   4   4   4   4   4
#     4  11  27  49  72 100 139 196 244 294 350 423
#     4  11  27  49  72 100 139 196 244 294 350 423
#     4  11  23  39  66 105 139 174 225 297 355 422
#     4  11  23  39  66 105 139 174 225 297 355 422
#     4  10  22  42  74 104 134 190 234 286 354 432
#     4  11  19  39  67  99 138 179 222 279 359 427
#     4  11  19  39  67  99 138 179 222 279 359 427
#
# _framework density 23.239985000000001
#
# number of rings (size 3 to 8) (size 9 to 14) (size 15 to 20)
#    0.000    1.143    2.857    4.286    2.000    1.143 
#    5.143    2.857    0.000    0.000    0.000    0.000 
#    0.000    0.000    0.000    0.000    0.000    0.000 
#
# Total GULP energy -78029.428827 kJ/mol
# GULP energy per Si atom -5573.530630 kJ/mol
# Density = 2.318709 g / cm^3
# Si number density = 23.239985 Si / 1000 Ang^3
#
#
#
# Elastic Constant Matrix: (Units=GPa)
#
#
# Indices 1 2 3 4 5 6 
#
# 1 70.3867 1.8174 48.4128 0.0000 31.9022 0.0000
# 2 1.8174 34.2909 3.2790 0.0000 -4.0512 0.0000
# 3 48.4128 3.2790 102.3738 0.0000 21.7746 0.0000
# 4 0.0000 0.0000 0.0000 29.2763 0.0000 -9.8031
# 5 31.9022 -4.0512 21.7746 0.0000 28.4796 0.0000
# 6 0.0000 0.0000 0.0000 -9.8031 0.0000 18.6639
#
#
#
# Elastic Compliance Matrix: (Units=1/GPa)
#
#
# Indices 1 2 3 4 5 6 
#
# 1 0.036641 -0.005036 -0.009893 0.000000 -0.034197 0.000000
# 2 -0.005036 0.030776 -0.000878 0.000000 0.010690 0.000000
# 3 -0.009893 -0.000878 0.014503 0.000000 -0.000131 0.000000
# 4 0.000000 0.000000 0.000000 0.041447 0.000000 0.021770
# 5 -0.034197 0.010690 -0.000131 0.000000 0.075041 0.000000
# 6 0.000000 0.000000 0.000000 0.021770 0.000000 0.065014
#
#
# Mechanical properties :
#
#
# Convention : Reuss Voigt Hill
#
# Bulk Modulus (GPa) = 19.87826 34.89663 27.38744
# Shear Modulus (GPa) = 16.03571 25.52011 20.77791
#
# Velocity S-wave (km/s) = 2.62964 3.31737 2.99333
# Velocity P-wave (km/s) = 4.21807 5.45176 4.87410
#
# Compressibility (1/GPa) = 0.05030622
#
# Stress axis : x y z
#
# Youngs Moduli (GPa) = 27.29164 32.49276 68.95361
#
# Poissons Ratio (x) = 0.16364 0.68214
# Poissons Ratio (y) = 0.13744 0.06054
# Poissons Ratio (z) = 0.26999 0.02853
#
# Static dielectric constant tensor:
#      x y z
#    x 1.966020 0.000000 -0.102180 
#    y 0.000000 1.857930 0.000000 
#    z -0.102180 0.000000 2.077030 
# 
# From -- ./inp_files/15464.got.cif
#   From: 2010.05.17/outbox.cif.g08.bks.cpg/sg9_8_cif.got.tgz:15464.got - 2010.06.03 20:04:27.
