data_PCOD9137315
_publ_section_title
;
Structure prediction by ZEFSAII (Michael W. Deem and Ramdas Pophale) SiO2 
 PCOD9137315
Probable space group: C C
;
_chemical_formula_sum "Si O2"
_cell_formula_units_Z 32
_cell_length_a 11.502681
_cell_length_b 8.861481
_cell_length_c 12.992976
_cell_angle_alpha 90.000000
_cell_angle_beta 113.139982
_cell_angle_gamma 90.000000
_cell_volume 1217.834261
_symmetry_space_group_name_H-M "C C"
_symmetry_group_IT_number 9
_symmetry_cell_setting 'monoclinic'
loop_
_space_group_symop_operation_xyz
x,y,z
x,-y,1/2+z
1/2+x,1/2+y,z
1/2+x,1/2-y,1/2+z
loop_
_atom_site_type_symbol
_atom_site_label
_atom_site_fract_x
_atom_site_fract_y
_atom_site_fract_z
Si Si1 0.100520 0.292001 0.062070
Si Si2 0.287364 0.824667 0.195820
Si Si3 0.390515 0.333569 0.962766
Si Si4 0.622979 0.890049 0.846520
Si Si5 0.830785 0.000873 0.142837
Si Si6 0.921747 0.538771 0.100670
Si Si7 0.574399 0.226267 0.883224
Si Si8 0.604583 0.454596 0.737169
O O1 0.234144 0.370256 0.139265
O O2 0.085337 0.146941 0.128138
O O3 0.996329 0.413545 0.061489
O O4 0.097713 0.282997 0.936678
O O5 0.265844 0.663426 0.134154
O O6 0.430621 0.806530 0.290273
O O7 0.309126 0.953650 0.117720
O O8 0.188931 0.902773 0.238988
O O9 0.264487 0.363182 0.851485
O O10 0.531107 0.320041 0.967455
O O11 0.373432 0.459723 0.042445
O O12 0.375530 0.172932 0.013443
O O13 0.518288 0.894537 0.720994
O O14 0.625175 0.057194 0.899334
O O15 0.969885 0.999790 0.241226
O O16 0.655619 0.332414 0.837130
#
# Coordination Sequence:
#
# PCOD9137315 Si02
#       8
#     4   4   4   4   4   4   4   4
#     4  11  21  43  70 100 143 189 240 293 367 429
#     4  10  22  43  69 101 140 186 243 300 359 428
#     4  11  24  42  72 108 142 193 245 293 377 437
#     4  10  22  41  70 103 144 188 244 306 355 437
#     4  10  24  40  67 100 134 185 233 299 358 428
#     4  11  22  44  77 100 145 201 236 303 371 425
#     4  10  22  41  64 102 141 186 240 296 362 437
#     4  11  23  44  71 102 143 188 243 302 357 435
#
# _framework density 26.276153999999998
#
# number of rings (size 3 to 8) (size 9 to 14) (size 15 to 20)
#    0.000    1.500    5.000    1.500    5.250    0.000 
#    0.000   13.750    0.000    0.000    0.000    0.000 
#    0.000    0.000    0.000    0.000    0.000    0.000 
#
# Total GULP energy -89500.815158 kJ/mol
# GULP energy per Si atom -5593.800947 kJ/mol
# Density = 2.621635 g / cm^3
# Si number density = 26.276154 Si / 1000 Ang^3
#
#
#
# Elastic Constant Matrix: (Units=GPa)
#
#
# Indices 1 2 3 4 5 6 
#
# 1 138.3451 63.2028 6.2653 0.0000 -9.6328 0.0000
# 2 63.2028 140.3191 27.1202 0.0000 1.2121 0.0000
# 3 6.2653 27.1202 46.0455 0.0000 -1.5670 0.0000
# 4 0.0000 0.0000 0.0000 41.1411 0.0000 -7.8925
# 5 -9.6328 1.2121 -1.5670 0.0000 36.5995 0.0000
# 6 0.0000 0.0000 0.0000 -7.8925 0.0000 60.4044
#
#
#
# Elastic Compliance Matrix: (Units=1/GPa)
#
#
# Indices 1 2 3 4 5 6 
#
# 1 0.009432 -0.004560 0.001494 0.000000 0.002697 0.000000
# 2 -0.004560 0.010255 -0.005480 0.000000 -0.001775 0.000000
# 3 0.001494 -0.005480 0.024798 0.000000 0.001637 0.000000
# 4 0.000000 0.000000 0.000000 0.024932 0.000000 0.003258
# 5 0.002697 -0.001775 0.001637 0.000000 0.028162 0.000000
# 6 0.000000 0.000000 0.000000 0.003258 0.000000 0.016981
#
#
# Mechanical properties :
#
#
# Convention : Reuss Voigt Hill
#
# Bulk Modulus (GPa) = 36.50608 57.54291 47.02449
# Shear Modulus (GPa) = 35.51599 42.83707 39.17653
#
# Velocity S-wave (km/s) = 3.68046 4.04203 3.86548
# Velocity P-wave (km/s) = 5.65548 6.61293 6.15286
#
# Compressibility (1/GPa) = 0.02739270
#
# Stress axis : x y z
#
# Youngs Moduli (GPa) = 106.02325 97.51110 40.32639
#
# Poissons Ratio (x) = 0.44470 -0.06027
# Poissons Ratio (y) = 0.48352 0.22099
# Poissons Ratio (z) = -0.15845 0.53437
#
# Static dielectric constant tensor:
#      x y z
#    x 2.069580 0.000000 -0.018080 
#    y 0.000000 2.017450 0.000000 
#    z -0.018080 0.000000 2.285820 
# 
# From -- ./inp_files/24299.got.cif
#   From: 2010.05.17/outbox.cif.g08.bks.cpg/sg9_13_cif.got.tgz:24299.got - 2010.06.03 20:04:27.
