data_PCOD9137897
_publ_section_title
;
Structure prediction by ZEFSAII (Michael W. Deem and Ramdas Pophale) SiO2 
 PCOD9137897
Probable space group: C C
;
_chemical_formula_sum "Si O2"
_cell_formula_units_Z 24
_cell_length_a 7.478392
_cell_length_b 11.431654
_cell_length_c 13.558408
_cell_angle_alpha 90.000000
_cell_angle_beta 124.848156
_cell_angle_gamma 90.000000
_cell_volume 951.248871
_symmetry_space_group_name_H-M "C C"
_symmetry_group_IT_number 9
_symmetry_cell_setting 'monoclinic'
loop_
_space_group_symop_operation_xyz
x,y,z
x,-y,1/2+z
1/2+x,1/2+y,z
1/2+x,1/2-y,1/2+z
loop_
_atom_site_type_symbol
_atom_site_label
_atom_site_fract_x
_atom_site_fract_y
_atom_site_fract_z
Si Si1 0.239670 0.115855 0.728350
Si Si2 0.046878 0.581032 0.262646
Si Si3 0.771209 0.189533 0.518062
Si Si4 0.578777 0.569619 0.887234
Si Si5 0.703670 0.780131 0.206042
Si Si6 0.451772 0.342926 0.797613
O O1 0.134722 0.054429 0.789381
O O2 0.391349 0.216908 0.822482
O O3 0.028610 0.165585 0.607206
O O4 0.392287 0.031003 0.714062
O O5 0.889061 0.692071 0.224390
O O6 0.180512 0.599886 0.406918
O O7 0.213447 0.595986 0.224773
O O8 0.721254 0.326317 0.476923
O O9 0.640992 0.165553 0.580593
O O10 0.336683 0.627928 0.815846
O O11 0.584857 0.431182 0.910621
O O12 0.545237 0.700300 0.221843
#
# Coordination Sequence:
#
# PCOD9137897 Si02
#       6
#     4   4   4   4   4   4
#     4  11  23  47  71 105 150 188 246 304 357 432
#     4  11  23  46  74 105 150 189 246 304 354 442
#     4  10  22  48  73 106 150 197 242 300 368 434
#     4  10  22  45  69 104 144 185 248 299 355 440
#     4  10  22  45  70 102 147 188 242 301 361 433
#     4  12  22  45  75  98 145 197 228 312 367 415
#
# _framework density 25.229991999999999
#
# number of rings (size 3 to 8) (size 9 to 14) (size 15 to 20)
#    0.000    1.333    6.667    1.000    0.000    1.333 
#   12.000    0.000    0.000    0.000    0.000    0.000 
#    0.000    0.000    0.000    0.000    0.000    0.000 
#
# Total GULP energy -66839.257704 kJ/mol
# GULP energy per Si atom -5569.938142 kJ/mol
# Density = 2.517257 g / cm^3
# Si number density = 25.229992 Si / 1000 Ang^3
#
#
#
# Elastic Constant Matrix: (Units=GPa)
#
#
# Indices 1 2 3 4 5 6 
#
# 1 194.5152 25.6860 43.7349 0.0000 -8.1676 0.0000
# 2 25.6860 127.2180 28.2759 0.0000 4.9532 0.0000
# 3 43.7349 28.2759 95.4847 0.0000 -9.5762 0.0000
# 4 0.0000 0.0000 0.0000 24.8839 0.0000 -0.2069
# 5 -8.1676 4.9532 -9.5762 0.0000 27.3181 0.0000
# 6 0.0000 0.0000 0.0000 -0.2069 0.0000 46.4966
#
#
#
# Elastic Compliance Matrix: (Units=1/GPa)
#
#
# Indices 1 2 3 4 5 6 
#
# 1 0.005804 -0.000690 -0.002350 0.000000 0.001037 0.000000
# 2 -0.000690 0.008663 -0.002516 0.000000 -0.002659 0.000000
# 3 -0.002350 -0.002516 0.012717 0.000000 0.004211 0.000000
# 4 0.000000 0.000000 0.000000 0.040188 0.000000 0.000179
# 5 0.001037 -0.002659 0.004211 0.000000 0.038874 0.000000
# 6 0.000000 0.000000 0.000000 0.000179 0.000000 0.021508
#
#
# Mechanical properties :
#
#
# Convention : Reuss Voigt Hill
#
# Bulk Modulus (GPa) = 62.22246 68.06796 65.14521
# Shear Modulus (GPa) = 34.66872 41.04111 37.85492
#
# Velocity S-wave (km/s) = 3.71092 4.03759 3.87769
# Velocity P-wave (km/s) = 6.56330 6.98382 6.77682
#
# Compressibility (1/GPa) = 0.01607137
#
# Stress axis : x y z
#
# Youngs Moduli (GPa) = 172.29435 115.43972 78.63658
#
# Poissons Ratio (x) = 0.07964 0.18481
# Poissons Ratio (y) = 0.11886 0.19784
# Poissons Ratio (z) = 0.40492 0.29044
#
# Static dielectric constant tensor:
#      x y z
#    x 2.060780 0.000000 -0.022750 
#    y 0.000000 2.088480 0.000000 
#    z -0.022750 0.000000 2.125680 
# 
# From -- ./inp_files/22656.got.cif
#   From: 2010.05.17/outbox.cif.g08.bks.cpg/sg9_12_cif.got.tgz:22656.got - 2010.06.03 20:04:27.
