data_PCOD9137297
_publ_section_title
;
Structure prediction by ZEFSAII (Michael W. Deem and Ramdas Pophale) SiO2 
 PCOD9137297
Probable space group: C C
;
_chemical_formula_sum "Si O2"
_cell_formula_units_Z 28
_cell_length_a 20.802845
_cell_length_b 11.769865
_cell_length_c 9.376974
_cell_angle_alpha 90.000000
_cell_angle_beta 40.395017
_cell_angle_gamma 90.000000
_cell_volume 1487.879978
_symmetry_space_group_name_H-M "C C"
_symmetry_group_IT_number 9
_symmetry_cell_setting 'monoclinic'
loop_
_space_group_symop_operation_xyz
x,y,z
x,-y,1/2+z
1/2+x,1/2+y,z
1/2+x,1/2-y,1/2+z
loop_
_atom_site_type_symbol
_atom_site_label
_atom_site_fract_x
_atom_site_fract_y
_atom_site_fract_z
Si Si1 0.391480 0.801573 0.968360
Si Si2 0.087146 0.391403 0.552122
Si Si3 0.074389 0.214738 0.801367
Si Si4 0.888062 0.068733 0.806072
Si Si5 0.184376 0.204896 0.906577
Si Si6 0.024541 0.040214 0.312753
Si Si7 0.189555 0.429447 0.076477
O O1 0.467973 0.877299 0.747877
O O2 0.461214 0.761706 0.983189
O O3 0.367872 0.686925 0.920261
O O4 0.287998 0.853994 0.189244
O O5 0.120183 0.278951 0.586191
O O6 0.139089 0.403282 0.313192
O O7 0.116587 0.496437 0.601606
O O8 0.129490 0.242550 0.853703
O O9 0.069993 0.080031 0.787058
O O10 0.957947 0.089682 0.552180
O O11 0.951343 0.990811 0.806819
O O12 0.788675 0.003282 0.931257
O O13 0.109630 0.124058 0.117132
O O14 0.210994 0.313702 0.956608
#
# Coordination Sequence:
#
# PCOD9137297 Si02
#       7
#     4   4   4   4   4   4   4
#     4   9  22  41  64  90 129 165 212 266 319 382
#     4  10  22  41  62  90 131 162 216 266 323 381
#     4   9  21  42  62  87 131 169 216 270 308 386
#     4  11  21  41  66  94 122 168 224 264 307 377
#     4  12  23  39  67  94 130 171 212 268 335 374
#     4  11  22  39  66  94 127 167 217 270 312 385
#     4  12  23  39  67  97 124 172 215 270 326 383
#
# _framework density 18.818722000000001
#
# number of rings (size 3 to 8) (size 9 to 14) (size 15 to 20)
#    0.857    0.571    1.429    6.000    0.000    0.000 
#    2.571    0.000    0.000    0.000    0.000    0.000 
#    0.000    0.000    0.000    0.000    0.000    0.000 
#
# Total GULP energy -78116.157914 kJ/mol
# GULP energy per Si atom -5579.725565 kJ/mol
# Density = 1.877589 g / cm^3
# Si number density = 18.818722 Si / 1000 Ang^3
#
#
#
# Elastic Constant Matrix: (Units=GPa)
#
#
# Indices 1 2 3 4 5 6 
#
# 1 78.2711 0.0635 47.1755 0.0000 7.2386 0.0000
# 2 0.0635 24.8690 17.1887 0.0000 -5.3208 0.0000
# 3 47.1755 17.1887 141.4177 0.0000 2.1149 0.0000
# 4 0.0000 0.0000 0.0000 35.6500 0.0000 -2.4607
# 5 7.2386 -5.3208 2.1149 0.0000 27.9077 0.0000
# 6 0.0000 0.0000 0.0000 -2.4607 0.0000 24.0652
#
#
#
# Elastic Compliance Matrix: (Units=1/GPa)
#
#
# Indices 1 2 3 4 5 6 
#
# 1 0.016632 0.003350 -0.005907 0.000000 -0.003228 0.000000
# 2 0.003350 0.046835 -0.006938 0.000000 0.008586 0.000000
# 3 -0.005907 -0.006938 0.009893 0.000000 -0.000540 0.000000
# 4 0.000000 0.000000 0.000000 0.028250 0.000000 0.002889
# 5 -0.003228 0.008586 -0.000540 0.000000 0.038348 0.000000
# 6 0.000000 0.000000 0.000000 0.002889 0.000000 0.041849
#
#
# Mechanical properties :
#
#
# Convention : Reuss Voigt Hill
#
# Bulk Modulus (GPa) = 18.39292 41.49036 29.94164
# Shear Modulus (GPa) = 22.83923 29.53325 26.18624
#
# Velocity S-wave (km/s) = 3.48752 3.96581 3.73433
# Velocity P-wave (km/s) = 5.10020 6.56242 5.87696
#
# Compressibility (1/GPa) = 0.05436875
#
# Stress axis : x y z
#
# Youngs Moduli (GPa) = 60.12392 21.35163 101.07874
#
# Poissons Ratio (x) = -0.07153 0.59710
# Poissons Ratio (y) = -0.20141 0.70133
# Poissons Ratio (z) = 0.35517 0.14815
#
# Static dielectric constant tensor:
#      x y z
#    x 1.655530 0.000000 0.001960 
#    y 0.000000 1.652300 0.000000 
#    z 0.001960 0.000000 1.660740 
# 
# From -- ./inp_files/11617.got.cif
#   From: 2010.05.17/outbox.cif.g08.bks.cpg/sg9_6_cif.got.tgz:11617.got - 2010.06.03 20:04:27.
