data_PCOD9137150
_publ_section_title
;
Structure prediction by ZEFSAII (Michael W. Deem and Ramdas Pophale) SiO2 
 PCOD9137150
Probable space group: C C
;
_chemical_formula_sum "Si O2"
_cell_formula_units_Z 28
_cell_length_a 5.241591
_cell_length_b 17.627773
_cell_length_c 13.721260
_cell_angle_alpha 90.000000
_cell_angle_beta 63.198433
_cell_angle_gamma 90.000000
_cell_volume 1131.614635
_symmetry_space_group_name_H-M "C C"
_symmetry_group_IT_number 9
_symmetry_cell_setting 'monoclinic'
loop_
_space_group_symop_operation_xyz
x,y,z
x,-y,1/2+z
1/2+x,1/2+y,z
1/2+x,1/2-y,1/2+z
loop_
_atom_site_type_symbol
_atom_site_label
_atom_site_fract_x
_atom_site_fract_y
_atom_site_fract_z
Si Si1 0.108650 0.062794 0.303150
Si Si2 0.721325 0.198321 0.683356
Si Si3 0.735660 0.468858 0.983886
Si Si4 0.305905 0.277138 0.623468
Si Si5 0.190365 0.449241 0.635567
Si Si6 0.215556 0.558140 0.819365
Si Si7 0.128576 0.352213 0.990365
O O1 0.351250 0.066767 0.178609
O O2 0.833705 0.117030 0.369034
O O3 0.262410 0.078323 0.379261
O O4 0.003365 0.974944 0.317513
O O5 0.434566 0.242214 0.701203
O O6 0.701869 0.140604 0.776143
O O7 0.779866 0.153702 0.570801
O O8 0.979654 0.254098 0.662220
O O9 0.957481 0.538466 0.935718
O O10 0.864980 0.412557 0.042769
O O11 0.417819 0.502058 0.036078
O O12 0.328610 0.366645 0.619804
O O13 0.489882 0.231636 0.509324
O O14 0.195201 0.500568 0.731678
#
# Coordination Sequence:
#
# PCOD9137150 Si02
#       7
#     4   4   4   4   4   4   4
#     4  10  22  39  69 100 133 177 230 283 336 397
#     4  10  23  44  70  97 136 187 223 273 343 408
#     4  10  22  41  65  99 129 178 228 282 329 401
#     4  10  24  42  69  98 140 178 221 276 349 403
#     4  11  24  41  67 102 139 170 234 285 336 397
#     4  10  23  41  67  97 130 179 227 280 331 407
#     4   9  20  42  69  93 135 181 227 263 352 403
#
# _framework density 24.743404000000002
#
# number of rings (size 3 to 8) (size 9 to 14) (size 15 to 20)
#    0.857    1.143    0.000    2.571    6.000    2.286 
#    2.571    1.429    0.000    0.000    0.000    0.000 
#    0.000    0.000    0.000    0.000    0.000    0.000 
#
# Total GULP energy -77991.339217 kJ/mol
# GULP energy per Si atom -5570.809944 kJ/mol
# Density = 2.468709 g / cm^3
# Si number density = 24.743404 Si / 1000 Ang^3
#
#
#
# Elastic Constant Matrix: (Units=GPa)
#
#
# Indices 1 2 3 4 5 6 
#
# 1 130.0917 21.4940 16.7468 0.0000 -12.0036 0.0000
# 2 21.4940 113.4810 7.9338 0.0000 -8.8861 0.0000
# 3 16.7468 7.9338 73.9370 0.0000 -20.1220 0.0000
# 4 0.0000 0.0000 0.0000 2.6244 0.0000 1.6822
# 5 -12.0036 -8.8861 -20.1220 0.0000 31.1896 0.0000
# 6 0.0000 0.0000 0.0000 1.6822 0.0000 21.6705
#
#
#
# Elastic Compliance Matrix: (Units=1/GPa)
#
#
# Indices 1 2 3 4 5 6 
#
# 1 0.008244 -0.001320 -0.001170 0.000000 0.002042 0.000000
# 2 -0.001320 0.009231 -0.000138 0.000000 0.002033 0.000000
# 3 -0.001170 -0.000138 0.016583 0.000000 0.010209 0.000000
# 4 0.000000 0.000000 0.000000 0.400993 0.000000 -0.031128
# 5 0.002042 0.002033 0.010209 0.000000 0.040013 0.000000
# 6 0.000000 0.000000 0.000000 -0.031128 0.000000 0.048562
#
#
# Mechanical properties :
#
#
# Convention : Reuss Voigt Hill
#
# Bulk Modulus (GPa) = 34.71987 45.53986 40.12987
# Shear Modulus (GPa) = 9.28535 29.18590 19.23563
#
# Velocity S-wave (km/s) = 1.93928 3.43817 2.79122
# Velocity P-wave (km/s) = 4.36770 5.84861 5.16154
#
# Compressibility (1/GPa) = 0.02880195
#
# Stress axis : x y z
#
# Youngs Moduli (GPa) = 121.30094 108.33223 60.30178
#
# Poissons Ratio (x) = 0.14297 0.07055
# Poissons Ratio (y) = 0.16009 0.00834
# Poissons Ratio (z) = 0.14191 0.01499
#
# Static dielectric constant tensor:
#      x y z
#    x 2.099130 0.000000 -0.043130 
#    y 0.000000 1.939130 0.000000 
#    z -0.043130 0.000000 2.034770 
# 
# From -- ./inp_files/21908.got.cif
#   From: 2010.05.17/outbox.cif.g08.bks.cpg/sg9_11_cif.got.tgz:21908.got - 2010.06.03 20:04:27.
