data_PCOD9137461
_publ_section_title
;
Structure prediction by ZEFSAII (Michael W. Deem and Ramdas Pophale) SiO2 
 PCOD9137461
Probable space group: C C
;
_chemical_formula_sum "Si O2"
_cell_formula_units_Z 32
_cell_length_a 8.226978
_cell_length_b 17.061959
_cell_length_c 11.757842
_cell_angle_alpha 90.000000
_cell_angle_beta 70.706268
_cell_angle_gamma 90.000000
_cell_volume 1557.736140
_symmetry_space_group_name_H-M "C C"
_symmetry_group_IT_number 9
_symmetry_cell_setting 'monoclinic'
loop_
_space_group_symop_operation_xyz
x,y,z
x,-y,1/2+z
1/2+x,1/2+y,z
1/2+x,1/2-y,1/2+z
loop_
_atom_site_type_symbol
_atom_site_label
_atom_site_fract_x
_atom_site_fract_y
_atom_site_fract_z
Si Si1 0.291390 0.681760 0.910780
Si Si2 0.022672 0.375241 0.646371
Si Si3 0.589175 0.944047 0.103378
Si Si4 0.838817 0.879079 0.855957
Si Si5 0.211644 0.157266 0.345944
Si Si6 0.362793 0.457740 0.233381
Si Si7 0.133639 0.744978 0.300707
Si Si8 0.226216 0.882618 0.106001
O O1 0.236609 0.748605 0.833561
O O2 0.331668 0.596411 0.851348
O O3 0.477910 0.715911 0.908660
O O4 0.129483 0.675463 0.031554
O O5 0.079663 0.462362 0.607377
O O6 0.071315 0.335339 0.755010
O O7 0.818217 0.375507 0.713311
O O8 0.711161 0.928765 0.184114
O O9 0.392814 0.915586 0.133862
O O10 0.690087 0.907315 0.974733
O O11 0.795639 0.789958 0.828527
O O12 0.019505 0.873238 0.877626
O O13 0.851310 0.949569 0.761089
O O14 0.264229 0.134156 0.463951
O O15 0.555612 0.436822 0.148227
O O16 0.175697 0.805746 0.190839
#
# Coordination Sequence:
#
# PCOD9137461 Si02
#       8
#     4   4   4   4   4   4   4   4
#     4  10  22  42  66  93 131 178 219 275 339 393
#     4  11  21  42  67  97 134 178 218 280 338 400
#     4  12  24  41  71  98 136 179 225 277 342 403
#     4  12  24  43  68 102 138 176 228 281 339 403
#     4  11  24  41  69  99 136 176 226 279 339 403
#     4  11  24  44  66  98 135 175 223 278 339 405
#     4  10  23  42  68  94 135 175 224 282 332 398
#     4  11  24  45  67  99 135 175 227 280 336 401
#
# _framework density 20.542632999999999
#
# number of rings (size 3 to 8) (size 9 to 14) (size 15 to 20)
#    0.000    1.000    5.000    2.250    1.750    0.000 
#    0.000    0.000    0.000    0.000    0.000    0.000 
#    0.000    0.000    0.000    0.000    0.000    0.000 
#
# Total GULP energy -89080.588085 kJ/mol
# GULP energy per Si atom -5567.536755 kJ/mol
# Density = 2.049588 g / cm^3
# Si number density = 20.542633 Si / 1000 Ang^3
#
#
#
# Elastic Constant Matrix: (Units=GPa)
#
#
# Indices 1 2 3 4 5 6 
#
# 1 126.6618 31.2668 29.2406 0.0000 -5.4479 0.0000
# 2 31.2668 84.9643 18.3583 0.0000 -5.0990 0.0000
# 3 29.2406 18.3583 83.0129 0.0000 -21.7850 0.0000
# 4 0.0000 0.0000 0.0000 13.8168 0.0000 2.4140
# 5 -5.4479 -5.0990 -21.7850 0.0000 22.5296 0.0000
# 6 0.0000 0.0000 0.0000 2.4140 0.0000 22.2707
#
#
#
# Elastic Compliance Matrix: (Units=1/GPa)
#
#
# Indices 1 2 3 4 5 6 
#
# 1 0.009222 -0.002831 -0.002955 0.000000 -0.001268 0.000000
# 2 -0.002831 0.013230 -0.001772 0.000000 0.000596 0.000000
# 3 -0.002955 -0.001772 0.017670 0.000000 0.015971 0.000000
# 4 0.000000 0.000000 0.000000 0.073773 0.000000 -0.007997
# 5 -0.001268 0.000596 0.015971 0.000000 0.059657 0.000000
# 6 0.000000 0.000000 0.000000 -0.007997 0.000000 0.045769
#
#
# Mechanical properties :
#
#
# Convention : Reuss Voigt Hill
#
# Bulk Modulus (GPa) = 39.99116 50.26338 45.12727
# Shear Modulus (GPa) = 20.59544 26.10831 23.35188
#
# Velocity S-wave (km/s) = 3.16977 3.56888 3.37523
# Velocity P-wave (km/s) = 5.73640 6.44232 6.09958
#
# Compressibility (1/GPa) = 0.02500553
#
# Stress axis : x y z
#
# Youngs Moduli (GPa) = 108.44192 75.58463 56.59239
#
# Poissons Ratio (x) = 0.21399 0.16722
# Poissons Ratio (y) = 0.30702 0.10029
# Poissons Ratio (z) = 0.32043 0.13395
#
# Static dielectric constant tensor:
#      x y z
#    x 1.881570 0.000000 -0.035710 
#    y 0.000000 1.729110 0.000000 
#    z -0.035710 0.000000 1.753390 
# 
# From -- ./inp_files/15169.got.cif
#   From: 2010.05.17/outbox.cif.g08.bks.cpg/sg9_8_cif.got.tgz:15169.got - 2010.06.03 20:04:27.
