data_PCOD9137755
_publ_section_title
;
Structure prediction by ZEFSAII (Michael W. Deem and Ramdas Pophale) SiO2 
 PCOD9137755
Probable space group: C C
;
_chemical_formula_sum "Si O2"
_cell_formula_units_Z 28
_cell_length_a 11.587485
_cell_length_b 8.366141
_cell_length_c 14.417665
_cell_angle_alpha 90.000000
_cell_angle_beta 56.142567
_cell_angle_gamma 90.000000
_cell_volume 1160.674531
_symmetry_space_group_name_H-M "C C"
_symmetry_group_IT_number 9
_symmetry_cell_setting 'monoclinic'
loop_
_space_group_symop_operation_xyz
x,y,z
x,-y,1/2+z
1/2+x,1/2+y,z
1/2+x,1/2-y,1/2+z
loop_
_atom_site_type_symbol
_atom_site_label
_atom_site_fract_x
_atom_site_fract_y
_atom_site_fract_z
Si Si1 0.627520 0.552956 0.451710
Si Si2 0.003279 0.361673 0.085669
Si Si3 0.853710 0.919093 0.558189
Si Si4 0.203763 0.899424 0.589228
Si Si5 0.044237 0.898190 0.314264
Si Si6 0.037095 0.458180 0.742014
Si Si7 0.519810 0.875555 0.440541
O O1 0.468924 0.525478 0.559182
O O2 0.723006 0.527908 0.496659
O O3 0.638294 0.418307 0.366368
O O4 0.620868 0.727192 0.412031
O O5 0.954637 0.480871 0.189089
O O6 0.885347 0.256942 0.086551
O O7 0.112828 0.240853 0.083418
O O8 0.068839 0.471995 0.977105
O O9 0.698366 0.965188 0.642593
O O10 0.898946 0.940380 0.430528
O O11 0.113060 0.982264 0.710101
O O12 0.359538 0.846481 0.544061
O O13 0.020972 0.724197 0.282028
O O14 0.015245 0.579245 0.835547
#
# Coordination Sequence:
#
# PCOD9137755 Si02
#       7
#     4   4   4   4   4   4   4
#     4   9  22  44  65 102 134 177 221 273 342 386
#     4  11  24  44  69 104 128 180 228 273 336 392
#     4   9  22  46  64  97 141 168 222 281 324 398
#     4  11  23  44  71  95 138 178 218 274 340 391
#     4  10  22  44  67  95 141 174 218 283 328 393
#     4  12  23  42  71  99 133 180 221 275 339 392
#     4  12  24  42  69 104 133 171 230 273 323 410
#
# _framework density 24.123904
#
# number of rings (size 3 to 8) (size 9 to 14) (size 15 to 20)
#    0.857    0.571    1.429    3.429    0.000    3.429 
#    5.143    0.000    0.000    0.000    0.000    0.000 
#    0.000    0.000    0.000    0.000    0.000    0.000 
#
# Total GULP energy -78178.191058 kJ/mol
# GULP energy per Si atom -5584.156504 kJ/mol
# Density = 2.406900 g / cm^3
# Si number density = 24.123904 Si / 1000 Ang^3
#
#
#
# Elastic Constant Matrix: (Units=GPa)
#
#
# Indices 1 2 3 4 5 6 
#
# 1 76.1989 30.4245 33.6174 0.0000 0.0778 0.0000
# 2 30.4245 92.8633 21.0985 0.0000 9.3549 0.0000
# 3 33.6174 21.0985 109.1566 0.0000 11.8497 0.0000
# 4 0.0000 0.0000 0.0000 120.1082 0.0000 7.1789
# 5 0.0778 9.3549 11.8497 0.0000 47.8667 0.0000
# 6 0.0000 0.0000 0.0000 7.1789 0.0000 39.2549
#
#
#
# Elastic Compliance Matrix: (Units=1/GPa)
#
#
# Indices 1 2 3 4 5 6 
#
# 1 0.017022 -0.004749 -0.004544 0.000000 0.002025 0.000000
# 2 -0.004749 0.012725 -0.000748 0.000000 -0.002294 0.000000
# 3 -0.004544 -0.000748 0.010984 0.000000 -0.002566 0.000000
# 4 0.000000 0.000000 0.000000 0.008418 0.000000 -0.001539
# 5 0.002025 -0.002294 -0.002566 0.000000 0.021972 0.000000
# 6 0.000000 0.000000 0.000000 -0.001539 0.000000 0.025756
#
#
# Mechanical properties :
#
#
# Convention : Reuss Voigt Hill
#
# Bulk Modulus (GPa) = 48.42803 49.83329 49.13066
# Shear Modulus (GPa) = 40.37385 54.31784 47.34585
#
# Velocity S-wave (km/s) = 4.09541 4.75027 4.43494
# Velocity P-wave (km/s) = 6.51778 7.12663 6.82899
#
# Compressibility (1/GPa) = 0.02064920
#
# Stress axis : x y z
#
# Youngs Moduli (GPa) = 58.74611 78.58333 91.04276
#
# Poissons Ratio (x) = 0.37316 0.41374
# Poissons Ratio (y) = 0.27896 0.06812
# Poissons Ratio (z) = 0.26697 0.05879
#
# Static dielectric constant tensor:
#      x y z
#    x 1.940260 0.000000 -0.011650 
#    y 0.000000 1.998360 0.000000 
#    z -0.011650 0.000000 1.954110 
# 
# From -- ./inp_files/24154.got.cif
#   From: 2010.05.17/outbox.cif.g08.bks.cpg/sg9_13_cif.got.tgz:24154.got - 2010.06.03 20:04:27.
