data_PCOD9137185
_publ_section_title
;
Structure prediction by ZEFSAII (Michael W. Deem and Ramdas Pophale) SiO2 
 PCOD9137185
Probable space group: C C
;
_chemical_formula_sum "Si O2"
_cell_formula_units_Z 32
_cell_length_a 12.929046
_cell_length_b 10.194076
_cell_length_c 18.325508
_cell_angle_alpha 90.000000
_cell_angle_beta 31.062731
_cell_angle_gamma 90.000000
_cell_volume 1246.235387
_symmetry_space_group_name_H-M "C C"
_symmetry_group_IT_number 9
_symmetry_cell_setting 'monoclinic'
loop_
_space_group_symop_operation_xyz
x,y,z
x,-y,1/2+z
1/2+x,1/2+y,z
1/2+x,1/2-y,1/2+z
loop_
_atom_site_type_symbol
_atom_site_label
_atom_site_fract_x
_atom_site_fract_y
_atom_site_fract_z
Si Si1 0.667710 0.561500 0.476380
Si Si2 0.508956 0.962890 0.183969
Si Si3 0.807078 0.974584 0.116877
Si Si4 0.676776 0.154347 0.316973
Si Si5 0.583790 0.323839 0.632914
Si Si6 0.082592 0.941700 0.323868
Si Si7 0.916830 0.572409 0.035307
Si Si8 0.749886 0.154322 0.938445
O O1 0.441050 0.606280 0.592429
O O2 0.651940 0.441286 0.540018
O O3 0.777595 0.691795 0.435190
O O4 0.781598 0.502411 0.337395
O O5 0.571238 0.825314 0.109703
O O6 0.590789 0.939081 0.217611
O O7 0.616320 0.086088 0.081986
O O8 0.782491 0.109425 0.177105
O O9 0.935710 0.977787 0.964959
O O10 0.604969 0.300831 0.348035
O O11 0.841968 0.150407 0.282815
O O12 0.503379 0.049246 0.436656
O O13 0.752242 0.336000 0.594514
O O14 0.963982 0.915638 0.318790
O O15 0.290536 0.007936 0.177411
O O16 0.120348 0.637476 0.943418
#
# Coordination Sequence:
#
# PCOD9137185 Si02
#       8
#     4   4   4   4   4   4   4   4
#     4  11  24  44  68  96 134 178 224 281 341 404
#     4  11  24  44  68  96 134 178 224 281 341 404
#     4  10  22  40  62  92 127 170 219 272 333 396
#     4  11  23  41  66  97 133 176 225 279 337 402
#     4  11  25  43  67 100 134 178 229 279 338 408
#     4  11  23  41  66  97 133 176 225 279 337 402
#     4  12  24  42  66 100 137 180 227 282 341 408
#     4  11  25  43  67 100 134 178 229 279 338 408
#
# _framework density 25.677332
#
# number of rings (size 3 to 8) (size 9 to 14) (size 15 to 20)
#    0.000    1.000    0.000    6.750    0.000   10.000 
#    0.000    8.750    0.000    0.000    0.000    0.000 
#    0.000    0.000    0.000    0.000    0.000    0.000 
#
# Total GULP energy -89339.492886 kJ/mol
# GULP energy per Si atom -5583.718305 kJ/mol
# Density = 2.561889 g / cm^3
# Si number density = 25.677332 Si / 1000 Ang^3
#
#
#
# Elastic Constant Matrix: (Units=GPa)
#
#
# Indices 1 2 3 4 5 6 
#
# 1 109.1147 2.3941 14.6407 -0.0001 -31.7366 0.0000
# 2 2.3941 116.8172 16.0130 -0.0004 11.5063 0.0000
# 3 14.6407 16.0130 74.2478 -0.0014 -4.6880 0.0001
# 4 -0.0001 -0.0004 -0.0014 27.7939 0.0002 -5.3252
# 5 -31.7366 11.5063 -4.6880 0.0002 45.2506 0.0000
# 6 0.0000 0.0000 0.0001 -5.3252 0.0000 33.4218
#
#
#
# Elastic Compliance Matrix: (Units=1/GPa)
#
#
# Indices 1 2 3 4 5 6 
#
# 1 0.011827 -0.000841 -0.001624 0.000000 0.008341 0.000000
# 2 -0.000841 0.009161 -0.002007 0.000000 -0.003127 0.000000
# 3 -0.001624 -0.002007 0.014275 0.000001 0.000850 0.000000
# 4 0.000000 0.000000 0.000001 0.037112 0.000000 0.005913
# 5 0.008341 -0.003127 0.000850 0.000000 0.028832 0.000000
# 6 0.000000 0.000000 0.000000 0.005913 0.000000 0.030863
#
#
# Mechanical properties :
#
#
# Convention : Reuss Voigt Hill
#
# Bulk Modulus (GPa) = 37.99718 40.69726 39.34722
# Shear Modulus (GPa) = 33.38054 39.10204 36.24129
#
# Velocity S-wave (km/s) = 3.60946 3.90657 3.76095
# Velocity P-wave (km/s) = 5.67460 6.01933 5.84950
#
# Compressibility (1/GPa) = 0.02631774
#
# Stress axis : x y z
#
# Youngs Moduli (GPa) = 84.55289 109.16048 70.05124
#
# Poissons Ratio (x) = 0.09184 0.11377
# Poissons Ratio (y) = 0.07113 0.14061
# Poissons Ratio (z) = 0.13732 0.21912
#
# Static dielectric constant tensor:
#      x y z
#    x 2.221690 0.000000 -0.040130 
#    y 0.000000 1.979750 0.000000 
#    z -0.040130 0.000000 1.961650 
# 
# From -- ./inp_files/33705.got.cif
#   From: 2010.05.17/outbox.cif.g08.bks.cpg/sg9_17_cif.got.tgz:33705.got - 2010.06.03 20:04:27.
