data_PCOD9137386
_publ_section_title
;
Structure prediction by ZEFSAII (Michael W. Deem and Ramdas Pophale) SiO2 
 PCOD9137386
Probable space group: C C
;
_chemical_formula_sum "Si O2"
_cell_formula_units_Z 28
_cell_length_a 28.350945
_cell_length_b 7.953466
_cell_length_c 8.166001
_cell_angle_alpha 90.000000
_cell_angle_beta 142.031295
_cell_angle_gamma 90.000000
_cell_volume 1132.847857
_symmetry_space_group_name_H-M "C C"
_symmetry_group_IT_number 9
_symmetry_cell_setting 'monoclinic'
loop_
_space_group_symop_operation_xyz
x,y,z
x,-y,1/2+z
1/2+x,1/2+y,z
1/2+x,1/2-y,1/2+z
loop_
_atom_site_type_symbol
_atom_site_label
_atom_site_fract_x
_atom_site_fract_y
_atom_site_fract_z
Si Si1 0.886860 0.339628 0.075970
Si Si2 0.631194 0.341946 0.250530
Si Si3 0.963624 0.001153 0.715058
Si Si4 0.351555 0.807217 0.312707
Si Si5 0.035194 0.406166 0.703610
Si Si6 0.204532 0.153674 0.614094
Si Si7 0.545639 0.238018 0.592733
O O1 0.824237 0.319031 0.049285
O O2 0.959835 0.377515 0.390606
O O3 0.909336 0.160139 0.065340
O O4 0.875428 0.499813 0.929270
O O5 0.554552 0.432203 0.953608
O O6 0.689136 0.305788 0.261089
O O7 0.599710 0.189474 0.274600
O O8 0.678803 0.462983 0.502027
O O9 0.910524 0.147877 0.486084
O O10 0.986641 0.106010 0.947052
O O11 0.283880 0.783926 0.258842
O O12 0.039360 0.605854 0.719946
O O13 0.029495 0.338085 0.870005
O O14 0.135535 0.237168 0.326856
#
# Coordination Sequence:
#
# PCOD9137386 Si02
#       7
#     4   4   4   4   4   4   4
#     4  11  24  43  71 104 136 182 230 297 355 419
#     4  10  22  41  69  97 136 186 242 288 353 421
#     4  10  23  41  71 102 133 182 241 295 340 427
#     4  12  25  47  67 103 147 184 233 293 371 423
#     4  11  20  41  70 103 129 180 240 300 341 420
#     4  11  24  42  65  98 140 191 230 295 363 433
#     4  11  22  41  69 101 141 177 246 292 357 425
#
# _framework density 24.716467999999999
#
# number of rings (size 3 to 8) (size 9 to 14) (size 15 to 20)
#    0.000    1.143    2.857    3.429    4.000    2.286 
#    7.714    0.000    0.000    0.000    0.000    0.000 
#    0.000    0.000    0.000    0.000    0.000    0.000 
#
# Total GULP energy -77944.478804 kJ/mol
# GULP energy per Si atom -5567.462772 kJ/mol
# Density = 2.466021 g / cm^3
# Si number density = 24.716468 Si / 1000 Ang^3
#
#
#
# Elastic Constant Matrix: (Units=GPa)
#
#
# Indices 1 2 3 4 5 6 
#
# 1 147.6381 40.2644 -0.3108 0.0000 9.0896 0.0000
# 2 40.2644 134.7574 30.8802 0.0000 14.3299 0.0000
# 3 -0.3108 30.8802 44.9070 0.0000 6.7814 0.0000
# 4 0.0000 0.0000 0.0000 23.6387 0.0000 -11.7614
# 5 9.0896 14.3299 6.7814 0.0000 30.3149 0.0000
# 6 0.0000 0.0000 0.0000 -11.7614 0.0000 20.7696
#
#
#
# Elastic Compliance Matrix: (Units=1/GPa)
#
#
# Indices 1 2 3 4 5 6 
#
# 1 0.007572 -0.002571 0.002049 0.000000 -0.001513 0.000000
# 2 -0.002571 0.009937 -0.006477 0.000000 -0.002477 0.000000
# 3 0.002049 -0.006477 0.027288 0.000000 -0.003657 0.000000
# 4 0.000000 0.000000 0.000000 0.058898 0.000000 0.033353
# 5 -0.001513 -0.002477 -0.003657 0.000000 0.035430 0.000000
# 6 0.000000 0.000000 0.000000 0.033353 0.000000 0.067034
#
#
# Mechanical properties :
#
#
# Convention : Reuss Voigt Hill
#
# Bulk Modulus (GPa) = 32.46808 52.10780 42.28794
# Shear Modulus (GPa) = 21.69924 32.04255 26.87089
#
# Velocity S-wave (km/s) = 2.96620 3.60447 3.30080
# Velocity P-wave (km/s) = 4.98957 6.20088 5.62791
#
# Compressibility (1/GPa) = 0.03079948
#
# Stress axis : x y z
#
# Youngs Moduli (GPa) = 132.06567 100.63904 36.64577
#
# Poissons Ratio (x) = 0.25875 -0.07508
# Poissons Ratio (y) = 0.33955 0.23734
# Poissons Ratio (z) = -0.27059 0.65179
#
# Static dielectric constant tensor:
#      x y z
#    x 2.083540 0.000000 0.031570 
#    y 0.000000 2.243090 0.000000 
#    z 0.031570 0.000000 1.999170 
# 
# From -- ./inp_files/10444.got.cif
#   From: 2010.05.17/outbox.cif.g08.bks.cpg/sg9_6_cif.got.tgz:10444.got - 2010.06.03 20:04:27.
