data_PCOD9137278
_publ_section_title
;
Structure prediction by ZEFSAII (Michael W. Deem and Ramdas Pophale) SiO2 
 PCOD9137278
Probable space group: C C
;
_chemical_formula_sum "Si O2"
_cell_formula_units_Z 28
_cell_length_a 8.107847
_cell_length_b 18.009147
_cell_length_c 10.892257
_cell_angle_alpha 90.000000
_cell_angle_beta 44.929089
_cell_angle_gamma 90.000000
_cell_volume 1123.216328
_symmetry_space_group_name_H-M "C C"
_symmetry_group_IT_number 9
_symmetry_cell_setting 'monoclinic'
loop_
_space_group_symop_operation_xyz
x,y,z
x,-y,1/2+z
1/2+x,1/2+y,z
1/2+x,1/2-y,1/2+z
loop_
_atom_site_type_symbol
_atom_site_label
_atom_site_fract_x
_atom_site_fract_y
_atom_site_fract_z
Si Si1 0.926540 0.800758 0.116290
Si Si2 0.312683 0.960336 0.118279
Si Si3 0.753162 0.172684 0.962726
Si Si4 0.658235 0.304425 0.592411
Si Si5 0.607143 0.587427 0.350196
Si Si6 0.266469 0.807546 0.270054
Si Si7 0.788877 0.011915 0.897645
O O1 0.759277 0.829182 0.310419
O O2 0.794053 0.768485 0.068559
O O3 0.104733 0.861139 0.969843
O O4 0.056668 0.729526 0.103382
O O5 0.339478 0.874714 0.142128
O O6 0.049614 0.973692 0.199741
O O7 0.268832 0.014653 0.260097
O O8 0.562173 0.989681 0.938072
O O9 0.737811 0.086569 0.001233
O O10 0.997000 0.203557 0.880023
O O11 0.662758 0.362596 0.700807
O O12 0.406193 0.269417 0.694502
O O13 0.769565 0.334490 0.409665
O O14 0.348982 0.554845 0.459302
#
# Coordination Sequence:
#
# PCOD9137278 Si02
#       7
#     4   4   4   4   4   4   4
#     4  12  22  41  70  99 128 179 228 277 325 410
#     4   9  21  41  65  92 140 170 219 272 338 394
#     4  11  24  42  66  99 138 171 225 282 342 387
#     4  12  22  41  70  99 128 179 228 277 325 410
#     4  10  22  40  70  98 130 178 230 270 330 408
#     4  11  24  42  66  99 138 171 225 282 342 387
#     4   9  21  41  65  92 140 170 219 272 338 394
#
# _framework density 24.928412000000002
#
# number of rings (size 3 to 8) (size 9 to 14) (size 15 to 20)
#    0.857    0.571    2.857    2.571    0.000    1.143 
#    0.000    0.000    0.000    0.000    0.000    0.000 
#    0.000    0.000    0.000    0.000    0.000    0.000 
#
# Total GULP energy -78089.340266 kJ/mol
# GULP energy per Si atom -5577.810019 kJ/mol
# Density = 2.487167 g / cm^3
# Si number density = 24.928412 Si / 1000 Ang^3
#
#
#
# Elastic Constant Matrix: (Units=GPa)
#
#
# Indices 1 2 3 4 5 6 
#
# 1 77.7890 -3.0871 20.2387 0.0000 -22.4225 0.0000
# 2 -3.0871 95.5704 15.1145 0.0000 1.8813 0.0000
# 3 20.2387 15.1145 56.2609 0.0000 3.3072 0.0000
# 4 0.0000 0.0000 0.0000 19.7112 0.0000 -6.6087
# 5 -22.4225 1.8813 3.3072 0.0000 51.4426 0.0000
# 6 0.0000 0.0000 0.0000 -6.6087 0.0000 27.2809
#
#
#
# Elastic Compliance Matrix: (Units=1/GPa)
#
#
# Indices 1 2 3 4 5 6 
#
# 1 0.016973 0.001497 -0.006966 0.000000 0.007791 0.000000
# 2 0.001497 0.011062 -0.003538 0.000000 0.000475 0.000000
# 3 -0.006966 -0.003538 0.021483 0.000000 -0.004288 0.000000
# 4 0.000000 0.000000 0.000000 0.055217 0.000000 0.013376
# 5 0.007791 0.000475 -0.004288 0.000000 0.023093 0.000000
# 6 0.000000 0.000000 0.000000 0.013376 0.000000 0.039896
#
#
# Mechanical properties :
#
#
# Convention : Reuss Voigt Hill
#
# Bulk Modulus (GPa) = 31.74304 32.68362 32.21333
# Shear Modulus (GPa) = 25.47908 32.84389 29.16148
#
# Velocity S-wave (km/s) = 3.20048 3.63372 3.42396
# Velocity P-wave (km/s) = 5.13992 5.54478 5.34619
#
# Compressibility (1/GPa) = 0.03150297
#
# Stress axis : x y z
#
# Youngs Moduli (GPa) = 58.91817 90.39931 46.54921
#
# Poissons Ratio (x) = -0.13528 0.32424
# Poissons Ratio (y) = -0.08817 0.16470
# Poissons Ratio (z) = 0.41040 0.31984
#
# Static dielectric constant tensor:
#      x y z
#    x 2.035930 0.000000 -0.064830 
#    y 0.000000 1.971120 0.000000 
#    z -0.064830 0.000000 2.008310 
# 
# From -- ./inp_files/5238.got.cif
#   From: 2010.05.17/outbox.cif.g08.bks.cpg/sg9_3_cif.got.tgz:5238.got - 2010.06.03 20:04:27.
