data_PCOD9137126
_publ_section_title
;
Structure prediction by ZEFSAII (Michael W. Deem and Ramdas Pophale) SiO2 
 PCOD9137126
Probable space group: C C
;
_chemical_formula_sum "Si O2"
_cell_formula_units_Z 28
_cell_length_a 7.017597
_cell_length_b 12.324443
_cell_length_c 13.026465
_cell_angle_alpha 90.000000
_cell_angle_beta 77.880314
_cell_angle_gamma 90.000000
_cell_volume 1101.521233
_symmetry_space_group_name_H-M "C C"
_symmetry_group_IT_number 9
_symmetry_cell_setting 'monoclinic'
loop_
_space_group_symop_operation_xyz
x,y,z
x,-y,1/2+z
1/2+x,1/2+y,z
1/2+x,1/2-y,1/2+z
loop_
_atom_site_type_symbol
_atom_site_label
_atom_site_fract_x
_atom_site_fract_y
_atom_site_fract_z
Si Si1 0.198760 0.595884 0.490400
Si Si2 0.951072 0.517585 0.279380
Si Si3 0.379952 0.418721 0.769559
Si Si4 0.267585 0.851935 0.640698
Si Si5 0.544427 0.863759 0.428203
Si Si6 0.293211 0.164956 0.472228
Si Si7 0.940188 0.866884 0.162653
O O1 0.365412 0.623376 0.387435
O O2 0.285209 0.595132 0.593273
O O3 0.010694 0.671075 0.494176
O O4 0.131435 0.475544 0.465050
O O5 0.991649 0.397150 0.317806
O O6 0.814488 0.573639 0.381349
O O7 0.157179 0.581597 0.256784
O O8 0.537602 0.356438 0.683923
O O9 0.437629 0.546087 0.753422
O O10 0.351218 0.840042 0.517261
O O11 0.352801 0.961161 0.682433
O O12 0.368643 0.754340 0.692528
O O13 0.702318 0.772266 0.432537
O O14 0.143799 0.135105 0.579549
#
# Coordination Sequence:
#
# PCOD9137126 Si02
#       7
#     4   4   4   4   4   4   4
#     4  10  22  40  62  94 130 171 215 270 327 391
#     4  10  22  39  65  93 134 167 216 274 320 397
#     4  10  22  41  63  95 134 168 216 273 331 385
#     4  11  23  39  67  97 127 172 222 270 326 395
#     4   9  20  40  64  89 130 173 208 273 328 380
#     4   9  20  40  64  90 130 169 214 264 329 384
#     4  11  23  39  67  96 129 172 221 272 323 394
#
# _framework density 25.419394
#
# number of rings (size 3 to 8) (size 9 to 14) (size 15 to 20)
#    0.000    2.286    0.000    3.429    4.000    3.429 
#    0.000    4.286    6.286    0.000    0.000    0.000 
#    0.000    0.000    0.000    0.000    0.000    0.000 
#
# Total GULP energy -78355.106824 kJ/mol
# GULP energy per Si atom -5596.793345 kJ/mol
# Density = 2.536154 g / cm^3
# Si number density = 25.419394 Si / 1000 Ang^3
#
#
#
# Elastic Constant Matrix: (Units=GPa)
#
#
# Indices 1 2 3 4 5 6 
#
# 1 109.4139 44.8347 53.1250 0.0000 -30.0818 0.0000
# 2 44.8347 116.6480 35.8995 0.0000 -6.9648 0.0000
# 3 53.1250 35.8995 151.8164 0.0000 -30.2158 0.0000
# 4 0.0000 0.0000 0.0000 44.6791 0.0000 4.0909
# 5 -30.0818 -6.9648 -30.2158 0.0000 53.2388 0.0000
# 6 0.0000 0.0000 0.0000 4.0909 0.0000 41.9236
#
#
#
# Elastic Compliance Matrix: (Units=1/GPa)
#
#
# Indices 1 2 3 4 5 6 
#
# 1 0.013682 -0.004092 -0.002692 0.000000 0.005667 0.000000
# 2 -0.004092 0.010469 -0.001388 0.000000 -0.001730 0.000000
# 3 -0.002692 -0.001388 0.008476 0.000000 0.003108 0.000000
# 4 0.000000 0.000000 0.000000 0.022584 0.000000 -0.002204
# 5 0.005667 -0.001730 0.003108 0.000000 0.023523 0.000000
# 6 0.000000 0.000000 0.000000 -0.002204 0.000000 0.024068
#
#
# Mechanical properties :
#
#
# Convention : Reuss Voigt Hill
#
# Bulk Modulus (GPa) = 61.41489 71.73298 66.57393
# Shear Modulus (GPa) = 40.13716 44.23623 42.18670
#
# Velocity S-wave (km/s) = 3.97797 4.17616 4.07827
# Velocity P-wave (km/s) = 6.73143 7.17878 6.95870
#
# Compressibility (1/GPa) = 0.01628270
#
# Stress axis : x y z
#
# Youngs Moduli (GPa) = 73.09111 95.51623 117.98403
#
# Poissons Ratio (x) = 0.39083 0.31762
# Poissons Ratio (y) = 0.29907 0.16379
# Poissons Ratio (z) = 0.19676 0.13260
#
# Static dielectric constant tensor:
#      x y z
#    x 1.997960 0.000000 0.000440 
#    y 0.000000 2.054240 0.000000 
#    z 0.000440 0.000000 2.070210 
# 
# From -- ./inp_files/23334.got.cif
#   From: 2010.05.17/outbox.cif.g08.bks.cpg/sg9_12_cif.got.tgz:23334.got - 2010.06.03 20:04:27.
