data_PCOD9137502
_publ_section_title
;
Structure prediction by ZEFSAII (Michael W. Deem and Ramdas Pophale) SiO2 
 PCOD9137502
Probable space group: C C
;
_chemical_formula_sum "Si O2"
_cell_formula_units_Z 32
_cell_length_a 4.977878
_cell_length_b 23.978396
_cell_length_c 12.285076
_cell_angle_alpha 90.000000
_cell_angle_beta 69.294172
_cell_angle_gamma 90.000000
_cell_volume 1371.650093
_symmetry_space_group_name_H-M "C C"
_symmetry_group_IT_number 9
_symmetry_cell_setting 'monoclinic'
loop_
_space_group_symop_operation_xyz
x,y,z
x,-y,1/2+z
1/2+x,1/2+y,z
1/2+x,1/2-y,1/2+z
loop_
_atom_site_type_symbol
_atom_site_label
_atom_site_fract_x
_atom_site_fract_y
_atom_site_fract_z
Si Si1 0.520880 0.990891 0.862520
Si Si2 0.823513 0.339662 0.921567
Si Si3 0.688109 0.438193 0.083323
Si Si4 0.285822 0.285311 0.460415
Si Si5 0.880086 0.175994 0.189433
Si Si6 0.428809 0.208624 0.797553
Si Si7 0.061195 0.411909 0.213116
Si Si8 0.585207 0.416602 0.792454
O O1 0.819710 0.958654 0.833966
O O2 0.355450 0.953689 0.793394
O O3 0.567274 0.054521 0.824412
O O4 0.322659 0.988349 0.997430
O O5 0.572408 0.366632 0.884110
O O6 0.089368 0.333885 0.801024
O O7 0.856754 0.385355 0.009172
O O8 0.768879 0.280896 0.983969
O O9 0.351779 0.432493 0.113978
O O10 0.778764 0.434701 0.194124
O O11 0.299905 0.315515 0.574583
O O12 0.584531 0.295974 0.353741
O O13 0.038097 0.293928 0.406764
O O14 0.005936 0.233835 0.223354
O O15 0.073737 0.121121 0.185153
O O16 0.556908 0.154128 0.722860
#
# Coordination Sequence:
#
# PCOD9137502 Si02
#       8
#     4   4   4   4   4   4   4   4
#     4  11  25  45  69 101 132 169 240 290 323 407
#     4  10  22  42  68 103 136 169 245 274 312 433
#     4  11  23  43  75  95 125 191 227 276 345 397
#     4  11  25  40  67 103 142 186 213 278 368 388
#     4  11  23  43  72 102 141 180 226 285 343 408
#     4  11  26  45  65 103 144 176 225 287 336 423
#     4  12  26  48  67 100 140 177 229 283 349 408
#     4  11  20  42  69  95 136 168 225 297 316 394
#
# _framework density 23.329561999999999
#
# number of rings (size 3 to 8) (size 9 to 14) (size 15 to 20)
#    0.000    1.000    3.750    3.750    1.750    2.000 
#    6.750    0.000    0.000    0.000    0.000    0.000 
#    0.000    0.000    0.000    0.000    0.000    0.000 
#
# Total GULP energy -89370.521562 kJ/mol
# GULP energy per Si atom -5585.657598 kJ/mol
# Density = 2.327646 g / cm^3
# Si number density = 23.329562 Si / 1000 Ang^3
#
#
#
# Elastic Constant Matrix: (Units=GPa)
#
#
# Indices 1 2 3 4 5 6 
#
# 1 102.6892 5.7297 -10.5939 0.0000 3.3351 0.0000
# 2 5.7297 32.4220 -10.2918 0.0000 -1.5363 0.0000
# 3 -10.5939 -10.2918 30.0398 0.0000 8.8328 0.0000
# 4 0.0000 0.0000 0.0000 32.7488 0.0000 4.9778
# 5 3.3351 -1.5363 8.8328 0.0000 32.2923 0.0000
# 6 0.0000 0.0000 0.0000 4.9778 0.0000 22.9741
#
#
#
# Elastic Compliance Matrix: (Units=1/GPa)
#
#
# Indices 1 2 3 4 5 6 
#
# 1 0.010262 -0.000633 0.004049 0.000000 -0.002197 0.000000
# 2 -0.000633 0.034736 0.012150 0.000000 -0.001605 0.000000
# 3 0.004049 0.012150 0.042229 0.000000 -0.011391 0.000000
# 4 0.000000 0.000000 0.000000 0.031575 0.000000 -0.006841
# 5 -0.002197 -0.001605 -0.011391 0.000000 0.034233 0.000000
# 6 0.000000 0.000000 0.000000 -0.006841 0.000000 0.045010
#
#
# Mechanical properties :
#
#
# Convention : Reuss Voigt Hill
#
# Bulk Modulus (GPa) = 8.44894 14.98210 11.71552
# Shear Modulus (GPa) = 24.22870 29.62351 26.92610
#
# Velocity S-wave (km/s) = 3.22614 3.56727 3.40098
# Velocity P-wave (km/s) = 4.18410 4.83767 4.52271
#
# Compressibility (1/GPa) = 0.11835808
#
# Stress axis : x y z
#
# Youngs Moduli (GPa) = 97.44259 28.78883 23.68054
#
# Poissons Ratio (x) = 0.01821 -0.09587
# Poissons Ratio (y) = 0.06164 -0.28771
# Poissons Ratio (z) = -0.39450 -0.34977
#
# Static dielectric constant tensor:
#      x y z
#    x 1.900290 0.000000 0.040660 
#    y 0.000000 1.880520 0.000000 
#    z 0.040660 0.000000 1.932530 
# 
# From -- ./inp_files/13814.got.cif
#   From: 2010.05.17/outbox.cif.g08.bks.cpg/sg9_7_cif.got.tgz:13814.got - 2010.06.03 20:04:27.
