data_PCOD9137902
_publ_section_title
;
Structure prediction by ZEFSAII (Michael W. Deem and Ramdas Pophale) SiO2 
 PCOD9137902
Probable space group: C C
;
_chemical_formula_sum "Si O2"
_cell_formula_units_Z 28
_cell_length_a 13.096508
_cell_length_b 8.078625
_cell_length_c 14.601733
_cell_angle_alpha 90.000000
_cell_angle_beta 133.556058
_cell_angle_gamma 90.000000
_cell_volume 1119.582109
_symmetry_space_group_name_H-M "C C"
_symmetry_group_IT_number 9
_symmetry_cell_setting 'monoclinic'
loop_
_space_group_symop_operation_xyz
x,y,z
x,-y,1/2+z
1/2+x,1/2+y,z
1/2+x,1/2-y,1/2+z
loop_
_atom_site_type_symbol
_atom_site_label
_atom_site_fract_x
_atom_site_fract_y
_atom_site_fract_z
Si Si1 0.066370 0.630861 0.191950
Si Si2 0.016117 0.656154 0.354357
Si Si3 0.493450 0.683152 0.023169
Si Si4 0.634438 0.538759 0.744411
Si Si5 0.347286 0.170735 0.735773
Si Si6 0.788615 0.411938 0.005005
Si Si7 0.342165 0.475591 0.276636
O O1 0.023312 0.821653 0.147239
O O2 0.182321 0.528192 0.206165
O O3 0.116567 0.658648 0.328605
O O4 0.922007 0.532400 0.097535
O O5 0.060697 0.700637 0.485090
O O6 0.966452 0.466960 0.317178
O O7 0.889706 0.796241 0.263960
O O8 0.358526 0.765460 0.988584
O O9 0.431778 0.533614 0.925314
O O10 0.601050 0.625087 0.166469
O O11 0.766825 0.632478 0.780162
O O12 0.668527 0.491671 0.868933
O O13 0.253061 0.133440 0.587361
O O14 0.389812 0.360925 0.751580
#
# Coordination Sequence:
#
# PCOD9137902 Si02
#       7
#     4   4   4   4   4   4   4
#     4  10  24  42  71 102 137 190 241 299 366 436
#     4   9  21  44  68 101 137 181 237 299 358 434
#     4  10  24  40  71  95 142 188 229 303 370 430
#     4  11  24  43  68  98 143 184 236 303 356 441
#     4  10  22  45  69  99 138 181 240 296 350 437
#     4  11  25  43  69 102 139 184 242 291 368 443
#     4   9  22  45  70 103 138 184 239 295 368 425
#
# _framework density 25.009331
#
# number of rings (size 3 to 8) (size 9 to 14) (size 15 to 20)
#    0.857    1.143    1.429    0.000   12.000    0.000 
#    0.000    2.857    0.000    0.000    0.000    0.000 
#    0.000    0.000    0.000    0.000    0.000    0.000 
#
# Total GULP energy -77955.560382 kJ/mol
# GULP energy per Si atom -5568.254313 kJ/mol
# Density = 2.495241 g / cm^3
# Si number density = 25.009331 Si / 1000 Ang^3
#
#
#
# Elastic Constant Matrix: (Units=GPa)
#
#
# Indices 1 2 3 4 5 6 
#
# 1 88.8131 22.4523 16.7560 0.0000 -11.3637 0.0000
# 2 22.4523 87.5391 32.5122 0.0000 -0.3104 0.0000
# 3 16.7560 32.5122 105.6462 0.0000 -19.8796 0.0000
# 4 0.0000 0.0000 0.0000 28.2664 0.0000 2.9534
# 5 -11.3637 -0.3104 -19.8796 0.0000 30.6661 0.0000
# 6 0.0000 0.0000 0.0000 2.9534 0.0000 1.3767
#
#
#
# Elastic Compliance Matrix: (Units=1/GPa)
#
#
# Indices 1 2 3 4 5 6 
#
# 1 0.012677 -0.003169 -0.000179 0.000000 0.004549 0.000000
# 2 -0.003169 0.013901 -0.004522 0.000000 -0.003965 0.000000
# 3 -0.000179 -0.004522 0.012374 0.000000 0.007909 0.000000
# 4 0.000000 0.000000 0.000000 0.045598 0.000000 -0.097815
# 5 0.004549 -0.003965 0.007909 0.000000 0.039382 0.000000
# 6 0.000000 0.000000 0.000000 -0.097815 0.000000 0.936182
#
#
# Mechanical properties :
#
#
# Convention : Reuss Voigt Hill
#
# Bulk Modulus (GPa) = 43.08008 47.27104 45.17556
# Shear Modulus (GPa) = 4.61429 26.08037 15.34733
#
# Velocity S-wave (km/s) = 1.35979 3.23278 2.47991
# Velocity P-wave (km/s) = 4.44166 5.73384 5.12861
#
# Compressibility (1/GPa) = 0.02321258
#
# Stress axis : x y z
#
# Youngs Moduli (GPa) = 78.88596 71.93511 80.81596
#
# Poissons Ratio (x) = 0.22793 0.01450
# Poissons Ratio (y) = 0.24995 0.36542
# Poissons Ratio (z) = 0.01416 0.32526
#
# Static dielectric constant tensor:
#      x y z
#    x 2.208690 0.000000 -0.006610 
#    y 0.000000 2.362070 0.000000 
#    z -0.006610 0.000000 1.968560 
# 
# From -- ./inp_files/25348.got.cif
#   From: 2010.05.17/outbox.cif.g08.bks.cpg/sg9_13_cif.got.tgz:25348.got - 2010.06.03 20:04:27.
