data_PCOD9137170
_publ_section_title
;
Structure prediction by ZEFSAII (Michael W. Deem and Ramdas Pophale) SiO2 
 PCOD9137170
Probable space group: C C
;
_chemical_formula_sum "Si O2"
_cell_formula_units_Z 32
_cell_length_a 12.578557
_cell_length_b 9.932368
_cell_length_c 16.269885
_cell_angle_alpha 90.000000
_cell_angle_beta 36.981496
_cell_angle_gamma 90.000000
_cell_volume 1222.770468
_symmetry_space_group_name_H-M "C C"
_symmetry_group_IT_number 9
_symmetry_cell_setting 'monoclinic'
loop_
_space_group_symop_operation_xyz
x,y,z
x,-y,1/2+z
1/2+x,1/2+y,z
1/2+x,1/2-y,1/2+z
loop_
_atom_site_type_symbol
_atom_site_label
_atom_site_fract_x
_atom_site_fract_y
_atom_site_fract_z
Si Si1 0.735430 0.716851 0.000000
Si Si2 0.628705 0.273240 0.745170
Si Si3 0.502194 0.530535 0.607768
Si Si4 0.636347 0.030535 0.869355
Si Si5 0.009836 0.273240 0.731953
Si Si6 0.403112 0.216851 0.477123
Si Si7 0.130099 0.503034 0.557239
Si Si8 0.008443 0.996966 0.419884
O O1 0.749438 0.728890 0.090738
O O2 0.660429 0.570478 0.028867
O O3 0.925016 0.748025 0.843458
O O4 0.603912 0.838816 0.057382
O O5 0.650214 0.156049 0.798879
O O6 0.637406 0.418969 0.782310
O O7 0.319270 0.452540 0.738562
O O8 0.488327 0.656048 0.678244
O O9 0.507134 0.566674 0.509164
O O10 0.631408 0.066674 0.967959
O O11 0.478112 0.929522 0.948256
O O12 0.213525 0.248025 0.633664
O O13 0.889104 0.271110 0.886385
O O14 0.001135 0.418969 0.694814
O O15 0.534629 0.338816 0.419741
O O16 0.319271 0.500000 0.488562
#
# Coordination Sequence:
#
# PCOD9137170 Si02
#       8
#     4   4   4   4   4   4   4   4
#     4  11  23  43  66  94 129 168 210 264 320 379
#     4  11  23  43  66  94 129 168 210 264 320 379
#     4  12  23  40  66  97 129 170 213 260 318 379
#     4  12  23  40  66  97 129 170 213 260 318 379
#     4  11  23  43  66  94 129 168 210 264 320 379
#     4  11  23  43  66  94 129 168 210 264 320 379
#     4  10  22  40  61  91 128 166 209 260 311 371
#     4  10  22  40  61  91 128 166 209 260 311 371
#
# _framework density 26.170079000000001
#
# number of rings (size 3 to 8) (size 9 to 14) (size 15 to 20)
#    0.000    1.000    0.000    9.750    0.000    0.000 
#    0.000    3.750    0.000    0.000    0.000    0.000 
#    0.000    0.000    0.000    0.000    0.000    0.000 
#
# Total GULP energy -89615.065492 kJ/mol
# GULP energy per Si atom -5600.941593 kJ/mol
# Density = 2.611052 g / cm^3
# Si number density = 26.170079 Si / 1000 Ang^3
#
#
#
# Elastic Constant Matrix: (Units=GPa)
#
#
# Indices 1 2 3 4 5 6 
#
# 1 80.8660 32.4797 10.9822 0.0000 21.3604 0.0000
# 2 32.4797 105.0813 -2.9060 0.0000 -1.4444 0.0000
# 3 10.9822 -2.9060 83.4847 0.0000 13.0729 0.0000
# 4 0.0000 0.0000 0.0000 33.8880 0.0000 8.3271
# 5 21.3604 -1.4444 13.0729 0.0000 46.5909 0.0000
# 6 0.0000 0.0000 0.0000 8.3271 0.0000 28.7281
#
#
#
# Elastic Compliance Matrix: (Units=1/GPa)
#
#
# Indices 1 2 3 4 5 6 
#
# 1 0.016612 -0.005270 -0.001203 0.000000 -0.007442 0.000000
# 2 -0.005270 0.011200 0.000680 0.000000 0.002573 0.000000
# 3 -0.001203 0.000680 0.012625 0.000000 -0.002970 0.000000
# 4 0.000000 0.000000 0.000000 0.031772 0.000000 -0.009209
# 5 -0.007442 0.002573 -0.002970 0.000000 0.025788 0.000000
# 6 0.000000 0.000000 0.000000 -0.009209 0.000000 0.037479
#
#
# Mechanical properties :
#
#
# Convention : Reuss Voigt Hill
#
# Bulk Modulus (GPa) = 34.66176 38.94931 36.80553
# Shear Modulus (GPa) = 31.91237 37.09980 34.50609
#
# Velocity S-wave (km/s) = 3.49581 3.76924 3.63510
# Velocity P-wave (km/s) = 5.43763 5.81880 5.63144
#
# Compressibility (1/GPa) = 0.02885024
#
# Stress axis : x y z
#
# Youngs Moduli (GPa) = 60.19720 89.28893 79.20632
#
# Poissons Ratio (x) = 0.47057 0.09532
# Poissons Ratio (y) = 0.31725 -0.05388
# Poissons Ratio (z) = 0.07244 -0.06074
#
# Static dielectric constant tensor:
#      x y z
#    x 2.135770 0.000000 -0.030310 
#    y 0.000000 2.081920 0.000000 
#    z -0.030310 0.000000 1.977100 
# 
# From -- ./inp_files/24721.got.cif
#   From: 2010.05.17/outbox.cif.g08.bks.cpg/sg9_13_cif.got.tgz:24721.got - 2010.06.03 20:04:27.
