data_PCOD9137057
_publ_section_title
;
Structure prediction by ZEFSAII (Michael W. Deem and Ramdas Pophale) SiO2 
 PCOD9137057
Probable space group: C C
;
_chemical_formula_sum "Si O2"
_cell_formula_units_Z 28
_cell_length_a 5.368116
_cell_length_b 14.133435
_cell_length_c 15.684816
_cell_angle_alpha 90.000000
_cell_angle_beta 85.947083
_cell_angle_gamma 90.000000
_cell_volume 1187.029746
_symmetry_space_group_name_H-M "C C"
_symmetry_group_IT_number 9
_symmetry_cell_setting 'monoclinic'
loop_
_space_group_symop_operation_xyz
x,y,z
x,-y,1/2+z
1/2+x,1/2+y,z
1/2+x,1/2-y,1/2+z
loop_
_atom_site_type_symbol
_atom_site_label
_atom_site_fract_x
_atom_site_fract_y
_atom_site_fract_z
Si Si1 0.461550 0.184153 0.984460
Si Si2 0.824002 0.851925 0.336794
Si Si3 0.828961 0.245936 0.318597
Si Si4 0.143048 0.547686 0.293808
Si Si5 0.568742 0.074115 0.639493
Si Si6 0.854590 0.473418 0.971884
Si Si7 0.080839 0.839314 0.098599
O O1 0.334120 0.258545 0.922486
O O2 0.310580 0.086375 0.976825
O O3 0.734218 0.164948 0.936444
O O4 0.503257 0.234450 0.072668
O O5 0.584988 0.802515 0.296251
O O6 0.820634 0.963157 0.321701
O O7 0.079478 0.804082 0.307009
O O8 0.944613 0.556576 0.376067
O O9 0.794769 0.143697 0.279565
O O10 0.022710 0.507970 0.209765
O O11 0.339959 0.148775 0.642860
O O12 0.843219 0.114191 0.648125
O O13 0.561295 0.037200 0.542089
O O14 0.643912 0.403587 0.013145
#
# Coordination Sequence:
#
# PCOD9137057 Si02
#       7
#     4   4   4   4   4   4   4
#     4   9  20  39  65  95 126 173 216 271 324 397
#     4   9  23  38  62 104 119 170 226 263 326 400
#     4  10  22  38  64 100 125 169 226 257 338 388
#     4  11  22  47  70  92 142 174 218 288 323 395
#     4  10  25  44  61 102 126 178 218 268 340 386
#     4   9  22  44  66  97 130 174 221 273 326 396
#     4  10  22  44  62  94 134 166 223 266 331 388
#
# _framework density 23.588289
#
# number of rings (size 3 to 8) (size 9 to 14) (size 15 to 20)
#    1.714    0.571    0.000    1.714    2.000    6.857 
#    7.714    0.000    0.000    0.000    0.000    0.000 
#    0.000    0.000    0.000    0.000    0.000    0.000 
#
# Total GULP energy -78080.379079 kJ/mol
# GULP energy per Si atom -5577.169934 kJ/mol
# Density = 2.353460 g / cm^3
# Si number density = 23.588289 Si / 1000 Ang^3
#
#
#
# Elastic Constant Matrix: (Units=GPa)
#
#
# Indices 1 2 3 4 5 6 
#
# 1 122.5906 30.6735 24.3921 0.0000 0.4674 0.0000
# 2 30.6735 78.8152 -15.3604 0.0000 -10.2173 0.0000
# 3 24.3921 -15.3604 62.9057 0.0000 -7.2806 0.0000
# 4 0.0000 0.0000 0.0000 37.5898 0.0000 10.7393
# 5 0.4674 -10.2173 -7.2806 0.0000 36.4760 0.0000
# 6 0.0000 0.0000 0.0000 10.7393 0.0000 13.2834
#
#
#
# Elastic Compliance Matrix: (Units=1/GPa)
#
#
# Indices 1 2 3 4 5 6 
#
# 1 0.010778 -0.005727 -0.005916 0.000000 -0.002923 0.000000
# 2 -0.005727 0.017122 0.007130 0.000000 0.006292 0.000000
# 3 -0.005916 0.007130 0.020649 0.000000 0.006194 0.000000
# 4 0.000000 0.000000 0.000000 0.034593 0.000000 -0.027968
# 5 -0.002923 0.006292 0.006194 0.000000 0.030452 0.000000
# 6 0.000000 0.000000 0.000000 -0.027968 0.000000 0.097893
#
#
# Mechanical properties :
#
#
# Convention : Reuss Voigt Hill
#
# Bulk Modulus (GPa) = 25.30184 38.19132 31.74658
# Shear Modulus (GPa) = 21.39612 32.44359 26.91985
#
# Velocity S-wave (km/s) = 3.01502 3.71268 3.38189
# Velocity P-wave (km/s) = 4.78228 5.88256 5.36073
#
# Compressibility (1/GPa) = 0.03952282
#
# Stress axis : x y z
#
# Youngs Moduli (GPa) = 92.77833 58.40482 48.42929
#
# Poissons Ratio (x) = 0.33447 0.28651
# Poissons Ratio (y) = 0.53131 -0.34529
# Poissons Ratio (z) = 0.54888 -0.41641
#
# Static dielectric constant tensor:
#      x y z
#    x 1.859210 0.000000 0.008240 
#    y 0.000000 1.884230 0.000000 
#    z 0.008240 0.000000 2.033700 
# 
# From -- ./inp_files/34752.got.cif
#   From: 2010.05.17/outbox.cif.g08.bks.cpg/sg9_18_cif.got.tgz:34752.got - 2010.06.03 20:04:27.
