data_PCOD9137947
_publ_section_title
;
Structure prediction by ZEFSAII (Michael W. Deem and Ramdas Pophale) SiO2 
 PCOD9137947
Probable space group: C C
;
_chemical_formula_sum "Si O2"
_cell_formula_units_Z 32
_cell_length_a 14.381266
_cell_length_b 11.549097
_cell_length_c 9.720615
_cell_angle_alpha 90.000000
_cell_angle_beta 57.766465
_cell_angle_gamma 90.000000
_cell_volume 1365.677731
_symmetry_space_group_name_H-M "C C"
_symmetry_group_IT_number 9
_symmetry_cell_setting 'monoclinic'
loop_
_space_group_symop_operation_xyz
x,y,z
x,-y,1/2+z
1/2+x,1/2+y,z
1/2+x,1/2-y,1/2+z
loop_
_atom_site_type_symbol
_atom_site_label
_atom_site_fract_x
_atom_site_fract_y
_atom_site_fract_z
Si Si1 0.281290 0.266760 0.851530
Si Si2 0.876546 0.192511 0.557018
Si Si3 0.531248 0.101235 0.909836
Si Si4 0.913923 0.537242 0.740985
Si Si5 0.098888 0.111623 0.895037
Si Si6 0.359763 0.422174 0.563063
Si Si7 0.729605 0.816316 0.419398
Si Si8 0.186406 0.062379 0.537410
O O1 0.366821 0.164604 0.742611
O O2 0.164008 0.224786 0.891512
O O3 0.317843 0.382179 0.745532
O O4 0.288083 0.272697 0.010097
O O5 0.832561 0.217797 0.742985
O O6 0.982737 0.268585 0.441234
O O7 0.889045 0.056235 0.533248
O O8 0.454827 0.030597 0.076177
O O9 0.512233 0.048487 0.774289
O O10 0.650619 0.109658 0.882582
O O11 0.809156 0.476870 0.897808
O O12 0.163455 0.053514 0.717098
O O13 0.976317 0.139748 0.946731
O O14 0.105719 0.021310 0.015935
O O15 0.272333 0.383672 0.518614
O O16 0.672461 0.697038 0.510583
#
# Coordination Sequence:
#
# PCOD9137947 Si02
#       8
#     4   4   4   4   4   4   4   4
#     4  10  24  47  70 103 133 178 233 283 338 405
#     4  11  26  47  70 101 140 179 227 283 345 407
#     4  11  25  45  71 100 133 184 221 283 342 405
#     4  10  22  45  74  99 133 171 234 283 334 402
#     4  11  26  43  75  99 136 183 231 281 341 405
#     4  12  27  48  67  99 145 181 227 285 339 413
#     4  12  27  43  69 102 142 178 226 282 342 415
#     4  11  23  46  72 105 130 182 235 280 333 410
#
# _framework density 23.431591000000001
#
# number of rings (size 3 to 8) (size 9 to 14) (size 15 to 20)
#    0.000    1.000    2.500    3.000   10.500    2.000 
#    2.250    0.000    0.000    0.000    0.000    0.000 
#    0.000    0.000    0.000    0.000    0.000    0.000 
#
# Total GULP energy -89596.100511 kJ/mol
# GULP energy per Si atom -5599.756282 kJ/mol
# Density = 2.337826 g / cm^3
# Si number density = 23.431591 Si / 1000 Ang^3
#
#
#
# Elastic Constant Matrix: (Units=GPa)
#
#
# Indices 1 2 3 4 5 6 
#
# 1 101.8528 8.3275 -12.9275 0.0000 14.7957 0.0000
# 2 8.3275 81.1578 7.3067 0.0000 8.2392 0.0000
# 3 -12.9275 7.3067 49.8447 0.0000 20.3500 0.0000
# 4 0.0000 0.0000 0.0000 23.7216 0.0000 9.7891
# 5 14.7957 8.2392 20.3500 0.0000 30.8614 0.0000
# 6 0.0000 0.0000 0.0000 9.7891 0.0000 21.3925
#
#
#
# Elastic Compliance Matrix: (Units=1/GPa)
#
#
# Indices 1 2 3 4 5 6 
#
# 1 0.012462 -0.000876 0.007806 0.000000 -0.010888 0.000000
# 2 -0.000876 0.012742 -0.001201 0.000000 -0.002190 0.000000
# 3 0.007806 -0.001201 0.032376 0.000000 -0.024770 0.000000
# 4 0.000000 0.000000 0.000000 0.051969 0.000000 -0.023781
# 5 -0.010888 -0.002190 -0.024770 0.000000 0.054541 0.000000
# 6 0.000000 0.000000 0.000000 -0.023781 0.000000 0.057627
#
#
# Mechanical properties :
#
#
# Convention : Reuss Voigt Hill
#
# Bulk Modulus (GPa) = 14.48510 26.47431 20.47971
# Shear Modulus (GPa) = 21.43419 30.53834 25.98627
#
# Velocity S-wave (km/s) = 3.02777 3.61404 3.33382
# Velocity P-wave (km/s) = 4.29168 5.36079 4.85575
#
# Compressibility (1/GPa) = 0.06903645
#
# Stress axis : x y z
#
# Youngs Moduli (GPa) = 80.24371 78.48058 30.88748
#
# Poissons Ratio (x) = 0.06876 -0.24110
# Poissons Ratio (y) = 0.07030 0.03710
# Poissons Ratio (z) = -0.62635 0.09426
#
# Static dielectric constant tensor:
#      x y z
#    x 1.898170 0.000000 -0.027020 
#    y 0.000000 1.890360 0.000000 
#    z -0.027020 0.000000 1.830460 
# 
# From -- ./inp_files/9077.got.cif
#   From: 2010.05.17/outbox.cif.g08.bks.cpg/sg9_5_cif.got.tgz:9077.got - 2010.06.03 20:04:27.
