data_PCOD9137960
_publ_section_title
;
Structure prediction by ZEFSAII (Michael W. Deem and Ramdas Pophale) SiO2 
 PCOD9137960
Probable space group: C C
;
_chemical_formula_sum "Si O2"
_cell_formula_units_Z 32
_cell_length_a 12.625156
_cell_length_b 10.296682
_cell_length_c 23.002077
_cell_angle_alpha 90.000000
_cell_angle_beta 150.494127
_cell_angle_gamma 90.000000
_cell_volume 1472.714638
_symmetry_space_group_name_H-M "C C"
_symmetry_group_IT_number 9
_symmetry_cell_setting 'monoclinic'
loop_
_space_group_symop_operation_xyz
x,y,z
x,-y,1/2+z
1/2+x,1/2+y,z
1/2+x,1/2-y,1/2+z
loop_
_atom_site_type_symbol
_atom_site_label
_atom_site_fract_x
_atom_site_fract_y
_atom_site_fract_z
Si Si1 0.655960 0.632363 0.602460
Si Si2 0.560307 0.242845 0.183394
Si Si3 0.360852 0.355363 0.631661
Si Si4 0.621129 0.536811 0.357054
Si Si5 0.267717 0.541149 0.774658
Si Si6 0.885280 0.341000 0.428403
Si Si7 0.935164 0.727650 0.556158
Si Si8 0.123381 0.852564 0.533889
O O1 0.442040 0.692571 0.470874
O O2 0.835825 0.717675 0.654654
O O3 0.617183 0.684661 0.649494
O O4 0.692723 0.483641 0.602566
O O5 0.689862 0.329469 0.291276
O O6 0.314311 0.213952 0.087058
O O7 0.668526 0.100590 0.236814
O O8 0.543838 0.422934 0.756370
O O9 0.407207 0.349170 0.585584
O O10 0.112704 0.402663 0.517528
O O11 0.420397 0.475344 0.292246
O O12 0.808183 0.430082 0.444303
O O13 0.708508 0.658324 0.435392
O O14 0.080014 0.635362 0.664835
O O15 0.422317 0.601286 0.898031
O O16 0.040728 0.757171 0.544877
#
# Coordination Sequence:
#
# PCOD9137960 Si02
#       8
#     4   4   4   4   4   4   4   4
#     4  10  22  46  66 102 131 186 234 290 361 417
#     4  12  23  44  74 100 138 187 236 297 361 437
#     4  10  23  42  68  99 135 179 236 286 357 430
#     4  12  22  43  73  98 136 184 233 297 359 433
#     4  12  22  46  71  98 137 189 232 297 361 428
#     4  10  23  42  67 102 131 179 234 289 362 434
#     4  12  26  43  66 105 137 185 238 295 357 437
#     4  12  27  44  71 104 147 185 243 301 362 442
#
# _framework density 21.728581999999999
#
# number of rings (size 3 to 8) (size 9 to 14) (size 15 to 20)
#    0.750    0.000    2.500    6.750    1.750    0.000 
#    0.000    0.000    0.000    0.000    0.000    0.000 
#    0.000    0.000    0.000    0.000    0.000    0.000 
#
# Total GULP energy -89184.643769 kJ/mol
# GULP energy per Si atom -5574.040236 kJ/mol
# Density = 2.167913 g / cm^3
# Si number density = 21.728582 Si / 1000 Ang^3
#
#
#
# Elastic Constant Matrix: (Units=GPa)
#
#
# Indices 1 2 3 4 5 6 
#
# 1 80.3190 -5.0892 14.7531 0.0000 -5.8895 0.0000
# 2 -5.0892 41.6580 12.9824 0.0001 -1.8923 0.0000
# 3 14.7531 12.9824 98.2393 0.0001 -7.9991 0.0001
# 4 0.0000 0.0001 0.0001 -14.0407 0.0000 7.7460
# 5 -5.8895 -1.8923 -7.9991 0.0000 29.7420 0.0001
# 6 0.0000 0.0000 0.0001 7.7460 0.0001 33.3459
#
#
#
# Elastic Compliance Matrix: (Units=1/GPa)
#
#
# Indices 1 2 3 4 5 6 
#
# 1 0.013148 0.002363 -0.002109 0.000000 0.002187 0.000000
# 2 0.002363 0.025476 -0.003631 0.000000 0.001112 0.000000
# 3 -0.002109 -0.003631 0.011167 0.000000 0.002355 0.000000
# 4 0.000000 0.000000 0.000000 -0.063131 0.000000 0.014665
# 5 0.002187 0.001112 0.002355 0.000000 0.034760 0.000000
# 6 0.000000 0.000000 0.000000 0.014665 0.000000 0.026582
#
#
# Mechanical properties :
#
#
# Convention : Reuss Voigt Hill
#
# Bulk Modulus (GPa) = 23.23575 29.50101 26.36838
# Shear Modulus (GPa) = 72.35791 22.98077 47.66934
#
# Velocity S-wave (km/s) = 5.77694 3.25565 4.68894
# Velocity P-wave (km/s) = 7.43063 5.26677 6.44023
#
# Compressibility (1/GPa) = 0.04303713
#
# Stress axis : x y z
#
# Youngs Moduli (GPa) = 76.05881 39.25310 89.54579
#
# Poissons Ratio (x) = -0.09274 0.18882
# Poissons Ratio (y) = -0.17970 0.32513
# Poissons Ratio (z) = 0.16038 0.14252
#
# Static dielectric constant tensor:
#      x y z
#    x 1.815640 0.000000 -0.005940 
#    y 0.000000 1.854740 0.000000 
#    z -0.005940 0.000000 1.817110 
# 
# From -- ./inp_files/33362.got.cif
#   From: 2010.05.17/outbox.cif.g08.bks.cpg/sg9_17_cif.got.tgz:33362.got - 2010.06.03 20:04:27.
