data_PCOD9137719
_publ_section_title
;
Structure prediction by ZEFSAII (Michael W. Deem and Ramdas Pophale) SiO2 
 PCOD9137719
Probable space group: C C
;
_chemical_formula_sum "Si O2"
_cell_formula_units_Z 24
_cell_length_a 5.287822
_cell_length_b 17.628461
_cell_length_c 10.963811
_cell_angle_alpha 90.000000
_cell_angle_beta 70.942036
_cell_angle_gamma 90.000000
_cell_volume 965.987040
_symmetry_space_group_name_H-M "C C"
_symmetry_group_IT_number 9
_symmetry_cell_setting 'monoclinic'
loop_
_space_group_symop_operation_xyz
x,y,z
x,-y,1/2+z
1/2+x,1/2+y,z
1/2+x,1/2-y,1/2+z
loop_
_atom_site_type_symbol
_atom_site_label
_atom_site_fract_x
_atom_site_fract_y
_atom_site_fract_z
Si Si1 0.092900 0.832430 0.203390
Si Si2 0.162102 0.395287 0.456556
Si Si3 0.484063 0.066800 0.474043
Si Si4 0.884332 0.751223 0.991794
Si Si5 0.594624 0.379218 0.834873
Si Si6 0.893203 0.808135 0.641254
O O1 0.227187 0.756022 0.240330
O O2 0.911058 0.881232 0.324987
O O3 0.930685 0.790960 0.117742
O O4 0.299722 0.892078 0.105394
O O5 0.231879 0.362847 0.579104
O O6 0.043721 0.478467 0.483758
O O7 0.944470 0.335404 0.448790
O O8 0.787739 0.099191 0.419391
O O9 0.319936 0.075554 0.371717
O O10 0.567143 0.748607 0.030795
O O11 0.109904 0.794482 0.882535
O O12 0.573288 0.363589 0.695546
#
# Coordination Sequence:
#
# PCOD9137719 Si02
#       6
#     4   4   4   4   4   4
#     4  10  23  46  75 109 154 200 262 313 374 456
#     4  11  26  45  77 111 150 203 253 313 388 456
#     4  11  27  51  72 109 155 202 244 316 387 448
#     4  10  22  43  75 108 146 201 256 310 373 454
#     4  11  25  48  74 107 152 200 252 311 376 452
#     4  11  23  43  77 112 147 200 261 317 372 458
#
# _framework density 24.845054999999999
#
# number of rings (size 3 to 8) (size 9 to 14) (size 15 to 20)
#    0.000    1.333    1.667    2.000   11.667    1.333 
#    3.000    0.000    0.000    0.000    0.000    0.000 
#    0.000    0.000    0.000    0.000    0.000    0.000 
#
# Total GULP energy -66881.014777 kJ/mol
# GULP energy per Si atom -5573.417898 kJ/mol
# Density = 2.478851 g / cm^3
# Si number density = 24.845055 Si / 1000 Ang^3
#
#
#
# Elastic Constant Matrix: (Units=GPa)
#
#
# Indices 1 2 3 4 5 6 
#
# 1 115.4334 44.9615 32.1730 0.0000 -7.9783 0.0000
# 2 44.9615 177.9830 48.2457 0.0000 -24.3751 0.0000
# 3 32.1730 48.2457 107.3670 0.0000 -19.0743 0.0000
# 4 0.0000 0.0000 0.0000 19.2700 0.0000 -3.5106
# 5 -7.9783 -24.3751 -19.0743 0.0000 38.4296 0.0000
# 6 0.0000 0.0000 0.0000 -3.5106 0.0000 39.4460
#
#
#
# Elastic Compliance Matrix: (Units=1/GPa)
#
#
# Indices 1 2 3 4 5 6 
#
# 1 0.010018 -0.001980 -0.002156 0.000000 -0.000246 0.000000
# 2 -0.001980 0.007095 -0.002049 0.000000 0.003072 0.000000
# 3 -0.002156 -0.002049 0.011592 0.000000 0.004007 0.000000
# 4 0.000000 0.000000 0.000000 0.052749 0.000000 0.004695
# 5 -0.000246 0.003072 0.004007 0.000000 0.029908 0.000000
# 6 0.000000 0.000000 0.000000 0.004695 0.000000 0.025769
#
#
# Mechanical properties :
#
#
# Convention : Reuss Voigt Hill
#
# Bulk Modulus (GPa) = 61.21688 72.39376 66.80532
# Shear Modulus (GPa) = 32.26919 37.78931 35.02925
#
# Velocity S-wave (km/s) = 3.60782 3.90423 3.75895
# Velocity P-wave (km/s) = 6.48445 7.03743 6.76659
#
# Compressibility (1/GPa) = 0.01633536
#
# Stress axis : x y z
#
# Youngs Moduli (GPa) = 99.81912 140.94743 86.26326
#
# Poissons Ratio (x) = 0.27908 0.18598
# Poissons Ratio (y) = 0.19765 0.17675
# Poissons Ratio (z) = 0.21521 0.28880
#
# Static dielectric constant tensor:
#      x y z
#    x 2.075880 0.000000 -0.002020 
#    y 0.000000 2.037560 0.000000 
#    z -0.002020 0.000000 2.114410 
# 
# From -- ./inp_files/13026.got.cif
#   From: 2010.05.17/outbox.cif.g08.bks.cpg/sg9_7_cif.got.tgz:13026.got - 2010.06.03 20:04:27.
