data_PCOD9137945
_publ_section_title
;
Structure prediction by ZEFSAII (Michael W. Deem and Ramdas Pophale) SiO2 
 PCOD9137945
Probable space group: C C
;
_chemical_formula_sum "Si O2"
_cell_formula_units_Z 32
_cell_length_a 13.103192
_cell_length_b 7.146192
_cell_length_c 17.668575
_cell_angle_alpha 90.000000
_cell_angle_beta 125.664183
_cell_angle_gamma 90.000000
_cell_volume 1344.153805
_symmetry_space_group_name_H-M "C C"
_symmetry_group_IT_number 9
_symmetry_cell_setting 'monoclinic'
loop_
_space_group_symop_operation_xyz
x,y,z
x,-y,1/2+z
1/2+x,1/2+y,z
1/2+x,1/2-y,1/2+z
loop_
_atom_site_type_symbol
_atom_site_label
_atom_site_fract_x
_atom_site_fract_y
_atom_site_fract_z
Si Si1 0.322770 0.794102 0.526900
Si Si2 0.822656 0.273022 0.906652
Si Si3 0.600179 0.481271 0.891696
Si Si4 0.724783 0.665315 0.206606
Si Si5 0.219752 0.249920 0.670978
Si Si6 0.388801 0.460355 0.180794
Si Si7 0.015723 0.434896 0.099881
Si Si8 0.366060 0.650026 0.384698
O O1 0.375635 0.609947 0.589962
O O2 0.356384 0.781815 0.452717
O O3 0.175988 0.847310 0.463566
O O4 0.403543 0.964839 0.596455
O O5 0.708080 0.342369 0.909163
O O6 0.806865 0.363498 0.817074
O O7 0.951572 0.330102 0.002200
O O8 0.819644 0.052600 0.891875
O O9 0.519329 0.543597 0.782885
O O10 0.694088 0.469247 0.153926
O O11 0.800283 0.808327 0.185755
O O12 0.600670 0.780135 0.177181
O O13 0.326678 0.336727 0.663477
O O14 0.274743 0.283548 0.778770
O O15 0.103221 0.390465 0.613817
O O16 0.502400 0.616157 0.406265
#
# Coordination Sequence:
#
# PCOD9137945 Si02
#       8
#     4   4   4   4   4   4   4   4
#     4  11  26  45  73 107 147 195 247 306 373 446
#     4  11  23  45  75 107 142 201 243 303 378 439
#     4  10  24  48  71 104 151 189 248 301 369 441
#     4  11  23  47  77 100 157 192 239 319 369 433
#     4  10  22  45  74 107 143 199 243 300 378 431
#     4  10  24  46  69 112 144 193 255 296 370 453
#     4  10  24  42  70 109 141 188 252 293 367 442
#     4  11  24  50  73 108 147 195 247 308 370 437
#
# _framework density 23.806799000000002
#
# number of rings (size 3 to 8) (size 9 to 14) (size 15 to 20)
#    0.000    1.500    3.750    1.500    8.750    0.000 
#   18.000    0.000    0.000    0.000    0.000    0.000 
#    0.000    0.000    0.000    0.000    0.000    0.000 
#
# Total GULP energy -89506.628007 kJ/mol
# GULP energy per Si atom -5594.164250 kJ/mol
# Density = 2.375261 g / cm^3
# Si number density = 23.806799 Si / 1000 Ang^3
#
#
#
# Elastic Constant Matrix: (Units=GPa)
#
#
# Indices 1 2 3 4 5 6 
#
# 1 86.5620 16.6290 27.2861 0.0000 14.5289 0.0000
# 2 16.6290 118.4717 -2.8316 0.0000 4.6580 0.0000
# 3 27.2861 -2.8316 70.7440 0.0000 0.1361 0.0000
# 4 0.0000 0.0000 0.0000 37.5856 0.0000 -0.2738
# 5 14.5289 4.6580 0.1361 0.0000 34.2710 0.0000
# 6 0.0000 0.0000 0.0000 -0.2738 0.0000 22.3769
#
#
#
# Elastic Compliance Matrix: (Units=1/GPa)
#
#
# Indices 1 2 3 4 5 6 
#
# 1 0.014746 -0.001973 -0.005755 0.000000 -0.005960 0.000000
# 2 -0.001973 0.008758 0.001112 0.000000 -0.000358 0.000000
# 3 -0.005755 0.001112 0.016395 0.000000 0.002223 0.000000
# 4 0.000000 0.000000 0.000000 0.026608 0.000000 0.000326
# 5 -0.005960 -0.000358 0.002223 0.000000 0.031746 0.000000
# 6 0.000000 0.000000 0.000000 0.000326 0.000000 0.044693
#
#
# Mechanical properties :
#
#
# Convention : Reuss Voigt Hill
#
# Bulk Modulus (GPa) = 37.49775 39.77162 38.63469
# Shear Modulus (GPa) = 30.29056 34.49300 32.39178
#
# Velocity S-wave (km/s) = 3.57087 3.81053 3.69265
# Velocity P-wave (km/s) = 5.72595 6.00853 5.86894
#
# Compressibility (1/GPa) = 0.02666827
#
# Stress axis : x y z
#
# Youngs Moduli (GPa) = 67.81521 114.17553 60.99257
#
# Poissons Ratio (x) = 0.22527 0.35101
# Poissons Ratio (y) = 0.13380 -0.06784
# Poissons Ratio (z) = 0.39028 -0.12699
#
# Static dielectric constant tensor:
#      x y z
#    x 1.936230 0.000000 -0.007830 
#    y 0.000000 1.933140 0.000000 
#    z -0.007830 0.000000 1.926180 
# 
# From -- ./inp_files/26637.got.cif
#   From: 2010.05.17/outbox.cif.g08.bks.cpg/sg9_14_cif.got.tgz:26637.got - 2010.06.03 20:04:27.
