data_PCOD9137616
_publ_section_title
;
Structure prediction by ZEFSAII (Michael W. Deem and Ramdas Pophale) SiO2 
 PCOD9137616
Probable space group: C C
;
_chemical_formula_sum "Si O2"
_cell_formula_units_Z 24
_cell_length_a 7.198377
_cell_length_b 11.972608
_cell_length_c 11.733889
_cell_angle_alpha 90.000000
_cell_angle_beta 89.566564
_cell_angle_gamma 90.000000
_cell_volume 1011.236880
_symmetry_space_group_name_H-M "C C"
_symmetry_group_IT_number 9
_symmetry_cell_setting 'monoclinic'
loop_
_space_group_symop_operation_xyz
x,y,z
x,-y,1/2+z
1/2+x,1/2+y,z
1/2+x,1/2-y,1/2+z
loop_
_atom_site_type_symbol
_atom_site_label
_atom_site_fract_x
_atom_site_fract_y
_atom_site_fract_z
Si Si1 0.457330 0.158451 0.377860
Si Si2 0.142603 0.281866 0.492343
Si Si3 0.088157 0.486412 0.060199
Si Si4 0.093252 0.835271 0.203840
Si Si5 0.531182 0.798790 0.230221
Si Si6 0.227171 0.070137 0.174625
O O1 0.310458 0.197291 0.471807
O O2 0.606792 0.088712 0.447114
O O3 0.508750 0.271382 0.311406
O O4 0.359266 0.080637 0.285299
O O5 0.202260 0.400753 0.543822
O O6 0.018168 0.222526 0.589036
O O7 0.062499 0.298451 0.366181
O O8 0.119826 0.406661 0.167686
O O9 0.874475 0.535641 0.075075
O O10 0.311808 0.805707 0.211844
O O11 0.086592 0.967881 0.194933
O O12 0.619495 0.687335 0.174450
#
# Coordination Sequence:
#
# PCOD9137616 Si02
#       6
#     4   4   4   4   4   4
#     4  11  23  43  68  96 129 178 217 270 332 381
#     4  11  23  43  68  97 132 172 217 270 327 387
#     4  11  21  42  69  92 136 173 214 273 329 382
#     4  11  23  46  66  96 133 170 220 274 324 389
#     4  10  24  43  69 101 126 179 223 259 338 386
#     4  10  22  43  66  92 132 170 219 268 320 385
#
# _framework density 23.733312000000002
#
# number of rings (size 3 to 8) (size 9 to 14) (size 15 to 20)
#    0.000    1.333    5.000    2.000    0.000    4.000 
#    3.000    1.667    0.000    0.000    0.000    0.000 
#    0.000    0.000    0.000    0.000    0.000    0.000 
#
# Total GULP energy -67059.544046 kJ/mol
# GULP energy per Si atom -5588.295337 kJ/mol
# Density = 2.367929 g / cm^3
# Si number density = 23.733312 Si / 1000 Ang^3
#
#
#
# Elastic Constant Matrix: (Units=GPa)
#
#
# Indices 1 2 3 4 5 6 
#
# 1 32.1208 7.9866 13.2977 0.0000 -1.6588 0.0000
# 2 7.9866 163.6321 28.2132 0.0000 2.3402 0.0000
# 3 13.2977 28.2132 66.5227 0.0000 -0.6588 0.0000
# 4 0.0000 0.0000 0.0000 29.9570 0.0000 -12.6521
# 5 -1.6588 2.3402 -0.6588 0.0000 27.2368 0.0000
# 6 0.0000 0.0000 0.0000 -12.6521 0.0000 32.8100
#
#
#
# Elastic Compliance Matrix: (Units=1/GPa)
#
#
# Indices 1 2 3 4 5 6 
#
# 1 0.034088 -0.000561 -0.006556 0.000000 0.001966 0.000000
# 2 -0.000561 0.006614 -0.002699 0.000000 -0.000668 0.000000
# 3 -0.006556 -0.002699 0.017490 0.000000 0.000256 0.000000
# 4 0.000000 0.000000 0.000000 0.039875 0.000000 0.015377
# 5 0.001966 -0.000668 0.000256 0.000000 0.036898 0.000000
# 6 0.000000 0.000000 0.000000 0.015377 0.000000 0.036408
#
#
# Mechanical properties :
#
#
# Convention : Reuss Voigt Hill
#
# Bulk Modulus (GPa) = 25.93528 40.14117 33.03823
# Shear Modulus (GPa) = 24.52657 32.18597 28.35627
#
# Velocity S-wave (km/s) = 3.21818 3.68659 3.46032
# Velocity P-wave (km/s) = 4.97598 5.92211 5.46954
#
# Compressibility (1/GPa) = 0.03855752
#
# Stress axis : x y z
#
# Youngs Moduli (GPa) = 29.33589 151.20284 57.17410
#
# Poissons Ratio (x) = 0.08489 0.37486
# Poissons Ratio (y) = 0.01647 0.15433
# Poissons Ratio (z) = 0.19234 0.40814
#
# Static dielectric constant tensor:
#      x y z
#    x 1.937490 0.000000 0.001330 
#    y 0.000000 1.874700 0.000000 
#    z 0.001330 0.000000 1.924010 
# 
# From -- ./inp_files/14096.got.cif
#   From: 2010.05.17/outbox.cif.g08.bks.cpg/sg9_8_cif.got.tgz:14096.got - 2010.06.03 20:04:27.
