data_PCOD9137591
_publ_section_title
;
Structure prediction by ZEFSAII (Michael W. Deem and Ramdas Pophale) SiO2 
 PCOD9137591
Probable space group: C C
;
_chemical_formula_sum "Si O2"
_cell_formula_units_Z 28
_cell_length_a 5.215315
_cell_length_b 26.686897
_cell_length_c 7.660333
_cell_angle_alpha 90.000000
_cell_angle_beta 86.134717
_cell_angle_gamma 90.000000
_cell_volume 1063.744338
_symmetry_space_group_name_H-M "C C"
_symmetry_group_IT_number 9
_symmetry_cell_setting 'monoclinic'
loop_
_space_group_symop_operation_xyz
x,y,z
x,-y,1/2+z
1/2+x,1/2+y,z
1/2+x,1/2-y,1/2+z
loop_
_atom_site_type_symbol
_atom_site_label
_atom_site_fract_x
_atom_site_fract_y
_atom_site_fract_z
Si Si1 0.324390 0.439519 0.977350
Si Si2 0.580341 0.503018 0.232729
Si Si3 0.200577 0.850654 0.988359
Si Si4 0.337301 0.107325 0.142299
Si Si5 0.516575 0.745593 0.658788
Si Si6 0.512052 0.301260 0.543122
Si Si7 0.918052 0.412873 0.279900
O O1 0.307770 0.470145 0.799580
O O2 0.454137 0.385481 0.960945
O O3 0.540684 0.476135 0.048194
O O4 0.110909 0.437303 0.132868
O O5 0.758603 0.551619 0.203584
O O6 0.699177 0.454155 0.322013
O O7 0.395189 0.865137 0.823433
O O8 0.112966 0.794350 0.010026
O O9 0.312955 0.866971 0.169915
O O10 0.104883 0.141770 0.073713
O O11 0.520919 0.103500 0.964510
O O12 0.490358 0.715558 0.841868
O O13 0.247868 0.768858 0.611389
O O14 0.745705 0.786296 0.647752
#
# Coordination Sequence:
#
# PCOD9137591 Si02
#       7
#     4   4   4   4   4   4   4
#     4  10  23  38  67  99 134 191 233 302 368 439
#     4  10  22  43  62 100 142 177 246 299 363 448
#     4  10  24  45  67 103 144 184 244 308 366 453
#     4  11  23  47  69 100 146 190 247 304 378 441
#     4  12  26  50  79 113 159 195 260 312 389 449
#     4  12  27  49  78 115 151 205 252 320 379 463
#     4  11  23  44  68 100 138 190 238 307 371 449
#
# _framework density 26.322115
#
# number of rings (size 3 to 8) (size 9 to 14) (size 15 to 20)
#    0.000    1.143    2.857    2.571    4.000    1.143 
#    7.714    0.000    0.000    0.000    0.000    0.000 
#    0.000    0.000    0.000    0.000    0.000    0.000 
#
# Total GULP energy -78220.285376 kJ/mol
# GULP energy per Si atom -5587.163241 kJ/mol
# Density = 2.626220 g / cm^3
# Si number density = 26.322115 Si / 1000 Ang^3
#
#
#
# Elastic Constant Matrix: (Units=GPa)
#
#
# Indices 1 2 3 4 5 6 
#
# 1 74.0091 24.0939 19.5028 0.0000 -3.6167 0.0000
# 2 24.0939 128.8767 23.4976 0.0000 -3.1386 0.0000
# 3 19.5028 23.4976 148.8829 0.0000 -14.3048 0.0000
# 4 0.0000 0.0000 0.0000 46.8798 0.0000 -13.8873
# 5 -3.6167 -3.1386 -14.3048 0.0000 34.0634 0.0000
# 6 0.0000 0.0000 0.0000 -13.8873 0.0000 16.3421
#
#
#
# Elastic Compliance Matrix: (Units=1/GPa)
#
#
# Indices 1 2 3 4 5 6 
#
# 1 0.014739 -0.002470 -0.001472 0.000000 0.000719 0.000000
# 2 -0.002470 0.008405 -0.000994 0.000000 0.000095 0.000000
# 3 -0.001472 -0.000994 0.007339 0.000000 0.002834 0.000000
# 4 0.000000 0.000000 0.000000 0.028507 0.000000 0.024225
# 5 0.000719 0.000095 0.002834 0.000000 0.030632 0.000000
# 6 0.000000 0.000000 0.000000 0.024225 0.000000 0.081778
#
#
# Mechanical properties :
#
#
# Convention : Reuss Voigt Hill
#
# Bulk Modulus (GPa) = 48.51661 53.99526 51.25594
# Shear Modulus (GPa) = 26.57581 38.43536 32.50559
#
# Velocity S-wave (km/s) = 3.18093 3.82539 3.51795
# Velocity P-wave (km/s) = 5.65358 6.33003 6.00134
#
# Compressibility (1/GPa) = 0.02061150
#
# Stress axis : x y z
#
# Youngs Moduli (GPa) = 67.84792 118.98297 136.26511
#
# Poissons Ratio (x) = 0.29384 0.20056
# Poissons Ratio (y) = 0.16756 0.13543
# Poissons Ratio (z) = 0.09986 0.11825
#
# Static dielectric constant tensor:
#      x y z
#    x 2.103140 0.000000 0.005300 
#    y 0.000000 2.155990 0.000000 
#    z 0.005300 0.000000 2.334720 
# 
# From -- ./inp_files/4114.got.cif
#   From: 2010.05.17/outbox.cif.g08.bks.cpg/sg9_3_cif.got.tgz:4114.got - 2010.06.03 20:04:27.
