data_PCOD9137200
_publ_section_title
;
Structure prediction by ZEFSAII (Michael W. Deem and Ramdas Pophale) SiO2 
 PCOD9137200
Probable space group: C C
;
_chemical_formula_sum "Si O2"
_cell_formula_units_Z 28
_cell_length_a 5.630326
_cell_length_b 19.227316
_cell_length_c 11.319118
_cell_angle_alpha 90.000000
_cell_angle_beta 77.299177
_cell_angle_gamma 90.000000
_cell_volume 1195.380149
_symmetry_space_group_name_H-M "C C"
_symmetry_group_IT_number 9
_symmetry_cell_setting 'monoclinic'
loop_
_space_group_symop_operation_xyz
x,y,z
x,-y,1/2+z
1/2+x,1/2+y,z
1/2+x,1/2-y,1/2+z
loop_
_atom_site_type_symbol
_atom_site_label
_atom_site_fract_x
_atom_site_fract_y
_atom_site_fract_z
Si Si1 0.449670 0.179686 0.411580
Si Si2 0.156771 0.058649 0.802256
Si Si3 0.904238 0.151147 0.237076
Si Si4 0.575763 0.427091 0.943065
Si Si5 0.153534 0.817385 0.475305
Si Si6 0.211911 0.424282 0.180584
Si Si7 0.605452 0.214941 0.819372
O O1 0.263664 0.124531 0.488448
O O2 0.579702 0.235446 0.483083
O O3 0.306269 0.234536 0.347261
O O4 0.627415 0.137475 0.304626
O O5 0.116575 0.135850 0.861435
O O6 0.431762 0.050915 0.721314
O O7 0.928445 0.042954 0.739571
O O8 0.152856 0.005452 0.912572
O O9 0.053549 0.106850 0.315857
O O10 0.932991 0.232913 0.265698
O O11 0.008816 0.145104 0.095547
O O12 0.319894 0.426234 0.037938
O O13 0.448120 0.815588 0.446119
O O14 0.198556 0.345541 0.227647
#
# Coordination Sequence:
#
# PCOD9137200 Si02
#       7
#     4   4   4   4   4   4   4
#     4  10  22  40  64 104 134 179 235 287 359 413
#     4  11  27  48  72 103 139 195 238 286 369 421
#     4  10  24  40  66 103 139 178 241 294 357 418
#     4  11  28  43  71 104 140 187 239 301 353 426
#     4  10  22  42  68  96 141 184 234 298 355 433
#     4  11  26  48  75  98 146 185 240 287 359 434
#     4   9  21  41  62 100 131 188 227 287 358 417
#
# _framework density 23.42351
#
# number of rings (size 3 to 8) (size 9 to 14) (size 15 to 20)
#    0.000    1.714    1.429    0.000   14.000    1.143 
#    2.571    0.000    0.000    0.000    0.000    0.000 
#    0.000    0.000    0.000    0.000    0.000    0.000 
#
# Total GULP energy -78074.561021 kJ/mol
# GULP energy per Si atom -5576.754359 kJ/mol
# Density = 2.337020 g / cm^3
# Si number density = 23.423510 Si / 1000 Ang^3
#
#
#
# Elastic Constant Matrix: (Units=GPa)
#
#
# Indices 1 2 3 4 5 6 
#
# 1 84.9517 10.4370 37.3290 0.0000 -19.1025 0.0000
# 2 10.4370 91.8769 7.4216 0.0000 -10.4112 0.0000
# 3 37.3290 7.4216 117.4254 0.0000 -27.8941 0.0000
# 4 0.0000 0.0000 0.0000 26.3838 0.0000 -3.1031
# 5 -19.1025 -10.4112 -27.8941 0.0000 26.2975 0.0000
# 6 0.0000 0.0000 0.0000 -3.1031 0.0000 19.1234
#
#
#
# Elastic Compliance Matrix: (Units=1/GPa)
#
#
# Indices 1 2 3 4 5 6 
#
# 1 0.014790 -0.000604 -0.002899 0.000000 0.007430 0.000000
# 2 -0.000604 0.011439 0.000589 0.000000 0.004715 0.000000
# 3 -0.002899 0.000589 0.011972 0.000000 0.010827 0.000000
# 4 0.000000 0.000000 0.000000 0.038639 0.000000 0.006270
# 5 0.007430 0.004715 0.010827 0.000000 0.056774 0.000000
# 6 0.000000 0.000000 0.000000 0.006270 0.000000 0.053309
#
#
# Mechanical properties :
#
#
# Convention : Reuss Voigt Hill
#
# Bulk Modulus (GPa) = 30.88871 44.95880 37.92376
# Shear Modulus (GPa) = 24.56485 30.29870 27.43177
#
# Velocity S-wave (km/s) = 3.24192 3.60045 3.42588
# Velocity P-wave (km/s) = 5.21815 6.04317 5.64575
#
# Compressibility (1/GPa) = 0.03237429
#
# Stress axis : x y z
#
# Youngs Moduli (GPa) = 67.61344 87.41689 83.52765
#
# Poissons Ratio (x) = 0.05280 0.24211
# Poissons Ratio (y) = 0.04084 -0.04920
# Poissons Ratio (z) = 0.19598 -0.05149
#
# Static dielectric constant tensor:
#      x y z
#    x 2.013550 0.000000 0.017830 
#    y 0.000000 1.884290 0.000000 
#    z 0.017830 0.000000 1.908670 
# 
# From -- ./inp_files/13113.got.cif
#   From: 2010.05.17/outbox.cif.g08.bks.cpg/sg9_7_cif.got.tgz:13113.got - 2010.06.03 20:04:27.
