data_PCOD9137177
_publ_section_title
;
Structure prediction by ZEFSAII (Michael W. Deem and Ramdas Pophale) SiO2 
 PCOD9137177
Probable space group: C C
;
_chemical_formula_sum "Si O2"
_cell_formula_units_Z 32
_cell_length_a 18.679552
_cell_length_b 13.589710
_cell_length_c 5.345160
_cell_angle_alpha 90.000000
_cell_angle_beta 63.738749
_cell_angle_gamma 90.000000
_cell_volume 1216.819367
_symmetry_space_group_name_H-M "C C"
_symmetry_group_IT_number 9
_symmetry_cell_setting 'monoclinic'
loop_
_space_group_symop_operation_xyz
x,y,z
x,-y,1/2+z
1/2+x,1/2+y,z
1/2+x,1/2-y,1/2+z
loop_
_atom_site_type_symbol
_atom_site_label
_atom_site_fract_x
_atom_site_fract_y
_atom_site_fract_z
Si Si1 0.132610 0.367724 0.699260
Si Si2 0.962603 0.387305 0.802529
Si Si3 0.349260 0.235442 0.840498
Si Si4 0.306851 0.559240 0.030987
Si Si5 0.438976 0.683948 0.614957
Si Si6 0.095014 0.941782 0.925749
Si Si7 0.322465 0.966141 0.505550
Si Si8 0.168323 0.257997 0.125276
O O1 0.210874 0.427086 0.661439
O O2 0.154696 0.323375 0.393907
O O3 0.047384 0.419235 0.784667
O O4 0.121436 0.290221 0.946046
O O5 0.976466 0.293647 0.596016
O O6 0.906902 0.478393 0.809974
O O7 0.905757 0.329076 0.080904
O O8 0.328684 0.147102 0.074431
O O9 0.402035 0.314907 0.897407
O O10 0.261119 0.268120 0.907633
O O11 0.326458 0.494586 0.756771
O O12 0.363524 0.655293 0.907146
O O13 0.506090 0.603382 0.547255
O O14 0.148677 0.850854 0.750626
O O15 0.105459 0.024599 0.696132
O O16 0.281664 0.023109 0.796852
#
# Coordination Sequence:
#
# PCOD9137177 Si02
#       8
#     4   4   4   4   4   4   4   4
#     4  12  26  49  76 105 146 195 250 298 369 440
#     4  11  25  43  77 106 147 190 247 303 372 444
#     4  11  25  43  77 106 147 190 247 303 372 444
#     4  12  28  48  73 110 149 194 249 304 365 430
#     4  12  24  46  76 102 146 196 250 298 370 438
#     4  12  28  48  73 110 149 194 249 304 365 430
#     4  10  22  40  62 106 138 176 236 296 362 422
#     4  12  26  49  76 105 146 195 250 298 369 440
#
# _framework density 26.298068000000001
#
# number of rings (size 3 to 8) (size 9 to 14) (size 15 to 20)
#    0.000    0.500    3.750    3.750    3.500    4.000 
#    0.000    0.000    0.000    0.000    0.000    0.000 
#    0.000    0.000    0.000    0.000    0.000    0.000 
#
# Total GULP energy -89516.253940 kJ/mol
# GULP energy per Si atom -5594.765871 kJ/mol
# Density = 2.623821 g / cm^3
# Si number density = 26.298068 Si / 1000 Ang^3
#
#
#
# Elastic Constant Matrix: (Units=GPa)
#
#
# Indices 1 2 3 4 5 6 
#
# 1 111.1124 13.3600 21.0952 0.0000 -21.4297 0.0000
# 2 13.3600 60.8309 4.1856 0.0000 6.1919 0.0000
# 3 21.0952 4.1856 123.1651 0.0000 4.1099 0.0000
# 4 0.0000 0.0000 0.0000 51.0671 0.0000 4.0696
# 5 -21.4297 6.1919 4.1099 0.0000 44.0497 0.0000
# 6 0.0000 0.0000 0.0000 4.0696 0.0000 46.4018
#
#
#
# Elastic Compliance Matrix: (Units=1/GPa)
#
#
# Indices 1 2 3 4 5 6 
#
# 1 0.010843 -0.002843 -0.001956 0.000000 0.005857 0.000000
# 2 -0.002843 0.017453 0.000022 0.000000 -0.003838 0.000000
# 3 -0.001956 0.000022 0.008512 0.000000 -0.001749 0.000000
# 4 0.000000 0.000000 0.000000 0.019720 0.000000 -0.001729
# 5 0.005857 -0.003838 -0.001749 0.000000 0.026254 0.000000
# 6 0.000000 0.000000 0.000000 -0.001729 0.000000 0.021703
#
#
# Mechanical properties :
#
#
# Convention : Reuss Voigt Hill
#
# Bulk Modulus (GPa) = 36.69296 41.37668 39.03482
# Shear Modulus (GPa) = 40.61032 45.40157 43.00594
#
# Velocity S-wave (km/s) = 3.93393 4.15953 4.04830
# Velocity P-wave (km/s) = 5.88366 6.23192 6.06029
#
# Compressibility (1/GPa) = 0.02725318
#
# Stress axis : x y z
#
# Youngs Moduli (GPa) = 92.22831 57.29809 117.48409
#
# Poissons Ratio (x) = 0.16289 0.22979
# Poissons Ratio (y) = 0.26220 -0.00257
# Poissons Ratio (z) = 0.18039 -0.00125
#
# Static dielectric constant tensor:
#      x y z
#    x 2.085240 0.000000 0.012880 
#    y 0.000000 2.184890 0.000000 
#    z 0.012880 0.000000 2.159010 
# 
# From -- ./inp_files/2968.got.cif
#   From: 2010.05.17/outbox.cif.g08.bks.cpg/sg9_2_cif.got.tgz:2968.got - 2010.06.03 20:04:27.
