data_PCOD9137025
_publ_section_title
;
Structure prediction by ZEFSAII (Michael W. Deem and Ramdas Pophale) SiO2 
 PCOD9137025
Probable space group: C C
;
_chemical_formula_sum "Si O2"
_cell_formula_units_Z 32
_cell_length_a 15.860586
_cell_length_b 18.439716
_cell_length_c 10.100257
_cell_angle_alpha 90.000000
_cell_angle_beta 32.668459
_cell_angle_gamma 90.000000
_cell_volume 1594.484311
_symmetry_space_group_name_H-M "C C"
_symmetry_group_IT_number 9
_symmetry_cell_setting 'monoclinic'
loop_
_space_group_symop_operation_xyz
x,y,z
x,-y,1/2+z
1/2+x,1/2+y,z
1/2+x,1/2-y,1/2+z
loop_
_atom_site_type_symbol
_atom_site_label
_atom_site_fract_x
_atom_site_fract_y
_atom_site_fract_z
Si Si1 0.645260 0.836121 0.391440
Si Si2 0.029878 0.079621 0.695567
Si Si3 0.691447 0.085758 0.099774
Si Si4 0.242164 0.585202 0.507533
Si Si5 0.898750 0.577790 0.899635
Si Si6 0.049599 0.946606 0.467425
Si Si7 0.372754 0.059335 0.632349
Si Si8 0.793796 0.318052 0.747741
O O1 0.649067 0.892996 0.506352
O O2 0.740210 0.869670 0.143944
O O3 0.727976 0.762444 0.325708
O O4 0.467417 0.822885 0.579210
O O5 0.171640 0.134979 0.493283
O O6 0.046056 0.021501 0.555408
O O7 0.039848 0.040898 0.824308
O O8 0.860470 0.118598 0.911017
O O9 0.535415 0.100556 0.389897
O O10 0.728147 0.000048 0.062057
O O11 0.395891 0.595508 0.218097
O O12 0.079599 0.601054 0.649722
O O13 0.852028 0.549438 0.816977
O O14 0.888899 0.514642 0.024380
O O15 0.804275 0.644335 0.088202
O O16 0.211895 0.907699 0.289946
#
# Coordination Sequence:
#
# PCOD9137025 Si02
#       8
#     4   4   4   4   4   4   4   4
#     4  11  24  45  65  99 127 184 211 270 322 403
#     4  11  23  38  61  98 131 174 215 271 325 384
#     4  10  23  36  66  91 131 163 221 270 325 378
#     4   9  23  36  63  91 129 163 215 270 326 376
#     4  10  22  37  61  94 127 172 208 270 326 385
#     4  11  22  35  60  96 134 163 219 276 325 377
#     4  11  21  35  61  94 133 162 217 276 326 375
#     4  11  24  42  67  89 138 171 226 253 331 400
#
# _framework density 20.069184
#
# number of rings (size 3 to 8) (size 9 to 14) (size 15 to 20)
#    0.000    1.500    1.250    3.000   17.500    1.000 
#    0.000    1.250    0.000    3.000    0.000    0.000 
#    0.000    0.000    0.000    0.000    0.000    0.000 
#
# Total GULP energy -89296.231180 kJ/mol
# GULP energy per Si atom -5581.014449 kJ/mol
# Density = 2.002351 g / cm^3
# Si number density = 20.069184 Si / 1000 Ang^3
#
#
#
# Elastic Constant Matrix: (Units=GPa)
#
#
# Indices 1 2 3 4 5 6 
#
# 1 106.3723 23.9084 50.4409 0.0009 12.6273 -0.0022
# 2 23.9084 47.1799 26.5185 0.0005 8.9447 -0.0010
# 3 50.4409 26.5185 134.0473 0.0009 -23.7528 -0.0009
# 4 0.0009 0.0005 0.0009 18.6533 -0.0005 -3.0129
# 5 12.6273 8.9447 -23.7528 -0.0005 42.4198 0.0010
# 6 -0.0022 -0.0010 -0.0009 -3.0129 0.0010 12.6473
#
#
#
# Elastic Compliance Matrix: (Units=1/GPa)
#
#
# Indices 1 2 3 4 5 6 
#
# 1 0.013482 -0.002266 -0.005830 0.000000 -0.006800 0.000002
# 2 -0.002266 0.027363 -0.006065 0.000000 -0.008491 0.000002
# 3 -0.005830 -0.006065 0.012642 0.000000 0.010093 -0.000001
# 4 0.000000 0.000000 0.000000 0.055755 0.000000 0.013282
# 5 -0.006800 -0.008491 0.010093 0.000000 0.033040 -0.000004
# 6 0.000002 0.000002 -0.000001 0.013282 -0.000004 0.082232
#
#
# Mechanical properties :
#
#
# Convention : Reuss Voigt Hill
#
# Bulk Modulus (GPa) = 39.73799 54.37058 47.05428
# Shear Modulus (GPa) = 19.14069 27.19289 23.16679
#
# Velocity S-wave (km/s) = 3.09161 3.68497 3.40125
# Velocity P-wave (km/s) = 5.70855 6.72724 6.23872
#
# Compressibility (1/GPa) = 0.02516483
#
# Stress axis : x y z
#
# Youngs Moduli (GPa) = 74.17378 36.54623 79.10120
#
# Poissons Ratio (x) = 0.08282 0.46114
# Poissons Ratio (y) = 0.16808 0.47975
# Poissons Ratio (z) = 0.43241 0.22165
#
# Static dielectric constant tensor:
#      x y z
#    x 1.740300 0.000000 -0.042850 
#    y 0.000000 1.697180 0.000000 
#    z -0.042850 0.000000 1.758680 
# 
# From -- ./inp_files/9964.got.cif
#   From: 2010.05.17/outbox.cif.g08.bks.cpg/sg9_5_cif.got.tgz:9964.got - 2010.06.03 20:04:27.
