data_PCOD9137137
_publ_section_title
;
Structure prediction by ZEFSAII (Michael W. Deem and Ramdas Pophale) SiO2 
 PCOD9137137
Probable space group: C C
;
_chemical_formula_sum "Si O2"
_cell_formula_units_Z 28
_cell_length_a 7.880235
_cell_length_b 18.445989
_cell_length_c 13.659101
_cell_angle_alpha 90.000000
_cell_angle_beta 37.042634
_cell_angle_gamma 90.000000
_cell_volume 1196.064972
_symmetry_space_group_name_H-M "C C"
_symmetry_group_IT_number 9
_symmetry_cell_setting 'monoclinic'
loop_
_space_group_symop_operation_xyz
x,y,z
x,-y,1/2+z
1/2+x,1/2+y,z
1/2+x,1/2-y,1/2+z
loop_
_atom_site_type_symbol
_atom_site_label
_atom_site_fract_x
_atom_site_fract_y
_atom_site_fract_z
Si Si1 0.985240 0.682168 0.381200
Si Si2 0.303734 0.821868 0.507128
Si Si3 0.573762 0.116573 0.148812
Si Si4 0.669114 0.663313 0.845681
Si Si5 0.858603 0.769493 0.164219
Si Si6 0.657373 0.540268 0.207039
Si Si7 0.535668 0.914175 0.035875
O O1 0.651507 0.689327 0.519363
O O2 0.093885 0.622268 0.255670
O O3 0.120252 0.761957 0.308945
O O4 0.056067 0.654732 0.455938
O O5 0.176998 0.818753 0.457212
O O6 0.635856 0.812827 0.331454
O O7 0.238168 0.757231 0.614449
O O8 0.220914 0.896098 0.599256
O O9 0.437839 0.193985 0.180729
O O10 0.364668 0.057397 0.203045
O O11 0.885109 0.116269 0.961060
O O12 0.933154 0.616985 0.686968
O O13 0.335416 0.546244 0.389340
O O14 0.781158 0.464437 0.113341
#
# Coordination Sequence:
#
# PCOD9137137 Si02
#       7
#     4   4   4   4   4   4   4
#     4  11  24  41  72 106 145 184 239 299 364 417
#     4  11  25  41  73 106 148 186 242 289 370 421
#     4  10  22  44  65 101 143 182 241 284 360 418
#     4  11  25  42  73 109 145 186 235 304 359 426
#     4  10  22  39  67 106 143 190 224 300 346 430
#     4  11  28  49  70 102 142 200 243 291 363 437
#     4  12  28  48  74 102 148 192 244 299 356 437
#
# _framework density 23.4101
#
# number of rings (size 3 to 8) (size 9 to 14) (size 15 to 20)
#    0.000    1.143    1.429    3.429   16.000    1.143 
#    0.000    2.857    0.000    0.000    0.000    0.000 
#    0.000    0.000    0.000    0.000    0.000    0.000 
#
# Total GULP energy -78308.445962 kJ/mol
# GULP energy per Si atom -5593.460426 kJ/mol
# Density = 2.335682 g / cm^3
# Si number density = 23.410100 Si / 1000 Ang^3
#
#
#
# Elastic Constant Matrix: (Units=GPa)
#
#
# Indices 1 2 3 4 5 6 
#
# 1 73.3459 4.3908 25.4330 -0.0006 6.2896 -0.0002
# 2 4.3908 73.1168 38.2675 -0.0002 -6.0385 -0.0002
# 3 25.4330 38.2675 155.8266 -0.0040 -17.5501 0.0011
# 4 -0.0006 -0.0002 -0.0040 28.6790 0.0016 -3.1512
# 5 6.2896 -6.0385 -17.5501 0.0016 43.4021 0.0000
# 6 -0.0002 -0.0002 0.0011 -3.1512 0.0000 27.8007
#
#
#
# Elastic Compliance Matrix: (Units=1/GPa)
#
#
# Indices 1 2 3 4 5 6 
#
# 1 0.014895 0.000345 -0.002885 0.000000 -0.003277 0.000000
# 2 0.000345 0.015720 -0.003851 0.000000 0.000580 0.000000
# 3 -0.002885 -0.003851 0.008194 0.000001 0.003195 0.000000
# 4 0.000000 0.000000 0.000001 0.035309 -0.000001 0.004002
# 5 -0.003277 0.000580 0.003195 -0.000001 0.024888 0.000000
# 6 0.000000 0.000000 0.000000 0.004002 0.000000 0.036424
#
#
# Mechanical properties :
#
#
# Convention : Reuss Voigt Hill
#
# Bulk Modulus (GPa) = 38.42385 48.71908 43.57146
# Shear Modulus (GPa) = 31.87014 35.58955 33.72984
#
# Velocity S-wave (km/s) = 3.69370 3.90329 3.79994
# Velocity P-wave (km/s) = 5.88559 6.41643 6.15673
#
# Compressibility (1/GPa) = 0.02602550
#
# Stress axis : x y z
#
# Youngs Moduli (GPa) = 67.13798 63.61470 122.04177
#
# Poissons Ratio (x) = -0.02193 0.35206
# Poissons Ratio (y) = -0.02314 0.47003
# Poissons Ratio (z) = 0.19368 0.24500
#
# Static dielectric constant tensor:
#      x y z
#    x 1.924350 0.000000 -0.001790 
#    y 0.000000 1.856980 0.000000 
#    z -0.001790 0.000000 1.879490 
# 
# From -- ./inp_files/5652.got.cif
#   From: 2010.05.17/outbox.cif.g08.bks.cpg/sg9_3_cif.got.tgz:5652.got - 2010.06.03 20:04:27.
