data_PCOD9137286
_publ_section_title
;
Structure prediction by ZEFSAII (Michael W. Deem and Ramdas Pophale) SiO2 
 PCOD9137286
Probable space group: C C
;
_chemical_formula_sum "Si O2"
_cell_formula_units_Z 24
_cell_length_a 24.107936
_cell_length_b 7.099660
_cell_length_c 13.538750
_cell_angle_alpha 90.000000
_cell_angle_beta 155.239031
_cell_angle_gamma 90.000000
_cell_volume 970.549418
_symmetry_space_group_name_H-M "C C"
_symmetry_group_IT_number 9
_symmetry_cell_setting 'monoclinic'
loop_
_space_group_symop_operation_xyz
x,y,z
x,-y,1/2+z
1/2+x,1/2+y,z
1/2+x,1/2-y,1/2+z
loop_
_atom_site_type_symbol
_atom_site_label
_atom_site_fract_x
_atom_site_fract_y
_atom_site_fract_z
Si Si1 0.000000 0.435224 0.137350
Si Si2 0.458680 0.046523 0.338971
Si Si3 0.505248 0.316863 0.247904
Si Si4 0.705157 0.484141 0.720164
Si Si5 0.241503 0.423983 0.808607
Si Si6 0.726023 0.252662 0.934448
O O1 0.043329 0.647688 0.236369
O O2 0.109337 0.508422 0.545893
O O3 0.968503 0.417414 0.970627
O O4 0.857144 0.411438 0.956371
O O5 0.425838 0.218428 0.212794
O O6 0.357306 0.871094 0.170190
O O7 0.752805 0.050578 0.926442
O O8 0.623305 0.427313 0.490838
O O9 0.390713 0.436375 0.008142
O O10 0.705212 0.704134 0.742119
O O11 0.653839 0.379411 0.734438
O O12 0.121903 0.294148 0.352450
#
# Coordination Sequence:
#
# PCOD9137286 Si02
#       6
#     4   4   4   4   4   4
#     4  10  24  40  66 108 132 184 240 270 360 408
#     4  11  22  44  69  97 142 178 234 287 335 414
#     4  11  22  44  69  97 142 178 234 287 335 414
#     4  11  22  46  71  96 141 181 229 292 338 408
#     4  10  22  40  72  96 122 184 230 272 360 388
#     4  11  22  46  71  96 141 181 229 292 338 408
#
# _framework density 24.728262000000001
#
# number of rings (size 3 to 8) (size 9 to 14) (size 15 to 20)
#    0.000    1.333    6.667    1.000    0.000    5.333 
#    6.000    1.667    0.000    0.000    0.000    0.000 
#    0.000    0.000    0.000    0.000    0.000    0.000 
#
# Total GULP energy -66905.236504 kJ/mol
# GULP energy per Si atom -5575.436375 kJ/mol
# Density = 2.467198 g / cm^3
# Si number density = 24.728262 Si / 1000 Ang^3
#
#
#
# Elastic Constant Matrix: (Units=GPa)
#
#
# Indices 1 2 3 4 5 6 
#
# 1 40.8059 11.7848 -5.2840 0.0000 -8.5872 0.0000
# 2 11.7848 107.1964 33.8785 0.0000 9.2878 0.0000
# 3 -5.2840 33.8785 122.6856 0.0000 25.9404 0.0000
# 4 0.0000 0.0000 0.0000 46.6150 0.0000 1.9072
# 5 -8.5872 9.2878 25.9404 0.0000 37.0083 0.0000
# 6 0.0000 0.0000 0.0000 1.9072 0.0000 35.3341
#
#
#
# Elastic Compliance Matrix: (Units=1/GPa)
#
#
# Indices 1 2 3 4 5 6 
#
# 1 0.027120 -0.003816 0.000809 0.000000 0.006684 0.000000
# 2 -0.003816 0.010773 -0.002794 0.000000 -0.001630 0.000000
# 3 0.000809 -0.002794 0.010295 0.000000 -0.006327 0.000000
# 4 0.000000 0.000000 0.000000 0.021500 0.000000 -0.001160
# 5 0.006684 -0.001630 -0.006327 0.000000 0.033416 0.000000
# 6 0.000000 0.000000 0.000000 -0.001160 0.000000 0.028364
#
#
# Mechanical properties :
#
#
# Convention : Reuss Voigt Hill
#
# Bulk Modulus (GPa) = 27.33458 39.04963 33.19211
# Shear Modulus (GPa) = 32.20294 39.14538 35.67416
#
# Velocity S-wave (km/s) = 3.61262 3.98304 3.80234
# Velocity P-wave (km/s) = 5.33660 6.08100 5.72092
#
# Compressibility (1/GPa) = 0.03658369
#
# Stress axis : x y z
#
# Youngs Moduli (GPa) = 36.87381 92.82815 97.13232
#
# Poissons Ratio (x) = 0.35424 -0.07854
# Poissons Ratio (y) = 0.14071 0.27143
# Poissons Ratio (z) = -0.02982 0.25940
#
# Static dielectric constant tensor:
#      x y z
#    x 2.010090 0.000000 0.042250 
#    y 0.000000 1.992730 0.000000 
#    z 0.042250 0.000000 2.051570 
# 
# From -- ./inp_files/22419.got.cif
#   From: 2010.05.17/outbox.cif.g08.bks.cpg/sg9_12_cif.got.tgz:22419.got - 2010.06.03 20:04:27.
