data_PCOD9137265
_publ_section_title
;
Structure prediction by ZEFSAII (Michael W. Deem and Ramdas Pophale) SiO2 
 PCOD9137265
Probable space group: C C
;
_chemical_formula_sum "Si O2"
_cell_formula_units_Z 32
_cell_length_a 8.552743
_cell_length_b 11.380077
_cell_length_c 23.946173
_cell_angle_alpha 90.000000
_cell_angle_beta 31.325441
_cell_angle_gamma 90.000000
_cell_volume 1211.728364
_symmetry_space_group_name_H-M "C C"
_symmetry_group_IT_number 9
_symmetry_cell_setting 'monoclinic'
loop_
_space_group_symop_operation_xyz
x,y,z
x,-y,1/2+z
1/2+x,1/2+y,z
1/2+x,1/2-y,1/2+z
loop_
_atom_site_type_symbol
_atom_site_label
_atom_site_fract_x
_atom_site_fract_y
_atom_site_fract_z
Si Si1 0.338600 0.349956 0.952670
Si Si2 0.731368 0.588471 0.827887
Si Si3 0.187460 0.332087 0.546247
Si Si4 0.836112 0.765905 0.249394
Si Si5 0.659158 0.094953 0.240903
Si Si6 0.870149 0.632181 0.024416
Si Si7 0.734941 0.019800 0.331802
Si Si8 0.364125 0.045077 0.667117
O O1 0.511383 0.474042 0.898301
O O2 0.495371 0.285732 0.852561
O O3 0.418365 0.254488 0.976419
O O4 0.995985 0.382157 0.074541
O O5 0.786171 0.619070 0.746240
O O6 0.034082 0.532305 0.759376
O O7 0.535225 0.679184 0.923522
O O8 0.026949 0.239848 0.634842
O O9 0.011661 0.347634 0.541746
O O10 0.131162 0.452901 0.598846
O O11 0.798577 0.896063 0.281922
O O12 0.007393 0.689320 0.245542
O O13 0.016924 0.107028 0.129958
O O14 0.588610 0.101126 0.329118
O O15 0.033287 0.521080 0.945077
O O16 0.080066 0.039856 0.243464
#
# Coordination Sequence:
#
# PCOD9137265 Si02
#       8
#     4   4   4   4   4   4   4   4
#     4   9  21  38  65  93 130 175 219 273 343 402
#     4  10  22  40  68  96 129 181 219 274 348 418
#     4  11  21  41  67  90 130 177 220 266 343 415
#     4  10  23  44  64  96 140 175 220 286 344 408
#     4  11  23  40  65  99 131 172 226 284 337 403
#     4  11  23  40  66  96 135 176 228 286 334 413
#     4  11  24  41  66  98 134 172 232 282 343 405
#     4  11  19  40  67  90 131 174 220 267 340 410
#
# _framework density 26.408559
#
# number of rings (size 3 to 8) (size 9 to 14) (size 15 to 20)
#    0.000    1.500    5.000    0.750    1.750    2.000 
#    0.000    1.250    0.000    0.000    0.000    0.000 
#    0.000    0.000    0.000    0.000    0.000    0.000 
#
# Total GULP energy -89336.228902 kJ/mol
# GULP energy per Si atom -5583.514306 kJ/mol
# Density = 2.634845 g / cm^3
# Si number density = 26.408559 Si / 1000 Ang^3
#
#
#
# Elastic Constant Matrix: (Units=GPa)
#
#
# Indices 1 2 3 4 5 6 
#
# 1 153.4045 23.6256 83.5983 -0.0074 3.1782 0.0058
# 2 23.6256 52.1641 46.9002 -0.0036 11.3236 0.0015
# 3 83.5983 46.9002 168.8100 -0.0186 12.1407 -0.0091
# 4 -0.0074 -0.0036 -0.0186 34.2746 0.0080 -3.5212
# 5 3.1782 11.3236 12.1407 0.0080 44.9927 -0.0006
# 6 0.0058 0.0015 -0.0091 -3.5212 -0.0006 21.7777
#
#
#
# Elastic Compliance Matrix: (Units=1/GPa)
#
#
# Indices 1 2 3 4 5 6 
#
# 1 0.008944 -0.000216 -0.004414 -0.000001 0.000613 -0.000004
# 2 -0.000216 0.026530 -0.006919 0.000000 -0.004795 -0.000005
# 3 -0.004414 -0.006919 0.010080 0.000005 -0.000667 0.000007
# 4 -0.000001 0.000000 0.000005 0.029669 -0.000006 0.004797
# 5 0.000613 -0.004795 -0.000667 -0.000006 0.023569 -0.000001
# 6 -0.000004 -0.000005 0.000007 0.004797 -0.000001 0.046694
#
#
# Mechanical properties :
#
#
# Convention : Reuss Voigt Hill
#
# Bulk Modulus (GPa) = 44.52982 75.84740 60.18861
# Shear Modulus (GPa) = 28.39804 34.89266 31.64535
#
# Velocity S-wave (km/s) = 3.28279 3.63886 3.46540
# Velocity P-wave (km/s) = 5.59173 6.81456 6.23320
#
# Compressibility (1/GPa) = 0.02245686
#
# Stress axis : x y z
#
# Youngs Moduli (GPa) = 111.80080 37.69379 99.20881
#
# Poissons Ratio (x) = 0.00814 0.43787
# Poissons Ratio (y) = 0.02415 0.68641
# Poissons Ratio (z) = 0.49345 0.26080
#
# Static dielectric constant tensor:
#      x y z
#    x 2.234680 0.000000 -0.035220 
#    y 0.000000 2.096730 0.000010 
#    z -0.035220 0.000010 2.122730 
# 
# From -- ./inp_files/23370.got.cif
#   From: 2010.05.17/outbox.cif.g08.bks.cpg/sg9_12_cif.got.tgz:23370.got - 2010.06.03 20:04:27.
