data_PCOD9137709
_publ_section_title
;
Structure prediction by ZEFSAII (Michael W. Deem and Ramdas Pophale) SiO2 
 PCOD9137709
Probable space group: C C
;
_chemical_formula_sum "Si O2"
_cell_formula_units_Z 28
_cell_length_a 14.132192
_cell_length_b 5.708960
_cell_length_c 13.521122
_cell_angle_alpha 90.000000
_cell_angle_beta 101.954813
_cell_angle_gamma 90.000000
_cell_volume 1067.225802
_symmetry_space_group_name_H-M "C C"
_symmetry_group_IT_number 9
_symmetry_cell_setting 'monoclinic'
loop_
_space_group_symop_operation_xyz
x,y,z
x,-y,1/2+z
1/2+x,1/2+y,z
1/2+x,1/2-y,1/2+z
loop_
_atom_site_type_symbol
_atom_site_label
_atom_site_fract_x
_atom_site_fract_y
_atom_site_fract_z
Si Si1 0.785710 0.838343 0.909880
Si Si2 0.487713 0.924050 0.895211
Si Si3 0.911787 0.194536 0.262931
Si Si4 0.615171 0.462010 0.334498
Si Si5 0.176676 0.573138 0.040932
Si Si6 0.167281 0.933144 0.625303
Si Si7 0.942158 0.933962 0.542284
O O1 0.821144 0.895467 0.807000
O O2 0.715250 0.615410 0.909729
O O3 0.729512 0.053310 0.947371
O O4 0.883990 0.836169 0.995568
O O5 0.559168 0.784972 0.835464
O O6 0.413942 0.041119 0.802399
O O7 0.425800 0.761007 0.955011
O O8 0.563502 0.049867 0.987395
O O9 0.915145 0.135778 0.148488
O O10 0.018951 0.120845 0.329328
O O11 0.654655 0.546521 0.239036
O O12 0.201669 0.327458 0.102352
O O13 0.207686 0.814911 0.098566
O O14 0.057389 0.953456 0.561388
#
# Coordination Sequence:
#
# PCOD9137709 Si02
#       7
#     4   4   4   4   4   4   4
#     4  11  24  46  72 108 153 195 263 328 391 473
#     4  10  22  43  73 103 151 203 253 322 399 469
#     4  11  24  47  73 108 157 201 268 324 403 483
#     4  10  24  44  70 105 148 206 253 329 394 473
#     4  10  24  42  74 105 148 199 253 326 386 473
#     4  10  23  46  73 106 146 202 263 311 409 467
#     4  10  23  46  75 109 151 208 261 328 404 476
#
# _framework density 26.236249000000001
#
# number of rings (size 3 to 8) (size 9 to 14) (size 15 to 20)
#    0.000    1.714    1.429    0.857   12.000    1.143 
#    2.571    0.000    0.000    0.000    0.000    0.000 
#    0.000    0.000    0.000    0.000    0.000    0.000 
#
# Total GULP energy -77992.609225 kJ/mol
# GULP energy per Si atom -5570.900659 kJ/mol
# Density = 2.617653 g / cm^3
# Si number density = 26.236249 Si / 1000 Ang^3
#
#
#
# Elastic Constant Matrix: (Units=GPa)
#
#
# Indices 1 2 3 4 5 6 
#
# 1 136.1524 29.8718 16.4980 0.0000 -19.1877 0.0000
# 2 29.8718 103.9153 49.2757 0.0000 -15.4544 0.0000
# 3 16.4980 49.2757 111.2372 0.0000 -24.1275 0.0000
# 4 0.0000 0.0000 0.0000 35.6274 0.0000 1.5660
# 5 -19.1877 -15.4544 -24.1275 0.0000 50.9228 0.0000
# 6 0.0000 0.0000 0.0000 1.5660 0.0000 26.6550
#
#
#
# Elastic Compliance Matrix: (Units=1/GPa)
#
#
# Indices 1 2 3 4 5 6 
#
# 1 0.008130 -0.002086 0.000274 0.000000 0.002560 0.000000
# 2 -0.002086 0.012792 -0.005222 0.000000 0.000622 0.000000
# 3 0.000274 -0.005222 0.012194 0.000000 0.004296 0.000000
# 4 0.000000 0.000000 0.000000 0.028141 0.000000 -0.001653
# 5 0.002560 0.000622 0.004296 0.000000 0.022826 0.000000
# 6 0.000000 0.000000 0.000000 -0.001653 0.000000 0.037614
#
#
# Mechanical properties :
#
#
# Convention : Reuss Voigt Hill
#
# Bulk Modulus (GPa) = 52.50285 60.28844 56.39564
# Shear Modulus (GPa) = 35.18274 39.68500 37.43387
#
# Velocity S-wave (km/s) = 3.66594 3.89344 3.78140
# Velocity P-wave (km/s) = 6.16229 6.57577 6.37238
#
# Compressibility (1/GPa) = 0.01904659
#
# Stress axis : x y z
#
# Youngs Moduli (GPa) = 123.00105 78.17581 82.00522
#
# Poissons Ratio (x) = 0.16308 -0.02243
# Poissons Ratio (y) = 0.25659 0.42825
# Poissons Ratio (z) = -0.03365 0.40825
#
# Static dielectric constant tensor:
#      x y z
#    x 2.265800 0.000000 0.089690 
#    y 0.000000 2.207610 0.000000 
#    z 0.089690 0.000000 2.094060 
# 
# From -- ./inp_files/25295.got.cif
#   From: 2010.05.17/outbox.cif.g08.bks.cpg/sg9_13_cif.got.tgz:25295.got - 2010.06.03 20:04:27.
