data_PCOD9137163
_publ_section_title
;
Structure prediction by ZEFSAII (Michael W. Deem and Ramdas Pophale) SiO2 
 PCOD9137163
Probable space group: C C
;
_chemical_formula_sum "Si O2"
_cell_formula_units_Z 32
_cell_length_a 14.482816
_cell_length_b 7.531203
_cell_length_c 14.569862
_cell_angle_alpha 90.000000
_cell_angle_beta 65.063925
_cell_angle_gamma 90.000000
_cell_volume 1441.033689
_symmetry_space_group_name_H-M "C C"
_symmetry_group_IT_number 9
_symmetry_cell_setting 'monoclinic'
loop_
_space_group_symop_operation_xyz
x,y,z
x,-y,1/2+z
1/2+x,1/2+y,z
1/2+x,1/2-y,1/2+z
loop_
_atom_site_type_symbol
_atom_site_label
_atom_site_fract_x
_atom_site_fract_y
_atom_site_fract_z
Si Si1 0.804270 0.067455 0.402280
Si Si2 0.677925 0.683272 0.852786
Si Si3 0.213209 0.701917 0.071185
Si Si4 0.943255 0.355706 0.436808
Si Si5 0.809397 0.509846 0.152515
Si Si6 0.889450 0.840427 0.202569
Si Si7 0.545029 0.860284 0.766212
Si Si8 0.064332 0.112023 0.498195
O O1 0.701277 0.136172 0.397040
O O2 0.853099 0.241371 0.428614
O O3 0.794555 0.917363 0.484362
O O4 0.859775 0.981836 0.291675
O O5 0.777440 0.606440 0.756553
O O6 0.587351 0.710094 0.817428
O O7 0.636219 0.548754 0.944516
O O8 0.150419 0.586696 0.171705
O O9 0.131629 0.756577 0.029788
O O10 0.249184 0.885904 0.103458
O O11 0.909742 0.450963 0.546731
O O12 0.987796 0.494990 0.348380
O O13 0.029623 0.212398 0.422178
O O14 0.801580 0.713648 0.195587
O O15 0.965083 0.708304 0.225274
O O16 0.959520 0.931030 0.095521
#
# Coordination Sequence:
#
# PCOD9137163 Si02
#       8
#     4   4   4   4   4   4   4   4
#     4  12  24  38  62  92 122 158 202 248 298 356
#     4  11  23  38  61  89 121 162 201 248 300 353
#     4  10  22  40  62  89 120 156 200 249 301 361
#     4  11  23  38  61  89 121 162 201 248 300 353
#     4  10  22  40  64  88 120 158 200 248 300 354
#     4  10  22  40  62  89 120 156 200 249 301 361
#     4  10  22  40  60  86 120 158 200 246 302 358
#     4  10  22  40  60  86 120 158 200 246 302 358
#
# _framework density 22.206282999999999
#
# number of rings (size 3 to 8) (size 9 to 14) (size 15 to 20)
#    0.000    1.500    0.000    4.500    0.000    7.000 
#    0.000    0.000    0.000    0.000    0.000    0.000 
#    0.000    0.000    0.000    0.000    0.000    0.000 
#
# Total GULP energy -89086.305067 kJ/mol
# GULP energy per Si atom -5567.894067 kJ/mol
# Density = 2.215574 g / cm^3
# Si number density = 22.206283 Si / 1000 Ang^3
#
#
#
# Elastic Constant Matrix: (Units=GPa)
#
#
# Indices 1 2 3 4 5 6 
#
# 1 47.2137 24.9040 11.8750 0.0000 3.0555 0.0000
# 2 24.9040 64.3603 56.9100 0.0000 -7.6764 0.0000
# 3 11.8750 56.9100 103.6208 0.0000 2.2201 0.0000
# 4 0.0000 0.0000 0.0000 22.2370 0.0000 -3.9436
# 5 3.0555 -7.6764 2.2201 0.0000 19.7124 0.0000
# 6 0.0000 0.0000 0.0000 -3.9436 0.0000 34.6366
#
#
#
# Elastic Compliance Matrix: (Units=1/GPa)
#
#
# Indices 1 2 3 4 5 6 
#
# 1 0.031078 -0.020999 0.008270 0.000000 -0.013926 0.000000
# 2 -0.020999 0.048576 -0.024807 0.000000 0.024965 0.000000
# 3 0.008270 -0.024807 0.022616 0.000000 -0.013489 0.000000
# 4 0.000000 0.000000 0.000000 0.045897 0.000000 0.005226
# 5 -0.013926 0.024965 -0.013489 0.000000 0.064129 0.000000
# 6 0.000000 0.000000 0.000000 0.005226 0.000000 0.029466
#
#
# Mechanical properties :
#
#
# Convention : Reuss Voigt Hill
#
# Bulk Modulus (GPa) = 36.76774 44.73030 40.74902
# Shear Modulus (GPa) = 15.34216 23.41760 19.37988
#
# Velocity S-wave (km/s) = 2.63134 3.25090 2.95739
# Velocity P-wave (km/s) = 5.08185 5.85474 5.48193
#
# Compressibility (1/GPa) = 0.02719776
#
# Stress axis : x y z
#
# Youngs Moduli (GPa) = 32.17733 20.58644 44.21619
#
# Poissons Ratio (x) = 0.43229 -0.36565
# Poissons Ratio (y) = 0.67568 1.09686
# Poissons Ratio (z) = -0.26609 0.51068
#
# Static dielectric constant tensor:
#      x y z
#    x 1.831360 0.000000 0.009230 
#    y 0.000000 1.851070 0.000000 
#    z 0.009230 0.000000 1.861380 
# 
# From -- ./inp_files/26450.got.cif
#   From: 2010.05.17/outbox.cif.g08.bks.cpg/sg9_14_cif.got.tgz:26450.got - 2010.06.03 20:04:27.
