data_PCOD9137141
_publ_section_title
;
Structure prediction by ZEFSAII (Michael W. Deem and Ramdas Pophale) SiO2 
 PCOD9137141
Probable space group: C C
;
_chemical_formula_sum "Si O2"
_cell_formula_units_Z 28
_cell_length_a 8.463883
_cell_length_b 22.071341
_cell_length_c 9.477384
_cell_angle_alpha 90.000000
_cell_angle_beta 128.711346
_cell_angle_gamma 90.000000
_cell_volume 1381.503908
_symmetry_space_group_name_H-M "C C"
_symmetry_group_IT_number 9
_symmetry_cell_setting 'monoclinic'
loop_
_space_group_symop_operation_xyz
x,y,z
x,-y,1/2+z
1/2+x,1/2+y,z
1/2+x,1/2-y,1/2+z
loop_
_atom_site_type_symbol
_atom_site_label
_atom_site_fract_x
_atom_site_fract_y
_atom_site_fract_z
Si Si1 0.533260 0.325350 0.000000
Si Si2 0.920838 0.607101 0.228023
Si Si3 0.894344 0.311717 0.983808
Si Si4 0.109088 0.308239 0.607597
Si Si5 0.862579 0.060191 0.559189
Si Si6 0.493746 0.555860 0.954759
Si Si7 0.757841 0.824263 0.385722
O O1 0.725413 0.330444 0.004330
O O2 0.554761 0.262247 0.095878
O O3 0.492633 0.382335 0.076736
O O4 0.335545 0.318315 0.791548
O O5 0.863373 0.652521 0.322535
O O6 0.967298 0.647559 0.116540
O O7 0.128221 0.574711 0.392578
O O8 0.735932 0.562656 0.093381
O O9 0.113480 0.326232 0.169646
O O10 0.874963 0.239524 0.952671
O O11 0.116373 0.322222 0.445689
O O12 0.908122 0.050333 0.748789
O O13 0.926396 0.001108 0.508496
O O14 0.400722 0.617796 0.965985
#
# Coordination Sequence:
#
# PCOD9137141 Si02
#       7
#     4   4   4   4   4   4   4
#     4  10  22  41  67  98 140 169 224 277 347 400
#     4  11  26  45  72 102 134 173 231 288 341 410
#     4  11  22  41  70 106 137 175 221 285 345 410
#     4  10  22  39  68 101 134 173 216 281 343 407
#     4  11  29  47  66 101 132 185 232 282 333 412
#     4  12  28  47  71  94 139 185 230 284 336 400
#     4  11  23  42  68 102 140 178 224 277 349 405
#
# _framework density 20.267768
#
# number of rings (size 3 to 8) (size 9 to 14) (size 15 to 20)
#    0.000    1.143    1.429    5.143   12.000    3.429 
#    0.000    0.000    0.000    0.000    0.000    0.000 
#    0.000    0.000    0.000    0.000    0.000    0.000 
#
# Total GULP energy -78339.440233 kJ/mol
# GULP energy per Si atom -5595.674302 kJ/mol
# Density = 2.022164 g / cm^3
# Si number density = 20.267768 Si / 1000 Ang^3
#
#
#
# Elastic Constant Matrix: (Units=GPa)
#
#
# Indices 1 2 3 4 5 6 
#
# 1 88.1381 75.5290 31.1286 0.0000 8.0162 0.0000
# 2 75.5290 118.0149 50.7673 0.0000 2.1563 0.0000
# 3 31.1286 50.7673 75.6252 0.0000 -9.1891 0.0000
# 4 0.0000 0.0000 0.0000 23.7160 0.0000 -3.4986
# 5 8.0162 2.1563 -9.1891 0.0000 23.1403 0.0000
# 6 0.0000 0.0000 0.0000 -3.4986 0.0000 34.0656
#
#
#
# Elastic Compliance Matrix: (Units=1/GPa)
#
#
# Indices 1 2 3 4 5 6 
#
# 1 0.026423 -0.016410 -0.000827 0.000000 -0.007953 0.000000
# 2 -0.016410 0.022569 -0.008365 0.000000 0.000260 0.000000
# 3 -0.000827 -0.008365 0.020287 0.000000 0.009122 0.000000
# 4 0.000000 0.000000 0.000000 0.042814 0.000000 0.004397
# 5 -0.007953 0.000260 0.009122 0.000000 0.049568 0.000000
# 6 0.000000 0.000000 0.000000 0.004397 0.000000 0.029807
#
#
# Mechanical properties :
#
#
# Convention : Reuss Voigt Hill
#
# Bulk Modulus (GPa) = 55.31805 66.29199 60.80502
# Shear Modulus (GPa) = 20.10484 24.47460 22.28972
#
# Velocity S-wave (km/s) = 3.15296 3.47877 3.31986
# Velocity P-wave (km/s) = 6.37242 6.99392 6.69039
#
# Compressibility (1/GPa) = 0.01807728
#
# Stress axis : x y z
#
# Youngs Moduli (GPa) = 37.84528 44.30794 49.29289
#
# Poissons Ratio (x) = 0.72709 0.04074
# Poissons Ratio (y) = 0.62104 0.41232
# Poissons Ratio (z) = 0.03128 0.37062
#
# Static dielectric constant tensor:
#      x y z
#    x 1.710840 0.000000 0.011240 
#    y 0.000000 1.679460 0.000000 
#    z 0.011240 0.000000 1.710890 
# 
# From -- ./inp_files/5554.got.cif
#   From: 2010.05.17/outbox.cif.g08.bks.cpg/sg9_3_cif.got.tgz:5554.got - 2010.06.03 20:04:27.
