data_PCOD9137530
_publ_section_title
;
Structure prediction by ZEFSAII (Michael W. Deem and Ramdas Pophale) SiO2 
 PCOD9137530
Probable space group: C C
;
_chemical_formula_sum "Si O2"
_cell_formula_units_Z 32
_cell_length_a 5.598932
_cell_length_b 15.310638
_cell_length_c 16.510001
_cell_angle_alpha 90.000000
_cell_angle_beta 63.363270
_cell_angle_gamma 90.000000
_cell_volume 1265.081460
_symmetry_space_group_name_H-M "C C"
_symmetry_group_IT_number 9
_symmetry_cell_setting 'monoclinic'
loop_
_space_group_symop_operation_xyz
x,y,z
x,-y,1/2+z
1/2+x,1/2+y,z
1/2+x,1/2-y,1/2+z
loop_
_atom_site_type_symbol
_atom_site_label
_atom_site_fract_x
_atom_site_fract_y
_atom_site_fract_z
Si Si1 0.727500 0.347376 0.676680
Si Si2 0.512815 0.227434 0.408271
Si Si3 0.693958 0.051414 0.472098
Si Si4 0.221590 0.905008 0.857169
Si Si5 0.747060 0.600975 0.653202
Si Si6 0.978760 0.320074 0.262080
Si Si7 0.325444 0.690932 0.093663
Si Si8 0.193575 0.459617 0.311594
O O1 0.637999 0.393670 0.775081
O O2 0.704097 0.243322 0.696759
O O3 0.527837 0.352988 0.629125
O O4 0.046263 0.360161 0.625680
O O5 0.639613 0.145281 0.436980
O O6 0.280563 0.188585 0.387976
O O7 0.720525 0.262643 0.312438
O O8 0.444900 0.298356 0.485882
O O9 0.431073 0.043793 0.565844
O O10 0.999769 0.059091 0.454658
O O11 0.741265 0.979596 0.397282
O O12 0.490533 0.962833 0.817206
O O13 0.912168 0.602596 0.711382
O O14 0.768664 0.705082 0.625886
O O15 0.456462 0.560957 0.716923
O O16 0.046492 0.366976 0.333806
#
# Coordination Sequence:
#
# PCOD9137530 Si02
#       8
#     4   4   4   4   4   4   4   4
#     4  11  22  41  69 102 140 184 235 295 363 435
#     4  10  23  40  69 101 138 184 237 299 356 432
#     4  10  23  43  67 101 136 186 239 291 361 439
#     4  11  23  42  71  98 141 188 243 294 362 435
#     4  10  22  42  69  97 138 190 236 290 364 434
#     4  11  22  41  69  98 137 180 236 297 361 424
#     4  10  23  40  69 107 141 183 239 296 365 432
#     4  11  24  43  67  98 141 185 237 296 360 433
#
# _framework density 25.294813999999999
#
# number of rings (size 3 to 8) (size 9 to 14) (size 15 to 20)
#    0.000    1.500    2.500    2.250    7.000    1.000 
#    2.250    0.000    0.000    0.000    0.000    0.000 
#    0.000    0.000    0.000    0.000    0.000    0.000 
#
# Total GULP energy -89232.339998 kJ/mol
# GULP energy per Si atom -5577.021250 kJ/mol
# Density = 2.523724 g / cm^3
# Si number density = 25.294814 Si / 1000 Ang^3
#
#
#
# Elastic Constant Matrix: (Units=GPa)
#
#
# Indices 1 2 3 4 5 6 
#
# 1 111.7507 26.6735 27.2632 0.0000 -12.7284 0.0000
# 2 26.6735 38.3531 1.9604 0.0000 4.6134 0.0000
# 3 27.2632 1.9604 67.1682 0.0000 -16.7725 0.0000
# 4 0.0000 0.0000 0.0000 24.0881 0.0000 6.3258
# 5 -12.7284 4.6134 -16.7725 0.0000 33.6080 0.0000
# 6 0.0000 0.0000 0.0000 6.3258 0.0000 46.9962
#
#
#
# Elastic Compliance Matrix: (Units=1/GPa)
#
#
# Indices 1 2 3 4 5 6 
#
# 1 0.012478 -0.008973 -0.003787 0.000000 0.004068 0.000000
# 2 -0.008973 0.033184 0.000786 0.000000 -0.007562 0.000000
# 3 -0.003787 0.000786 0.018297 0.000000 0.007589 0.000000
# 4 0.000000 0.000000 0.000000 0.043035 0.000000 -0.005793
# 5 0.004068 -0.007562 0.007589 0.000000 0.036121 0.000000
# 6 0.000000 0.000000 0.000000 -0.005793 0.000000 0.022058
#
#
# Mechanical properties :
#
#
# Convention : Reuss Voigt Hill
#
# Bulk Modulus (GPa) = 24.99451 36.56292 30.77871
# Shear Modulus (GPa) = 24.69636 31.69679 28.19658
#
# Velocity S-wave (km/s) = 3.12804 3.54375 3.34236
# Velocity P-wave (km/s) = 4.79050 5.58841 5.20476
#
# Compressibility (1/GPa) = 0.04000878
#
# Stress axis : x y z
#
# Youngs Moduli (GPa) = 80.14411 30.13527 54.65281
#
# Poissons Ratio (x) = 0.27042 0.20697
# Poissons Ratio (y) = 0.71917 -0.04293
# Poissons Ratio (z) = 0.30350 -0.02367
#
# Static dielectric constant tensor:
#      x y z
#    x 2.089700 0.000000 0.008510 
#    y 0.000000 2.025690 0.000000 
#    z 0.008510 0.000000 2.025830 
# 
# From -- ./inp_files/22095.got.cif
#   From: 2010.05.17/outbox.cif.g08.bks.cpg/sg9_12_cif.got.tgz:22095.got - 2010.06.03 20:04:27.
