data_PCOD9137966
_publ_section_title
;
Structure prediction by ZEFSAII (Michael W. Deem and Ramdas Pophale) SiO2 
 PCOD9137966
Probable space group: C C
;
_chemical_formula_sum "Si O2"
_cell_formula_units_Z 20
_cell_length_a 14.879028
_cell_length_b 11.968896
_cell_length_c 7.923340
_cell_angle_alpha 90.000000
_cell_angle_beta 33.215219
_cell_angle_gamma 90.000000
_cell_volume 772.942972
_symmetry_space_group_name_H-M "C C"
_symmetry_group_IT_number 9
_symmetry_cell_setting 'monoclinic'
loop_
_space_group_symop_operation_xyz
x,y,z
x,-y,1/2+z
1/2+x,1/2+y,z
1/2+x,1/2-y,1/2+z
loop_
_atom_site_type_symbol
_atom_site_label
_atom_site_fract_x
_atom_site_fract_y
_atom_site_fract_z
Si Si1 0.709990 0.930671 0.788110
Si Si2 0.850201 0.552860 0.752350
Si Si3 0.561186 0.754628 0.807261
Si Si4 0.727516 0.657388 0.244178
Si Si5 0.880445 0.870414 0.853526
O O1 0.704478 0.834679 0.653764
O O2 0.743241 0.885068 0.921678
O O3 0.844291 0.022585 0.525495
O O4 0.521561 0.973626 0.082136
O O5 0.801264 0.441851 0.737747
O O6 0.908201 0.659827 0.553609
O O7 0.704345 0.598379 0.100327
O O8 0.588817 0.709128 0.578612
O O9 0.533768 0.657740 0.990742
O O10 0.849546 0.759101 0.009526
#
# Coordination Sequence:
#
# PCOD9137966 Si02
#       5
#     4   4   4   4   4
#     4  10  22  46  67 101 143 171 237 277 340 414
#     4   9  23  43  66 100 135 181 229 274 341 411
#     4   9  24  43  68 103 135 180 229 282 341 407
#     4  11  22  42  70  98 140 180 228 282 342 403
#     4  11  23  42  71 104 133 188 223 285 346 407
#
# _framework density 25.875132000000001
#
# number of rings (size 3 to 8) (size 9 to 14) (size 15 to 20)
#    1.200    0.800    0.000    2.400    2.800    4.800 
#    3.600    0.000    0.000    0.000    0.000    0.000 
#    0.000    0.000    0.000    0.000    0.000    0.000 
#
# Total GULP energy -55862.413949 kJ/mol
# GULP energy per Si atom -5586.241395 kJ/mol
# Density = 2.581624 g / cm^3
# Si number density = 25.875132 Si / 1000 Ang^3
#
#
#
# Elastic Constant Matrix: (Units=GPa)
#
#
# Indices 1 2 3 4 5 6 
#
# 1 43.1627 39.0617 36.5181 0.0000 13.8928 0.0000
# 2 39.0617 155.1480 70.5192 0.0000 17.7485 0.0000
# 3 36.5181 70.5192 149.4415 0.0000 40.4383 0.0000
# 4 0.0000 0.0000 0.0000 51.7454 0.0000 17.8349
# 5 13.8928 17.7485 40.4383 0.0000 37.3162 0.0000
# 6 0.0000 0.0000 0.0000 17.8349 0.0000 53.9829
#
#
#
# Elastic Compliance Matrix: (Units=1/GPa)
#
#
# Indices 1 2 3 4 5 6 
#
# 1 0.033734 -0.006102 -0.003892 0.000000 -0.005439 0.000000
# 2 -0.006102 0.009314 -0.003282 0.000000 0.001399 0.000000
# 3 -0.003892 -0.003282 0.011853 0.000000 -0.009834 0.000000
# 4 0.000000 0.000000 0.000000 0.021809 0.000000 -0.007205
# 5 -0.005439 0.001399 -0.009834 0.000000 0.038814 0.000000
# 6 0.000000 0.000000 0.000000 -0.007205 0.000000 0.020905
#
#
# Mechanical properties :
#
#
# Convention : Reuss Voigt Hill
#
# Bulk Modulus (GPa) = 35.27675 71.10558 53.19117
# Shear Modulus (GPa) = 28.99718 42.05246 35.52482
#
# Velocity S-wave (km/s) = 3.35126 4.03576 3.70933
# Velocity P-wave (km/s) = 5.35141 7.01829 6.24075
#
# Compressibility (1/GPa) = 0.02834728
#
# Stress axis : x y z
#
# Youngs Moduli (GPa) = 29.64370 107.36903 84.36886
#
# Poissons Ratio (x) = 0.65516 0.32838
# Poissons Ratio (y) = 0.18088 0.27694
# Poissons Ratio (z) = 0.11538 0.35244
#
# Static dielectric constant tensor:
#      x y z
#    x 2.076710 0.000000 -0.021540 
#    y 0.000000 2.007690 0.000000 
#    z -0.021540 0.000000 2.076320 
# 
# From -- ./inp_files/4790.got.cif
#   From: 2010.05.17/outbox.cif.g08.bks.cpg/sg9_3_cif.got.tgz:4790.got - 2010.06.03 20:04:27.
