data_PCOD9137939
_publ_section_title
;
Structure prediction by ZEFSAII (Michael W. Deem and Ramdas Pophale) SiO2 
 PCOD9137939
Probable space group: C C
;
_chemical_formula_sum "Si O2"
_cell_formula_units_Z 28
_cell_length_a 13.622382
_cell_length_b 5.329748
_cell_length_c 29.941816
_cell_angle_alpha 90.000000
_cell_angle_beta 151.750265
_cell_angle_gamma 90.000000
_cell_volume 1028.936751
_symmetry_space_group_name_H-M "C C"
_symmetry_group_IT_number 9
_symmetry_cell_setting 'monoclinic'
loop_
_space_group_symop_operation_xyz
x,y,z
x,-y,1/2+z
1/2+x,1/2+y,z
1/2+x,1/2-y,1/2+z
loop_
_atom_site_type_symbol
_atom_site_label
_atom_site_fract_x
_atom_site_fract_y
_atom_site_fract_z
Si Si1 0.507610 0.618030 0.025280
Si Si2 0.425397 0.218460 0.167912
Si Si3 0.624067 0.415184 0.168937
Si Si4 0.378298 0.455860 0.734248
Si Si5 0.701088 0.525460 0.440683
Si Si6 0.707202 0.120149 0.828305
Si Si7 0.491853 0.042329 0.382978
O O1 0.709178 0.577055 0.074842
O O2 0.554250 0.511913 0.093090
O O3 0.414050 0.891675 0.002011
O O4 0.322598 0.519124 0.918672
O O5 0.460230 0.418897 0.143072
O O6 0.368114 0.348230 0.191424
O O7 0.643225 0.077469 0.264470
O O8 0.673686 0.122815 0.178173
O O9 0.833000 0.524483 0.276405
O O10 0.547949 0.518427 0.838177
O O11 0.479847 0.213390 0.751366
O O12 0.665418 0.262757 0.450923
O O13 0.607299 0.770936 0.429277
O O14 0.840790 0.352098 0.861838
#
# Coordination Sequence:
#
# PCOD9137939 Si02
#       7
#     4   4   4   4   4   4   4
#     4  11  27  47  73 120 152 206 263 345 387 482
#     4  12  25  50  79 108 160 213 267 329 410 481
#     4  11  24  49  80 113 154 205 271 326 407 477
#     4  10  22  45  73 106 145 207 254 323 393 475
#     4  10  25  44  75 108 156 200 262 320 392 468
#     4  11  24  48  73 110 157 207 263 327 400 479
#     4  11  23  49  77 109 150 214 256 316 403 474
#
# _framework density 27.212554999999998
#
# number of rings (size 3 to 8) (size 9 to 14) (size 15 to 20)
#    0.000    1.143    2.857    2.571    6.000    1.143 
#    7.714    0.000    0.000    0.000    0.000    0.000 
#    0.000    0.000    0.000    0.000    0.000    0.000 
#
# Total GULP energy -78185.273756 kJ/mol
# GULP energy per Si atom -5584.662411 kJ/mol
# Density = 2.715062 g / cm^3
# Si number density = 27.212555 Si / 1000 Ang^3
#
#
#
# Elastic Constant Matrix: (Units=GPa)
#
#
# Indices 1 2 3 4 5 6 
#
# 1 120.1738 45.5790 18.8410 -0.0058 -0.0648 0.0050
# 2 45.5790 106.1478 43.6943 -0.0138 -2.3849 0.0080
# 3 18.8410 43.6943 110.3668 -0.0108 -9.1402 0.0056
# 4 -0.0058 -0.0138 -0.0108 38.5099 0.0022 -0.6564
# 5 -0.0648 -2.3849 -9.1402 0.0022 54.8797 -0.0030
# 6 0.0050 0.0080 0.0056 -0.6564 -0.0030 45.8294
#
#
#
# Elastic Compliance Matrix: (Units=1/GPa)
#
#
# Indices 1 2 3 4 5 6 
#
# 1 0.009942 -0.004263 -0.000024 0.000000 -0.000178 0.000000
# 2 -0.004263 0.013087 -0.004468 0.000003 -0.000181 -0.000001
# 3 -0.000024 -0.004468 0.010969 0.000001 0.001633 0.000000
# 4 0.000000 0.000003 0.000001 0.025974 -0.000001 0.000372
# 5 -0.000178 -0.000181 0.001633 -0.000001 0.018486 0.000001
# 6 0.000000 -0.000001 0.000000 0.000372 0.000001 0.021825
#
#
# Mechanical properties :
#
#
# Convention : Reuss Voigt Hill
#
# Bulk Modulus (GPa) = 60.65501 61.43521 61.04511
# Shear Modulus (GPa) = 40.55541 43.08208 41.81875
#
# Velocity S-wave (km/s) = 3.86465 3.98322 3.92439
# Velocity P-wave (km/s) = 6.50014 6.61663 6.55864
#
# Compressibility (1/GPa) = 0.01648668
#
# Stress axis : x y z
#
# Youngs Moduli (GPa) = 100.58527 76.41455 91.16613
#
# Poissons Ratio (x) = 0.32575 0.00220
# Poissons Ratio (y) = 0.42879 0.40735
# Poissons Ratio (z) = 0.00243 0.34143
#
# Static dielectric constant tensor:
#      x y z
#    x 2.143300 0.000000 0.058750 
#    y 0.000000 2.287200 0.000000 
#    z 0.058750 0.000000 2.132340 
# 
# From -- ./inp_files/37378.got.cif
#   From: 2010.05.17/outbox.cif.g08.bks.cpg/sg9_19_cif.got.tgz:37378.got - 2010.06.03 20:04:27.
