data_PCOD9137209
_publ_section_title
;
Structure prediction by ZEFSAII (Michael W. Deem and Ramdas Pophale) SiO2 
 PCOD9137209
Probable space group: C C
;
_chemical_formula_sum "Si O2"
_cell_formula_units_Z 32
_cell_length_a 10.540044
_cell_length_b 10.105397
_cell_length_c 13.626640
_cell_angle_alpha 90.000000
_cell_angle_beta 81.350020
_cell_angle_gamma 90.000000
_cell_volume 1434.882775
_symmetry_space_group_name_H-M "C C"
_symmetry_group_IT_number 9
_symmetry_cell_setting 'monoclinic'
loop_
_space_group_symop_operation_xyz
x,y,z
x,-y,1/2+z
1/2+x,1/2+y,z
1/2+x,1/2-y,1/2+z
loop_
_atom_site_type_symbol
_atom_site_label
_atom_site_fract_x
_atom_site_fract_y
_atom_site_fract_z
Si Si1 0.173810 0.195925 0.414110
Si Si2 0.734801 0.430865 0.480184
Si Si3 0.513445 0.935400 0.384647
Si Si4 0.667140 0.820565 0.924424
Si Si5 0.472013 0.044635 0.671182
Si Si6 0.271576 0.458037 0.088526
Si Si7 0.781124 0.311990 0.685173
Si Si8 0.392052 0.264400 0.540448
O O1 0.202787 0.176424 0.295361
O O2 0.298615 0.247294 0.458280
O O3 0.070553 0.311259 0.435426
O O4 0.145068 0.054636 0.466693
O O5 0.882870 0.477235 0.452870
O O6 0.728477 0.320680 0.394078
O O7 0.718963 0.369017 0.590927
O O8 0.489464 0.896262 0.276515
O O9 0.610688 0.060110 0.367984
O O10 0.773952 0.890389 0.980821
O O11 0.538444 0.758243 0.990049
O O12 0.616579 0.022912 0.614754
O O13 0.383273 0.148005 0.622148
O O14 0.404725 0.903084 0.685788
O O15 0.307740 0.342262 0.160398
O O16 0.352049 0.591939 0.086962
#
# Coordination Sequence:
#
# PCOD9137209 Si02
#       8
#     4   4   4   4   4   4   4   4
#     4  12  23  43  71  98 137 182 225 277 342 405
#     4  11  24  43  70  99 135 179 226 284 340 400
#     4  12  23  44  70  99 135 183 227 278 346 407
#     4  10  22  41  66  93 134 173 221 279 330 401
#     4  11  22  42  67  97 139 176 225 279 339 401
#     4  10  22  40  64  97 133 175 220 277 338 399
#     4  11  22  42  67  99 136 174 225 280 333 399
#     4  11  22  43  69 100 135 180 219 280 342 402
#
# _framework density 22.301473999999999
#
# number of rings (size 3 to 8) (size 9 to 14) (size 15 to 20)
#    0.000    1.000    6.250    0.750    0.000    3.000 
#    0.000    1.250    2.750    0.000    0.000    0.000 
#    0.000    0.000    0.000    0.000    0.000    0.000 
#
# Total GULP energy -89212.420431 kJ/mol
# GULP energy per Si atom -5575.776277 kJ/mol
# Density = 2.225071 g / cm^3
# Si number density = 22.301474 Si / 1000 Ang^3
#
#
#
# Elastic Constant Matrix: (Units=GPa)
#
#
# Indices 1 2 3 4 5 6 
#
# 1 52.5858 37.4287 2.2428 0.0000 13.7991 0.0000
# 2 37.4287 165.9074 23.1117 0.0000 5.4743 0.0000
# 3 2.2428 23.1117 83.8195 0.0000 16.4345 0.0000
# 4 0.0000 0.0000 0.0000 26.7199 0.0000 9.0162
# 5 13.7991 5.4743 16.4345 0.0000 22.3080 0.0000
# 6 0.0000 0.0000 0.0000 9.0162 0.0000 40.3422
#
#
#
# Elastic Compliance Matrix: (Units=1/GPa)
#
#
# Indices 1 2 3 4 5 6 
#
# 1 0.028587 -0.006480 0.004882 0.000000 -0.019690 0.000000
# 2 -0.006480 0.007739 -0.002775 0.000000 0.004153 0.000000
# 3 0.004882 -0.002775 0.015222 0.000000 -0.013554 0.000000
# 4 0.000000 0.000000 0.000000 0.040478 0.000000 -0.009047
# 5 -0.019690 0.004153 -0.013554 0.000000 0.065972 0.000000
# 6 0.000000 0.000000 0.000000 -0.009047 0.000000 0.026810
#
#
# Mechanical properties :
#
#
# Convention : Reuss Voigt Hill
#
# Bulk Modulus (GPa) = 23.36230 47.54214 35.45222
# Shear Modulus (GPa) = 24.05920 33.84266 28.95093
#
# Velocity S-wave (km/s) = 3.28810 3.89975 3.60691
# Velocity P-wave (km/s) = 4.99138 6.45303 5.76868
#
# Compressibility (1/GPa) = 0.04280401
#
# Stress axis : x y z
#
# Youngs Moduli (GPa) = 34.98062 129.21920 65.69313
#
# Poissons Ratio (x) = 0.83731 -0.32074
# Poissons Ratio (y) = 0.22667 0.18228
# Poissons Ratio (z) = -0.17079 0.35856
#
# Static dielectric constant tensor:
#      x y z
#    x 1.853130 0.000000 0.000850 
#    y 0.000000 1.889390 0.000000 
#    z 0.000850 0.000000 1.884670 
# 
# From -- ./inp_files/24259.got.cif
#   From: 2010.05.17/outbox.cif.g08.bks.cpg/sg9_13_cif.got.tgz:24259.got - 2010.06.03 20:04:27.
