data_PCOD9137148
_publ_section_title
;
Structure prediction by ZEFSAII (Michael W. Deem and Ramdas Pophale) SiO2 
 PCOD9137148
Probable space group: C C
;
_chemical_formula_sum "Si O2"
_cell_formula_units_Z 28
_cell_length_a 18.403554
_cell_length_b 4.937130
_cell_length_c 24.523703
_cell_angle_alpha 90.000000
_cell_angle_beta 146.840877
_cell_angle_gamma 90.000000
_cell_volume 1218.772719
_symmetry_space_group_name_H-M "C C"
_symmetry_group_IT_number 9
_symmetry_cell_setting 'monoclinic'
loop_
_space_group_symop_operation_xyz
x,y,z
x,-y,1/2+z
1/2+x,1/2+y,z
1/2+x,1/2-y,1/2+z
loop_
_atom_site_type_symbol
_atom_site_label
_atom_site_fract_x
_atom_site_fract_y
_atom_site_fract_z
Si Si1 0.721010 0.561813 0.129890
Si Si2 0.951270 0.377696 0.097554
Si Si3 0.486277 0.555071 0.355924
Si Si4 0.283491 0.612363 0.477330
Si Si5 0.001312 0.605048 0.757837
Si Si6 0.124778 0.555315 0.479169
Si Si7 0.698065 0.942394 0.685706
O O1 0.669959 0.271838 0.119182
O O2 0.862384 0.535858 0.188432
O O3 0.728262 0.749894 0.187261
O O4 0.635683 0.767058 0.039515
O O5 0.829802 0.578515 0.005500
O O6 0.982292 0.341776 0.181458
O O7 0.079305 0.526551 0.152747
O O8 0.904460 0.093945 0.041357
O O9 0.498226 0.647660 0.300200
O O10 0.518931 0.240271 0.380202
O O11 0.347023 0.643176 0.294994
O O12 0.589382 0.741421 0.453967
O O13 0.146101 0.536749 0.359577
O O14 0.254550 0.567999 0.523436
#
# Coordination Sequence:
#
# PCOD9137148 Si02
#       7
#     4   4   4   4   4   4   4
#     4  11  23  42  72  95 133 180 226 281 336 390
#     4  12  26  45  67  96 144 176 216 277 342 408
#     4  10  22  39  68  98 136 169 229 286 330 402
#     4  11  24  41  69 103 130 173 227 278 329 409
#     4  10  24  43  73  98 129 176 225 281 331 393
#     4  11  21  40  69 105 128 169 237 287 326 392
#     4  11  24  44  62  97 138 181 218 274 342 406
#
# _framework density 22.973928000000001
#
# number of rings (size 3 to 8) (size 9 to 14) (size 15 to 20)
#    0.000    1.143    1.429    6.000    4.000    4.571 
#    7.714    0.000    0.000    0.000    0.000    0.000 
#    0.000    0.000    0.000    0.000    0.000    0.000 
#
# Total GULP energy -77991.551845 kJ/mol
# GULP energy per Si atom -5570.825132 kJ/mol
# Density = 2.292164 g / cm^3
# Si number density = 22.973928 Si / 1000 Ang^3
#
#
#
# Elastic Constant Matrix: (Units=GPa)
#
#
# Indices 1 2 3 4 5 6 
#
# 1 68.8733 4.2988 37.8922 0.0029 12.8319 -0.0030
# 2 4.2988 108.6575 13.1694 0.0026 -9.2720 -0.0049
# 3 37.8922 13.1694 73.1964 0.0006 -4.9636 -0.0027
# 4 0.0029 0.0026 0.0006 33.2374 0.0004 8.2597
# 5 12.8319 -9.2720 -4.9636 0.0004 27.8369 -0.0031
# 6 -0.0030 -0.0049 -0.0027 8.2597 -0.0031 29.6291
#
#
#
# Elastic Compliance Matrix: (Units=1/GPa)
#
#
# Indices 1 2 3 4 5 6 
#
# 1 0.024639 -0.000516 -0.013608 -0.000002 -0.013956 0.000000
# 2 -0.000516 0.009651 -0.001250 -0.000001 0.003230 0.000002
# 3 -0.013608 -0.001250 0.021590 0.000000 0.009706 0.000001
# 4 -0.000002 -0.000001 0.000000 0.032326 -0.000001 -0.009012
# 5 -0.013956 0.003230 0.009706 -0.000001 0.045163 0.000005
# 6 0.000000 0.000002 0.000001 -0.009012 0.000005 0.036263
#
#
# Mechanical properties :
#
#
# Convention : Reuss Voigt Hill
#
# Bulk Modulus (GPa) = 39.79360 40.16088 39.97724
# Shear Modulus (GPa) = 23.95122 31.16516 27.55819
#
# Velocity S-wave (km/s) = 3.23234 3.68713 3.46720
# Velocity P-wave (km/s) = 5.59370 5.97039 5.78511
#
# Compressibility (1/GPa) = 0.02512967
#
# Stress axis : x y z
#
# Youngs Moduli (GPa) = 40.58635 103.61886 46.31819
#
# Poissons Ratio (x) = 0.05350 0.63032
# Poissons Ratio (y) = 0.02096 0.05790
# Poissons Ratio (z) = 0.55232 0.12953
#
# Static dielectric constant tensor:
#      x y z
#    x 1.877840 0.000000 -0.019290 
#    y 0.000000 1.914520 0.000000 
#    z -0.019290 0.000000 2.041910 
# 
# From -- ./inp_files/26286.got.cif
#   From: 2010.05.17/outbox.cif.g08.bks.cpg/sg9_14_cif.got.tgz:26286.got - 2010.06.03 20:04:27.
