data_PCOD9137655
_publ_section_title
;
Structure prediction by ZEFSAII (Michael W. Deem and Ramdas Pophale) SiO2 
 PCOD9137655
Probable space group: C C
;
_chemical_formula_sum "Si O2"
_cell_formula_units_Z 32
_cell_length_a 19.007311
_cell_length_b 7.089340
_cell_length_c 14.557566
_cell_angle_alpha 90.000000
_cell_angle_beta 140.189666
_cell_angle_gamma 90.000000
_cell_volume 1255.924868
_symmetry_space_group_name_H-M "C C"
_symmetry_group_IT_number 9
_symmetry_cell_setting 'monoclinic'
loop_
_space_group_symop_operation_xyz
x,y,z
x,-y,1/2+z
1/2+x,1/2+y,z
1/2+x,1/2-y,1/2+z
loop_
_atom_site_type_symbol
_atom_site_label
_atom_site_fract_x
_atom_site_fract_y
_atom_site_fract_z
Si Si1 0.938820 0.329748 0.167820
Si Si2 0.911233 0.007140 0.366692
Si Si3 0.267101 0.316419 0.367236
Si Si4 0.568972 0.525935 0.863754
Si Si5 0.690227 0.985861 0.075493
Si Si6 0.114612 0.408725 0.804784
Si Si7 0.233618 0.923136 0.679492
Si Si8 0.461274 0.095947 0.904378
O O1 0.934055 0.395767 0.267924
O O2 0.997507 0.494051 0.167899
O O3 0.014694 0.142607 0.252053
O O4 0.821003 0.278498 0.009335
O O5 0.977666 0.193911 0.460773
O O6 0.872943 0.877445 0.411340
O O7 0.975461 0.911537 0.345718
O O8 0.796182 0.096270 0.214664
O O9 0.203640 0.512374 0.323127
O O10 0.192355 0.166027 0.235687
O O11 0.601863 0.694624 0.827489
O O12 0.662170 0.463379 0.032394
O O13 0.654912 0.017672 0.937146
O O14 0.580061 0.999027 0.024708
O O15 0.739125 0.774182 0.129390
O O16 0.349978 0.003979 0.827220
#
# Coordination Sequence:
#
# PCOD9137655 Si02
#       8
#     4   4   4   4   4   4   4   4
#     4  10  24  43  74  99 142 183 244 293 360 441
#     4  10  23  41  71  99 142 183 241 299 364 430
#     4  11  25  44  62 110 148 176 230 321 365 422
#     4  10  23  46  74 100 132 201 250 279 356 457
#     4   9  21  40  68  94 134 178 248 287 343 444
#     4  10  22  43  68  99 139 186 232 298 358 429
#     4  10  24  40  73  98 143 184 240 298 370 425
#     4  10  22  43  70 105 130 195 245 287 358 454
#
# _framework density 25.479230999999999
#
# number of rings (size 3 to 8) (size 9 to 14) (size 15 to 20)
#    0.000    2.000    0.000    1.500   19.250    1.000 
#    9.000    0.000    0.000    0.000    0.000    0.000 
#    0.000    0.000    0.000    0.000    0.000    0.000 
#
# Total GULP energy -89179.449552 kJ/mol
# GULP energy per Si atom -5573.715597 kJ/mol
# Density = 2.542124 g / cm^3
# Si number density = 25.479231 Si / 1000 Ang^3
#
#
#
# Elastic Constant Matrix: (Units=GPa)
#
#
# Indices 1 2 3 4 5 6 
#
# 1 48.7537 -2.5439 0.1168 0.0000 -2.6021 0.0000
# 2 -2.5439 64.9871 2.2886 0.0000 -2.7433 0.0000
# 3 0.1168 2.2886 112.1825 0.0000 -11.9197 0.0000
# 4 0.0000 0.0000 0.0000 28.1024 0.0000 5.5887
# 5 -2.6021 -2.7433 -11.9197 0.0000 28.7176 0.0000
# 6 0.0000 0.0000 0.0000 5.5887 0.0000 36.8706
#
#
#
# Elastic Compliance Matrix: (Units=1/GPa)
#
#
# Indices 1 2 3 4 5 6 
#
# 1 0.020666 0.000888 0.000176 0.000000 0.002030 0.000000
# 2 0.000888 0.015491 -0.000158 0.000000 0.001495 0.000000
# 3 0.000176 -0.000158 0.009329 0.000000 0.003873 0.000000
# 4 0.000000 0.000000 0.000000 0.036690 0.000000 -0.005561
# 5 0.002030 0.001495 0.003873 0.000000 0.036756 0.000000
# 6 0.000000 0.000000 0.000000 -0.005561 0.000000 0.027965
#
#
# Mechanical properties :
#
#
# Convention : Reuss Voigt Hill
#
# Bulk Modulus (GPa) = 21.14250 25.07179 23.10714
# Shear Modulus (GPa) = 31.08496 33.80892 32.44694
#
# Velocity S-wave (km/s) = 3.49666 3.64664 3.57244
# Velocity P-wave (km/s) = 4.96166 5.25282 5.10932
#
# Compressibility (1/GPa) = 0.04729811
#
# Stress axis : x y z
#
# Youngs Moduli (GPa) = 48.38970 64.55319 107.19739
#
# Poissons Ratio (x) = -0.05735 -0.01888
# Poissons Ratio (y) = -0.04299 0.01695
# Poissons Ratio (z) = -0.00852 0.01021
#
# Static dielectric constant tensor:
#      x y z
#    x 2.080700 0.000000 0.032400 
#    y 0.000000 2.069740 0.000000 
#    z 0.032400 0.000000 2.094590 
# 
# From -- ./inp_files/31544.got.cif
#   From: 2010.05.17/outbox.cif.g08.bks.cpg/sg9_16_cif.got.tgz:31544.got - 2010.06.03 20:04:27.
