data_PCOD9137723
_publ_section_title
;
Structure prediction by ZEFSAII (Michael W. Deem and Ramdas Pophale) SiO2 
 PCOD9137723
Probable space group: C C
;
_chemical_formula_sum "Si O2"
_cell_formula_units_Z 32
_cell_length_a 17.676851
_cell_length_b 7.062827
_cell_length_c 21.355962
_cell_angle_alpha 90.000000
_cell_angle_beta 36.157476
_cell_angle_gamma 90.000000
_cell_volume 1573.111382
_symmetry_space_group_name_H-M "C C"
_symmetry_group_IT_number 9
_symmetry_cell_setting 'monoclinic'
loop_
_space_group_symop_operation_xyz
x,y,z
x,-y,1/2+z
1/2+x,1/2+y,z
1/2+x,1/2-y,1/2+z
loop_
_atom_site_type_symbol
_atom_site_label
_atom_site_fract_x
_atom_site_fract_y
_atom_site_fract_z
Si Si1 0.721750 0.882440 0.676980
Si Si2 0.622751 0.945117 0.436957
Si Si3 0.330094 0.437591 0.983296
Si Si4 0.254358 0.050332 0.373344
Si Si5 0.611851 0.238558 0.552892
Si Si6 0.447925 0.771441 0.833598
Si Si7 0.325361 0.723374 0.238579
Si Si8 0.001964 0.418030 0.389657
O O1 0.602611 0.755717 0.730576
O O2 0.801305 0.791414 0.680397
O O3 0.807529 0.953024 0.563032
O O4 0.641042 0.054876 0.763528
O O5 0.664255 0.730693 0.422403
O O6 0.516454 0.949084 0.453716
O O7 0.588450 0.061699 0.521590
O O8 0.740076 0.062936 0.328517
O O9 0.375026 0.579761 0.898790
O O10 0.438169 0.280378 0.918872
O O11 0.423378 0.915392 0.908131
O O12 0.197931 0.337484 0.051706
O O13 0.386563 0.129786 0.314295
O O14 0.189590 0.902973 0.465004
O O15 0.279615 0.926435 0.294906
O O16 0.470642 0.309076 0.662621
#
# Coordination Sequence:
#
# PCOD9137723 Si02
#       8
#     4   4   4   4   4   4   4   4
#     4   9  23  43  61  99 124 163 222 255 317 385
#     4  10  23  42  64  92 123 169 211 257 322 382
#     4  12  22  42  69  89 132 170 207 268 319 374
#     4  11  22  43  65  88 131 166 209 267 316 375
#     4  11  23  40  63  96 125 162 214 263 316 381
#     4  10  22  44  61  94 125 164 216 259 313 383
#     4  10  24  41  64  93 131 164 210 268 318 376
#     4   9  23  43  61  91 129 162 215 257 315 378
#
# _framework density 20.341851999999999
#
# number of rings (size 3 to 8) (size 9 to 14) (size 15 to 20)
#    0.750    1.000    2.500    0.750    5.250    1.000 
#    6.750    0.000    0.000    0.000    0.000    0.000 
#    0.000    0.000    0.000    0.000    0.000    0.000 
#
# Total GULP energy -89279.760678 kJ/mol
# GULP energy per Si atom -5579.985042 kJ/mol
# Density = 2.029555 g / cm^3
# Si number density = 20.341852 Si / 1000 Ang^3
#
#
#
# Elastic Constant Matrix: (Units=GPa)
#
#
# Indices 1 2 3 4 5 6 
#
# 1 72.1981 39.6558 -5.4810 0.0000 8.2813 0.0000
# 2 39.6558 76.8777 17.4252 -0.0004 -2.9287 0.0002
# 3 -5.4810 17.4252 24.4023 -0.0001 -4.4002 0.0000
# 4 0.0000 -0.0004 -0.0001 11.2491 0.0000 -9.0420
# 5 8.2813 -2.9287 -4.4002 0.0000 24.8926 0.0000
# 6 0.0000 0.0002 0.0000 -9.0420 0.0000 17.3176
#
#
#
# Elastic Compliance Matrix: (Units=1/GPa)
#
#
# Indices 1 2 3 4 5 6 
#
# 1 0.025390 -0.017144 0.016587 0.000000 -0.007532 0.000000
# 2 -0.017144 0.027095 -0.022307 0.000001 0.004948 0.000000
# 3 0.016587 -0.022307 0.061114 0.000000 0.002660 0.000000
# 4 0.000000 0.000001 0.000000 0.153184 0.000000 0.079982
# 5 -0.007532 0.004948 0.002660 0.000000 0.043731 0.000000
# 6 0.000000 0.000000 0.000000 0.079982 0.000000 0.099505
#
#
# Mechanical properties :
#
#
# Convention : Reuss Voigt Hill
#
# Bulk Modulus (GPa) = 14.73356 30.74201 22.73778
# Shear Modulus (GPa) = 10.45215 18.81707 14.63461
#
# Velocity S-wave (km/s) = 2.26923 3.04475 2.68514
# Velocity P-wave (km/s) = 3.75827 5.24463 4.56239
#
# Compressibility (1/GPa) = 0.06787227
#
# Stress axis : x y z
#
# Youngs Moduli (GPa) = 39.38519 36.90663 16.36293
#
# Poissons Ratio (x) = 0.63271 -0.27141
# Poissons Ratio (y) = 0.67520 0.36500
# Poissons Ratio (z) = -0.65327 0.82327
#
# Static dielectric constant tensor:
#      x y z
#    x 1.731430 0.000000 -0.004620 
#    y 0.000000 1.696410 0.000000 
#    z -0.004620 0.000000 1.723570 
# 
# From -- ./inp_files/20560.got.cif
#   From: 2010.05.17/outbox.cif.g08.bks.cpg/sg9_11_cif.got.tgz:20560.got - 2010.06.03 20:04:27.
