data_PCOD9137967
_publ_section_title
;
Structure prediction by ZEFSAII (Michael W. Deem and Ramdas Pophale) SiO2 
 PCOD9137967
Probable space group: C C
;
_chemical_formula_sum "Si O2"
_cell_formula_units_Z 28
_cell_length_a 11.248891
_cell_length_b 7.940594
_cell_length_c 19.794046
_cell_angle_alpha 90.000000
_cell_angle_beta 44.725314
_cell_angle_gamma 90.000000
_cell_volume 1244.199950
_symmetry_space_group_name_H-M "C C"
_symmetry_group_IT_number 9
_symmetry_cell_setting 'monoclinic'
loop_
_space_group_symop_operation_xyz
x,y,z
x,-y,1/2+z
1/2+x,1/2+y,z
1/2+x,1/2-y,1/2+z
loop_
_atom_site_type_symbol
_atom_site_label
_atom_site_fract_x
_atom_site_fract_y
_atom_site_fract_z
Si Si1 0.438720 0.620860 0.758580
Si Si2 0.201412 0.878370 0.262406
Si Si3 0.938512 0.921589 0.632442
Si Si4 0.020794 0.576776 0.130558
Si Si5 0.060975 0.596493 0.959796
Si Si6 0.042803 0.201566 0.960689
Si Si7 0.811587 0.106540 0.565532
O O1 0.525348 0.599026 0.795790
O O2 0.487015 0.471789 0.687667
O O3 0.517657 0.781423 0.688792
O O4 0.236880 0.627888 0.849857
O O5 0.294523 0.718118 0.193169
O O6 0.181279 0.845405 0.349845
O O7 0.325881 0.030276 0.197829
O O8 0.079260 0.853599 0.523284
O O9 0.852799 0.081551 0.628627
O O10 0.119111 0.414243 0.121307
O O11 0.092484 0.617561 0.027606
O O12 0.008205 0.400609 0.970768
O O13 0.918088 0.733122 0.998524
O O14 0.890311 0.071809 0.006659
#
# Coordination Sequence:
#
# PCOD9137967 Si02
#       7
#     4   4   4   4   4   4   4
#     4  12  25  44  77 103 145 195 234 303 370 431
#     4  12  24  45  72 105 145 190 242 300 365 427
#     4  10  22  46  67 102 146 182 236 299 355 430
#     4  12  24  45  71 102 148 191 240 300 362 427
#     4  12  24  43  74 107 138 194 247 292 370 429
#     4  10  22  47  69 104 148 179 243 305 355 424
#     4  10  23  46  68 103 144 185 240 299 355 428
#
# _framework density 22.504422999999999
#
# number of rings (size 3 to 8) (size 9 to 14) (size 15 to 20)
#    0.857    0.000    5.714    1.714    0.000    1.143 
#    0.000    4.286    0.000    0.000    0.000    0.000 
#    0.000    0.000    0.000    0.000    0.000    0.000 
#
# Total GULP energy -78101.247808 kJ/mol
# GULP energy per Si atom -5578.660558 kJ/mol
# Density = 2.245320 g / cm^3
# Si number density = 22.504423 Si / 1000 Ang^3
#
#
#
# Elastic Constant Matrix: (Units=GPa)
#
#
# Indices 1 2 3 4 5 6 
#
# 1 55.5462 31.1204 23.4513 0.0000 2.8077 0.0000
# 2 31.1204 105.8080 39.9062 0.0000 -3.6524 0.0000
# 3 23.4513 39.9062 132.6753 0.0000 26.9270 0.0000
# 4 0.0000 0.0000 0.0000 22.8695 0.0000 -5.0309
# 5 2.8077 -3.6524 26.9270 0.0000 32.0581 0.0000
# 6 0.0000 0.0000 0.0000 -5.0309 0.0000 20.2485
#
#
#
# Elastic Compliance Matrix: (Units=1/GPa)
#
#
# Indices 1 2 3 4 5 6 
#
# 1 0.022133 -0.005796 -0.001979 0.000000 -0.000937 0.000000
# 2 -0.005796 0.012803 -0.003888 0.000000 0.005232 0.000000
# 3 -0.001979 -0.003888 0.010984 0.000000 -0.009495 0.000000
# 4 0.000000 0.000000 0.000000 0.046254 0.000000 0.011492
# 5 -0.000937 0.005232 -0.009495 0.000000 0.039847 0.000000
# 6 0.000000 0.000000 0.000000 0.011492 0.000000 0.052242
#
#
# Mechanical properties :
#
#
# Convention : Reuss Voigt Hill
#
# Bulk Modulus (GPa) = 44.26025 53.66504 48.96264
# Shear Modulus (GPa) = 23.24290 28.33868 25.79079
#
# Velocity S-wave (km/s) = 3.21723 3.55244 3.38898
# Velocity P-wave (km/s) = 5.78885 6.38159 6.09243
#
# Compressibility (1/GPa) = 0.02259364
#
# Stress axis : x y z
#
# Youngs Moduli (GPa) = 45.18149 78.10764 91.04481
#
# Poissons Ratio (x) = 0.45269 0.18016
# Poissons Ratio (y) = 0.26186 0.35401
# Poissons Ratio (z) = 0.08941 0.30371
#
# Static dielectric constant tensor:
#      x y z
#    x 1.835130 0.000000 0.002110 
#    y 0.000000 1.883260 0.000000 
#    z 0.002110 0.000000 1.810930 
# 
# From -- ./inp_files/33192.got.cif
#   From: 2010.05.17/outbox.cif.g08.bks.cpg/sg9_17_cif.got.tgz:33192.got - 2010.06.03 20:04:27.
