data_PCOD9137872
_publ_section_title
;
Structure prediction by ZEFSAII (Michael W. Deem and Ramdas Pophale) SiO2 
 PCOD9137872
Probable space group: C C
;
_chemical_formula_sum "Si O2"
_cell_formula_units_Z 28
_cell_length_a 7.139064
_cell_length_b 13.050355
_cell_length_c 17.547083
_cell_angle_alpha 90.000000
_cell_angle_beta 47.345044
_cell_angle_gamma 90.000000
_cell_volume 1202.320399
_symmetry_space_group_name_H-M "C C"
_symmetry_group_IT_number 9
_symmetry_cell_setting 'monoclinic'
loop_
_space_group_symop_operation_xyz
x,y,z
x,-y,1/2+z
1/2+x,1/2+y,z
1/2+x,1/2-y,1/2+z
loop_
_atom_site_type_symbol
_atom_site_label
_atom_site_fract_x
_atom_site_fract_y
_atom_site_fract_z
Si Si1 0.063520 0.641666 0.444300
Si Si2 0.176507 0.644827 0.159249
Si Si3 0.627527 0.027893 0.803194
Si Si4 0.471099 0.310343 0.135744
Si Si5 0.995312 0.789562 0.326150
Si Si6 0.962884 0.829190 0.967894
Si Si7 0.582162 0.566289 0.925335
O O1 0.121046 0.536204 0.383195
O O2 0.096967 0.727079 0.371163
O O3 0.763768 0.652030 0.545602
O O4 0.744805 0.167966 0.464608
O O5 0.135631 0.553016 0.229835
O O6 0.956745 0.690682 0.164639
O O7 0.184528 0.747762 0.209046
O O8 0.396993 0.613671 0.040385
O O9 0.370117 0.091773 0.866195
O O10 0.847819 0.110008 0.728382
O O11 0.355166 0.316035 0.083049
O O12 0.008316 0.901032 0.359891
O O13 0.705455 0.747769 0.392505
O O14 0.073436 0.943905 0.934808
#
# Coordination Sequence:
#
# PCOD9137872 Si02
#       7
#     4   4   4   4   4   4   4
#     4  10  22  45  67 101 143 187 246 306 363 455
#     4  11  22  45  72 102 151 192 245 309 374 445
#     4  11  23  45  75 106 148 197 249 315 376 448
#     4  11  23  45  71 104 147 186 248 308 374 450
#     4  10  24  46  70 102 148 185 244 314 367 444
#     4  11  22  44  72 103 142 190 252 298 376 456
#     4  12  22  46  77 100 151 197 236 320 372 440
#
# _framework density 23.288301000000001
#
# number of rings (size 3 to 8) (size 9 to 14) (size 15 to 20)
#    0.000    1.143    8.571    0.000    2.000    2.286 
#    2.571    1.429    0.000    0.000    0.000    0.000 
#    0.000    0.000    0.000    0.000    0.000    0.000 
#
# Total GULP energy -78120.902640 kJ/mol
# GULP energy per Si atom -5580.064474 kJ/mol
# Density = 2.323530 g / cm^3
# Si number density = 23.288301 Si / 1000 Ang^3
#
#
#
# Elastic Constant Matrix: (Units=GPa)
#
#
# Indices 1 2 3 4 5 6 
#
# 1 139.5687 18.0315 16.3440 -0.0008 5.9593 0.0004
# 2 18.0315 90.6676 15.9412 -0.0003 -5.7726 0.0003
# 3 16.3440 15.9412 58.8397 -0.0006 22.3151 0.0011
# 4 -0.0008 -0.0003 -0.0006 30.5724 0.0003 3.0391
# 5 5.9593 -5.7726 22.3151 0.0003 20.8380 -0.0003
# 6 0.0004 0.0003 0.0011 3.0391 -0.0003 42.4470
#
#
#
# Elastic Compliance Matrix: (Units=1/GPa)
#
#
# Indices 1 2 3 4 5 6 
#
# 1 0.007539 -0.001343 -0.001299 0.000000 -0.001137 0.000000
# 2 -0.001343 0.013562 -0.008203 0.000000 0.012926 0.000000
# 3 -0.001299 -0.008203 0.034182 0.000001 -0.038506 -0.000001
# 4 0.000000 0.000000 0.000001 0.032944 -0.000002 -0.002359
# 5 -0.001137 0.012926 -0.038506 -0.000002 0.093131 0.000002
# 6 0.000000 0.000000 -0.000001 -0.002359 0.000002 0.023728
#
#
# Mechanical properties :
#
#
# Convention : Reuss Voigt Hill
#
# Bulk Modulus (GPa) = 29.76900 43.30106 36.53503
# Shear Modulus (GPa) = 21.01077 34.68876 27.84977
#
# Velocity S-wave (km/s) = 3.00693 3.86364 3.46189
# Velocity P-wave (km/s) = 4.98659 6.20785 5.63043
#
# Compressibility (1/GPa) = 0.03359199
#
# Stress axis : x y z
#
# Youngs Moduli (GPa) = 132.64096 73.73709 29.25511
#
# Poissons Ratio (x) = 0.09906 0.03800
# Poissons Ratio (y) = 0.17819 0.23998
# Poissons Ratio (z) = 0.17229 0.60488
#
# Static dielectric constant tensor:
#      x y z
#    x 2.008210 0.000000 0.082700 
#    y 0.000000 1.947170 0.000000 
#    z 0.082700 0.000000 1.926100 
# 
# From -- ./inp_files/35380.got.cif
#   From: 2010.05.17/outbox.cif.g08.bks.cpg/sg9_18_cif.got.tgz:35380.got - 2010.06.03 20:04:27.
