data_PCOD9137206
_publ_section_title
;
Structure prediction by ZEFSAII (Michael W. Deem and Ramdas Pophale) SiO2 
 PCOD9137206
Probable space group: C C
;
_chemical_formula_sum "Si O2"
_cell_formula_units_Z 28
_cell_length_a 5.332901
_cell_length_b 9.814310
_cell_length_c 22.683257
_cell_angle_alpha 90.000000
_cell_angle_beta 115.171439
_cell_angle_gamma 90.000000
_cell_volume 1074.474441
_symmetry_space_group_name_H-M "C C"
_symmetry_group_IT_number 9
_symmetry_cell_setting 'monoclinic'
loop_
_space_group_symop_operation_xyz
x,y,z
x,-y,1/2+z
1/2+x,1/2+y,z
1/2+x,1/2-y,1/2+z
loop_
_atom_site_type_symbol
_atom_site_label
_atom_site_fract_x
_atom_site_fract_y
_atom_site_fract_z
Si Si1 0.901040 0.436540 0.503120
Si Si2 0.476617 0.791560 0.953440
Si Si3 0.367148 0.613517 0.770533
Si Si4 0.388854 0.697726 0.644119
Si Si5 0.362800 0.234759 0.889939
Si Si6 0.444007 0.327959 0.746559
Si Si7 0.966530 0.085514 0.119629
O O1 0.609865 0.357009 0.483566
O O2 0.942814 0.598941 0.503173
O O3 0.948504 0.392063 0.440223
O O4 0.147544 0.382640 0.570028
O O5 0.685639 0.825808 0.919499
O O6 0.160169 0.787906 0.900971
O O7 0.278622 0.622857 0.692786
O O8 0.652979 0.685548 0.818540
O O9 0.397161 0.453839 0.785540
O O10 0.133544 0.699197 0.780015
O O11 0.654071 0.774361 0.694760
O O12 0.487568 0.576771 0.610954
O O13 0.166314 0.811387 0.606362
O O14 0.565629 0.392623 0.697517
#
# Coordination Sequence:
#
# PCOD9137206 Si02
#       7
#     4   4   4   4   4   4   4
#     4  10  26  42  68  99 137 186 230 295 351 430
#     4  10  26  44  67 102 135 181 235 280 360 415
#     4  10  23  38  64  93 133 168 232 275 356 413
#     4  10  22  40  64  95 131 173 229 282 358 410
#     4  10  26  44  68 102 137 184 230 292 349 432
#     4  10  22  41  62  97 125 181 218 294 341 430
#     4  10  23  41  63  98 130 179 230 288 353 422
#
# _framework density 26.059251
#
# number of rings (size 3 to 8) (size 9 to 14) (size 15 to 20)
#    0.857    1.143    0.000    0.857   10.000    0.000 
#    0.000    0.000    0.000    0.000    0.000    0.000 
#    0.000    0.000    0.000    0.000    0.000    0.000 
#
# Total GULP energy -78025.490318 kJ/mol
# GULP energy per Si atom -5573.249308 kJ/mol
# Density = 2.599994 g / cm^3
# Si number density = 26.059251 Si / 1000 Ang^3
#
#
#
# Elastic Constant Matrix: (Units=GPa)
#
#
# Indices 1 2 3 4 5 6 
#
# 1 137.3497 77.4925 36.4262 0.0000 42.3085 0.0000
# 2 77.4925 196.4471 38.7161 0.0000 25.9574 0.0000
# 3 36.4262 38.7161 106.5518 0.0000 19.3470 0.0000
# 4 0.0000 0.0000 0.0000 40.1898 0.0000 3.5617
# 5 42.3085 25.9574 19.3470 0.0000 51.3670 0.0000
# 6 0.0000 0.0000 0.0000 3.5617 0.0000 36.4676
#
#
#
# Elastic Compliance Matrix: (Units=1/GPa)
#
#
# Indices 1 2 3 4 5 6 
#
# 1 0.011919 -0.003417 -0.001464 0.000000 -0.007539 0.000000
# 2 -0.003417 0.006697 -0.001247 0.000000 -0.000100 0.000000
# 3 -0.001464 -0.001247 0.010740 0.000000 -0.002209 0.000000
# 4 0.000000 0.000000 0.000000 0.025099 0.000000 -0.002451
# 5 -0.007539 -0.000100 -0.002209 0.000000 0.026560 0.000000
# 6 0.000000 0.000000 0.000000 -0.002451 0.000000 0.027661
#
#
# Mechanical properties :
#
#
# Convention : Reuss Voigt Hill
#
# Bulk Modulus (GPa) = 58.48097 82.84645 70.66371
# Shear Modulus (GPa) = 39.48410 44.78581 42.13495
#
# Velocity S-wave (km/s) = 3.89674 4.15012 4.02542
# Velocity P-wave (km/s) = 6.53730 7.40440 6.98432
#
# Compressibility (1/GPa) = 0.01709958
#
# Stress axis : x y z
#
# Youngs Moduli (GPa) = 83.89844 149.31224 93.11064
#
# Poissons Ratio (x) = 0.51020 0.13634
# Poissons Ratio (y) = 0.28668 0.11612
# Poissons Ratio (z) = 0.12285 0.18622
#
# Static dielectric constant tensor:
#      x y z
#    x 2.077540 0.000000 -0.088840 
#    y 0.000000 2.143940 0.000000 
#    z -0.088840 0.000000 2.081340 
# 
# From -- ./inp_files/34724.got.cif
#   From: 2010.05.17/outbox.cif.g08.bks.cpg/sg9_18_cif.got.tgz:34724.got - 2010.06.03 20:04:27.
