data_PCOD9137210
_publ_section_title
;
Structure prediction by ZEFSAII (Michael W. Deem and Ramdas Pophale) SiO2 
 PCOD9137210
Probable space group: C C
;
_chemical_formula_sum "Si O2"
_cell_formula_units_Z 32
_cell_length_a 13.982241
_cell_length_b 19.231396
_cell_length_c 8.916597
_cell_angle_alpha 90.000000
_cell_angle_beta 148.690397
_cell_angle_gamma 90.000000
_cell_volume 1245.971064
_symmetry_space_group_name_H-M "C C"
_symmetry_group_IT_number 9
_symmetry_cell_setting 'monoclinic'
loop_
_space_group_symop_operation_xyz
x,y,z
x,-y,1/2+z
1/2+x,1/2+y,z
1/2+x,1/2-y,1/2+z
loop_
_atom_site_type_symbol
_atom_site_label
_atom_site_fract_x
_atom_site_fract_y
_atom_site_fract_z
Si Si1 0.602540 0.471093 0.457310
Si Si2 0.478261 0.906689 0.989993
Si Si3 0.539195 0.603035 0.571035
Si Si4 0.857426 0.707599 0.102060
Si Si5 0.429447 0.848058 0.240793
Si Si6 0.330213 0.595457 0.814251
Si Si7 0.161672 0.652262 0.316198
Si Si8 0.512932 0.308618 0.778961
O O1 0.815199 0.454761 0.708606
O O2 0.592112 0.548583 0.509395
O O3 0.497028 0.443524 0.164199
O O4 0.515133 0.431679 0.483762
O O5 0.450610 0.830601 0.870395
O O6 0.428666 0.896466 0.095592
O O7 0.684522 0.934495 0.239441
O O8 0.426003 0.655597 0.312342
O O9 0.685521 0.658179 0.833648
O O10 0.990385 0.697199 0.141507
O O11 0.819934 0.789831 0.046558
O O12 0.585428 0.877458 0.561638
O O13 0.504267 0.772745 0.291620
O O14 0.223574 0.833607 0.029200
O O15 0.198491 0.597205 0.493218
O O16 0.392064 0.666648 0.976462
#
# Coordination Sequence:
#
# PCOD9137210 Si02
#       8
#     4   4   4   4   4   4   4   4
#     4  11  25  47  76  97 140 192 236 297 350 417
#     4  10  24  44  69 104 141 186 231 291 354 416
#     4  11  24  45  72  99 138 191 238 290 359 415
#     4  10  22  40  64  99 139 178 229 281 354 424
#     4  12  22  40  68 109 143 188 230 290 356 419
#     4  11  25  44  70 107 142 182 240 286 355 425
#     4  11  22  38  66 101 141 178 224 286 349 417
#     4  12  24  42  69 104 148 187 236 289 355 427
#
# _framework density 25.682782
#
# number of rings (size 3 to 8) (size 9 to 14) (size 15 to 20)
#    0.000    1.000    3.750    2.250    3.500    4.000 
#    0.000    7.500    2.750    0.000    0.000    0.000 
#    0.000    0.000    0.000    0.000    0.000    0.000 
#
# Total GULP energy -89185.159369 kJ/mol
# GULP energy per Si atom -5574.072461 kJ/mol
# Density = 2.562433 g / cm^3
# Si number density = 25.682782 Si / 1000 Ang^3
#
#
#
# Elastic Constant Matrix: (Units=GPa)
#
#
# Indices 1 2 3 4 5 6 
#
# 1 111.1808 8.0834 31.1306 0.0000 10.3484 0.0000
# 2 8.0834 38.8496 4.1249 0.0000 1.8310 0.0000
# 3 31.1306 4.1249 98.4505 0.0000 -18.8507 0.0000
# 4 0.0000 0.0000 0.0000 7.2294 0.0000 -9.3079
# 5 10.3484 1.8310 -18.8507 0.0000 44.8443 0.0000
# 6 0.0000 0.0000 0.0000 -9.3079 0.0000 34.1521
#
#
#
# Elastic Compliance Matrix: (Units=1/GPa)
#
#
# Indices 1 2 3 4 5 6 
#
# 1 0.010635 -0.001586 -0.004082 0.000000 -0.004105 0.000000
# 2 -0.001586 0.026204 -0.000795 0.000000 -0.001038 0.000000
# 3 -0.004082 -0.000795 0.012690 0.000000 0.006309 0.000000
# 4 0.000000 0.000000 0.000000 0.213103 0.000000 0.058080
# 5 -0.004105 -0.001038 0.006309 0.000000 0.025941 0.000000
# 6 0.000000 0.000000 0.000000 0.058080 0.000000 0.045110
#
#
# Mechanical properties :
#
#
# Convention : Reuss Voigt Hill
#
# Bulk Modulus (GPa) = 27.32163 37.23985 32.28074
# Shear Modulus (GPa) = 13.93496 30.92129 22.42813
#
# Velocity S-wave (km/s) = 2.33186 3.47359 2.95833
# Velocity P-wave (km/s) = 4.23218 5.53346 4.92598
#
# Compressibility (1/GPa) = 0.03660103
#
# Stress axis : x y z
#
# Youngs Moduli (GPa) = 94.03033 38.16264 78.80499
#
# Poissons Ratio (x) = 0.06052 0.32172
# Poissons Ratio (y) = 0.14912 0.06267
# Poissons Ratio (z) = 0.38387 0.03035
#
# Static dielectric constant tensor:
#      x y z
#    x 2.076590 0.000000 0.015910 
#    y 0.000000 2.160330 0.000000 
#    z 0.015910 0.000000 2.045850 
# 
# From -- ./inp_files/10109.got.cif
#   From: 2010.05.17/outbox.cif.g08.bks.cpg/sg9_6_cif.got.tgz:10109.got - 2010.06.03 20:04:27.
