data_PCOD9137529
_publ_section_title
;
Structure prediction by ZEFSAII (Michael W. Deem and Ramdas Pophale) SiO2 
 PCOD9137529
Probable space group: C C
;
_chemical_formula_sum "Si O2"
_cell_formula_units_Z 24
_cell_length_a 6.872533
_cell_length_b 8.147313
_cell_length_c 20.972314
_cell_angle_alpha 90.000000
_cell_angle_beta 60.498005
_cell_angle_gamma 90.000000
_cell_volume 1022.035089
_symmetry_space_group_name_H-M "C C"
_symmetry_group_IT_number 9
_symmetry_cell_setting 'monoclinic'
loop_
_space_group_symop_operation_xyz
x,y,z
x,-y,1/2+z
1/2+x,1/2+y,z
1/2+x,1/2-y,1/2+z
loop_
_atom_site_type_symbol
_atom_site_label
_atom_site_fract_x
_atom_site_fract_y
_atom_site_fract_z
Si Si1 0.647610 0.974576 0.446100
Si Si2 0.443960 0.530216 0.154910
Si Si3 0.448227 0.058738 0.212253
Si Si4 0.561099 0.236905 0.069311
Si Si5 0.221700 0.226605 0.019568
Si Si6 0.989707 0.091815 0.778395
O O1 0.663894 0.156788 0.470910
O O2 0.717515 0.861104 0.495909
O O3 0.393013 0.919144 0.470922
O O4 0.811392 0.940141 0.361919
O O5 0.616523 0.388490 0.105068
O O6 0.465197 0.545052 0.226734
O O7 0.187672 0.479208 0.187421
O O8 0.507607 0.671870 0.095285
O O9 0.242535 0.940152 0.260649
O O10 0.453922 0.108961 0.136480
O O11 0.447954 0.229128 0.253324
O O12 0.380678 0.308346 0.047840
#
# Coordination Sequence:
#
# PCOD9137529 Si02
#       6
#     4   4   4   4   4   4
#     4  10  22  43  70  96 148 182 238 302 368 424
#     4  11  24  41  72  98 137 184 251 291 365 432
#     4  11  24  41  73  97 144 186 243 294 363 433
#     4   9  22  40  67  98 129 185 234 292 349 428
#     4  10  22  42  69  96 137 187 238 295 357 434
#     4  11  24  45  65 105 143 186 236 304 366 435
#
# _framework density 23.482557
#
# number of rings (size 3 to 8) (size 9 to 14) (size 15 to 20)
#    1.000    0.667    1.667    2.000    9.333    0.000 
#    3.000    0.000    0.000    0.000    0.000    0.000 
#    0.000    0.000    0.000    0.000    0.000    0.000 
#
# Total GULP energy -66921.292525 kJ/mol
# GULP energy per Si atom -5576.774377 kJ/mol
# Density = 2.342911 g / cm^3
# Si number density = 23.482557 Si / 1000 Ang^3
#
#
#
# Elastic Constant Matrix: (Units=GPa)
#
#
# Indices 1 2 3 4 5 6 
#
# 1 96.1847 37.2426 47.3354 0.0000 -21.3822 0.0000
# 2 37.2426 71.1417 46.1761 0.0000 -6.9354 0.0000
# 3 47.3354 46.1761 202.4453 0.0000 -28.4013 0.0000
# 4 0.0000 0.0000 0.0000 27.2775 0.0000 0.0222
# 5 -21.3822 -6.9354 -28.4013 0.0000 19.3683 0.0000
# 6 0.0000 0.0000 0.0000 0.0222 0.0000 41.4511
#
#
#
# Elastic Compliance Matrix: (Units=1/GPa)
#
#
# Indices 1 2 3 4 5 6 
#
# 1 0.016714 -0.007174 -0.000055 0.000000 0.015803 0.000000
# 2 -0.007174 0.019582 -0.003672 0.000000 -0.006292 0.000000
# 3 -0.000055 -0.003672 0.007047 0.000000 0.008958 0.000000
# 4 0.000000 0.000000 0.000000 0.036660 0.000000 -0.000020
# 5 0.015803 -0.006292 0.008958 0.000000 0.079959 0.000000
# 6 0.000000 0.000000 0.000000 -0.000020 0.000000 0.024125
#
#
# Mechanical properties :
#
#
# Convention : Reuss Voigt Hill
#
# Bulk Modulus (GPa) = 46.42090 70.14220 58.28155
# Shear Modulus (GPa) = 23.46659 33.55389 28.51024
#
# Velocity S-wave (km/s) = 3.16463 3.78416 3.48818
# Velocity P-wave (km/s) = 5.75885 7.00199 6.41063
#
# Compressibility (1/GPa) = 0.02154202
#
# Stress axis : x y z
#
# Youngs Moduli (GPa) = 59.82856 51.06790 141.91207
#
# Poissons Ratio (x) = 0.36635 0.00778
# Poissons Ratio (y) = 0.42920 0.52107
# Poissons Ratio (z) = 0.00328 0.18751
#
# Static dielectric constant tensor:
#      x y z
#    x 1.986080 0.000000 0.012580 
#    y 0.000000 1.995170 0.000000 
#    z 0.012580 0.000000 1.828160 
# 
# From -- ./inp_files/32355.got.cif
#   From: 2010.05.17/outbox.cif.g08.bks.cpg/sg9_17_cif.got.tgz:32355.got - 2010.06.03 20:04:27.
