data_PCOD9137566
_publ_section_title
;
Structure prediction by ZEFSAII (Michael W. Deem and Ramdas Pophale) SiO2 
 PCOD9137566
Probable space group: C C
;
_chemical_formula_sum "Si O2"
_cell_formula_units_Z 32
_cell_length_a 12.646684
_cell_length_b 15.595337
_cell_length_c 9.543450
_cell_angle_alpha 90.000000
_cell_angle_beta 129.431455
_cell_angle_gamma 90.000000
_cell_volume 1453.820074
_symmetry_space_group_name_H-M "C C"
_symmetry_group_IT_number 9
_symmetry_cell_setting 'monoclinic'
loop_
_space_group_symop_operation_xyz
x,y,z
x,-y,1/2+z
1/2+x,1/2+y,z
1/2+x,1/2-y,1/2+z
loop_
_atom_site_type_symbol
_atom_site_label
_atom_site_fract_x
_atom_site_fract_y
_atom_site_fract_z
Si Si1 0.353410 0.154635 0.883740
Si Si2 0.596913 0.296239 0.679470
Si Si3 0.627960 0.409134 0.982705
Si Si4 0.839674 0.846436 0.816860
Si Si5 0.789449 0.160683 0.957568
Si Si6 0.763817 0.406525 0.612283
Si Si7 0.011156 0.489995 0.976716
Si Si8 0.689504 0.019284 0.372162
O O1 0.219243 0.137414 0.677039
O O2 0.391139 0.253819 0.909747
O O3 0.463682 0.088338 0.914601
O O4 0.323892 0.127929 0.018014
O O5 0.666966 0.205724 0.771799
O O6 0.432743 0.295396 0.537014
O O7 0.663136 0.338502 0.598741
O O8 0.635410 0.357899 0.843161
O O9 0.683483 0.505170 0.015043
O O10 0.470823 0.405541 0.897590
O O11 0.769547 0.829952 0.607714
O O12 0.743327 0.894711 0.845527
O O13 0.795146 0.058467 0.941452
O O14 0.886791 0.430527 0.822820
O O15 0.142948 0.470387 0.992345
O O16 0.054926 0.487287 0.174720
#
# Coordination Sequence:
#
# PCOD9137566 Si02
#       8
#     4   4   4   4   4   4   4   4
#     4  11  24  43  70 103 134 185 233 295 343 427
#     4  11  25  45  72 103 138 189 235 296 356 432
#     4  10  22  42  72  93 136 181 235 277 354 425
#     4  11  25  44  71 102 136 185 234 293 354 423
#     4  11  26  45  73 103 143 185 244 289 366 432
#     4  11  24  44  66 105 139 179 237 294 357 414
#     4  11  25  42  73 102 139 185 238 291 360 420
#     4  12  25  45  71 101 143 183 238 293 362 421
#
# _framework density 22.010975999999999
#
# number of rings (size 3 to 8) (size 9 to 14) (size 15 to 20)
#    0.000    1.000    3.750    2.250    8.750    2.000 
#    4.500    0.000    0.000    0.000    0.000    0.000 
#    0.000    0.000    0.000    0.000    0.000    0.000 
#
# Total GULP energy -89525.932913 kJ/mol
# GULP energy per Si atom -5595.370807 kJ/mol
# Density = 2.196088 g / cm^3
# Si number density = 22.010976 Si / 1000 Ang^3
#
#
#
# Elastic Constant Matrix: (Units=GPa)
#
#
# Indices 1 2 3 4 5 6 
#
# 1 87.2800 15.3720 -6.2064 0.0000 -9.9362 0.0000
# 2 15.3720 84.7060 -12.1077 0.0000 -5.6475 0.0000
# 3 -6.2064 -12.1077 38.6075 0.0000 0.1221 0.0000
# 4 0.0000 0.0000 0.0000 28.1133 0.0000 1.5236
# 5 -9.9362 -5.6475 0.1221 0.0000 34.5397 0.0000
# 6 0.0000 0.0000 0.0000 1.5236 0.0000 17.4229
#
#
#
# Elastic Compliance Matrix: (Units=1/GPa)
#
#
# Indices 1 2 3 4 5 6 
#
# 1 0.012241 -0.001808 0.001391 0.000000 0.003221 0.000000
# 2 -0.001808 0.012767 0.003708 0.000000 0.001554 0.000000
# 3 0.001391 0.003708 0.027285 0.000000 0.000910 0.000000
# 4 0.000000 0.000000 0.000000 0.035740 0.000000 -0.003125
# 5 0.003221 0.001554 0.000910 0.000000 0.030130 0.000000
# 6 0.000000 0.000000 0.000000 -0.003125 0.000000 0.057669
#
#
# Mechanical properties :
#
#
# Convention : Reuss Voigt Hill
#
# Bulk Modulus (GPa) = 16.98473 22.74547 19.86510
# Shear Modulus (GPa) = 26.47243 30.25090 28.36166
#
# Velocity S-wave (km/s) = 3.47175 3.71125 3.59350
# Velocity P-wave (km/s) = 4.87893 5.35916 5.12468
#
# Compressibility (1/GPa) = 0.05887640
#
# Stress axis : x y z
#
# Youngs Moduli (GPa) = 81.69010 78.32482 36.64967
#
# Poissons Ratio (x) = 0.14161 -0.05097
# Poissons Ratio (y) = 0.14769 -0.13591
# Poissons Ratio (z) = -0.11361 -0.29046
#
# Static dielectric constant tensor:
#      x y z
#    x 1.779810 0.000000 0.034640 
#    y 0.000000 1.802840 0.000000 
#    z 0.034640 0.000000 1.802960 
# 
# From -- ./inp_files/7556.got.cif
#   From: 2010.05.17/outbox.cif.g08.bks.cpg/sg9_4_cif.got.tgz:7556.got - 2010.06.03 20:04:27.
