data_PCOD9137234
_publ_section_title
;
Structure prediction by ZEFSAII (Michael W. Deem and Ramdas Pophale) SiO2 
 PCOD9137234
Probable space group: C C
;
_chemical_formula_sum "Si O2"
_cell_formula_units_Z 28
_cell_length_a 12.818266
_cell_length_b 7.506021
_cell_length_c 13.585177
_cell_angle_alpha 90.000000
_cell_angle_beta 119.224720
_cell_angle_gamma 90.000000
_cell_volume 1140.709505
_symmetry_space_group_name_H-M "C C"
_symmetry_group_IT_number 9
_symmetry_cell_setting 'monoclinic'
loop_
_space_group_symop_operation_xyz
x,y,z
x,-y,1/2+z
1/2+x,1/2+y,z
1/2+x,1/2-y,1/2+z
loop_
_atom_site_type_symbol
_atom_site_label
_atom_site_fract_x
_atom_site_fract_y
_atom_site_fract_z
Si Si1 0.188660 0.390588 0.336580
Si Si2 0.997797 0.140879 0.536651
Si Si3 0.087033 0.257459 0.098069
Si Si4 0.208176 0.776398 0.277750
Si Si5 0.253482 0.806848 0.507449
Si Si6 0.352929 0.181620 0.563658
Si Si7 0.448769 0.814493 0.310197
O O1 0.160017 0.258986 0.233320
O O2 0.240405 0.568158 0.310797
O O3 0.270583 0.300899 0.456424
O O4 0.058737 0.434681 0.324438
O O5 0.105887 0.219114 0.650641
O O6 0.874467 0.205456 0.530965
O O7 0.999870 0.199874 0.423841
O O8 0.022955 0.931117 0.551807
O O9 0.175544 0.297848 0.050459
O O10 0.971884 0.382619 0.059558
O O11 0.177363 0.840199 0.373048
O O12 0.325108 0.885420 0.298471
O O13 0.286428 0.000877 0.563553
O O14 0.401123 0.273843 0.685989
#
# Coordination Sequence:
#
# PCOD9137234 Si02
#       7
#     4   4   4   4   4   4   4
#     4  11  24  41  67  99 132 175 220 270 332 392
#     4  11  23  43  67  96 133 174 221 271 330 391
#     4  11  25  43  67 100 133 173 221 271 328 392
#     4  11  24  41  67  99 132 175 220 270 332 392
#     4  11  25  43  67 100 133 173 221 271 328 392
#     4  11  23  43  67  96 133 174 221 271 330 391
#     4  10  22  40  66  94 128 170 214 266 322 382
#
# _framework density 24.546125
#
# number of rings (size 3 to 8) (size 9 to 14) (size 15 to 20)
#    0.000    1.143    0.000    6.857    0.000   10.286 
#    0.000    1.429    0.000    0.000    0.000    0.000 
#    0.000    0.000    0.000    0.000    0.000    0.000 
#
# Total GULP energy -78272.466697 kJ/mol
# GULP energy per Si atom -5590.890478 kJ/mol
# Density = 2.449026 g / cm^3
# Si number density = 24.546125 Si / 1000 Ang^3
#
#
#
# Elastic Constant Matrix: (Units=GPa)
#
#
# Indices 1 2 3 4 5 6 
#
# 1 139.9264 4.6233 52.8711 0.0000 -7.0208 0.0000
# 2 4.6233 43.4556 17.3507 0.0000 4.0989 0.0000
# 3 52.8711 17.3507 199.3058 0.0000 11.2132 0.0000
# 4 0.0000 0.0000 0.0000 31.7374 0.0000 7.3956
# 5 -7.0208 4.0989 11.2132 0.0000 44.9138 0.0000
# 6 0.0000 0.0000 0.0000 7.3956 0.0000 27.0485
#
#
#
# Elastic Compliance Matrix: (Units=1/GPa)
#
#
# Indices 1 2 3 4 5 6 
#
# 1 0.008089 -0.000141 -0.002237 0.000000 0.001836 0.000000
# 2 -0.000141 0.023969 -0.001952 0.000000 -0.001722 0.000000
# 3 -0.002237 -0.001952 0.005873 0.000000 -0.001638 0.000000
# 4 0.000000 0.000000 0.000000 0.033653 0.000000 -0.009201
# 5 0.001836 -0.001722 -0.001638 0.000000 0.023118 0.000000
# 6 0.000000 0.000000 0.000000 -0.009201 0.000000 0.039486
#
#
# Mechanical properties :
#
#
# Convention : Reuss Voigt Hill
#
# Bulk Modulus (GPa) = 34.16380 59.15311 46.65846
# Shear Modulus (GPa) = 32.76458 41.26278 37.01368
#
# Velocity S-wave (km/s) = 3.65748 4.10449 3.88741
# Velocity P-wave (km/s) = 5.63778 6.82741 6.26091
#
# Compressibility (1/GPa) = 0.02927075
#
# Stress axis : x y z
#
# Youngs Moduli (GPa) = 123.63219 41.72063 170.27439
#
# Poissons Ratio (x) = 0.00587 0.38086
# Poissons Ratio (y) = 0.01739 0.33245
# Poissons Ratio (z) = 0.27653 0.08146
#
# Static dielectric constant tensor:
#      x y z
#    x 2.007770 0.000000 -0.001800 
#    y 0.000000 1.963930 0.000000 
#    z -0.001800 0.000000 1.950620 
# 
# From -- ./inp_files/17816.got.cif
#   From: 2010.05.17/outbox.cif.g08.bks.cpg/sg9_9_cif.got.tgz:17816.got - 2010.06.03 20:04:27.
