data_PCOD9137406
_publ_section_title
;
Structure prediction by ZEFSAII (Michael W. Deem and Ramdas Pophale) SiO2 
 PCOD9137406
Probable space group: C C
;
_chemical_formula_sum "Si O2"
_cell_formula_units_Z 28
_cell_length_a 14.548087
_cell_length_b 16.525322
_cell_length_c 5.386522
_cell_angle_alpha 90.000000
_cell_angle_beta 124.060824
_cell_angle_gamma 90.000000
_cell_volume 1072.820692
_symmetry_space_group_name_H-M "C C"
_symmetry_group_IT_number 9
_symmetry_cell_setting 'monoclinic'
loop_
_space_group_symop_operation_xyz
x,y,z
x,-y,1/2+z
1/2+x,1/2+y,z
1/2+x,1/2-y,1/2+z
loop_
_atom_site_type_symbol
_atom_site_label
_atom_site_fract_x
_atom_site_fract_y
_atom_site_fract_z
Si Si1 0.412450 0.342269 0.547550
Si Si2 0.742828 0.788191 0.648342
Si Si3 0.090046 0.183445 0.681930
Si Si4 0.390688 0.022140 0.241116
Si Si5 0.570737 0.448468 0.500172
Si Si6 0.944653 0.708573 0.255791
Si Si7 0.139047 0.456264 0.640359
O O1 0.289642 0.321181 0.456869
O O2 0.449727 0.404796 0.389055
O O3 0.455185 0.253513 0.531893
O O4 0.484843 0.362642 0.901366
O O5 0.666759 0.709119 0.569616
O O6 0.682494 0.866916 0.663246
O O7 0.844654 0.755884 0.969796
O O8 0.135333 0.128468 0.974667
O O9 0.049153 0.265360 0.752140
O O10 0.424621 0.114946 0.263630
O O11 0.328616 0.005924 0.402232
O O12 0.504245 0.968019 0.428511
O O13 0.587904 0.490219 0.793806
O O14 0.177764 0.491250 0.961939
#
# Coordination Sequence:
#
# PCOD9137406 Si02
#       7
#     4   4   4   4   4   4   4
#     4  10  24  41  71 102 142 197 238 310 393 457
#     4  11  25  43  70 109 147 189 253 313 383 458
#     4  10  22  44  71 101 140 202 243 310 377 468
#     4  10  22  41  71  97 135 186 236 293 362 440
#     4  11  22  44  71  97 138 188 246 302 371 446
#     4  10  24  43  67 103 151 192 247 301 392 455
#     4  10  23  40  65 105 139 178 231 301 370 434
#
# _framework density 26.099422000000001
#
# number of rings (size 3 to 8) (size 9 to 14) (size 15 to 20)
#    0.000    1.714    1.429    1.714   10.000    3.429 
#    0.000    1.429    0.000    0.000    0.000    0.000 
#    0.000    0.000    0.000    0.000    0.000    0.000 
#
# Total GULP energy -78093.775162 kJ/mol
# GULP energy per Si atom -5578.126797 kJ/mol
# Density = 2.604002 g / cm^3
# Si number density = 26.099422 Si / 1000 Ang^3
#
#
#
# Elastic Constant Matrix: (Units=GPa)
#
#
# Indices 1 2 3 4 5 6 
#
# 1 100.7182 52.6675 46.8312 0.0000 -27.1061 0.0000
# 2 52.6675 101.1434 45.3954 0.0000 -14.9141 0.0000
# 3 46.8312 45.3954 115.4273 0.0000 -41.5682 0.0000
# 4 0.0000 0.0000 0.0000 32.8512 0.0000 -5.3259
# 5 -27.1061 -14.9141 -41.5682 0.0000 49.9614 0.0000
# 6 0.0000 0.0000 0.0000 -5.3259 0.0000 40.2275
#
#
#
# Elastic Compliance Matrix: (Units=1/GPa)
#
#
# Indices 1 2 3 4 5 6 
#
# 1 0.015557 -0.006480 -0.002028 0.000000 0.004819 0.000000
# 2 -0.006480 0.014714 -0.004058 0.000000 -0.002499 0.000000
# 3 -0.002028 -0.004058 0.014635 0.000000 0.009864 0.000000
# 4 0.000000 0.000000 0.000000 0.031108 0.000000 0.004119
# 5 0.004819 -0.002499 0.009864 0.000000 0.030091 0.000000
# 6 0.000000 0.000000 0.000000 0.004119 0.000000 0.025404
#
#
# Mechanical properties :
#
#
# Convention : Reuss Voigt Hill
#
# Bulk Modulus (GPa) = 50.57195 67.45301 59.01248
# Shear Modulus (GPa) = 30.63138 36.10101 33.36619
#
# Velocity S-wave (km/s) = 3.42956 3.72319 3.57939
# Velocity P-wave (km/s) = 5.92463 6.66210 6.30416
#
# Compressibility (1/GPa) = 0.01977381
#
# Stress axis : x y z
#
# Youngs Moduli (GPa) = 64.27942 67.96282 68.33161
#
# Poissons Ratio (x) = 0.44041 0.13858
# Poissons Ratio (y) = 0.41654 0.27727
# Poissons Ratio (z) = 0.13036 0.27577
#
# Static dielectric constant tensor:
#      x y z
#    x 2.174870 0.000000 0.034630 
#    y 0.000000 2.011390 0.000000 
#    z 0.034630 0.000000 2.164100 
# 
# From -- ./inp_files/2485.got.cif
#   From: 2010.05.17/outbox.cif.g08.bks.cpg/sg9_2_cif.got.tgz:2485.got - 2010.06.03 20:04:27.
