data_PCOD9137848
_publ_section_title
;
Structure prediction by ZEFSAII (Michael W. Deem and Ramdas Pophale) SiO2 
 PCOD9137848
Probable space group: C C
;
_chemical_formula_sum "Si O2"
_cell_formula_units_Z 28
_cell_length_a 5.631718
_cell_length_b 23.434747
_cell_length_c 10.318715
_cell_angle_alpha 90.000000
_cell_angle_beta 54.437652
_cell_angle_gamma 90.000000
_cell_volume 1107.835651
_symmetry_space_group_name_H-M "C C"
_symmetry_group_IT_number 9
_symmetry_cell_setting 'monoclinic'
loop_
_space_group_symop_operation_xyz
x,y,z
x,-y,1/2+z
1/2+x,1/2+y,z
1/2+x,1/2-y,1/2+z
loop_
_atom_site_type_symbol
_atom_site_label
_atom_site_fract_x
_atom_site_fract_y
_atom_site_fract_z
Si Si1 0.747200 0.650344 0.487470
Si Si2 0.213995 0.710774 0.737630
Si Si3 0.786865 0.121816 0.138571
Si Si4 0.894534 0.605556 0.926050
Si Si5 0.259899 0.481075 0.443511
Si Si6 0.311665 0.063067 0.678577
Si Si7 0.800928 0.248417 0.149857
O O1 0.431818 0.679259 0.564390
O O2 0.680702 0.596230 0.599286
O O3 0.897242 0.698196 0.531602
O O4 0.988646 0.629351 0.311082
O O5 0.446054 0.746269 0.750308
O O6 0.078610 0.663312 0.876928
O O7 0.969919 0.744107 0.732830
O O8 0.743244 0.071165 0.050741
O O9 0.863553 0.186378 0.071147
O O10 0.099010 0.105530 0.103664
O O11 0.818339 0.605291 0.797571
O O12 0.061520 0.546161 0.893901
O O13 0.588852 0.486300 0.291505
O O14 0.120769 0.537509 0.543366
#
# Coordination Sequence:
#
# PCOD9137848 Si02
#       7
#     4   4   4   4   4   4   4
#     4  10  24  45  72 107 143 193 243 312 361 449
#     4  10  22  44  76  99 147 195 244 290 380 422
#     4  11  28  43  69 113 144 185 256 298 382 439
#     4  11  24  46  72  98 150 191 241 307 370 450
#     4  11  27  45  71 103 141 199 239 320 362 457
#     4  11  25  47  70 102 145 187 259 294 386 431
#     4  10  24  44  74 108 146 198 238 309 365 448
#
# _framework density 25.274508000000001
#
# number of rings (size 3 to 8) (size 9 to 14) (size 15 to 20)
#    0.857    0.571    2.857    0.000   10.000    4.571 
#    0.000    0.000    0.000    0.000    0.000    0.000 
#    0.000    0.000    0.000    0.000    0.000    0.000 
#
# Total GULP energy -78150.715176 kJ/mol
# GULP energy per Si atom -5582.193941 kJ/mol
# Density = 2.521698 g / cm^3
# Si number density = 25.274508 Si / 1000 Ang^3
#
#
#
# Elastic Constant Matrix: (Units=GPa)
#
#
# Indices 1 2 3 4 5 6 
#
# 1 107.5984 11.6949 18.4944 0.0000 -13.3904 0.0000
# 2 11.6949 65.3625 -1.4715 0.0000 2.3815 0.0000
# 3 18.4944 -1.4715 76.1514 0.0000 -17.9997 0.0000
# 4 0.0000 0.0000 0.0000 43.6107 0.0000 -4.2905
# 5 -13.3904 2.3815 -17.9997 0.0000 29.1468 0.0000
# 6 0.0000 0.0000 0.0000 -4.2905 0.0000 30.4157
#
#
#
# Elastic Compliance Matrix: (Units=1/GPa)
#
#
# Indices 1 2 3 4 5 6 
#
# 1 0.010274 -0.002016 -0.001615 0.000000 0.003887 0.000000
# 2 -0.002016 0.015741 0.000317 0.000000 -0.002017 0.000000
# 3 -0.001615 0.000317 0.015630 0.000000 0.008884 0.000000
# 4 0.000000 0.000000 0.000000 0.023253 0.000000 0.003280
# 5 0.003887 -0.002017 0.008884 0.000000 0.041746 0.000000
# 6 0.000000 0.000000 0.000000 0.003280 0.000000 0.033340
#
#
# Mechanical properties :
#
#
# Convention : Reuss Voigt Hill
#
# Bulk Modulus (GPa) = 28.55823 34.06089 31.30956
# Shear Modulus (GPa) = 31.58838 35.32760 33.45799
#
# Velocity S-wave (km/s) = 3.53910 3.74271 3.64233
# Velocity P-wave (km/s) = 5.29378 5.67299 5.48666
#
# Compressibility (1/GPa) = 0.03501618
#
# Stress axis : x y z
#
# Youngs Moduli (GPa) = 97.32921 63.52962 63.97886
#
# Poissons Ratio (x) = 0.12810 0.10335
# Poissons Ratio (y) = 0.19625 -0.02029
# Poissons Ratio (z) = 0.15723 -0.02015
#
# Static dielectric constant tensor:
#      x y z
#    x 2.140170 0.000000 0.013560 
#    y 0.000000 1.952760 0.000000 
#    z 0.013560 0.000000 2.027560 
# 
# From -- ./inp_files/13712.got.cif
#   From: 2010.05.17/outbox.cif.g08.bks.cpg/sg9_7_cif.got.tgz:13712.got - 2010.06.03 20:04:27.
