data_PCOD9137650
_publ_section_title
;
Structure prediction by ZEFSAII (Michael W. Deem and Ramdas Pophale) SiO2 
 PCOD9137650
Probable space group: C C
;
_chemical_formula_sum "Si O2"
_cell_formula_units_Z 24
_cell_length_a 13.470167
_cell_length_b 4.868563
_cell_length_c 12.841758
_cell_angle_alpha 90.000000
_cell_angle_beta 73.643596
_cell_angle_gamma 90.000000
_cell_volume 808.083329
_symmetry_space_group_name_H-M "C C"
_symmetry_group_IT_number 9
_symmetry_cell_setting 'monoclinic'
loop_
_space_group_symop_operation_xyz
x,y,z
x,-y,1/2+z
1/2+x,1/2+y,z
1/2+x,1/2-y,1/2+z
loop_
_atom_site_type_symbol
_atom_site_label
_atom_site_fract_x
_atom_site_fract_y
_atom_site_fract_z
Si Si1 0.088900 0.798671 0.303670
Si Si2 0.959987 0.696214 0.837096
Si Si3 0.833641 0.798670 0.120270
Si Si4 0.462554 0.196214 0.586844
Si Si5 0.765013 0.045365 0.864217
Si Si6 0.657527 0.454635 0.059722
O O1 0.185869 0.663139 0.331117
O O2 0.056710 0.109046 0.336398
O O3 0.109873 0.789379 0.172563
O O4 0.988856 0.611627 0.360270
O O5 0.961270 0.693740 0.711970
O O6 0.853287 0.852947 0.889933
O O7 0.933684 0.611627 0.063669
O O8 0.865831 0.109045 0.087542
O O9 0.812667 0.789379 0.251377
O O10 0.736672 0.663139 0.092822
O O11 0.569254 0.352947 0.534007
O O12 0.711270 0.250000 0.961970
#
# Coordination Sequence:
#
# PCOD9137650 Si02
#       6
#     4   4   4   4   4   4
#     4  11  24  45  67  98 142 180 227 290 348 413
#     4  10  22  43  68  96 139 183 223 285 354 409
#     4  11  24  45  67  98 142 180 227 290 348 413
#     4  10  22  43  68  96 139 183 223 285 354 409
#     4  11  25  46  76 107 139 188 242 291 351 422
#     4  11  25  46  76 107 139 188 242 291 351 422
#
# _framework density 29.699905000000001
#
# number of rings (size 3 to 8) (size 9 to 14) (size 15 to 20)
#    0.000    1.333    0.000    7.000    0.000    5.333 
#    0.000   38.333    0.000    2.000    0.000    0.000 
#    0.000    0.000    0.000    0.000    0.000    0.000 
#
# Total GULP energy -67493.733694 kJ/mol
# GULP energy per Si atom -5624.477808 kJ/mol
# Density = 2.963231 g / cm^3
# Si number density = 29.699905 Si / 1000 Ang^3
#
#
#
# Elastic Constant Matrix: (Units=GPa)
#
#
# Indices 1 2 3 4 5 6 
#
# 1 189.1386 74.9821 15.9770 0.0000 15.5501 0.0000
# 2 74.9821 184.2908 28.1699 0.0000 -5.8578 0.0000
# 3 15.9770 28.1699 144.1357 0.0000 -25.1495 0.0000
# 4 0.0000 0.0000 0.0000 62.8357 0.0000 -9.8082
# 5 15.5501 -5.8578 -25.1495 0.0000 52.6723 0.0000
# 6 0.0000 0.0000 0.0000 -9.8082 0.0000 85.6198
#
#
#
# Elastic Compliance Matrix: (Units=1/GPa)
#
#
# Indices 1 2 3 4 5 6 
#
# 1 0.006612 -0.002671 -0.000658 0.000000 -0.002564 0.000000
# 2 -0.002671 0.006673 -0.000808 0.000000 0.001145 0.000000
# 3 -0.000658 -0.000808 0.007840 0.000000 0.003848 0.000000
# 4 0.000000 0.000000 0.000000 0.016204 0.000000 0.001856
# 5 -0.002564 0.001145 0.003848 0.000000 0.021707 0.000000
# 6 0.000000 0.000000 0.000000 0.001856 0.000000 0.011892
#
#
# Mechanical properties :
#
#
# Convention : Reuss Voigt Hill
#
# Bulk Modulus (GPa) = 77.82009 83.98034 80.90022
# Shear Modulus (GPa) = 59.88890 66.78796 63.33843
#
# Velocity S-wave (km/s) = 4.49538 4.74725 4.62303
# Velocity P-wave (km/s) = 7.29408 7.64109 7.46960
#
# Compressibility (1/GPa) = 0.01285015
#
# Stress axis : x y z
#
# Youngs Moduli (GPa) = 151.22891 149.85738 127.54697
#
# Poissons Ratio (x) = 0.40031 0.08395
# Poissons Ratio (y) = 0.40398 0.10310
# Poissons Ratio (z) = 0.09954 0.12113
#
# Static dielectric constant tensor:
#      x y z
#    x 2.279800 0.000000 -0.031620 
#    y 0.000000 2.165690 0.000000 
#    z -0.031620 0.000000 2.433000 
# 
# From -- ./inp_files/18882.got.cif
#   From: 2010.05.17/outbox.cif.g08.bks.cpg/sg9_10_cif.got.tgz:18882.got - 2010.06.03 20:04:27.
