data_PCOD9137880
_publ_section_title
;
Structure prediction by ZEFSAII (Michael W. Deem and Ramdas Pophale) SiO2 
 PCOD9137880
Probable space group: C C
;
_chemical_formula_sum "Si O2"
_cell_formula_units_Z 32
_cell_length_a 6.678164
_cell_length_b 13.860186
_cell_length_c 14.373872
_cell_angle_alpha 90.000000
_cell_angle_beta 97.704203
_cell_angle_gamma 90.000000
_cell_volume 1318.444628
_symmetry_space_group_name_H-M "C C"
_symmetry_group_IT_number 9
_symmetry_cell_setting 'monoclinic'
loop_
_space_group_symop_operation_xyz
x,y,z
x,-y,1/2+z
1/2+x,1/2+y,z
1/2+x,1/2-y,1/2+z
loop_
_atom_site_type_symbol
_atom_site_label
_atom_site_fract_x
_atom_site_fract_y
_atom_site_fract_z
Si Si1 0.491280 0.117894 0.586520
Si Si2 0.118454 0.930591 0.703169
Si Si3 0.567707 0.821513 0.393778
Si Si4 0.777721 0.552277 0.006478
Si Si5 0.319804 0.739250 0.211110
Si Si6 0.989578 0.216080 0.964873
Si Si7 0.263555 0.465973 0.258778
Si Si8 0.515869 0.150664 0.293284
O O1 0.347493 0.163779 0.655786
O O2 0.592146 0.212304 0.546380
O O3 0.368262 0.055490 0.503322
O O4 0.651436 0.053697 0.653199
O O5 0.241690 0.948581 0.616226
O O6 0.291126 0.888683 0.779459
O O7 0.947726 0.849119 0.675741
O O8 0.996364 0.016056 0.746296
O O9 0.435559 0.883756 0.457284
O O10 0.424782 0.756779 0.318996
O O11 0.748834 0.775864 0.464471
O O12 0.695422 0.882046 0.324207
O O13 0.569138 0.606594 0.966497
O O14 0.088541 0.707815 0.205942
O O15 0.034932 0.270998 0.873338
O O16 0.170658 0.561285 0.301854
#
# Coordination Sequence:
#
# PCOD9137880 Si02
#       8
#     4   4   4   4   4   4   4   4
#     4  11  25  45  68 102 145 191 244 304 372 441
#     4  11  23  44  74 104 137 192 244 296 375 445
#     4  11  25  45  69 103 145 190 237 304 367 440
#     4  12  26  46  67 106 146 188 242 306 371 438
#     4  10  22  45  68 100 140 189 239 296 369 446
#     4  12  26  44  70 105 148 185 242 309 379 435
#     4  10  25  46  73 101 144 188 247 301 359 455
#     4  11  22  45  73 101 139 187 241 298 366 450
#
# _framework density 24.271021999999999
#
# number of rings (size 3 to 8) (size 9 to 14) (size 15 to 20)
#    0.000    1.000    5.000    0.750    3.500    3.000 
#    2.250    0.000    0.000    0.000    0.000    0.000 
#    0.000    0.000    0.000    0.000    0.000    0.000 
#
# Total GULP energy -89263.033796 kJ/mol
# GULP energy per Si atom -5578.939612 kJ/mol
# Density = 2.421578 g / cm^3
# Si number density = 24.271022 Si / 1000 Ang^3
#
#
#
# Elastic Constant Matrix: (Units=GPa)
#
#
# Indices 1 2 3 4 5 6 
#
# 1 122.9445 21.3063 25.0253 0.0000 -16.7210 0.0000
# 2 21.3063 56.4704 5.6312 0.0000 0.4905 0.0000
# 3 25.0253 5.6312 55.3607 0.0000 -10.6312 0.0000
# 4 0.0000 0.0000 0.0000 45.3955 0.0000 -4.3476
# 5 -16.7210 0.4905 -10.6312 0.0000 32.3375 0.0000
# 6 0.0000 0.0000 0.0000 -4.3476 0.0000 26.5202
#
#
#
# Elastic Compliance Matrix: (Units=1/GPa)
#
#
# Indices 1 2 3 4 5 6 
#
# 1 0.009978 -0.003464 -0.003370 0.000000 0.004104 0.000000
# 2 -0.003464 0.019119 -0.000831 0.000000 -0.002355 0.000000
# 3 -0.003370 -0.000831 0.020642 0.000000 0.005056 0.000000
# 4 0.000000 0.000000 0.000000 0.022380 0.000000 0.003669
# 5 0.004104 -0.002355 0.005056 0.000000 0.034744 0.000000
# 6 0.000000 0.000000 0.000000 0.003669 0.000000 0.038309
#
#
# Mechanical properties :
#
#
# Convention : Reuss Voigt Hill
#
# Bulk Modulus (GPa) = 29.06237 37.63347 33.34792
# Shear Modulus (GPa) = 29.07449 33.03817 31.05633
#
# Velocity S-wave (km/s) = 3.46484 3.69347 3.58098
# Velocity P-wave (km/s) = 5.29215 5.80760 5.55586
#
# Compressibility (1/GPa) = 0.03440876
#
# Stress axis : x y z
#
# Youngs Moduli (GPa) = 100.21754 52.30452 48.44431
#
# Poissons Ratio (x) = 0.18120 0.16326
# Poissons Ratio (y) = 0.34719 0.04025
# Poissons Ratio (z) = 0.33774 0.04346
#
# Static dielectric constant tensor:
#      x y z
#    x 1.949320 0.000000 0.016590 
#    y 0.000000 2.018650 0.000000 
#    z 0.016590 0.000000 2.029640 
# 
# From -- ./inp_files/28581.got.cif
#   From: 2010.05.17/outbox.cif.g08.bks.cpg/sg9_15_cif.got.tgz:28581.got - 2010.06.03 20:04:27.
