data_PCOD9137466
_publ_section_title
;
Structure prediction by ZEFSAII (Michael W. Deem and Ramdas Pophale) SiO2 
 PCOD9137466
Probable space group: C C
;
_chemical_formula_sum "Si O2"
_cell_formula_units_Z 32
_cell_length_a 8.151937
_cell_length_b 32.194440
_cell_length_c 5.774344
_cell_angle_alpha 90.000000
_cell_angle_beta 60.639861
_cell_angle_gamma 90.000000
_cell_volume 1320.806519
_symmetry_space_group_name_H-M "C C"
_symmetry_group_IT_number 9
_symmetry_cell_setting 'monoclinic'
loop_
_space_group_symop_operation_xyz
x,y,z
x,-y,1/2+z
1/2+x,1/2+y,z
1/2+x,1/2-y,1/2+z
loop_
_atom_site_type_symbol
_atom_site_label
_atom_site_fract_x
_atom_site_fract_y
_atom_site_fract_z
Si Si1 0.418190 0.389522 0.288410
Si Si2 0.341036 0.515757 0.936033
Si Si3 0.669431 0.664032 0.963764
Si Si4 0.442015 0.816212 0.905509
Si Si5 0.301333 0.106227 0.259916
Si Si6 0.103317 0.224913 0.381699
Si Si7 0.904591 0.486694 0.726197
Si Si8 0.755366 0.806844 0.372007
O O1 0.346339 0.434054 0.420584
O O2 0.524891 0.363150 0.413472
O O3 0.268032 0.355552 0.298590
O O4 0.584154 0.397635 0.990614
O O5 0.420680 0.499128 0.631963
O O6 0.123726 0.500232 0.091038
O O7 0.829575 0.689445 0.717843
O O8 0.785942 0.631222 0.034648
O O9 0.554322 0.696616 0.197958
O O10 0.411255 0.864910 0.866342
O O11 0.305292 0.792582 0.821017
O O12 0.632723 0.773290 0.314384
O O13 0.391348 0.061773 0.180791
O O14 0.153553 0.304601 0.692942
O O15 0.962911 0.211281 0.684142
O O16 0.825114 0.507450 0.544068
#
# Coordination Sequence:
#
# PCOD9137466 Si02
#       8
#     4   4   4   4   4   4   4   4
#     4  11  24  43  70 101 143 188 238 309 371 442
#     4  10  24  45  70 104 149 189 249 309 370 450
#     4  10  22  46  64 101 136 181 242 302 358 445
#     4  10  22  43  67  93 134 182 230 299 356 432
#     4  10  22  42  66  95 139 177 238 300 360 438
#     4  11  23  45  65  96 140 178 240 299 360 436
#     4  10  23  42  66 101 140 191 241 301 372 448
#     4  12  22  46  68  95 143 186 230 305 371 427
#
# _framework density 24.227619000000001
#
# number of rings (size 3 to 8) (size 9 to 14) (size 15 to 20)
#    0.000    1.500    5.000    0.750    5.250    1.000 
#   11.250    0.000    0.000    0.000    0.000    0.000 
#    0.000    0.000    0.000    0.000    0.000    0.000 
#
# Total GULP energy -89244.153087 kJ/mol
# GULP energy per Si atom -5577.759568 kJ/mol
# Density = 2.417248 g / cm^3
# Si number density = 24.227619 Si / 1000 Ang^3
#
#
#
# Elastic Constant Matrix: (Units=GPa)
#
#
# Indices 1 2 3 4 5 6 
#
# 1 76.7959 17.5824 37.0599 0.0000 -2.0064 0.0000
# 2 17.5824 131.2037 12.6546 0.0000 10.9240 0.0000
# 3 37.0599 12.6546 110.2451 0.0000 -3.7045 0.0000
# 4 0.0000 0.0000 0.0000 29.8092 0.0000 -11.0356
# 5 -2.0064 10.9240 -3.7045 0.0000 42.2225 0.0000
# 6 0.0000 0.0000 0.0000 -11.0356 0.0000 23.6431
#
#
#
# Elastic Compliance Matrix: (Units=1/GPa)
#
#
# Indices 1 2 3 4 5 6 
#
# 1 0.015904 -0.001699 -0.005126 0.000000 0.000746 0.000000
# 2 -0.001699 0.008075 -0.000430 0.000000 -0.002208 0.000000
# 3 -0.005126 -0.000430 0.010871 0.000000 0.000821 0.000000
# 4 0.000000 0.000000 0.000000 0.040554 0.000000 0.018929
# 5 0.000746 -0.002208 0.000821 0.000000 0.024363 0.000000
# 6 0.000000 0.000000 0.000000 0.018929 0.000000 0.051131
#
#
# Mechanical properties :
#
#
# Convention : Reuss Voigt Hill
#
# Bulk Modulus (GPa) = 49.16583 50.31538 49.74061
# Shear Modulus (GPa) = 29.03821 35.86480 32.45151
#
# Velocity S-wave (km/s) = 3.46578 3.85168 3.66381
# Velocity P-wave (km/s) = 6.02933 6.37130 6.20267
#
# Compressibility (1/GPa) = 0.02033933
#
# Stress axis : x y z
#
# Youngs Moduli (GPa) = 62.87837 123.84401 91.98915
#
# Poissons Ratio (x) = 0.21040 0.47155
# Poissons Ratio (y) = 0.10682 0.03955
# Poissons Ratio (z) = 0.32232 0.05325
#
# Static dielectric constant tensor:
#      x y z
#    x 1.978110 0.000000 0.021720 
#    y 0.000000 1.907340 0.000000 
#    z 0.021720 0.000000 1.985540 
# 
# From -- ./inp_files/1352.got.cif
#   From: 2010.05.17/outbox.cif.g08.bks.cpg/sg9_1_cif.got.tgz:1352.got - 2010.06.03 20:04:27.
