data_PCOD9137648
_publ_section_title
;
Structure prediction by ZEFSAII (Michael W. Deem and Ramdas Pophale) SiO2 
 PCOD9137648
Probable space group: C C
;
_chemical_formula_sum "Si O2"
_cell_formula_units_Z 32
_cell_length_a 21.985499
_cell_length_b 12.041919
_cell_length_c 9.041890
_cell_angle_alpha 90.000000
_cell_angle_beta 39.871845
_cell_angle_gamma 90.000000
_cell_volume 1534.611483
_symmetry_space_group_name_H-M "C C"
_symmetry_group_IT_number 9
_symmetry_cell_setting 'monoclinic'
loop_
_space_group_symop_operation_xyz
x,y,z
x,-y,1/2+z
1/2+x,1/2+y,z
1/2+x,1/2-y,1/2+z
loop_
_atom_site_type_symbol
_atom_site_label
_atom_site_fract_x
_atom_site_fract_y
_atom_site_fract_z
Si Si1 0.486620 0.410620 0.384650
Si Si2 0.373715 0.841540 0.703369
Si Si3 0.556220 0.052177 0.738341
Si Si4 0.118416 0.006122 0.890882
Si Si5 0.819922 0.089380 0.755416
Si Si6 0.688126 0.993875 0.249182
Si Si7 0.250323 0.947823 0.401724
Si Si8 0.432829 0.841540 0.936697
O O1 0.561349 0.421605 0.378918
O O2 0.403271 0.500000 0.570033
O O3 0.451136 0.286191 0.434750
O O4 0.541982 0.441687 0.131605
O O5 0.460085 0.880602 0.438156
O O6 0.355406 0.713809 0.705318
O O7 0.403273 0.857430 0.820031
O O8 0.284963 0.923273 0.839933
O O9 0.617437 0.070457 0.477331
O O10 0.623265 0.071761 0.753919
O O11 0.521580 0.923273 0.800136
O O12 0.183278 0.071757 0.886140
O O13 0.189104 0.929539 0.662734
O O14 0.745193 0.078397 0.761147
O O15 0.764560 0.058311 0.008461
O O16 0.346457 0.880602 0.201909
#
# Coordination Sequence:
#
# PCOD9137648 Si02
#       8
#     4   4   4   4   4   4   4   4
#     4  11  24  46  64  96 137 178 215 269 336 397
#     4  11  22  42  71  97 135 171 220 269 340 382
#     4  10  22  44  67 102 127 171 222 278 323 389
#     4  10  22  43  68  95 134 167 224 268 322 389
#     4  11  24  46  64  96 137 178 215 269 336 397
#     4  10  22  43  68  95 134 167 224 268 322 389
#     4  10  22  44  67 102 127 171 222 278 323 389
#     4  11  22  42  71  97 135 171 220 269 340 382
#
# _framework density 20.852183
#
# number of rings (size 3 to 8) (size 9 to 14) (size 15 to 20)
#    0.000    1.500    2.500    2.250    0.000    4.000 
#   18.000    3.750    0.000    0.000    0.000    0.000 
#    0.000    0.000    0.000    0.000    0.000    0.000 
#
# Total GULP energy -89446.700413 kJ/mol
# GULP energy per Si atom -5590.418776 kJ/mol
# Density = 2.080472 g / cm^3
# Si number density = 20.852183 Si / 1000 Ang^3
#
#
#
# Elastic Constant Matrix: (Units=GPa)
#
#
# Indices 1 2 3 4 5 6 
#
# 1 86.2005 11.1718 27.3517 0.0000 7.9169 0.0000
# 2 11.1718 86.6164 46.3606 0.0000 -10.2117 0.0000
# 3 27.3517 46.3606 198.5717 0.0000 -0.1043 0.0000
# 4 0.0000 0.0000 0.0000 6.2781 0.0000 -2.9184
# 5 7.9169 -10.2117 -0.1043 0.0000 37.0071 0.0000
# 6 0.0000 0.0000 0.0000 -2.9184 0.0000 13.4511
#
#
#
# Elastic Compliance Matrix: (Units=1/GPa)
#
#
# Indices 1 2 3 4 5 6 
#
# 1 0.012489 -0.001193 -0.001443 0.000000 -0.003005 0.000000
# 2 -0.001193 0.013815 -0.003059 0.000000 0.004059 0.000000
# 3 -0.001443 -0.003059 0.005949 0.000000 -0.000519 0.000000
# 4 0.000000 0.000000 0.000000 0.177150 0.000000 0.038436
# 5 -0.003005 0.004059 -0.000519 0.000000 0.028783 0.000000
# 6 0.000000 0.000000 0.000000 0.038436 0.000000 0.082683
#
#
# Mechanical properties :
#
#
# Convention : Reuss Voigt Hill
#
# Bulk Modulus (GPa) = 47.93194 60.12852 54.03023
# Shear Modulus (GPa) = 14.74002 30.44756 22.59379
#
# Velocity S-wave (km/s) = 2.66161 3.82535 3.29526
# Velocity P-wave (km/s) = 5.69930 6.95768 6.35969
#
# Compressibility (1/GPa) = 0.02086292
#
# Stress axis : x y z
#
# Youngs Moduli (GPa) = 80.06770 72.38655 168.10427
#
# Poissons Ratio (x) = 0.08633 0.24265
# Poissons Ratio (y) = 0.09549 0.51422
# Poissons Ratio (z) = 0.11558 0.22143
#
# Static dielectric constant tensor:
#      x y z
#    x 1.755170 0.000000 -0.001900 
#    y 0.000000 1.701860 0.000000 
#    z -0.001900 0.000000 1.758260 
# 
# From -- ./inp_files/12185.got.cif
#   From: 2010.05.17/outbox.cif.g08.bks.cpg/sg9_7_cif.got.tgz:12185.got - 2010.06.03 20:04:27.
