data_PCOD9137306
_publ_section_title
;
Structure prediction by ZEFSAII (Michael W. Deem and Ramdas Pophale) SiO2 
 PCOD9137306
Probable space group: C C
;
_chemical_formula_sum "Si O2"
_cell_formula_units_Z 32
_cell_length_a 10.205943
_cell_length_b 10.767444
_cell_length_c 10.088801
_cell_angle_alpha 90.000000
_cell_angle_beta 90.266932
_cell_angle_gamma 90.000000
_cell_volume 1108.665678
_symmetry_space_group_name_H-M "C C"
_symmetry_group_IT_number 9
_symmetry_cell_setting 'monoclinic'
loop_
_space_group_symop_operation_xyz
x,y,z
x,-y,1/2+z
1/2+x,1/2+y,z
1/2+x,1/2-y,1/2+z
loop_
_atom_site_type_symbol
_atom_site_label
_atom_site_fract_x
_atom_site_fract_y
_atom_site_fract_z
Si Si1 0.372510 0.867297 0.104530
Si Si2 0.193099 0.036702 0.954233
Si Si3 0.381982 0.702557 0.647735
Si Si4 0.456488 0.555489 0.149878
Si Si5 0.018968 0.559306 0.244969
Si Si6 0.710329 0.858647 0.523512
Si Si7 0.636005 0.800863 0.968110
Si Si8 0.046080 0.198839 0.373784
O O1 0.249263 0.774515 0.093510
O O2 0.328498 0.986691 0.013852
O O3 0.430297 0.936140 0.234606
O O4 0.491214 0.800594 0.028771
O O5 0.095427 0.047882 0.079669
O O6 0.181284 0.174026 0.895414
O O7 0.133372 0.926373 0.868146
O O8 0.422240 0.575048 0.717911
O O9 0.422114 0.821297 0.733635
O O10 0.235808 0.695506 0.591073
O O11 0.466281 0.706099 0.510567
O O12 0.345510 0.568200 0.035674
O O13 0.449569 0.669345 0.252850
O O14 0.107156 0.568171 0.113060
O O15 0.121456 0.587934 0.363037
O O16 0.646766 0.812958 0.386272
#
# Coordination Sequence:
#
# PCOD9137306 Si02
#       8
#     4   4   4   4   4   4   4   4
#     4  11  24  44  64 102 137 172 228 281 325 411
#     4  10  22  41  63  93 136 169 230 274 318 417
#     4  10  22  41  64  97 135 170 232 280 325 416
#     4  11  20  42  66  93 135 179 220 278 342 397
#     4  11  24  43  68  97 135 180 220 283 344 394
#     4  10  22  42  65  98 138 166 231 276 325 414
#     4  12  23  42  67  98 134 181 220 280 347 395
#     4   9  21  39  67  96 126 185 219 272 348 388
#
# _framework density 28.863524999999999
#
# number of rings (size 3 to 8) (size 9 to 14) (size 15 to 20)
#    0.000    1.500    2.500    3.000    0.000    3.000 
#    6.750    0.000    0.000    0.000    0.000    0.000 
#    0.000    0.000    0.000    0.000    0.000    0.000 
#
# Total GULP energy -89679.923679 kJ/mol
# GULP energy per Si atom -5604.995230 kJ/mol
# Density = 2.879783 g / cm^3
# Si number density = 28.863525 Si / 1000 Ang^3
#
#
#
# Elastic Constant Matrix: (Units=GPa)
#
#
# Indices 1 2 3 4 5 6 
#
# 1 135.8822 27.0598 28.0221 0.0000 28.9108 0.0000
# 2 27.0598 147.9461 -6.1723 0.0000 8.9905 0.0000
# 3 28.0221 -6.1723 109.8936 0.0000 17.6845 0.0000
# 4 0.0000 0.0000 0.0000 38.7928 0.0000 19.9284
# 5 28.9108 8.9905 17.6845 0.0000 44.6218 0.0000
# 6 0.0000 0.0000 0.0000 19.9284 0.0000 55.9020
#
#
#
# Elastic Compliance Matrix: (Units=1/GPa)
#
#
# Indices 1 2 3 4 5 6 
#
# 1 0.009017 -0.001416 -0.001586 0.000000 -0.004928 0.000000
# 2 -0.001416 0.007109 0.000901 0.000000 -0.000872 0.000000
# 3 -0.001586 0.000901 0.010060 0.000000 -0.003141 0.000000
# 4 0.000000 0.000000 0.000000 0.031557 0.000000 -0.011250
# 5 -0.004928 -0.000872 -0.003141 0.000000 0.027024 0.000000
# 6 0.000000 0.000000 0.000000 -0.011250 0.000000 0.021899
#
#
# Mechanical properties :
#
#
# Convention : Reuss Voigt Hill
#
# Bulk Modulus (GPa) = 45.48792 54.61567 50.05179
# Shear Modulus (GPa) = 42.30271 50.85080 46.57675
#
# Velocity S-wave (km/s) = 3.83248 4.20189 4.02143
# Velocity P-wave (km/s) = 5.94792 6.51953 6.24028
#
# Compressibility (1/GPa) = 0.02198386
#
# Stress axis : x y z
#
# Youngs Moduli (GPa) = 110.90338 140.67186 99.40249
#
# Poissons Ratio (x) = 0.19917 0.15762
# Poissons Ratio (y) = 0.15703 -0.08952
# Poissons Ratio (z) = 0.17586 -0.12669
#
# Static dielectric constant tensor:
#      x y z
#    x 2.169850 0.000000 0.052780 
#    y 0.000000 2.335190 0.000000 
#    z 0.052780 0.000000 2.273350 
# 
# From -- ./inp_files/16402.got.cif
#   From: 2010.05.17/outbox.cif.g08.bks.cpg/sg9_9_cif.got.tgz:16402.got - 2010.06.03 20:04:27.
