data_PCOD9137073
_publ_section_title
;
Structure prediction by ZEFSAII (Michael W. Deem and Ramdas Pophale) SiO2 
 PCOD9137073
Probable space group: C C
;
_chemical_formula_sum "Si O2"
_cell_formula_units_Z 28
_cell_length_a 7.277381
_cell_length_b 17.278663
_cell_length_c 8.965107
_cell_angle_alpha 90.000000
_cell_angle_beta 90.468553
_cell_angle_gamma 90.000000
_cell_volume 1127.265465
_symmetry_space_group_name_H-M "C C"
_symmetry_group_IT_number 9
_symmetry_cell_setting 'monoclinic'
loop_
_space_group_symop_operation_xyz
x,y,z
x,-y,1/2+z
1/2+x,1/2+y,z
1/2+x,1/2-y,1/2+z
loop_
_atom_site_type_symbol
_atom_site_label
_atom_site_fract_x
_atom_site_fract_y
_atom_site_fract_z
Si Si1 0.517160 0.669524 0.008940
Si Si2 0.839006 0.258775 0.387662
Si Si3 0.579718 0.538428 0.768305
Si Si4 0.158785 0.529793 0.703656
Si Si5 0.372558 0.860806 0.096859
Si Si6 0.104114 0.385868 0.516141
Si Si7 0.121356 0.862701 0.838949
O O1 0.611613 0.664026 0.169383
O O2 0.625031 0.738664 0.927075
O O3 0.569866 0.596026 0.907538
O O4 0.298693 0.659003 0.020881
O O5 0.868311 0.293220 0.220771
O O6 0.938515 0.176925 0.405817
O O7 0.948837 0.321798 0.489156
O O8 0.378679 0.532211 0.693236
O O9 0.728425 0.574858 0.659057
O O10 0.625682 0.454430 0.828822
O O11 0.091656 0.444552 0.654970
O O12 0.107512 0.557732 0.870420
O O13 0.064416 0.594677 0.600120
O O14 0.290140 0.835611 0.939702
#
# Coordination Sequence:
#
# PCOD9137073 Si02
#       7
#     4   4   4   4   4   4   4
#     4  10  23  46  69  94 140 182 225 290 346 402
#     4  10  26  48  61  97 147 185 221 294 349 417
#     4  10  22  44  69 100 137 176 232 293 340 414
#     4  10  22  38  67 100 130 174 226 289 341 402
#     4  10  25  43  68 102 141 175 234 290 349 411
#     4  10  22  41  68  98 137 174 235 286 346 420
#     4  12  24  42  74 101 136 186 239 276 355 426
#
# _framework density 24.838871000000001
#
# number of rings (size 3 to 8) (size 9 to 14) (size 15 to 20)
#    0.000    1.714    1.429    0.857   12.000    0.000 
#   10.286    1.429    0.000    0.000    0.000    0.000 
#    0.000    0.000    0.000    0.000    0.000    0.000 
#
# Total GULP energy -78393.607208 kJ/mol
# GULP energy per Si atom -5599.543372 kJ/mol
# Density = 2.478234 g / cm^3
# Si number density = 24.838871 Si / 1000 Ang^3
#
#
#
# Elastic Constant Matrix: (Units=GPa)
#
#
# Indices 1 2 3 4 5 6 
#
# 1 99.5229 23.8981 48.4998 0.0000 13.3480 0.0000
# 2 23.8981 105.4861 28.5365 0.0000 -3.3832 0.0000
# 3 48.4998 28.5365 100.0906 0.0000 37.2727 0.0000
# 4 0.0000 0.0000 0.0000 4.9307 0.0000 21.7864
# 5 13.3480 -3.3832 37.2727 0.0000 26.7947 0.0000
# 6 0.0000 0.0000 0.0000 21.7864 0.0000 27.8548
#
#
#
# Elastic Compliance Matrix: (Units=1/GPa)
#
#
# Indices 1 2 3 4 5 6 
#
# 1 0.013513 -0.000816 -0.007822 0.000000 0.004046 0.000000
# 2 -0.000816 0.012222 -0.007916 0.000000 0.012961 0.000000
# 3 -0.007822 -0.007916 0.031036 0.000000 -0.040276 0.000000
# 4 0.000000 0.000000 0.000000 -0.082581 0.000000 0.064590
# 5 0.004046 0.012961 -0.040276 0.000000 0.092967 0.000000
# 6 0.000000 0.000000 0.000000 0.064590 0.000000 -0.014618
#
#
# Mechanical properties :
#
#
# Convention : Reuss Voigt Hill
#
# Bulk Modulus (GPa) = 42.25775 56.32981 49.29378
# Shear Modulus (GPa) = 53.45655 25.52706 39.49180
#
# Velocity S-wave (km/s) = 4.64414 3.20926 3.99171
# Velocity P-wave (km/s) = 6.76809 6.03820 6.41354
#
# Compressibility (1/GPa) = 0.02366430
#
# Stress axis : x y z
#
# Youngs Moduli (GPa) = 74.00291 81.82130 32.22018
#
# Poissons Ratio (x) = 0.06673 0.25203
# Poissons Ratio (y) = 0.06035 0.25505
# Poissons Ratio (z) = 0.57887 0.64768
#
# Static dielectric constant tensor:
#      x y z
#    x 1.952420 0.000000 -0.023030 
#    y 0.000000 1.951400 0.000000 
#    z -0.023030 0.000000 1.979490 
# 
# From -- ./inp_files/5406.got.cif
#   From: 2010.05.17/outbox.cif.g08.bks.cpg/sg9_3_cif.got.tgz:5406.got - 2010.06.03 20:04:27.
