data_PCOD9137992
_publ_section_title
;
Structure prediction by ZEFSAII (Michael W. Deem and Ramdas Pophale) SiO2 
 PCOD9137992
Probable space group: C C
;
_chemical_formula_sum "Si O2"
_cell_formula_units_Z 28
_cell_length_a 15.703054
_cell_length_b 7.256290
_cell_length_c 19.981855
_cell_angle_alpha 90.000000
_cell_angle_beta 26.543818
_cell_angle_gamma 90.000000
_cell_volume 1017.483834
_symmetry_space_group_name_H-M "C C"
_symmetry_group_IT_number 9
_symmetry_cell_setting 'monoclinic'
loop_
_space_group_symop_operation_xyz
x,y,z
x,-y,1/2+z
1/2+x,1/2+y,z
1/2+x,1/2-y,1/2+z
loop_
_atom_site_type_symbol
_atom_site_label
_atom_site_fract_x
_atom_site_fract_y
_atom_site_fract_z
Si Si1 0.129930 0.076830 0.710130
Si Si2 0.035752 0.541663 0.229307
Si Si3 0.624629 0.339848 0.367182
Si Si4 0.511675 0.937855 0.403713
Si Si5 0.036338 0.751054 0.619120
Si Si6 0.161834 0.179434 0.406111
Si Si7 0.786227 0.978753 0.870796
O O1 0.113012 0.098532 0.799905
O O2 0.288132 0.928827 0.578878
O O3 0.166784 0.275674 0.647855
O O4 0.917545 0.028349 0.839460
O O5 0.014757 0.469333 0.321129
O O6 0.097883 0.371311 0.139480
O O7 0.849640 0.618169 0.317973
O O8 0.563824 0.127453 0.407220
O O9 0.849628 0.342892 0.221002
O O10 0.540438 0.494813 0.476707
O O11 0.643398 0.779434 0.344772
O O12 0.952982 0.949992 0.697762
O O13 0.197151 0.718992 0.451076
O O14 0.126027 0.367022 0.473160
#
# Coordination Sequence:
#
# PCOD9137992 Si02
#       7
#     4   4   4   4   4   4   4
#     4  10  24  42  66 102 144 189 246 308 364 458
#     4   9  24  42  68 101 147 193 244 306 375 450
#     4  10  23  44  69 105 142 187 251 309 370 455
#     4  11  22  46  71 106 149 192 252 311 380 453
#     4  11  24  45  70 105 144 195 244 311 378 451
#     4  10  22  46  71 106 141 201 244 311 380 461
#     4  11  25  45  71 103 151 193 251 306 381 458
#
# _framework density 27.518867
#
# number of rings (size 3 to 8) (size 9 to 14) (size 15 to 20)
#    0.000    1.714    1.429    0.857   10.000    0.000 
#    2.571    5.714    0.000    0.000    0.000    0.000 
#    0.000    0.000    0.000    0.000    0.000    0.000 
#
# Total GULP energy -78023.824439 kJ/mol
# GULP energy per Si atom -5573.130317 kJ/mol
# Density = 2.745623 g / cm^3
# Si number density = 27.518867 Si / 1000 Ang^3
#
#
#
# Elastic Constant Matrix: (Units=GPa)
#
#
# Indices 1 2 3 4 5 6 
#
# 1 170.6415 65.8399 20.7807 -0.0003 -4.6029 0.0001
# 2 65.8399 149.5955 23.9863 -0.0010 -6.0548 0.0002
# 3 20.7807 23.9863 55.8443 -0.0038 8.5852 0.0005
# 4 -0.0003 -0.0010 -0.0038 25.2109 0.0007 -4.5963
# 5 -4.6029 -6.0548 8.5852 0.0007 16.3101 0.0001
# 6 0.0001 0.0002 0.0005 -4.5963 0.0001 50.9763
#
#
#
# Elastic Compliance Matrix: (Units=1/GPa)
#
#
# Indices 1 2 3 4 5 6 
#
# 1 0.007213 -0.002813 -0.001772 0.000000 0.001924 0.000000
# 2 -0.002813 0.008618 -0.003291 0.000000 0.004138 0.000000
# 3 -0.001772 -0.003291 0.022027 0.000004 -0.013316 0.000000
# 4 0.000000 0.000000 0.000004 0.040328 -0.000004 0.003636
# 5 0.001924 0.004138 -0.013316 -0.000004 0.070400 0.000000
# 6 0.000000 0.000000 0.000000 0.003636 0.000000 0.019945
#
#
# Mechanical properties :
#
#
# Convention : Reuss Voigt Hill
#
# Bulk Modulus (GPa) = 45.23476 66.36611 55.80044
# Shear Modulus (GPa) = 26.08913 36.19776 31.14345
#
# Velocity S-wave (km/s) = 3.08237 3.63075 3.36774
# Velocity P-wave (km/s) = 5.39828 6.46107 5.95344
#
# Compressibility (1/GPa) = 0.02210689
#
# Stress axis : x y z
#
# Youngs Moduli (GPa) = 138.63564 116.03962 45.39895
#
# Poissons Ratio (x) = 0.32638 0.08044
# Poissons Ratio (y) = 0.38994 0.14941
# Poissons Ratio (z) = 0.24564 0.38188
#
# Static dielectric constant tensor:
#      x y z
#    x 2.180690 0.000000 -0.022910 
#    y 0.000000 2.242160 0.000000 
#    z -0.022910 0.000000 2.107330 
# 
# From -- ./inp_files/17565.got.cif
#   From: 2010.05.17/outbox.cif.g08.bks.cpg/sg9_9_cif.got.tgz:17565.got - 2010.06.03 20:04:27.
