data_PCOD9137514
_publ_section_title
;
Structure prediction by ZEFSAII (Michael W. Deem and Ramdas Pophale) SiO2 
 PCOD9137514
Probable space group: C C
;
_chemical_formula_sum "Si O2"
_cell_formula_units_Z 28
_cell_length_a 16.333506
_cell_length_b 6.353161
_cell_length_c 22.653270
_cell_angle_alpha 90.000000
_cell_angle_beta 149.770882
_cell_angle_gamma 90.000000
_cell_volume 1183.489429
_symmetry_space_group_name_H-M "C C"
_symmetry_group_IT_number 9
_symmetry_cell_setting 'monoclinic'
loop_
_space_group_symop_operation_xyz
x,y,z
x,-y,1/2+z
1/2+x,1/2+y,z
1/2+x,1/2-y,1/2+z
loop_
_atom_site_type_symbol
_atom_site_label
_atom_site_fract_x
_atom_site_fract_y
_atom_site_fract_z
Si Si1 0.738420 0.211443 0.467480
Si Si2 0.775909 0.172995 0.056831
Si Si3 0.344053 0.056913 0.437423
Si Si4 0.697828 0.026707 0.136969
Si Si5 0.761046 0.219881 0.291757
Si Si6 0.592701 0.938500 0.280117
Si Si7 0.022417 0.998144 0.394268
O O1 0.841585 0.018142 0.557780
O O2 0.606969 0.093508 0.344440
O O3 0.813502 0.389188 0.471677
O O4 0.653646 0.316227 0.471536
O O5 0.704838 0.092251 0.074226
O O6 0.922059 0.327606 0.163655
O O7 0.624436 0.300851 0.934410
O O8 0.536175 0.100067 0.552303
O O9 0.294976 0.933721 0.346808
O O10 0.231690 0.259941 0.372804
O O11 0.872107 0.925385 0.260171
O O12 0.705670 0.222183 0.189031
O O13 0.635540 0.082778 0.250768
O O14 0.928541 0.080636 0.393380
#
# Coordination Sequence:
#
# PCOD9137514 Si02
#       7
#     4   4   4   4   4   4   4
#     4  11  26  43  68 100 135 183 225 278 342 404
#     4  12  24  44  69  99 136 178 228 280 342 406
#     4  11  23  46  69  98 140 171 233 281 342 411
#     4  10  22  42  68  97 132 176 220 280 341 401
#     4   9  24  45  67 100 132 178 225 280 348 402
#     4  11  27  45  69 101 135 184 228 280 341 414
#     4  10  24  43  64  99 138 172 229 279 342 402
#
# _framework density 23.658852
#
# number of rings (size 3 to 8) (size 9 to 14) (size 15 to 20)
#    0.857    0.571    1.429    2.571    8.000    2.286 
#    0.000    1.429    0.000    0.000    0.000    0.000 
#    0.000    0.000    0.000    0.000    0.000    0.000 
#
# Total GULP energy -78121.609292 kJ/mol
# GULP energy per Si atom -5580.114949 kJ/mol
# Density = 2.360500 g / cm^3
# Si number density = 23.658852 Si / 1000 Ang^3
#
#
#
# Elastic Constant Matrix: (Units=GPa)
#
#
# Indices 1 2 3 4 5 6 
#
# 1 68.2422 18.4026 1.3713 0.0000 -4.6555 0.0000
# 2 18.4026 62.8123 17.7482 -0.0001 5.8380 0.0000
# 3 1.3713 17.7482 85.2728 -0.0002 23.7912 0.0000
# 4 0.0000 -0.0001 -0.0002 33.7016 0.0000 -1.4993
# 5 -4.6555 5.8380 23.7912 0.0000 40.2043 0.0000
# 6 0.0000 0.0000 0.0000 -1.4993 0.0000 32.9723
#
#
#
# Elastic Compliance Matrix: (Units=1/GPa)
#
#
# Indices 1 2 3 4 5 6 
#
# 1 0.016174 -0.004995 0.000065 0.000000 0.002559 0.000000
# 2 -0.004995 0.018465 -0.003418 0.000000 -0.001237 0.000000
# 3 0.000065 -0.003418 0.014728 0.000000 -0.008212 0.000000
# 4 0.000000 0.000000 0.000000 0.029732 0.000000 0.001352
# 5 0.002559 -0.001237 -0.008212 0.000000 0.030208 0.000000
# 6 0.000000 0.000000 0.000000 0.001352 0.000000 0.030390
#
#
# Mechanical properties :
#
#
# Convention : Reuss Voigt Hill
#
# Bulk Modulus (GPa) = 30.60665 32.37462 31.49064
# Shear Modulus (GPa) = 29.88951 33.29600 31.59275
#
# Velocity S-wave (km/s) = 3.55823 3.75552 3.65820
# Velocity P-wave (km/s) = 5.46315 5.70253 5.58413
#
# Compressibility (1/GPa) = 0.03267263
#
# Stress axis : x y z
#
# Youngs Moduli (GPa) = 61.82773 54.15784 67.89587
#
# Poissons Ratio (x) = 0.27052 -0.00444
# Poissons Ratio (y) = 0.30883 0.23204
# Poissons Ratio (z) = -0.00405 0.18509
#
# Static dielectric constant tensor:
#      x y z
#    x 1.888800 0.000000 -0.009750 
#    y 0.000000 1.894380 0.000000 
#    z -0.009750 0.000000 1.931750 
# 
# From -- ./inp_files/36807.got.cif
#   From: 2010.05.17/outbox.cif.g08.bks.cpg/sg9_19_cif.got.tgz:36807.got - 2010.06.03 20:04:27.
