data_PCOD9137293
_publ_section_title
;
Structure prediction by ZEFSAII (Michael W. Deem and Ramdas Pophale) SiO2 
 PCOD9137293
Probable space group: C C
;
_chemical_formula_sum "Si O2"
_cell_formula_units_Z 28
_cell_length_a 6.539691
_cell_length_b 17.465765
_cell_length_c 9.792929
_cell_angle_alpha 90.000000
_cell_angle_beta 102.913417
_cell_angle_gamma 90.000000
_cell_volume 1090.265760
_symmetry_space_group_name_H-M "C C"
_symmetry_group_IT_number 9
_symmetry_cell_setting 'monoclinic'
loop_
_space_group_symop_operation_xyz
x,y,z
x,-y,1/2+z
1/2+x,1/2+y,z
1/2+x,1/2-y,1/2+z
loop_
_atom_site_type_symbol
_atom_site_label
_atom_site_fract_x
_atom_site_fract_y
_atom_site_fract_z
Si Si1 0.013620 0.865432 0.639840
Si Si2 0.912629 0.536540 0.218773
Si Si3 0.325748 0.335832 0.914319
Si Si4 0.666946 0.037082 0.978989
Si Si5 0.385923 0.780164 0.930984
Si Si6 0.179493 0.882093 0.124939
Si Si7 0.995840 0.303505 0.347743
O O1 0.254720 0.891612 0.691824
O O2 0.960805 0.789243 0.543694
O O3 0.899526 0.858641 0.771856
O O4 0.903521 0.936809 0.543432
O O5 0.760963 0.462102 0.195713
O O6 0.086560 0.528284 0.364430
O O7 0.045436 0.528090 0.101602
O O8 0.087397 0.312450 0.887089
O O9 0.443847 0.253952 0.961476
O O10 0.434688 0.386112 0.048717
O O11 0.576083 0.114566 0.899554
O O12 0.199837 0.740014 0.815342
O O13 0.294079 0.852463 0.003439
O O14 0.275439 0.818382 0.240530
#
# Coordination Sequence:
#
# PCOD9137293 Si02
#       7
#     4   4   4   4   4   4   4
#     4  11  24  44  69 104 139 183 243 287 355 434
#     4  11  24  44  70  99 146 187 231 289 356 426
#     4  11  22  39  71  99 137 181 240 297 354 411
#     4  10  24  43  70 101 144 189 234 287 356 427
#     4  10  22  41  66  97 136 184 234 298 353 410
#     4  10  22  41  62 101 140 180 235 289 350 429
#     4   9  20  42  62  97 140 178 237 289 348 423
#
# _framework density 25.681811
#
# number of rings (size 3 to 8) (size 9 to 14) (size 15 to 20)
#    0.000    1.714    1.429    1.714    0.000    8.000 
#    0.000    5.714    0.000    0.000    0.000    0.000 
#    0.000    0.000    0.000    0.000    0.000    0.000 
#
# Total GULP energy -78168.194693 kJ/mol
# GULP energy per Si atom -5583.442478 kJ/mol
# Density = 2.562336 g / cm^3
# Si number density = 25.681811 Si / 1000 Ang^3
#
#
#
# Elastic Constant Matrix: (Units=GPa)
#
#
# Indices 1 2 3 4 5 6 
#
# 1 91.2689 2.0420 58.1926 0.0000 32.0655 0.0000
# 2 2.0420 101.7921 19.2494 0.0000 14.7006 0.0000
# 3 58.1926 19.2494 119.2318 0.0000 40.4086 0.0000
# 4 0.0000 0.0000 0.0000 -11.2016 0.0000 -1.4749
# 5 32.0655 14.7006 40.4086 0.0000 55.5326 0.0000
# 6 0.0000 0.0000 0.0000 -1.4749 0.0000 33.8965
#
#
#
# Elastic Compliance Matrix: (Units=1/GPa)
#
#
# Indices 1 2 3 4 5 6 
#
# 1 0.017169 0.001727 -0.006827 0.000000 -0.005403 0.000000
# 2 0.001727 0.010474 -0.001667 0.000000 -0.002557 0.000000
# 3 -0.006827 -0.001667 0.013941 0.000000 -0.005760 0.000000
# 4 0.000000 0.000000 0.000000 -0.088765 0.000000 -0.003862
# 5 -0.005403 -0.002557 -0.005760 0.000000 0.025996 0.000000
# 6 0.000000 0.000000 0.000000 -0.003862 0.000000 0.029334
#
#
# Mechanical properties :
#
#
# Convention : Reuss Voigt Hill
#
# Bulk Modulus (GPa) = 35.65294 52.36232 44.00763
# Shear Modulus (GPa) = 161.11750 31.16610 96.14180
#
# Velocity S-wave (km/s) = 7.92920 3.48738 6.12511
# Velocity P-wave (km/s) = 9.88647 6.05383 8.19729
#
# Compressibility (1/GPa) = 0.02804817
#
# Stress axis : x y z
#
# Youngs Moduli (GPa) = 58.24324 95.47618 71.73277
#
# Poissons Ratio (x) = -0.16488 0.48975
# Poissons Ratio (y) = -0.10058 0.11961
# Poissons Ratio (z) = 0.39765 0.15920
#
# Static dielectric constant tensor:
#      x y z
#    x 2.033090 0.000000 0.078510 
#    y 0.000000 2.096590 0.000000 
#    z 0.078510 0.000000 2.097590 
# 
# From -- ./inp_files/13290.got.cif
#   From: 2010.05.17/outbox.cif.g08.bks.cpg/sg9_7_cif.got.tgz:13290.got - 2010.06.03 20:04:27.
