data_PCOD9137034
_publ_section_title
;
Structure prediction by ZEFSAII (Michael W. Deem and Ramdas Pophale) SiO2 
 PCOD9137034
Probable space group: C C
;
_chemical_formula_sum "Si O2"
_cell_formula_units_Z 32
_cell_length_a 5.547212
_cell_length_b 25.832707
_cell_length_c 11.101008
_cell_angle_alpha 90.000000
_cell_angle_beta 48.051326
_cell_angle_gamma 90.000000
_cell_volume 1183.124744
_symmetry_space_group_name_H-M "C C"
_symmetry_group_IT_number 9
_symmetry_cell_setting 'monoclinic'
loop_
_space_group_symop_operation_xyz
x,y,z
x,-y,1/2+z
1/2+x,1/2+y,z
1/2+x,1/2-y,1/2+z
loop_
_atom_site_type_symbol
_atom_site_label
_atom_site_fract_x
_atom_site_fract_y
_atom_site_fract_z
Si Si1 0.085790 0.275380 0.106280
Si Si2 0.646146 0.418208 0.243019
Si Si3 0.315279 0.691889 0.026615
Si Si4 0.112986 0.010930 0.425315
Si Si5 0.357187 0.884230 0.747351
Si Si6 0.609261 0.867856 0.925658
Si Si7 0.235681 0.258072 0.310485
Si Si8 0.100327 0.568286 0.774258
O O1 0.048046 0.284356 0.260914
O O2 0.990297 0.218603 0.083783
O O3 0.984975 0.318964 0.044600
O O4 0.471730 0.276999 0.962311
O O5 0.528112 0.472448 0.341862
O O6 0.854168 0.395297 0.283031
O O7 0.336691 0.398674 0.275925
O O8 0.929066 0.417237 0.046226
O O9 0.184530 0.632852 0.067528
O O10 0.969660 0.719363 0.164043
O O11 0.413114 0.711391 0.860026
O O12 0.319219 0.055712 0.292603
O O13 0.359497 0.973114 0.415656
O O14 0.835636 0.036402 0.601950
O O15 0.459393 0.861925 0.844427
O O16 0.001106 0.872359 0.807507
#
# Coordination Sequence:
#
# PCOD9137034 Si02
#       8
#     4   4   4   4   4   4   4   4
#     4  11  23  41  68  95 132 183 220 287 340 409
#     4  10  22  39  65  93 129 169 220 280 334 401
#     4  11  23  42  64  99 132 182 221 288 340 406
#     4  10  23  41  66  95 132 175 224 282 340 410
#     4  12  24  40  71  98 133 177 240 279 338 418
#     4  12  23  43  68 101 129 181 237 281 335 422
#     4  10  22  41  64  92 137 167 229 270 352 397
#     4  10  22  37  66  91 132 168 217 277 339 399
#
# _framework density 27.04702
#
# number of rings (size 3 to 8) (size 9 to 14) (size 15 to 20)
#    0.750    0.500    3.750    2.250    7.000    0.000 
#    0.000    3.750    0.000    0.000    0.000    0.000 
#    0.000    0.000    0.000    0.000    0.000    0.000 
#
# Total GULP energy -89105.504076 kJ/mol
# GULP energy per Si atom -5569.094005 kJ/mol
# Density = 2.698546 g / cm^3
# Si number density = 27.047020 Si / 1000 Ang^3
#
#
#
# Elastic Constant Matrix: (Units=GPa)
#
#
# Indices 1 2 3 4 5 6 
#
# 1 225.4978 25.0229 14.1443 0.0000 8.9037 0.0000
# 2 25.0229 48.1894 13.7219 0.0000 5.5074 0.0000
# 3 14.1443 13.7219 89.2946 0.0000 12.4137 0.0000
# 4 0.0000 0.0000 0.0000 44.9233 0.0000 1.7401
# 5 8.9037 5.5074 12.4137 0.0000 45.6987 0.0000
# 6 0.0000 0.0000 0.0000 1.7401 0.0000 40.5038
#
#
#
# Elastic Compliance Matrix: (Units=1/GPa)
#
#
# Indices 1 2 3 4 5 6 
#
# 1 0.004732 -0.002303 -0.000318 0.000000 -0.000558 0.000000
# 2 -0.002303 0.022961 -0.002953 0.000000 -0.001516 0.000000
# 3 -0.000318 -0.002953 0.012102 0.000000 -0.002870 0.000000
# 4 0.000000 0.000000 0.000000 0.022297 0.000000 -0.000958
# 5 -0.000558 -0.001516 -0.002870 0.000000 0.022953 0.000000
# 6 0.000000 0.000000 0.000000 -0.000958 0.000000 0.024730
#
#
# Mechanical properties :
#
#
# Convention : Reuss Voigt Hill
#
# Bulk Modulus (GPa) = 34.90675 52.08444 43.49560
# Shear Modulus (GPa) = 38.32196 46.89799 42.60998
#
# Velocity S-wave (km/s) = 3.76821 4.16858 3.97344
# Velocity P-wave (km/s) = 5.64504 6.51677 6.09650
#
# Compressibility (1/GPa) = 0.02864775
#
# Stress axis : x y z
#
# Youngs Moduli (GPa) = 211.31975 43.55134 82.63118
#
# Poissons Ratio (x) = 0.10029 0.02629
# Poissons Ratio (y) = 0.48664 0.24400
# Poissons Ratio (z) = 0.06722 0.12860
#
# Static dielectric constant tensor:
#      x y z
#    x 2.126960 0.000000 -0.002540 
#    y 0.000000 2.189400 0.000000 
#    z -0.002540 0.000000 2.199890 
# 
# From -- ./inp_files/13909.got.cif
#   From: 2010.05.17/outbox.cif.g08.bks.cpg/sg9_7_cif.got.tgz:13909.got - 2010.06.03 20:04:27.
