data_PCOD9137255
_publ_section_title
;
Structure prediction by ZEFSAII (Michael W. Deem and Ramdas Pophale) SiO2 
 PCOD9137255
Probable space group: C C
;
_chemical_formula_sum "Si O2"
_cell_formula_units_Z 28
_cell_length_a 10.087962
_cell_length_b 15.495529
_cell_length_c 11.244422
_cell_angle_alpha 90.000000
_cell_angle_beta 45.843206
_cell_angle_gamma 90.000000
_cell_volume 1261.043950
_symmetry_space_group_name_H-M "C C"
_symmetry_group_IT_number 9
_symmetry_cell_setting 'monoclinic'
loop_
_space_group_symop_operation_xyz
x,y,z
x,-y,1/2+z
1/2+x,1/2+y,z
1/2+x,1/2-y,1/2+z
loop_
_atom_site_type_symbol
_atom_site_label
_atom_site_fract_x
_atom_site_fract_y
_atom_site_fract_z
Si Si1 0.898170 0.046625 0.158140
Si Si2 0.104880 0.529343 0.705585
Si Si3 0.301109 0.705309 0.564386
Si Si4 0.537745 0.699868 0.646526
Si Si5 0.736114 0.442190 0.875160
Si Si6 0.131142 0.127352 0.209081
Si Si7 0.793791 0.137776 0.013219
O O1 0.704012 0.996169 0.269379
O O2 0.008491 0.062595 0.208861
O O3 0.868305 0.134412 0.102586
O O4 0.039544 0.989983 0.992459
O O5 0.156474 0.626918 0.642558
O O6 0.206668 0.458176 0.557732
O O7 0.892190 0.503857 0.830431
O O8 0.369693 0.708900 0.658194
O O9 0.482581 0.680404 0.378830
O O10 0.232258 0.799348 0.570203
O O11 0.692499 0.638150 0.489211
O O12 0.633295 0.791630 0.605830
O O13 0.450602 0.659082 0.819614
O O14 0.769250 0.414632 0.718310
#
# Coordination Sequence:
#
# PCOD9137255 Si02
#       7
#     4   4   4   4   4   4   4
#     4  10  25  45  66  98 142 167 225 292 334 401
#     4  10  23  46  65 102 130 177 237 268 345 398
#     4  11  24  41  70  97 138 178 224 278 343 399
#     4  11  20  41  72  97 136 182 233 279 328 418
#     4  11  24  45  71 100 129 192 228 275 347 402
#     4  11  24  46  65  99 141 173 228 280 343 407
#     4  10  22  40  67  97 136 171 231 282 330 399
#
# _framework density 22.203824999999998
#
# number of rings (size 3 to 8) (size 9 to 14) (size 15 to 20)
#    0.857    0.571    2.857    3.429    6.000    1.143 
#    2.571    0.000    0.000    0.000    0.000    0.000 
#    0.000    0.000    0.000    0.000    0.000    0.000 
#
# Total GULP energy -78128.870239 kJ/mol
# GULP energy per Si atom -5580.633589 kJ/mol
# Density = 2.215329 g / cm^3
# Si number density = 22.203825 Si / 1000 Ang^3
#
#
#
# Elastic Constant Matrix: (Units=GPa)
#
#
# Indices 1 2 3 4 5 6 
#
# 1 82.2906 18.8799 5.0938 -0.0001 -19.9681 0.0001
# 2 18.8799 84.4952 -5.0885 -0.0001 -9.6386 0.0001
# 3 5.0938 -5.0885 31.2859 -0.0002 2.8488 0.0001
# 4 -0.0001 -0.0001 -0.0002 33.6817 0.0001 -11.7602
# 5 -19.9681 -9.6386 2.8488 0.0001 23.8655 0.0000
# 6 0.0001 0.0001 0.0001 -11.7602 0.0000 45.7363
#
#
#
# Elastic Compliance Matrix: (Units=1/GPa)
#
#
# Indices 1 2 3 4 5 6 
#
# 1 0.016117 -0.002368 -0.004195 0.000000 0.013029 0.000000
# 2 -0.002368 0.012832 0.002205 0.000000 0.002938 0.000000
# 3 -0.004195 0.002205 0.033609 0.000000 -0.006632 0.000000
# 4 0.000000 0.000000 0.000000 0.032618 0.000000 0.008387
# 5 0.013029 0.002938 -0.006632 0.000000 0.054781 0.000000
# 6 0.000000 0.000000 0.000000 0.008387 0.000000 0.024021
#
#
# Mechanical properties :
#
#
# Convention : Reuss Voigt Hill
#
# Bulk Modulus (GPa) = 18.57312 26.20469 22.38891
# Shear Modulus (GPa) = 24.92013 32.60247 28.76130
#
# Velocity S-wave (km/s) = 3.35376 3.83603 3.60298
# Velocity P-wave (km/s) = 4.83528 5.60782 5.23582
#
# Compressibility (1/GPa) = 0.05384125
#
# Stress axis : x y z
#
# Youngs Moduli (GPa) = 62.04815 77.93037 29.75404
#
# Poissons Ratio (x) = 0.18450 0.12483
# Poissons Ratio (y) = 0.14690 -0.06561
# Poissons Ratio (z) = 0.26032 -0.17183
#
# Static dielectric constant tensor:
#      x y z
#    x 1.830230 0.000000 0.038200 
#    y 0.000000 1.858890 0.000000 
#    z 0.038200 0.000000 1.852880 
# 
# From -- ./inp_files/14523.got.cif
#   From: 2010.05.17/outbox.cif.g08.bks.cpg/sg9_8_cif.got.tgz:14523.got - 2010.06.03 20:04:27.
