data_PCOD9137243
_publ_section_title
;
Structure prediction by ZEFSAII (Michael W. Deem and Ramdas Pophale) SiO2 
 PCOD9137243
Probable space group: C C
;
_chemical_formula_sum "Si O2"
_cell_formula_units_Z 32
_cell_length_a 23.827307
_cell_length_b 5.551271
_cell_length_c 9.653333
_cell_angle_alpha 90.000000
_cell_angle_beta 113.899817
_cell_angle_gamma 90.000000
_cell_volume 1167.379708
_symmetry_space_group_name_H-M "C C"
_symmetry_group_IT_number 9
_symmetry_cell_setting 'monoclinic'
loop_
_space_group_symop_operation_xyz
x,y,z
x,-y,1/2+z
1/2+x,1/2+y,z
1/2+x,1/2-y,1/2+z
loop_
_atom_site_type_symbol
_atom_site_label
_atom_site_fract_x
_atom_site_fract_y
_atom_site_fract_z
Si Si1 0.216260 0.204525 0.239170
Si Si2 0.698480 0.291290 0.404700
Si Si3 0.293248 0.489450 0.130000
Si Si4 0.942543 0.795476 0.965453
Si Si5 0.581251 0.751867 0.100473
Si Si6 0.460323 0.291290 0.666542
Si Si7 0.077552 0.748134 0.096774
Si Si8 0.365555 0.010550 0.702307
O O1 0.262301 0.419700 0.246279
O O2 0.149124 0.262469 0.232479
O O3 0.237403 0.975286 0.347935
O O4 0.199968 0.111721 0.064516
O O5 0.734972 0.044640 0.471524
O O6 0.632963 0.260606 0.263237
O O7 0.322352 0.751386 0.142755
O O8 0.336451 0.251386 0.156854
O O9 0.896502 0.580301 0.880479
O O10 0.009680 0.737532 0.093035
O O11 0.921401 0.024715 0.031932
O O12 0.958835 0.888279 0.823382
O O13 0.525841 0.739395 0.156115
O O14 0.579402 0.500000 0.019900
O O15 0.579402 0.000000 0.014281
O O16 0.423831 0.044640 0.660382
#
# Coordination Sequence:
#
# PCOD9137243 Si02
#       8
#     4   4   4   4   4   4   4   4
#     4   9  22  43  67 105 131 182 221 281 342 398
#     4   9  22  43  67 105 131 182 221 281 342 398
#     4  10  24  44  68  96 136 180 228 274 328 404
#     4   9  22  43  67 105 131 182 221 281 342 398
#     4  10  22  40  66  98 140 168 218 280 338 404
#     4   9  22  43  67 105 131 182 221 281 342 398
#     4  10  22  40  66  98 140 168 218 280 338 404
#     4  10  24  44  68  96 136 180 228 274 328 404
#
# _framework density 27.411815000000001
#
# number of rings (size 3 to 8) (size 9 to 14) (size 15 to 20)
#    1.500    1.000    0.000    0.000    0.000   20.000 
#    0.000    0.000    0.000    0.000    0.000    0.000 
#    0.000    0.000    0.000    0.000    0.000    0.000 
#
# Total GULP energy -89092.926537 kJ/mol
# GULP energy per Si atom -5568.307909 kJ/mol
# Density = 2.734942 g / cm^3
# Si number density = 27.411815 Si / 1000 Ang^3
#
#
#
# Elastic Constant Matrix: (Units=GPa)
#
#
# Indices 1 2 3 4 5 6 
#
# 1 127.0423 26.9925 26.5462 0.0000 9.5772 0.0000
# 2 26.9925 172.0444 17.3321 0.0000 7.3242 0.0000
# 3 26.5462 17.3321 117.1481 0.0000 -2.0759 0.0000
# 4 0.0000 0.0000 0.0000 35.1883 0.0000 -11.9329
# 5 9.5772 7.3242 -2.0759 0.0000 52.7668 0.0000
# 6 0.0000 0.0000 0.0000 -11.9329 0.0000 19.4490
#
#
#
# Elastic Compliance Matrix: (Units=1/GPa)
#
#
# Indices 1 2 3 4 5 6 
#
# 1 0.008596 -0.001103 -0.001811 0.000000 -0.001478 0.000000
# 2 -0.001103 0.006081 -0.000662 0.000000 -0.000670 0.000000
# 3 -0.001811 -0.000662 0.009058 0.000000 0.000777 0.000000
# 4 0.000000 0.000000 0.000000 0.035885 0.000000 0.022017
# 5 -0.001478 -0.000670 0.000777 0.000000 0.019343 0.000000
# 6 0.000000 0.000000 0.000000 0.022017 0.000000 0.064925
#
#
# Mechanical properties :
#
#
# Convention : Reuss Voigt Hill
#
# Bulk Modulus (GPa) = 60.30112 61.99736 61.14924
# Shear Modulus (GPa) = 31.93528 44.50509 38.22019
#
# Velocity S-wave (km/s) = 3.41694 4.03373 3.73808
# Velocity P-wave (km/s) = 6.13297 6.66039 6.40211
#
# Compressibility (1/GPa) = 0.01658344
#
# Stress axis : x y z
#
# Youngs Moduli (GPa) = 116.33857 164.45476 110.39766
#
# Poissons Ratio (x) = 0.18143 0.19990
# Poissons Ratio (y) = 0.12835 0.07303
# Poissons Ratio (z) = 0.21066 0.10879
#
# Static dielectric constant tensor:
#      x y z
#    x 2.252160 0.000000 0.030860 
#    y 0.000000 2.365540 0.000000 
#    z 0.030860 0.000000 2.211460 
# 
# From -- ./inp_files/21081.got.cif
#   From: 2010.05.17/outbox.cif.g08.bks.cpg/sg9_11_cif.got.tgz:21081.got - 2010.06.03 20:04:27.
