data_PCOD9137563
_publ_section_title
;
Structure prediction by ZEFSAII (Michael W. Deem and Ramdas Pophale) SiO2 
 PCOD9137563
Probable space group: C C
;
_chemical_formula_sum "Si O2"
_cell_formula_units_Z 24
_cell_length_a 14.664075
_cell_length_b 6.704342
_cell_length_c 13.939378
_cell_angle_alpha 90.000000
_cell_angle_beta 36.062481
_cell_angle_gamma 90.000000
_cell_volume 806.722219
_symmetry_space_group_name_H-M "C C"
_symmetry_group_IT_number 9
_symmetry_cell_setting 'monoclinic'
loop_
_space_group_symop_operation_xyz
x,y,z
x,-y,1/2+z
1/2+x,1/2+y,z
1/2+x,1/2-y,1/2+z
loop_
_atom_site_type_symbol
_atom_site_label
_atom_site_fract_x
_atom_site_fract_y
_atom_site_fract_z
Si Si1 0.735390 0.590434 0.197090
Si Si2 0.121953 0.294369 0.890508
Si Si3 0.435461 0.057799 0.178043
Si Si4 0.165746 0.495708 0.158420
Si Si5 0.365938 0.422942 0.827671
Si Si6 0.724258 0.511563 0.504615
O O1 0.658994 0.440889 0.341056
O O2 0.889527 0.672998 0.118797
O O3 0.817508 0.311627 0.391336
O O4 0.770752 0.455743 0.073910
O O5 0.115851 0.372118 0.788475
O O6 0.251827 0.432920 0.832922
O O7 0.977900 0.349987 0.082084
O O8 0.567028 0.051608 0.147662
O O9 0.299226 0.152808 0.362400
O O10 0.149612 0.273257 0.217376
O O11 0.332298 0.505914 0.964514
O O12 0.541126 0.481863 0.654279
#
# Coordination Sequence:
#
# PCOD9137563 Si02
#       6
#     4   4   4   4   4   4
#     4  11  25  43  79 107 141 207 247 304 392 451
#     4  11  24  48  76 108 149 203 256 313 387 465
#     4  11  24  48  74 109 160 197 247 329 381 448
#     4  10  25  50  71 113 153 194 258 316 380 463
#     4  10  22  42  72 103 154 197 244 326 382 441
#     4  11  22  43  72 108 147 200 248 312 388 446
#
# _framework density 29.750015999999999
#
# number of rings (size 3 to 8) (size 9 to 14) (size 15 to 20)
#    0.000    1.333    1.667    4.000    0.000    5.333 
#    9.000    0.000    0.000    0.000    0.000    0.000 
#    0.000    0.000    0.000    0.000    0.000    0.000 
#
# Total GULP energy -66835.141876 kJ/mol
# GULP energy per Si atom -5569.595156 kJ/mol
# Density = 2.968230 g / cm^3
# Si number density = 29.750016 Si / 1000 Ang^3
#
#
#
# Elastic Constant Matrix: (Units=GPa)
#
#
# Indices 1 2 3 4 5 6 
#
# 1 211.2697 21.0582 75.6314 0.0000 36.3744 0.0000
# 2 21.0582 126.5493 42.0929 0.0000 11.7418 0.0000
# 3 75.6314 42.0929 243.7200 0.0000 19.9977 0.0000
# 4 0.0000 0.0000 0.0000 57.7151 0.0000 26.9266
# 5 36.3744 11.7418 19.9977 0.0000 66.9514 0.0000
# 6 0.0000 0.0000 0.0000 26.9266 0.0000 32.7255
#
#
#
# Elastic Compliance Matrix: (Units=1/GPa)
#
#
# Indices 1 2 3 4 5 6 
#
# 1 0.005756 -0.000203 -0.001535 0.000000 -0.002633 0.000000
# 2 -0.000203 0.008465 -0.001319 0.000000 -0.000981 0.000000
# 3 -0.001535 -0.001319 0.004838 0.000000 -0.000380 0.000000
# 4 0.000000 0.000000 0.000000 0.028122 0.000000 -0.023138
# 5 -0.002633 -0.000981 -0.000380 0.000000 0.016652 0.000000
# 6 0.000000 0.000000 0.000000 -0.023138 0.000000 0.049596
#
#
# Mechanical properties :
#
#
# Convention : Reuss Voigt Hill
#
# Bulk Modulus (GPa) = 77.23976 95.45602 86.34789
# Shear Modulus (GPa) = 40.36853 60.99550 50.68202
#
# Velocity S-wave (km/s) = 3.68764 4.53290 4.13194
# Velocity P-wave (km/s) = 6.64461 7.71699 7.20079
#
# Compressibility (1/GPa) = 0.01294670
#
# Stress axis : x y z
#
# Youngs Moduli (GPa) = 173.71696 118.12777 206.68011
#
# Poissons Ratio (x) = 0.02397 0.31730
# Poissons Ratio (y) = 0.03525 0.27254
# Poissons Ratio (z) = 0.26670 0.15577
#
# Static dielectric constant tensor:
#      x y z
#    x 2.413100 0.000000 -0.329800 
#    y 0.000000 2.900200 0.000000 
#    z -0.329800 0.000000 2.666660 
# 
# From -- ./inp_files/16343.got.cif
#   From: 2010.05.17/outbox.cif.g08.bks.cpg/sg9_9_cif.got.tgz:16343.got - 2010.06.03 20:04:27.
