data_PCOD9137008
_publ_section_title
;
Structure prediction by ZEFSAII (Michael W. Deem and Ramdas Pophale) SiO2 
 PCOD9137008
Probable space group: C C
;
_chemical_formula_sum "Si O2"
_cell_formula_units_Z 32
_cell_length_a 13.522637
_cell_length_b 17.878293
_cell_length_c 5.722840
_cell_angle_alpha 90.000000
_cell_angle_beta 117.262048
_cell_angle_gamma 90.000000
_cell_volume 1229.878284
_symmetry_space_group_name_H-M "C C"
_symmetry_group_IT_number 9
_symmetry_cell_setting 'monoclinic'
loop_
_space_group_symop_operation_xyz
x,y,z
x,-y,1/2+z
1/2+x,1/2+y,z
1/2+x,1/2-y,1/2+z
loop_
_atom_site_type_symbol
_atom_site_label
_atom_site_fract_x
_atom_site_fract_y
_atom_site_fract_z
Si Si1 0.315100 0.524202 0.412440
Si Si2 0.864525 0.688491 0.542024
Si Si3 0.022306 0.298694 0.834612
Si Si4 0.535323 0.425178 0.710096
Si Si5 0.886881 0.180380 0.378723
Si Si6 0.671028 0.672904 0.988757
Si Si7 0.471025 0.034599 0.151412
Si Si8 0.751236 0.435672 0.203079
O O1 0.264923 0.494925 0.602475
O O2 0.438320 0.483632 0.532951
O O3 0.322566 0.613684 0.435268
O O4 0.986795 0.697164 0.568241
O O5 0.827204 0.762741 0.636426
O O6 0.841391 0.615066 0.663695
O O7 0.789584 0.672430 0.238130
O O8 0.945860 0.237109 0.620039
O O9 0.008597 0.379441 0.708859
O O10 0.139491 0.259098 0.934301
O O11 0.472951 0.367410 0.814172
O O12 0.585113 0.373386 0.557691
O O13 0.645169 0.465871 0.938224
O O14 0.684215 0.629569 0.766062
O O15 0.334156 0.026686 0.984452
O O16 0.506750 0.998459 0.943140
#
# Coordination Sequence:
#
# PCOD9137008 Si02
#       8
#     4   4   4   4   4   4   4   4
#     4  10  23  38  57  96 141 180 221 268 341 425
#     4  11  22  41  66 102 137 177 234 291 352 412
#     4  12  23  43  72  95 138 182 243 293 344 422
#     4  10  22  36  63 101 145 177 221 276 358 429
#     4  11  21  38  67  92 134 186 228 281 342 412
#     4  11  22  40  70 103 134 183 237 290 348 412
#     4  12  28  46  68 100 142 191 231 291 363 426
#     4  11  23  42  63 103 141 180 225 288 362 424
#
# _framework density 26.018837999999999
#
# number of rings (size 3 to 8) (size 9 to 14) (size 15 to 20)
#    0.000    1.000    5.000    1.500    5.250    2.000 
#    0.000    0.000    0.000    3.000    0.000    0.000 
#    0.000    0.000    0.000    0.000    0.000    0.000 
#
# Total GULP energy -89473.638103 kJ/mol
# GULP energy per Si atom -5592.102381 kJ/mol
# Density = 2.595962 g / cm^3
# Si number density = 26.018838 Si / 1000 Ang^3
#
#
#
# Elastic Constant Matrix: (Units=GPa)
#
#
# Indices 1 2 3 4 5 6 
#
# 1 61.9350 20.8368 -0.0388 0.0000 -15.2772 0.0000
# 2 20.8368 192.2599 32.4301 0.0000 -18.2734 0.0000
# 3 -0.0388 32.4301 73.9415 0.0000 -27.1216 0.0000
# 4 0.0000 0.0000 0.0000 47.7705 0.0000 8.8618
# 5 -15.2772 -18.2734 -27.1216 0.0000 22.1250 0.0000
# 6 0.0000 0.0000 0.0000 8.8618 0.0000 30.4996
#
#
#
# Elastic Compliance Matrix: (Units=1/GPa)
#
#
# Indices 1 2 3 4 5 6 
#
# 1 0.023930 -0.001759 0.011469 0.000000 0.029130 0.000000
# 2 -0.001759 0.005854 -0.002254 0.000000 0.000857 0.000000
# 3 0.011469 -0.002254 0.030417 0.000000 0.043344 0.000000
# 4 0.000000 0.000000 0.000000 0.022126 0.000000 -0.006429
# 5 0.029130 0.000857 0.043344 0.000000 0.119152 0.000000
# 6 0.000000 0.000000 0.000000 -0.006429 0.000000 0.034655
#
#
# Mechanical properties :
#
#
# Convention : Reuss Voigt Hill
#
# Bulk Modulus (GPa) = 13.31344 48.28806 30.80075
# Shear Modulus (GPa) = 20.30367 38.40625 29.35496
#
# Velocity S-wave (km/s) = 2.79650 3.84616 3.36254
# Velocity P-wave (km/s) = 3.94400 6.19057 5.19029
#
# Compressibility (1/GPa) = 0.07511205
#
# Stress axis : x y z
#
# Youngs Moduli (GPa) = 41.78798 170.83497 32.87592
#
# Poissons Ratio (x) = 0.30058 -0.37705
# Poissons Ratio (y) = 0.07352 0.07410
# Poissons Ratio (z) = -0.47926 0.38508
#
# Static dielectric constant tensor:
#      x y z
#    x 2.173970 0.000000 -0.035180 
#    y 0.000000 2.064470 0.000000 
#    z -0.035180 0.000000 2.149770 
# 
# From -- ./inp_files/2585.got.cif
#   From: 2010.05.17/outbox.cif.g08.bks.cpg/sg9_2_cif.got.tgz:2585.got - 2010.06.03 20:04:27.
