data_PCOD9137366
_publ_section_title
;
Structure prediction by ZEFSAII (Michael W. Deem and Ramdas Pophale) SiO2 
 PCOD9137366
Probable space group: C C
;
_chemical_formula_sum "Si O2"
_cell_formula_units_Z 28
_cell_length_a 14.805733
_cell_length_b 11.428845
_cell_length_c 9.239776
_cell_angle_alpha 90.000000
_cell_angle_beta 46.626268
_cell_angle_gamma 90.000000
_cell_volume 1136.480932
_symmetry_space_group_name_H-M "C C"
_symmetry_group_IT_number 9
_symmetry_cell_setting 'monoclinic'
loop_
_space_group_symop_operation_xyz
x,y,z
x,-y,1/2+z
1/2+x,1/2+y,z
1/2+x,1/2-y,1/2+z
loop_
_atom_site_type_symbol
_atom_site_label
_atom_site_fract_x
_atom_site_fract_y
_atom_site_fract_z
Si Si1 0.283630 0.209028 0.025680
Si Si2 0.667942 0.903696 0.305085
Si Si3 0.757086 0.763326 0.728723
Si Si4 0.429788 0.382571 0.013142
Si Si5 0.670654 0.534306 0.679208
Si Si6 0.084689 0.582888 0.210483
Si Si7 0.968445 0.193332 0.785323
O O1 0.187322 0.266222 0.249810
O O2 0.264570 0.070175 0.034312
O O3 0.253714 0.267931 0.904522
O O4 0.414547 0.263654 0.935685
O O5 0.656888 0.939460 0.482766
O O6 0.565023 0.965569 0.320912
O O7 0.803662 0.948223 0.101784
O O8 0.734740 0.625755 0.716700
O O9 0.652237 0.834313 0.755695
O O10 0.886256 0.811035 0.520762
O O11 0.550238 0.460322 0.863010
O O12 0.409512 0.350787 0.202576
O O13 0.599895 0.624258 0.648265
O O14 0.979790 0.666422 0.261011
#
# Coordination Sequence:
#
# PCOD9137366 Si02
#       7
#     4   4   4   4   4   4   4
#     4  10  24  42  69 100 135 176 229 288 333 418
#     4  10  22  41  67  98 135 173 233 277 345 406
#     4  11  23  44  66 102 137 173 236 279 343 410
#     4  10  23  40  69  96 131 178 226 275 340 406
#     4  11  24  44  72 100 136 184 227 285 340 413
#     4  11  22  42  66  96 136 181 219 292 338 409
#     4  11  24  43  69  96 136 181 226 278 355 402
#
# _framework density 24.637456
#
# number of rings (size 3 to 8) (size 9 to 14) (size 15 to 20)
#    0.857    0.571    1.429    3.429    0.000    5.714 
#    7.714    0.000    0.000    0.000    0.000    0.000 
#    0.000    0.000    0.000    0.000    0.000    0.000 
#
# Total GULP energy -77973.298157 kJ/mol
# GULP energy per Si atom -5569.521297 kJ/mol
# Density = 2.458138 g / cm^3
# Si number density = 24.637456 Si / 1000 Ang^3
#
#
#
# Elastic Constant Matrix: (Units=GPa)
#
#
# Indices 1 2 3 4 5 6 
#
# 1 53.9543 32.4355 33.4136 0.0000 24.3166 0.0000
# 2 32.4355 140.1633 17.3329 0.0000 7.4726 0.0000
# 3 33.4136 17.3329 59.9867 0.0000 31.5108 0.0000
# 4 0.0000 0.0000 0.0000 24.0109 0.0000 -5.8769
# 5 24.3166 7.4726 31.5108 0.0000 46.4091 0.0000
# 6 0.0000 0.0000 0.0000 -5.8769 0.0000 40.5466
#
#
#
# Elastic Compliance Matrix: (Units=1/GPa)
#
#
# Indices 1 2 3 4 5 6 
#
# 1 0.033510 -0.005744 -0.012853 0.000000 -0.007906 0.000000
# 2 -0.005744 0.008388 -0.000149 0.000000 0.001760 0.000000
# 3 -0.012853 -0.000149 0.031589 0.000000 -0.014690 0.000000
# 4 0.000000 0.000000 0.000000 0.043180 0.000000 0.006259
# 5 -0.007906 0.001760 -0.014690 0.000000 0.035381 0.000000
# 6 0.000000 0.000000 0.000000 0.006259 0.000000 0.025570
#
#
# Mechanical properties :
#
#
# Convention : Reuss Voigt Hill
#
# Bulk Modulus (GPa) = 27.78032 46.71868 37.24950
# Shear Modulus (GPa) = 22.01594 33.58816 27.80205
#
# Velocity S-wave (km/s) = 2.99255 3.69629 3.36288
# Velocity P-wave (km/s) = 4.82085 6.10085 5.49823
#
# Compressibility (1/GPa) = 0.03599670
#
# Stress axis : x y z
#
# Youngs Moduli (GPa) = 29.84173 119.21396 31.65631
#
# Poissons Ratio (x) = 0.68473 0.40687
# Poissons Ratio (y) = 0.17140 0.00471
# Poissons Ratio (z) = 0.38355 0.01775
#
# Static dielectric constant tensor:
#      x y z
#    x 1.950040 0.000000 -0.069320 
#    y 0.000000 2.080340 0.000000 
#    z -0.069320 0.000000 1.994610 
# 
# From -- ./inp_files/9044.got.cif
#   From: 2010.05.17/outbox.cif.g08.bks.cpg/sg9_5_cif.got.tgz:9044.got - 2010.06.03 20:04:27.
