data_PCOD9137606
_publ_section_title
;
Structure prediction by ZEFSAII (Michael W. Deem and Ramdas Pophale) SiO2 
 PCOD9137606
Probable space group: C C
;
_chemical_formula_sum "Si O2"
_cell_formula_units_Z 32
_cell_length_a 8.315592
_cell_length_b 22.377511
_cell_length_c 13.348268
_cell_angle_alpha 90.000000
_cell_angle_beta 32.067530
_cell_angle_gamma 90.000000
_cell_volume 1318.735403
_symmetry_space_group_name_H-M "C C"
_symmetry_group_IT_number 9
_symmetry_cell_setting 'monoclinic'
loop_
_space_group_symop_operation_xyz
x,y,z
x,-y,1/2+z
1/2+x,1/2+y,z
1/2+x,1/2-y,1/2+z
loop_
_atom_site_type_symbol
_atom_site_label
_atom_site_fract_x
_atom_site_fract_y
_atom_site_fract_z
Si Si1 0.441370 0.429373 0.342070
Si Si2 0.783703 0.683722 0.634385
Si Si3 0.824780 0.092154 0.122884
Si Si4 0.579020 0.979749 0.940783
Si Si5 0.220273 0.822508 0.562496
Si Si6 0.778774 0.199343 0.631161
Si Si7 0.351070 0.380698 0.926324
Si Si8 0.445391 0.195723 0.327575
O O1 0.498852 0.359007 0.299212
O O2 0.454499 0.439434 0.455306
O O3 0.155487 0.452820 0.430222
O O4 0.732168 0.461341 0.137279
O O5 0.686557 0.751623 0.692437
O O6 0.923861 0.673894 0.452236
O O7 0.048826 0.658461 0.562735
O O8 0.701660 0.045005 0.269985
O O9 0.567241 0.135923 0.211771
O O10 0.046402 0.138245 0.067235
O O11 0.762693 0.944773 0.931818
O O12 0.553586 0.814477 0.340354
O O13 0.138063 0.753810 0.639098
O O14 0.126095 0.856041 0.714492
O O15 0.871608 0.136274 0.530553
O O16 0.114539 0.221797 0.481223
#
# Coordination Sequence:
#
# PCOD9137606 Si02
#       8
#     4   4   4   4   4   4   4   4
#     4  11  24  48  73 100 137 184 244 296 359 412
#     4  11  23  43  70  99 144 186 235 287 355 439
#     4  11  24  47  73  99 138 194 240 285 366 425
#     4  10  24  48  67 101 133 181 243 299 338 429
#     4  11  21  39  63  96 137 185 226 279 348 430
#     4  12  24  37  62 101 145 171 228 285 352 408
#     4  10  22  43  65  92 132 181 239 278 346 421
#     4  12  24  43  67 108 146 180 233 295 356 432
#
# _framework density 24.265671000000001
#
# number of rings (size 3 to 8) (size 9 to 14) (size 15 to 20)
#    0.000    1.000    5.000    3.750    0.000    2.000 
#   13.500    0.000    0.000    0.000    0.000    0.000 
#    0.000    0.000    0.000    0.000    0.000    0.000 
#
# Total GULP energy -89277.819862 kJ/mol
# GULP energy per Si atom -5579.863741 kJ/mol
# Density = 2.421044 g / cm^3
# Si number density = 24.265671 Si / 1000 Ang^3
#
#
#
# Elastic Constant Matrix: (Units=GPa)
#
#
# Indices 1 2 3 4 5 6 
#
# 1 -4.8174 32.2596 -6.3333 0.0000 -36.1190 0.0000
# 2 32.2596 42.1603 32.4108 0.0000 26.7870 0.0000
# 3 -6.3333 32.4108 101.4023 0.0000 -8.6368 0.0000
# 4 0.0000 0.0000 0.0000 27.6850 -0.0001 0.2073
# 5 -36.1190 26.7870 -8.6368 -0.0001 -9.3220 0.0002
# 6 0.0000 0.0000 0.0000 0.2073 0.0002 30.2160
#
#
#
# Elastic Compliance Matrix: (Units=1/GPa)
#
#
# Indices 1 2 3 4 5 6 
#
# 1 0.012054 0.007461 -0.003507 0.000000 -0.022016 0.000000
# 2 0.007461 0.013049 -0.002756 0.000000 0.011143 0.000000
# 3 -0.003507 -0.002756 0.010201 0.000000 -0.003782 0.000000
# 4 0.000000 0.000000 0.000000 0.036122 0.000000 -0.000248
# 5 -0.022016 0.011143 -0.003782 0.000000 0.013552 0.000000
# 6 0.000000 0.000000 0.000000 -0.000248 0.000000 0.033097
#
#
# Mechanical properties :
#
#
# Convention : Reuss Voigt Hill
#
# Bulk Modulus (GPa) = 26.52514 28.37994 27.45254
# Shear Modulus (GPa) = 38.98763 15.07635 27.03199
#
# Velocity S-wave (km/s) = 4.01271 2.49530 3.34129
# Velocity P-wave (km/s) = 5.69421 4.47470 5.12089
#
# Compressibility (1/GPa) = 0.03770008
#
# Stress axis : x y z
#
# Youngs Moduli (GPa) = 82.96217 76.63387 98.02637
#
# Poissons Ratio (x) = -0.57174 0.34377
# Poissons Ratio (y) = -0.61895 0.27014
# Poissons Ratio (z) = 0.29094 0.21118
#
# Static dielectric constant tensor:
#      x y z
#    x 2.016210 0.000000 -0.045970 
#    y 0.000000 1.914710 0.000000 
#    z -0.045970 0.000000 1.932780 
# 
# From -- ./inp_files/23849.got.cif
#   From: 2010.05.17/outbox.cif.g08.bks.cpg/sg9_12_cif.got.tgz:23849.got - 2010.06.03 20:04:27.
