data_PCOD9137919
_publ_section_title
;
Structure prediction by ZEFSAII (Michael W. Deem and Ramdas Pophale) SiO2 
 PCOD9137919
Probable space group: C C
;
_chemical_formula_sum "Si O2"
_cell_formula_units_Z 32
_cell_length_a 14.204750
_cell_length_b 7.862136
_cell_length_c 14.105290
_cell_angle_alpha 90.000000
_cell_angle_beta 121.613577
_cell_angle_gamma 90.000000
_cell_volume 1341.507851
_symmetry_space_group_name_H-M "C C"
_symmetry_group_IT_number 9
_symmetry_cell_setting 'monoclinic'
loop_
_space_group_symop_operation_xyz
x,y,z
x,-y,1/2+z
1/2+x,1/2+y,z
1/2+x,1/2-y,1/2+z
loop_
_atom_site_type_symbol
_atom_site_label
_atom_site_fract_x
_atom_site_fract_y
_atom_site_fract_z
Si Si1 0.537640 0.120305 0.833590
Si Si2 0.799094 0.582185 0.916791
Si Si3 0.023128 0.438804 0.632132
Si Si4 0.835472 0.202673 0.248446
Si Si5 0.871422 0.336654 0.812700
Si Si6 0.092352 0.854311 0.421344
Si Si7 0.136302 0.183214 0.553873
Si Si8 0.695919 0.868177 0.116922
O O1 0.460564 0.287731 0.776265
O O2 0.563748 0.005700 0.755982
O O3 0.444581 0.003236 0.832377
O O4 0.622106 0.186872 0.957243
O O5 0.821345 0.735897 0.851290
O O6 0.821185 0.393125 0.886407
O O7 0.671221 0.585985 0.878529
O O8 0.892129 0.590086 0.049013
O O9 0.076108 0.269905 0.612522
O O10 0.075228 0.589574 0.595873
O O11 0.763015 0.333819 0.148544
O O12 0.771719 0.028778 0.187533
O O13 0.765541 0.285711 0.696717
O O14 0.965421 0.196256 0.843879
O O15 0.163335 0.690749 0.495074
O O16 0.091173 0.002921 0.498763
#
# Coordination Sequence:
#
# PCOD9137919 Si02
#       8
#     4   4   4   4   4   4   4   4
#     4  11  23  46  73 104 149 198 251 322 393 471
#     4  11  23  46  73 108 146 209 256 322 401 457
#     4  11  23  45  75 105 150 201 249 325 395 465
#     4  10  22  45  71 100 150 195 252 325 384 471
#     4  11  23  43  69 106 150 192 258 325 379 486
#     4  12  25  44  74 107 152 204 257 332 398 478
#     4  11  23  44  70 106 152 196 255 318 393 475
#     4  11  24  45  67 108 151 193 258 323 391 479
#
# _framework density 23.853755
#
# number of rings (size 3 to 8) (size 9 to 14) (size 15 to 20)
#    0.000    1.000    3.750    4.500    5.250    0.000 
#    0.000    1.250    2.750    0.000    0.000    0.000 
#    0.000    0.000    0.000    0.000    0.000    0.000 
#
# Total GULP energy -89078.987995 kJ/mol
# GULP energy per Si atom -5567.436750 kJ/mol
# Density = 2.379946 g / cm^3
# Si number density = 23.853755 Si / 1000 Ang^3
#
#
#
# Elastic Constant Matrix: (Units=GPa)
#
#
# Indices 1 2 3 4 5 6 
#
# 1 96.0979 28.2753 31.8663 0.0000 -7.5529 0.0000
# 2 28.2753 79.0391 20.2759 0.0000 6.8414 0.0000
# 3 31.8663 20.2759 107.2146 0.0000 16.5700 0.0000
# 4 0.0000 0.0000 0.0000 42.6528 0.0000 9.2014
# 5 -7.5529 6.8414 16.5700 0.0000 33.2433 0.0000
# 6 0.0000 0.0000 0.0000 9.2014 0.0000 25.8701
#
#
#
# Elastic Compliance Matrix: (Units=1/GPa)
#
#
# Indices 1 2 3 4 5 6 
#
# 1 0.013513 -0.004294 -0.004134 0.000000 0.006014 0.000000
# 2 -0.004294 0.014741 -0.000966 0.000000 -0.003528 0.000000
# 3 -0.004134 -0.000966 0.011759 0.000000 -0.006601 0.000000
# 4 0.000000 0.000000 0.000000 0.025394 0.000000 -0.009032
# 5 0.006014 -0.003528 -0.006601 0.000000 0.035464 0.000000
# 6 0.000000 0.000000 0.000000 -0.009032 0.000000 0.041867
#
#
# Mechanical properties :
#
#
# Convention : Reuss Voigt Hill
#
# Bulk Modulus (GPa) = 47.11517 49.24294 48.17906
# Shear Modulus (GPa) = 29.65572 33.81550 31.73561
#
# Velocity S-wave (km/s) = 3.52977 3.76921 3.65146
# Velocity P-wave (km/s) = 6.03382 6.29532 6.16596
#
# Compressibility (1/GPa) = 0.02122459
#
# Stress axis : x y z
#
# Youngs Moduli (GPa) = 74.00246 67.83603 85.04329
#
# Poissons Ratio (x) = 0.29131 0.35155
# Poissons Ratio (y) = 0.31779 0.08217
# Poissons Ratio (z) = 0.30591 0.06555
#
# Static dielectric constant tensor:
#      x y z
#    x 2.026100 0.000000 -0.030660 
#    y 0.000000 2.064370 0.000000 
#    z -0.030660 0.000000 1.993990 
# 
# From -- ./inp_files/25700.got.cif
#   From: 2010.05.17/outbox.cif.g08.bks.cpg/sg9_13_cif.got.tgz:25700.got - 2010.06.03 20:04:27.
