data_PCOD9137002
_publ_section_title
;
Structure prediction by ZEFSAII (Michael W. Deem and Ramdas Pophale) SiO2 
 PCOD9137002
Probable space group: C C
;
_chemical_formula_sum "Si O2"
_cell_formula_units_Z 24
_cell_length_a 7.030379
_cell_length_b 16.601826
_cell_length_c 7.390303
_cell_angle_alpha 90.000000
_cell_angle_beta 72.539756
_cell_angle_gamma 90.000000
_cell_volume 822.832129
_symmetry_space_group_name_H-M "C C"
_symmetry_group_IT_number 9
_symmetry_cell_setting 'monoclinic'
loop_
_space_group_symop_operation_xyz
x,y,z
x,-y,1/2+z
1/2+x,1/2+y,z
1/2+x,1/2-y,1/2+z
loop_
_atom_site_type_symbol
_atom_site_label
_atom_site_fract_x
_atom_site_fract_y
_atom_site_fract_z
Si Si1 0.890480 0.693775 0.627160
Si Si2 0.736613 0.117915 0.350862
Si Si3 0.269945 0.552139 0.746209
Si Si4 0.189440 0.125371 0.191130
Si Si5 0.719567 0.534963 0.565587
Si Si6 0.157040 0.278224 0.385124
O O1 0.839537 0.598998 0.646868
O O2 0.714974 0.738416 0.562696
O O3 0.080975 0.689608 0.434269
O O4 0.958194 0.714521 0.813303
O O5 0.773109 0.088517 0.545524
O O6 0.955000 0.136377 0.204702
O O7 0.659685 0.034171 0.283445
O O8 0.499983 0.531556 0.716376
O O9 0.217668 0.628692 0.883712
O O10 0.203551 0.079085 0.378721
O O11 0.270571 0.214217 0.216259
O O12 0.286843 0.057452 0.039310
#
# Coordination Sequence:
#
# PCOD9137002 Si02
#       6
#     4   4   4   4   4   4
#     4  10  22  40  58  90 124 160 202 250 302 362
#     4   9  19  36  59  83 120 158 200 240 300 369
#     4   9  19  38  59  87 118 158 199 248 299 359
#     4   9  19  38  59  87 118 158 199 248 299 359
#     4   9  19  36  59  83 120 158 200 240 300 369
#     4  10  22  36  58  86 120 152 200 252 300 344
#
# _framework density 29.167556999999999
#
# number of rings (size 3 to 8) (size 9 to 14) (size 15 to 20)
#    0.000    2.667    0.000    0.000    0.000   12.000 
#    0.000   16.667    0.000    0.000    0.000    0.000 
#    0.000    8.000    0.000    0.000    0.000    0.000 
#
# Total GULP energy -66915.235818 kJ/mol
# GULP energy per Si atom -5576.269652 kJ/mol
# Density = 2.910117 g / cm^3
# Si number density = 29.167557 Si / 1000 Ang^3
#
#
#
# Elastic Constant Matrix: (Units=GPa)
#
#
# Indices 1 2 3 4 5 6 
#
# 1 146.5753 37.6380 48.4478 0.0000 26.8560 0.0000
# 2 37.6380 129.4512 51.7983 0.0000 6.4904 0.0000
# 3 48.4478 51.7983 135.6968 0.0000 31.3756 0.0000
# 4 0.0000 0.0000 0.0000 43.8117 0.0000 10.2970
# 5 26.8560 6.4904 31.3756 0.0000 37.3466 0.0000
# 6 0.0000 0.0000 0.0000 10.2970 0.0000 61.0606
#
#
#
# Elastic Compliance Matrix: (Units=1/GPa)
#
#
# Indices 1 2 3 4 5 6 
#
# 1 0.008570 -0.001735 -0.001294 0.000000 -0.004775 0.000000
# 2 -0.001735 0.009553 -0.003638 0.000000 0.002644 0.000000
# 3 -0.001294 -0.003638 0.010995 0.000000 -0.007674 0.000000
# 4 0.000000 0.000000 0.000000 0.023767 0.000000 -0.004008
# 5 -0.004775 0.002644 -0.007674 0.000000 0.036197 0.000000
# 6 0.000000 0.000000 0.000000 -0.004008 0.000000 0.017053
#
#
# Mechanical properties :
#
#
# Convention : Reuss Voigt Hill
#
# Bulk Modulus (GPa) = 63.35663 76.38793 69.87228
# Shear Modulus (GPa) = 40.08668 46.69972 43.39320
#
# Velocity S-wave (km/s) = 3.71126 4.00570 3.86128
# Velocity P-wave (km/s) = 6.33509 6.90220 6.62471
#
# Compressibility (1/GPa) = 0.01578367
#
# Stress axis : x y z
#
# Youngs Moduli (GPa) = 116.68185 104.68348 90.95446
#
# Poissons Ratio (x) = 0.18160 0.11767
# Poissons Ratio (y) = 0.20242 0.33093
# Poissons Ratio (z) = 0.15095 0.38088
#
# Static dielectric constant tensor:
#      x y z
#    x 2.429810 0.000000 -0.139690 
#    y 0.000000 2.463530 0.000000 
#    z -0.139690 0.000000 2.293530 
# 
# From -- ./inp_files/5123.got.cif
#   From: 2010.05.17/outbox.cif.g08.bks.cpg/sg9_3_cif.got.tgz:5123.got - 2010.06.03 20:04:27.
