data_PCOD9137288
_publ_section_title
;
Structure prediction by ZEFSAII (Michael W. Deem and Ramdas Pophale) SiO2 
 PCOD9137288
Probable space group: C C
;
_chemical_formula_sum "Si O2"
_cell_formula_units_Z 32
_cell_length_a 23.323938
_cell_length_b 8.827768
_cell_length_c 9.251015
_cell_angle_alpha 90.000000
_cell_angle_beta 137.989849
_cell_angle_gamma 90.000000
_cell_volume 1274.789591
_symmetry_space_group_name_H-M "C C"
_symmetry_group_IT_number 9
_symmetry_cell_setting 'monoclinic'
loop_
_space_group_symop_operation_xyz
x,y,z
x,-y,1/2+z
1/2+x,1/2+y,z
1/2+x,1/2-y,1/2+z
loop_
_atom_site_type_symbol
_atom_site_label
_atom_site_fract_x
_atom_site_fract_y
_atom_site_fract_z
Si Si1 0.135180 0.672945 0.377520
Si Si2 0.918470 0.917963 0.728653
Si Si3 0.385084 0.014700 0.170805
Si Si4 0.910338 0.789645 0.392875
Si Si5 0.121467 0.134829 0.584977
Si Si6 0.721859 0.325790 0.784747
Si Si7 0.449562 0.191992 0.012016
Si Si8 0.609198 0.822163 0.294791
O O1 0.148206 0.728956 0.239673
O O2 0.209327 0.752254 0.605356
O O3 0.119304 0.494474 0.367672
O O4 0.041879 0.745679 0.241647
O O5 0.890709 0.861801 0.515430
O O6 0.896134 0.824355 0.834840
O O7 0.899562 0.087924 0.744083
O O8 0.020650 0.894491 0.911604
O O9 0.361507 0.140607 0.244846
O O10 0.460430 0.919912 0.392140
O O11 0.408861 0.098996 0.067177
O O12 0.312668 0.891807 0.001996
O O13 0.010305 0.729480 0.583149
O O14 0.142200 0.195884 0.467002
O O15 0.165473 0.976674 0.695244
O O16 0.675059 0.195646 0.788225
#
# Coordination Sequence:
#
# PCOD9137288 Si02
#       8
#     4   4   4   4   4   4   4   4
#     4  11  24  44  75 108 142 194 262 311 375 452
#     4  10  22  40  74 110 146 194 255 316 367 441
#     4  12  27  44  72 106 151 201 248 312 397 455
#     4  11  21  43  71 114 147 194 260 314 376 451
#     4  10  23  39  69 109 141 189 250 311 367 440
#     4  12  26  44  73 106 153 200 245 316 388 461
#     4  11  25  44  73 107 148 197 254 318 374 460
#     4  11  22  42  73 106 146 193 254 314 368 452
#
# _framework density 25.102181999999999
#
# number of rings (size 3 to 8) (size 9 to 14) (size 15 to 20)
#    0.000    1.000    2.500    3.750   12.250    0.000 
#    0.000    2.500    0.000    0.000    0.000    0.000 
#    0.000    0.000    0.000    0.000    0.000    0.000 
#
# Total GULP energy -89379.152186 kJ/mol
# GULP energy per Si atom -5586.197012 kJ/mol
# Density = 2.504505 g / cm^3
# Si number density = 25.102182 Si / 1000 Ang^3
#
#
#
# Elastic Constant Matrix: (Units=GPa)
#
#
# Indices 1 2 3 4 5 6 
#
# 1 55.6289 9.6750 39.7402 0.0000 -7.7397 0.0000
# 2 9.6750 127.0083 42.8215 0.0000 -4.6479 0.0000
# 3 39.7402 42.8215 122.5160 0.0000 0.3140 0.0000
# 4 0.0000 0.0000 0.0000 49.2038 0.0000 -14.8821
# 5 -7.7397 -4.6479 0.3140 0.0000 24.9541 0.0000
# 6 0.0000 0.0000 0.0000 -14.8821 0.0000 27.2155
#
#
#
# Elastic Compliance Matrix: (Units=1/GPa)
#
#
# Indices 1 2 3 4 5 6 
#
# 1 0.025012 0.001285 -0.008583 0.000000 0.008105 0.000000
# 2 0.001285 0.009064 -0.003590 0.000000 0.002132 0.000000
# 3 -0.008583 -0.003590 0.012210 0.000000 -0.003484 0.000000
# 4 0.000000 0.000000 0.000000 0.024351 0.000000 0.013316
# 5 0.008105 0.002132 -0.003484 0.000000 0.043028 0.000000
# 6 0.000000 0.000000 0.000000 0.013316 0.000000 0.044025
#
#
# Mechanical properties :
#
#
# Convention : Reuss Voigt Hill
#
# Bulk Modulus (GPa) = 40.80038 54.40296 47.60167
# Shear Modulus (GPa) = 26.64718 34.46910 30.55814
#
# Velocity S-wave (km/s) = 3.26168 3.70963 3.49284
# Velocity P-wave (km/s) = 5.52030 6.32994 5.93893
#
# Compressibility (1/GPa) = 0.02450958
#
# Stress axis : x y z
#
# Youngs Moduli (GPa) = 39.98092 110.32476 81.89961
#
# Poissons Ratio (x) = -0.14178 0.70294
# Poissons Ratio (y) = -0.05138 0.29405
# Poissons Ratio (z) = 0.34316 0.39611
#
# Static dielectric constant tensor:
#      x y z
#    x 2.023050 0.000000 -0.007140 
#    y 0.000000 1.977300 0.000000 
#    z -0.007140 0.000000 2.023270 
# 
# From -- ./inp_files/12404.got.cif
#   From: 2010.05.17/outbox.cif.g08.bks.cpg/sg9_7_cif.got.tgz:12404.got - 2010.06.03 20:04:27.
