data_PCOD9137987
_publ_section_title
;
Structure prediction by ZEFSAII (Michael W. Deem and Ramdas Pophale) SiO2 
 PCOD9137987
Probable space group: C C
;
_chemical_formula_sum "Si O2"
_cell_formula_units_Z 28
_cell_length_a 6.572878
_cell_length_b 15.859881
_cell_length_c 11.869614
_cell_angle_alpha 90.000000
_cell_angle_beta 89.149021
_cell_angle_gamma 90.000000
_cell_volume 1237.212185
_symmetry_space_group_name_H-M "C C"
_symmetry_group_IT_number 9
_symmetry_cell_setting 'monoclinic'
loop_
_space_group_symop_operation_xyz
x,y,z
x,-y,1/2+z
1/2+x,1/2+y,z
1/2+x,1/2-y,1/2+z
loop_
_atom_site_type_symbol
_atom_site_label
_atom_site_fract_x
_atom_site_fract_y
_atom_site_fract_z
Si Si1 0.326700 0.325312 0.135120
Si Si2 0.530805 0.021761 0.678534
Si Si3 0.442209 0.098458 0.369726
Si Si4 0.193740 0.132144 0.792419
Si Si5 0.831250 0.801409 0.891141
Si Si6 0.613927 0.345821 0.697133
Si Si7 0.741437 0.468932 0.514858
O O1 0.208518 0.414461 0.144276
O O2 0.497736 0.330347 0.231092
O O3 0.167894 0.246654 0.146909
O O4 0.431017 0.312386 0.012261
O O5 0.328251 0.077931 0.704789
O O6 0.558226 0.975669 0.798725
O O7 0.462841 0.958236 0.578326
O O8 0.605541 0.163423 0.413078
O O9 0.305298 0.139440 0.276061
O O10 0.293592 0.061098 0.465250
O O11 0.324661 0.206309 0.847897
O O12 0.159938 0.073280 0.900635
O O13 0.926914 0.848132 0.783854
O O14 0.601719 0.422407 0.608641
#
# Coordination Sequence:
#
# PCOD9137987 Si02
#       7
#     4   4   4   4   4   4   4
#     4  12  24  43  72 102 138 185 237 285 354 420
#     4  10  23  44  69  98 141 179 226 293 356 417
#     4  10  23  44  69  98 141 179 226 293 356 417
#     4  11  24  43  70 105 137 184 239 285 348 423
#     4  12  24  43  72 102 138 185 237 285 354 420
#     4  11  24  43  70 105 137 184 239 285 348 423
#     4  10  22  46  70  94 146 186 222 296 364 402
#
# _framework density 22.631526000000001
#
# number of rings (size 3 to 8) (size 9 to 14) (size 15 to 20)
#    0.000    1.143    5.714    0.000    2.000    3.429 
#    2.571    5.714    0.000    0.000    0.000    0.000 
#    0.000    0.000    0.000    0.000    0.000    0.000 
#
# Total GULP energy -77950.388256 kJ/mol
# GULP energy per Si atom -5567.884875 kJ/mol
# Density = 2.258002 g / cm^3
# Si number density = 22.631526 Si / 1000 Ang^3
#
#
#
# Elastic Constant Matrix: (Units=GPa)
#
#
# Indices 1 2 3 4 5 6 
#
# 1 33.0739 9.2991 18.3800 0.0000 -5.9477 0.0000
# 2 9.2991 38.7564 10.6924 0.0000 -13.3015 0.0000
# 3 18.3800 10.6924 136.4134 0.0000 -0.6724 0.0000
# 4 0.0000 0.0000 0.0000 8.0925 0.0000 5.5216
# 5 -5.9477 -13.3015 -0.6724 0.0000 27.2426 0.0000
# 6 0.0000 0.0000 0.0000 5.5216 0.0000 24.4414
#
#
#
# Elastic Compliance Matrix: (Units=1/GPa)
#
#
# Indices 1 2 3 4 5 6 
#
# 1 0.035038 -0.005577 -0.004260 0.000000 0.004821 0.000000
# 2 -0.005577 0.032660 -0.001736 0.000000 0.014686 0.000000
# 3 -0.004260 -0.001736 0.008033 0.000000 -0.001579 0.000000
# 4 0.000000 0.000000 0.000000 0.146089 0.000000 -0.033003
# 5 0.004821 0.014686 -0.001579 0.000000 0.044891 0.000000
# 6 0.000000 0.000000 0.000000 -0.033003 0.000000 0.048370
#
#
# Mechanical properties :
#
#
# Convention : Reuss Voigt Hill
#
# Bulk Modulus (GPa) = 19.01710 31.66520 25.34115
# Shear Modulus (GPa) = 14.05463 23.28011 18.66737
#
# Velocity S-wave (km/s) = 2.49473 3.21075 2.87512
# Velocity P-wave (km/s) = 4.08894 5.26946 4.71628
#
# Compressibility (1/GPa) = 0.05258426
#
# Stress axis : x y z
#
# Youngs Moduli (GPa) = 28.54065 30.61885 124.48742
#
# Poissons Ratio (x) = 0.17076 0.53032
# Poissons Ratio (y) = 0.15917 0.21613
# Poissons Ratio (z) = 0.12158 0.05316
#
# Static dielectric constant tensor:
#      x y z
#    x 1.851890 0.000000 -0.053570 
#    y 0.000000 1.924120 0.000000 
#    z -0.053570 0.000000 1.975760 
# 
# From -- ./inp_files/13098.got.cif
#   From: 2010.05.17/outbox.cif.g08.bks.cpg/sg9_7_cif.got.tgz:13098.got - 2010.06.03 20:04:27.
