data_PCOD9137483
_publ_section_title
;
Structure prediction by ZEFSAII (Michael W. Deem and Ramdas Pophale) SiO2 
 PCOD9137483
Probable space group: C C
;
_chemical_formula_sum "Si O2"
_cell_formula_units_Z 28
_cell_length_a 8.766207
_cell_length_b 27.927123
_cell_length_c 9.103632
_cell_angle_alpha 90.000000
_cell_angle_beta 30.245367
_cell_angle_gamma 90.000000
_cell_volume 1122.607968
_symmetry_space_group_name_H-M "C C"
_symmetry_group_IT_number 9
_symmetry_cell_setting 'monoclinic'
loop_
_space_group_symop_operation_xyz
x,y,z
x,-y,1/2+z
1/2+x,1/2+y,z
1/2+x,1/2-y,1/2+z
loop_
_atom_site_type_symbol
_atom_site_label
_atom_site_fract_x
_atom_site_fract_y
_atom_site_fract_z
Si Si1 0.549820 0.062197 0.736280
Si Si2 0.137233 0.003491 0.265636
Si Si3 0.708417 0.627530 0.544555
Si Si4 0.147246 0.444673 0.836445
Si Si5 0.074099 0.362161 0.459511
Si Si6 0.418819 0.215722 0.560676
Si Si7 0.704524 0.219052 0.631297
O O1 0.637254 0.082178 0.501223
O O2 0.466391 0.103307 0.919651
O O3 0.878813 0.041968 0.512623
O O4 0.271739 0.023366 0.994658
O O5 0.939816 0.958110 0.496603
O O6 0.476562 0.992788 0.040782
O O7 0.358909 0.616362 0.811504
O O8 0.766229 0.671293 0.607474
O O9 0.908180 0.582512 0.431666
O O10 0.823650 0.643996 0.290074
O O11 0.179900 0.314343 0.291141
O O12 0.716228 0.236184 0.234619
O O13 0.518010 0.202012 0.643519
O O14 0.045323 0.230295 0.301424
#
# Coordination Sequence:
#
# PCOD9137483 Si02
#       7
#     4   4   4   4   4   4   4
#     4  11  24  44  67  92 127 171 214 262 321 388
#     4  10  24  40  66  96 120 158 216 270 316 368
#     4  12  26  41  63  96 133 169 210 267 323 380
#     4  11  24  44  67  92 127 171 214 262 321 388
#     4  12  26  41  63  96 133 169 210 267 323 380
#     4  10  22  42  67  93 125 169 217 262 315 385
#     4  10  22  42  67  93 125 169 217 262 315 385
#
# _framework density 24.941922999999999
#
# number of rings (size 3 to 8) (size 9 to 14) (size 15 to 20)
#    0.000    1.143    0.000    5.143    0.000   14.857 
#    0.000    8.571    0.000    0.000    0.000    0.000 
#    0.000    0.000    0.000    0.000    0.000    0.000 
#
# Total GULP energy -77953.489684 kJ/mol
# GULP energy per Si atom -5568.106406 kJ/mol
# Density = 2.488515 g / cm^3
# Si number density = 24.941923 Si / 1000 Ang^3
#
#
#
# Elastic Constant Matrix: (Units=GPa)
#
#
# Indices 1 2 3 4 5 6 
#
# 1 54.5352 29.8244 21.6694 0.0000 7.5771 0.0000
# 2 29.8244 48.5967 23.6034 0.0000 13.6776 0.0000
# 3 21.6694 23.6034 168.0523 0.0000 4.1262 0.0000
# 4 0.0000 0.0000 0.0000 30.0725 0.0000 3.6881
# 5 7.5771 13.6776 4.1262 0.0000 39.1895 0.0000
# 6 0.0000 0.0000 0.0000 3.6881 0.0000 19.0473
#
#
#
# Elastic Compliance Matrix: (Units=1/GPa)
#
#
# Indices 1 2 3 4 5 6 
#
# 1 0.027864 -0.016640 -0.001269 0.000000 0.000554 0.000000
# 2 -0.016640 0.034391 -0.002475 0.000000 -0.008525 0.000000
# 3 -0.001269 -0.002475 0.006451 0.000000 0.000430 0.000000
# 4 0.000000 0.000000 0.000000 0.034062 0.000000 -0.006595
# 5 0.000554 -0.008525 0.000430 0.000000 0.028340 0.000000
# 6 0.000000 0.000000 0.000000 -0.006595 0.000000 0.053778
#
#
# Mechanical properties :
#
#
# Convention : Reuss Voigt Hill
#
# Bulk Modulus (GPa) = 35.79425 46.81983 41.30704
# Shear Modulus (GPa) = 21.27940 30.73434 26.00687
#
# Velocity S-wave (km/s) = 2.92406 3.51413 3.23259
# Velocity P-wave (km/s) = 5.07763 5.93951 5.52540
#
# Compressibility (1/GPa) = 0.02793745
#
# Stress axis : x y z
#
# Youngs Moduli (GPa) = 35.88818 29.07704 155.00682
#
# Poissons Ratio (x) = 0.48384 0.19677
# Poissons Ratio (y) = 0.59718 0.38371
# Poissons Ratio (z) = 0.04556 0.07198
#
# Static dielectric constant tensor:
#      x y z
#    x 2.097600 0.000000 0.027890 
#    y 0.000000 2.140150 0.000000 
#    z 0.027890 0.000000 1.922620 
# 
# From -- ./inp_files/6552.got.cif
#   From: 2010.05.17/outbox.cif.g08.bks.cpg/sg9_4_cif.got.tgz:6552.got - 2010.06.03 20:04:27.
