data_PCOD9137586
_publ_section_title
;
Structure prediction by ZEFSAII (Michael W. Deem and Ramdas Pophale) SiO2 
 PCOD9137586
Probable space group: C C
;
_chemical_formula_sum "Si O2"
_cell_formula_units_Z 28
_cell_length_a 15.335820
_cell_length_b 5.243650
_cell_length_c 39.090624
_cell_angle_alpha 90.000000
_cell_angle_beta 161.189509
_cell_angle_gamma 90.000000
_cell_volume 1013.586690
_symmetry_space_group_name_H-M "C C"
_symmetry_group_IT_number 9
_symmetry_cell_setting 'monoclinic'
loop_
_space_group_symop_operation_xyz
x,y,z
x,-y,1/2+z
1/2+x,1/2+y,z
1/2+x,1/2-y,1/2+z
loop_
_atom_site_type_symbol
_atom_site_label
_atom_site_fract_x
_atom_site_fract_y
_atom_site_fract_z
Si Si1 0.553730 0.830995 0.819630
Si Si2 0.770602 0.274509 0.586574
Si Si3 0.708462 0.503203 0.788886
Si Si4 0.700230 0.665612 0.406791
Si Si5 0.571581 0.332927 0.967675
Si Si6 0.819583 0.608365 0.671650
Si Si7 0.281646 0.479858 0.998674
O O1 0.538857 0.335056 0.753136
O O2 0.866414 0.827662 0.923263
O O3 0.526385 0.093523 0.829560
O O4 0.379455 0.881957 0.720994
O O5 0.480749 0.158089 0.489591
O O6 0.742143 0.415602 0.539516
O O7 0.817202 0.497037 0.632643
O O8 0.008148 0.080319 0.684576
O O9 0.986038 0.354259 0.884494
O O10 0.845228 0.763458 0.854674
O O11 0.528706 0.418162 0.333232
O O12 0.785394 0.764482 0.475842
O O13 0.776359 0.103499 0.034603
O O14 0.520580 0.690336 0.572485
#
# Coordination Sequence:
#
# PCOD9137586 Si02
#       7
#     4   4   4   4   4   4   4
#     4  11  22  44  74 107 153 210 259 325 396 473
#     4  10  22  42  77 105 150 214 253 325 405 483
#     4  10  22  45  73 110 163 201 266 324 408 465
#     4  10  24  43  71 110 151 208 264 321 395 475
#     4   9  21  45  70 112 149 201 268 324 391 482
#     4  11  22  44  75 109 158 215 257 325 411 475
#     4   9  23  47  68 117 152 203 267 338 378 499
#
# _framework density 27.624673000000001
#
# number of rings (size 3 to 8) (size 9 to 14) (size 15 to 20)
#    0.857    1.143    1.429    0.857    6.000    1.143 
#    7.714    0.000    0.000    0.000    7.429    0.000 
#    0.000    0.000    0.000    0.000    0.000    0.000 
#
# Total GULP energy -78134.317199 kJ/mol
# GULP energy per Si atom -5581.022657 kJ/mol
# Density = 2.756180 g / cm^3
# Si number density = 27.624673 Si / 1000 Ang^3
#
#
#
# Elastic Constant Matrix: (Units=GPa)
#
#
# Indices 1 2 3 4 5 6 
#
# 1 82.4381 29.8676 46.0601 0.0044 23.6799 0.0026
# 2 29.8676 153.7604 63.6364 -0.0016 -7.9935 0.0124
# 3 46.0601 63.6364 149.7719 -0.0468 -4.8236 0.0031
# 4 0.0044 -0.0016 -0.0468 35.9396 0.0147 -7.2193
# 5 23.6799 -7.9935 -4.8236 0.0147 66.8098 0.0099
# 6 0.0026 0.0124 0.0031 -7.2193 0.0099 28.0604
#
#
#
# Elastic Compliance Matrix: (Units=1/GPa)
#
#
# Indices 1 2 3 4 5 6 
#
# 1 0.017383 -0.001728 -0.004828 -0.000006 -0.006717 0.000001
# 2 -0.001728 0.008096 -0.002864 -0.000005 0.001374 -0.000005
# 3 -0.004828 -0.002864 0.009445 0.000013 0.002050 0.000003
# 4 -0.000006 -0.000005 0.000013 0.029341 -0.000005 0.007549
# 5 -0.006717 0.001374 0.002050 -0.000005 0.017661 -0.000008
# 6 0.000001 -0.000005 0.000003 0.007549 -0.000008 0.037579
#
#
# Mechanical properties :
#
#
# Convention : Reuss Voigt Hill
#
# Bulk Modulus (GPa) = 62.17499 73.89986 68.03743
# Shear Modulus (GPa) = 34.79308 42.58905 38.69106
#
# Velocity S-wave (km/s) = 3.55278 3.93071 3.74652
# Velocity P-wave (km/s) = 6.27580 6.88550 6.58771
#
# Compressibility (1/GPa) = 0.01608364
#
# Stress axis : x y z
#
# Youngs Moduli (GPa) = 57.52706 123.51582 105.87871
#
# Poissons Ratio (x) = 0.21338 0.51121
# Poissons Ratio (y) = 0.09938 0.30328
# Poissons Ratio (z) = 0.27775 0.35380
#
# Static dielectric constant tensor:
#      x y z
#    x 2.301880 0.000010 -0.012810 
#    y 0.000010 2.207360 0.000030 
#    z -0.012810 0.000030 2.205870 
# 
# From -- ./inp_files/37319.got.cif
#   From: 2010.05.17/outbox.cif.g08.bks.cpg/sg9_19_cif.got.tgz:37319.got - 2010.06.03 20:04:27.
