data_PCOD9137906
_publ_section_title
;
Structure prediction by ZEFSAII (Michael W. Deem and Ramdas Pophale) SiO2 
 PCOD9137906
Probable space group: C C
;
_chemical_formula_sum "Si O2"
_cell_formula_units_Z 24
_cell_length_a 7.587776
_cell_length_b 12.019737
_cell_length_c 13.916918
_cell_angle_alpha 90.000000
_cell_angle_beta 52.866366
_cell_angle_gamma 90.000000
_cell_volume 1011.896284
_symmetry_space_group_name_H-M "C C"
_symmetry_group_IT_number 9
_symmetry_cell_setting 'monoclinic'
loop_
_space_group_symop_operation_xyz
x,y,z
x,-y,1/2+z
1/2+x,1/2+y,z
1/2+x,1/2-y,1/2+z
loop_
_atom_site_type_symbol
_atom_site_label
_atom_site_fract_x
_atom_site_fract_y
_atom_site_fract_z
Si Si1 0.780700 0.368606 0.420580
Si Si2 0.778754 0.168389 0.050875
Si Si3 0.312526 0.899568 0.988173
Si Si4 0.005674 0.152139 0.430617
Si Si5 0.771809 0.007118 0.879540
Si Si6 0.197421 0.541744 0.692500
O O1 0.545465 0.331492 0.459852
O O2 0.947287 0.415667 0.285312
O O3 0.915957 0.269582 0.425041
O O4 0.566015 0.078420 0.433965
O O5 0.716524 0.297314 0.081179
O O6 0.705410 0.087026 0.159649
O O7 0.709252 0.102402 0.977053
O O8 0.241938 0.854532 0.904954
O O9 0.231689 0.027631 0.008602
O O10 0.975226 0.063039 0.355156
O O11 0.834006 0.108620 0.568453
O O12 0.801065 0.054492 0.763932
#
# Coordination Sequence:
#
# PCOD9137906 Si02
#       6
#     4   4   4   4   4   4
#     4  11  23  46  74 102 148 184 239 299 349 429
#     4  11  23  48  71 104 149 180 245 305 345 433
#     4  11  21  44  73  96 139 192 223 303 353 405
#     4  11  23  47  72 106 149 183 243 302 345 436
#     4  10  22  45  70 102 142 181 241 295 344 433
#     4  10  24  46  72 110 137 198 239 278 382 414
#
# _framework density 23.717845000000001
#
# number of rings (size 3 to 8) (size 9 to 14) (size 15 to 20)
#    0.000    1.333    5.000    2.000    0.000    1.333 
#   18.000    0.000    0.000    0.000    0.000    0.000 
#    0.000    0.000    0.000    0.000    0.000    0.000 
#
# Total GULP energy -66972.321260 kJ/mol
# GULP energy per Si atom -5581.026772 kJ/mol
# Density = 2.366386 g / cm^3
# Si number density = 23.717845 Si / 1000 Ang^3
#
#
#
# Elastic Constant Matrix: (Units=GPa)
#
#
# Indices 1 2 3 4 5 6 
#
# 1 110.8165 13.5331 11.0272 0.0000 8.5723 0.0002
# 2 13.5331 144.6556 13.3200 0.0000 -7.1169 0.0001
# 3 11.0272 13.3200 71.2914 0.0000 -3.5345 0.0001
# 4 0.0000 0.0000 0.0000 25.3143 0.0000 -0.3743
# 5 8.5723 -7.1169 -3.5345 0.0000 37.0304 -0.0001
# 6 0.0002 0.0001 0.0001 -0.3743 -0.0001 44.2556
#
#
#
# Elastic Compliance Matrix: (Units=1/GPa)
#
#
# Indices 1 2 3 4 5 6 
#
# 1 0.009466 -0.000877 -0.001424 0.000000 -0.002496 0.000000
# 2 -0.000877 0.007172 -0.001131 0.000000 0.001473 0.000000
# 3 -0.001424 -0.001131 0.014533 0.000000 0.001499 0.000000
# 4 0.000000 0.000000 0.000000 0.039508 0.000000 0.000334
# 5 -0.002496 0.001473 0.001499 0.000000 0.028009 0.000000
# 6 0.000000 0.000000 0.000000 0.000334 0.000000 0.022599
#
#
# Mechanical properties :
#
#
# Convention : Reuss Voigt Hill
#
# Bulk Modulus (GPa) = 41.14287 44.72488 42.93388
# Shear Modulus (GPa) = 36.69639 40.57893 38.63766
#
# Velocity S-wave (km/s) = 3.93772 4.14079 4.04053
# Velocity P-wave (km/s) = 6.16917 6.46216 6.31737
#
# Compressibility (1/GPa) = 0.02430555
#
# Stress axis : x y z
#
# Youngs Moduli (GPa) = 105.64321 139.43704 68.80942
#
# Poissons Ratio (x) = 0.12232 0.09798
# Poissons Ratio (y) = 0.09267 0.07784
# Poissons Ratio (z) = 0.15043 0.15773
#
# Static dielectric constant tensor:
#      x y z
#    x 1.936620 0.000000 0.002550 
#    y 0.000000 1.928020 0.000000 
#    z 0.002550 0.000000 1.897350 
# 
# From -- ./inp_files/22462.got.cif
#   From: 2010.05.17/outbox.cif.g08.bks.cpg/sg9_12_cif.got.tgz:22462.got - 2010.06.03 20:04:27.
