data_PCOD9137439
_publ_section_title
;
Structure prediction by ZEFSAII (Michael W. Deem and Ramdas Pophale) SiO2 
 PCOD9137439
Probable space group: C C
;
_chemical_formula_sum "Si O2"
_cell_formula_units_Z 28
_cell_length_a 14.163259
_cell_length_b 7.939978
_cell_length_c 21.522365
_cell_angle_alpha 90.000000
_cell_angle_beta 30.672229
_cell_angle_gamma 90.000000
_cell_volume 1234.667526
_symmetry_space_group_name_H-M "C C"
_symmetry_group_IT_number 9
_symmetry_cell_setting 'monoclinic'
loop_
_space_group_symop_operation_xyz
x,y,z
x,-y,1/2+z
1/2+x,1/2+y,z
1/2+x,1/2-y,1/2+z
loop_
_atom_site_type_symbol
_atom_site_label
_atom_site_fract_x
_atom_site_fract_y
_atom_site_fract_z
Si Si1 0.195210 0.390402 0.662530
Si Si2 0.085758 0.672407 0.010777
Si Si3 0.275456 0.919287 0.194736
Si Si4 0.595697 0.471113 0.923049
Si Si5 0.331472 0.093305 0.905120
Si Si6 0.917451 0.035099 0.331304
Si Si7 0.567118 0.611838 0.634652
O O1 0.255189 0.274149 0.687020
O O2 0.381816 0.481223 0.534872
O O3 0.120938 0.261919 0.651681
O O4 0.029876 0.515067 0.774518
O O5 0.993897 0.795919 0.113902
O O6 0.972182 0.501538 0.069092
O O7 0.105135 0.774071 0.935937
O O8 0.286287 0.620915 0.923838
O O9 0.215406 0.965369 0.297898
O O10 0.124230 0.013269 0.238119
O O11 0.688150 0.556280 0.930707
O O12 0.345567 0.293090 0.900593
O O13 0.244414 0.997170 0.013063
O O14 0.931324 0.014033 0.248707
#
# Coordination Sequence:
#
# PCOD9137439 Si02
#       7
#     4   4   4   4   4   4   4
#     4  11  22  41  63  91 124 161 203 251 304 364
#     4  11  22  41  63  91 124 161 203 251 304 364
#     4  11  23  39  62  90 120 160 204 251 302 359
#     4  11  23  39  62  90 120 160 204 251 302 359
#     4  11  24  41  62  91 124 162 204 251 305 362
#     4  11  24  41  62  91 124 162 204 251 305 362
#     4  10  22  42  64  88 124 166 204 250 304 362
#
# _framework density 22.678170999999999
#
# number of rings (size 3 to 8) (size 9 to 14) (size 15 to 20)
#    0.000    1.143    0.000    8.571    0.000    8.000 
#    0.000   10.000    0.000    0.000    0.000    0.000 
#    0.000    0.000    0.000    0.000    0.000    0.000 
#
# Total GULP energy -78255.265424 kJ/mol
# GULP energy per Si atom -5589.661816 kJ/mol
# Density = 2.262655 g / cm^3
# Si number density = 22.678171 Si / 1000 Ang^3
#
#
#
# Elastic Constant Matrix: (Units=GPa)
#
#
# Indices 1 2 3 4 5 6 
#
# 1 36.8309 0.3820 -6.1567 -0.0001 5.0763 0.0000
# 2 0.3820 88.3619 13.3725 -0.0001 5.5900 0.0000
# 3 -6.1567 13.3725 46.3235 -0.0004 5.7845 0.0001
# 4 -0.0001 -0.0001 -0.0004 41.1097 0.0002 -7.7585
# 5 5.0763 5.5900 5.7845 0.0002 39.4729 0.0000
# 6 0.0000 0.0000 0.0001 -7.7585 0.0000 23.3405
#
#
#
# Elastic Compliance Matrix: (Units=1/GPa)
#
#
# Indices 1 2 3 4 5 6 
#
# 1 0.028489 -0.000531 0.004470 0.000000 -0.004243 0.000000
# 2 -0.000531 0.011900 -0.003365 0.000000 -0.001124 0.000000
# 3 0.004470 -0.003365 0.023597 0.000000 -0.003556 0.000000
# 4 0.000000 0.000000 0.000000 0.025953 0.000000 0.008627
# 5 -0.004243 -0.001124 -0.003556 0.000000 0.026560 0.000000
# 6 0.000000 0.000000 0.000000 0.008627 0.000000 0.045712
#
#
# Mechanical properties :
#
#
# Convention : Reuss Voigt Hill
#
# Bulk Modulus (GPa) = 15.35361 20.74575 18.04968
# Shear Modulus (GPa) = 27.35607 31.71251 29.53429
#
# Velocity S-wave (km/s) = 3.47691 3.74354 3.61269
# Velocity P-wave (km/s) = 4.78576 5.27761 5.03769
#
# Compressibility (1/GPa) = 0.06513126
#
# Stress axis : x y z
#
# Youngs Moduli (GPa) = 35.10173 84.03497 42.37839
#
# Poissons Ratio (x) = 0.04463 -0.18941
# Poissons Ratio (y) = 0.01864 0.14262
# Poissons Ratio (z) = -0.15689 0.28282
#
# Static dielectric constant tensor:
#      x y z
#    x 1.858100 0.000000 0.047340 
#    y 0.000000 1.857630 0.000000 
#    z 0.047340 0.000000 1.862020 
# 
# From -- ./inp_files/17556.got.cif
#   From: 2010.05.17/outbox.cif.g08.bks.cpg/sg9_9_cif.got.tgz:17556.got - 2010.06.03 20:04:27.
