data_PCOD9137467
_publ_section_title
;
Structure prediction by ZEFSAII (Michael W. Deem and Ramdas Pophale) SiO2 
 PCOD9137467
Probable space group: C C
;
_chemical_formula_sum "Si O2"
_cell_formula_units_Z 32
_cell_length_a 10.775917
_cell_length_b 10.790024
_cell_length_c 13.265676
_cell_angle_alpha 90.000000
_cell_angle_beta 82.462146
_cell_angle_gamma 90.000000
_cell_volume 1529.102960
_symmetry_space_group_name_H-M "C C"
_symmetry_group_IT_number 9
_symmetry_cell_setting 'monoclinic'
loop_
_space_group_symop_operation_xyz
x,y,z
x,-y,1/2+z
1/2+x,1/2+y,z
1/2+x,1/2-y,1/2+z
loop_
_atom_site_type_symbol
_atom_site_label
_atom_site_fract_x
_atom_site_fract_y
_atom_site_fract_z
Si Si1 0.573720 0.426108 0.911850
Si Si2 0.507062 0.969808 0.248611
Si Si3 0.920588 0.802489 0.774565
Si Si4 0.157365 0.379302 0.879614
Si Si5 0.295006 0.167358 0.254799
Si Si6 0.979309 0.835166 0.329537
Si Si7 0.506858 0.525553 0.630337
Si Si8 0.236672 0.371291 0.102057
O O1 0.491191 0.314475 0.875536
O O2 0.696901 0.413932 0.829313
O O3 0.485712 0.542185 0.893725
O O4 0.597901 0.446990 0.026965
O O5 0.428946 0.842542 0.251581
O O6 0.625624 0.947502 0.165430
O O7 0.573329 0.006111 0.348205
O O8 0.416729 0.081967 0.225006
O O9 0.781857 0.857314 0.799843
O O10 0.991633 0.890839 0.685079
O O11 0.065755 0.264330 0.872071
O O12 0.203187 0.372245 0.988732
O O13 0.343571 0.279142 0.321601
O O14 0.246713 0.238225 0.159989
O O15 0.035282 0.878349 0.216654
O O16 0.369802 0.564080 0.605375
#
# Coordination Sequence:
#
# PCOD9137467 Si02
#       8
#     4   4   4   4   4   4   4   4
#     4  11  21  41  67  94 130 180 222 270 337 390
#     4  11  24  44  65  99 135 173 220 273 340 391
#     4  11  22  40  66  94 133 172 219 279 329 393
#     4  11  23  42  64  98 132 172 218 281 332 393
#     4  10  23  44  66  96 137 172 218 278 322 403
#     4   9  23  41  62  95 135 166 224 278 322 396
#     4  10  22  42  66  96 128 185 221 272 340 396
#     4  11  22  42  70  94 132 176 226 275 332 400
#
# _framework density 20.927302000000001
#
# number of rings (size 3 to 8) (size 9 to 14) (size 15 to 20)
#    0.000    1.500    3.750    0.750    1.750    1.000 
#    4.500    5.000    0.000    0.000    0.000    0.000 
#    0.000    0.000    0.000    0.000    0.000    0.000 
#
# Total GULP energy -89194.669011 kJ/mol
# GULP energy per Si atom -5574.666813 kJ/mol
# Density = 2.087967 g / cm^3
# Si number density = 20.927302 Si / 1000 Ang^3
#
#
#
# Elastic Constant Matrix: (Units=GPa)
#
#
# Indices 1 2 3 4 5 6 
#
# 1 71.7727 29.1979 26.1582 0.0000 3.9232 0.0000
# 2 29.1979 92.2841 32.3424 0.0000 -1.1975 0.0000
# 3 26.1582 32.3424 113.1647 0.0000 6.8970 0.0000
# 4 0.0000 0.0000 0.0000 11.6985 0.0000 9.1958
# 5 3.9232 -1.1975 6.8970 0.0000 26.4245 0.0000
# 6 0.0000 0.0000 0.0000 9.1958 0.0000 27.7812
#
#
#
# Elastic Compliance Matrix: (Units=1/GPa)
#
#
# Indices 1 2 3 4 5 6 
#
# 1 0.016762 -0.004463 -0.002474 0.000000 -0.002045 0.000000
# 2 -0.004463 0.013287 -0.002889 0.000000 0.002019 0.000000
# 3 -0.002474 -0.002889 0.010385 0.000000 -0.002474 0.000000
# 4 0.000000 0.000000 0.000000 0.115546 0.000000 -0.038247
# 5 -0.002045 0.002019 -0.002474 0.000000 0.038884 0.000000
# 6 0.000000 0.000000 0.000000 -0.038247 0.000000 0.048655
#
#
# Mechanical properties :
#
#
# Convention : Reuss Voigt Hill
#
# Bulk Modulus (GPa) = 48.11904 50.29095 49.20500
# Shear Modulus (GPa) = 18.51175 25.81570 22.16373
#
# Velocity S-wave (km/s) = 2.97741 3.51606 3.25788
# Velocity P-wave (km/s) = 5.90451 6.36922 6.14127
#
# Compressibility (1/GPa) = 0.02078179
#
# Stress axis : x y z
#
# Youngs Moduli (GPa) = 59.65883 75.26332 96.29207
#
# Poissons Ratio (x) = 0.33588 0.23827
# Poissons Ratio (y) = 0.26624 0.27817
# Poissons Ratio (z) = 0.14763 0.21742
#
# Static dielectric constant tensor:
#      x y z
#    x 1.770190 0.000000 0.005150 
#    y 0.000000 1.791750 0.000000 
#    z 0.005150 0.000000 1.789940 
# 
# From -- ./inp_files/16202.got.cif
#   From: 2010.05.17/outbox.cif.g08.bks.cpg/sg9_9_cif.got.tgz:16202.got - 2010.06.03 20:04:27.
