data_PCOD9137937
_publ_section_title
;
Structure prediction by ZEFSAII (Michael W. Deem and Ramdas Pophale) SiO2 
 PCOD9137937
Probable space group: C C
;
_chemical_formula_sum "Si O2"
_cell_formula_units_Z 32
_cell_length_a 14.075129
_cell_length_b 5.475699
_cell_length_c 18.525679
_cell_angle_alpha 90.000000
_cell_angle_beta 116.860850
_cell_angle_gamma 90.000000
_cell_volume 1273.745826
_symmetry_space_group_name_H-M "C C"
_symmetry_group_IT_number 9
_symmetry_cell_setting 'monoclinic'
loop_
_space_group_symop_operation_xyz
x,y,z
x,-y,1/2+z
1/2+x,1/2+y,z
1/2+x,1/2-y,1/2+z
loop_
_atom_site_type_symbol
_atom_site_label
_atom_site_fract_x
_atom_site_fract_y
_atom_site_fract_z
Si Si1 0.417740 0.953421 0.270550
Si Si2 0.781731 0.849886 0.021027
Si Si3 0.686341 0.415119 0.727231
Si Si4 0.455358 0.542749 0.695194
Si Si5 0.104963 0.188484 0.044451
Si Si6 0.893378 0.544699 0.497729
Si Si7 0.490860 0.308736 0.922059
Si Si8 0.280885 0.582649 0.865700
O O1 0.431636 0.714114 0.226271
O O2 0.500279 0.896192 0.364254
O O3 0.301553 0.958572 0.268545
O O4 0.432191 0.210916 0.233964
O O5 0.878890 0.967104 0.098702
O O6 0.675662 0.892655 0.030125
O O7 0.822490 0.567215 0.036212
O O8 0.758624 0.921488 0.929749
O O9 0.581431 0.547755 0.720710
O O10 0.668871 0.387656 0.636266
O O11 0.698031 0.158744 0.775519
O O12 0.990909 0.270127 0.036041
O O13 0.085077 0.987232 0.975873
O O14 0.811846 0.662346 0.414036
O O15 0.954367 0.316418 0.483571
O O16 0.389393 0.480149 0.867616
#
# Coordination Sequence:
#
# PCOD9137937 Si02
#       8
#     4   4   4   4   4   4   4   4
#     4  12  28  53  81 118 168 211 275 346 411 490
#     4  11  26  48  75 117 160 214 273 340 415 498
#     4  12  26  52  80 117 161 221 277 348 416 486
#     4  12  30  49  84 121 164 215 275 341 414 502
#     4  11  26  46  79 112 156 218 278 333 418 496
#     4  10  22  45  73 104 152 203 262 331 401 485
#     4  10  23  48  74 109 159 209 267 338 414 484
#     4  10  23  47  76 112 160 211 269 341 407 491
#
# _framework density 25.122751000000001
#
# number of rings (size 3 to 8) (size 9 to 14) (size 15 to 20)
#    0.000    1.000    2.500    3.000    5.250    7.000 
#    0.000    1.250    0.000    0.000    0.000    0.000 
#    0.000    0.000    0.000    0.000    0.000    0.000 
#
# Total GULP energy -89355.792144 kJ/mol
# GULP energy per Si atom -5584.737009 kJ/mol
# Density = 2.506557 g / cm^3
# Si number density = 25.122751 Si / 1000 Ang^3
#
#
#
# Elastic Constant Matrix: (Units=GPa)
#
#
# Indices 1 2 3 4 5 6 
#
# 1 112.5185 57.3727 28.5627 0.0000 -7.6861 0.0000
# 2 57.3727 101.6167 37.3648 0.0000 0.4310 0.0000
# 3 28.5627 37.3648 107.8221 0.0000 7.3564 0.0000
# 4 0.0000 0.0000 0.0000 38.2232 0.0000 -10.0099
# 5 -7.6861 0.4310 7.3564 0.0000 25.7599 0.0000
# 6 0.0000 0.0000 0.0000 -10.0099 0.0000 22.9687
#
#
#
# Elastic Compliance Matrix: (Units=1/GPa)
#
#
# Indices 1 2 3 4 5 6 
#
# 1 0.013043 -0.006879 -0.001372 0.000000 0.004399 0.000000
# 2 -0.006879 0.014928 -0.003257 0.000000 -0.001372 0.000000
# 3 -0.001372 -0.003257 0.011005 0.000000 -0.003498 0.000000
# 4 0.000000 0.000000 0.000000 0.029533 0.000000 0.012870
# 5 0.004399 -0.001372 -0.003498 0.000000 0.041154 0.000000
# 6 0.000000 0.000000 0.000000 0.012870 0.000000 0.049146
#
#
# Mechanical properties :
#
#
# Convention : Reuss Voigt Hill
#
# Bulk Modulus (GPa) = 62.65056 63.17307 62.91181
# Shear Modulus (GPa) = 26.71707 30.63418 28.67562
#
# Velocity S-wave (km/s) = 3.26461 3.49575 3.38216
# Velocity P-wave (km/s) = 6.26116 6.44159 6.35202
#
# Compressibility (1/GPa) = 0.01596155
#
# Stress axis : x y z
#
# Youngs Moduli (GPa) = 76.66670 66.98751 90.86471
#
# Poissons Ratio (x) = 0.46078 0.12464
# Poissons Ratio (y) = 0.52736 0.29599
# Poissons Ratio (z) = 0.10516 0.21821
#
# Static dielectric constant tensor:
#      x y z
#    x 1.983730 0.000000 -0.017930 
#    y 0.000000 2.049940 0.000000 
#    z -0.017930 0.000000 2.026540 
# 
# From -- ./inp_files/30493.got.cif
#   From: 2010.05.17/outbox.cif.g08.bks.cpg/sg9_16_cif.got.tgz:30493.got - 2010.06.03 20:04:27.
