data_PCOD9137890
_publ_section_title
;
Structure prediction by ZEFSAII (Michael W. Deem and Ramdas Pophale) SiO2 
 PCOD9137890
Probable space group: C C
;
_chemical_formula_sum "Si O2"
_cell_formula_units_Z 32
_cell_length_a 24.683049
_cell_length_b 5.565679
_cell_length_c 13.351454
_cell_angle_alpha 90.000000
_cell_angle_beta 134.510760
_cell_angle_gamma 90.000000
_cell_volume 1307.999008
_symmetry_space_group_name_H-M "C C"
_symmetry_group_IT_number 9
_symmetry_cell_setting 'monoclinic'
loop_
_space_group_symop_operation_xyz
x,y,z
x,-y,1/2+z
1/2+x,1/2+y,z
1/2+x,1/2-y,1/2+z
loop_
_atom_site_type_symbol
_atom_site_label
_atom_site_fract_x
_atom_site_fract_y
_atom_site_fract_z
Si Si1 0.287100 0.574368 0.367070
Si Si2 0.055713 0.249330 0.119501
Si Si3 0.650503 0.589840 0.625658
Si Si4 0.011189 0.615582 0.902233
Si Si5 0.689878 0.892413 0.405601
Si Si6 0.385796 0.176076 0.163472
Si Si7 0.232370 0.102707 0.062014
Si Si8 0.415739 0.489263 0.882581
O O1 0.211974 0.715878 0.237381
O O2 0.252545 0.375850 0.397209
O O3 0.344851 0.736084 0.509757
O O4 0.334782 0.511095 0.330516
O O5 0.102565 0.407083 0.257081
O O6 0.110542 0.023408 0.170404
O O7 0.050994 0.393216 0.009165
O O8 0.971676 0.148135 0.024776
O O9 0.578960 0.698047 0.470853
O O10 0.699645 0.393235 0.630820
O O11 0.955562 0.509249 0.745884
O O12 0.956446 0.735831 0.915645
O O13 0.698704 0.649199 0.478868
O O14 0.709642 0.145150 0.482936
O O15 0.413201 0.400004 0.267274
O O16 0.320936 0.069610 0.152613
#
# Coordination Sequence:
#
# PCOD9137890 Si02
#       8
#     4   4   4   4   4   4   4   4
#     4  11  24  45  78 104 143 198 257 302 380 446
#     4  10  22  46  68 101 147 189 245 300 374 448
#     4  11  24  44  75 105 141 203 249 306 382 450
#     4  10  22  45  68  97 149 188 241 306 376 441
#     4  11  25  47  72 110 149 188 250 314 356 451
#     4  10  24  45  67 105 148 186 247 312 368 451
#     4  11  27  44  74 108 150 190 248 313 371 437
#     4  10  24  46  70 104 145 196 237 313 375 446
#
# _framework density 24.464852
#
# number of rings (size 3 to 8) (size 9 to 14) (size 15 to 20)
#    0.000    1.500    1.250    2.250   12.250    0.000 
#   18.000    0.000    0.000    0.000    0.000    0.000 
#    0.000    0.000    0.000    0.000    0.000    0.000 
#
# Total GULP energy -89400.272817 kJ/mol
# GULP energy per Si atom -5587.517051 kJ/mol
# Density = 2.440917 g / cm^3
# Si number density = 24.464852 Si / 1000 Ang^3
#
#
#
# Elastic Constant Matrix: (Units=GPa)
#
#
# Indices 1 2 3 4 5 6 
#
# 1 74.9451 25.1881 10.8307 0.0000 14.1808 0.0000
# 2 25.1881 79.4670 26.0504 -0.0001 8.1043 -0.0001
# 3 10.8307 26.0504 109.5246 0.0000 24.3214 0.0000
# 4 0.0000 -0.0001 0.0000 40.5337 0.0000 13.5531
# 5 14.1808 8.1043 24.3214 0.0000 30.3575 0.0000
# 6 0.0000 -0.0001 0.0000 13.5531 0.0000 31.5177
#
#
#
# Elastic Compliance Matrix: (Units=1/GPa)
#
#
# Indices 1 2 3 4 5 6 
#
# 1 0.016134 -0.004752 0.001127 0.000000 -0.007171 0.000000
# 2 -0.004752 0.015088 -0.003305 0.000000 0.000840 0.000000
# 3 0.001127 -0.003305 0.011831 0.000000 -0.009123 0.000000
# 4 0.000000 0.000000 0.000000 0.028814 0.000000 -0.012390
# 5 -0.007171 0.000840 -0.009123 0.000000 0.043375 0.000000
# 6 0.000000 0.000000 0.000000 -0.012390 0.000000 0.037056
#
#
# Mechanical properties :
#
#
# Convention : Reuss Voigt Hill
#
# Bulk Modulus (GPa) = 34.25504 43.11944 38.68724
# Shear Modulus (GPa) = 28.42696 33.93961 31.18329
#
# Velocity S-wave (km/s) = 3.41244 3.72866 3.57405
# Velocity P-wave (km/s) = 5.43677 6.01669 5.73406
#
# Compressibility (1/GPa) = 0.02919278
#
# Stress axis : x y z
#
# Youngs Moduli (GPa) = 61.97993 66.27807 84.52469
#
# Poissons Ratio (x) = 0.31496 -0.09528
# Poissons Ratio (y) = 0.29454 0.27938
# Poissons Ratio (z) = -0.06987 0.21907
#
# Static dielectric constant tensor:
#      x y z
#    x 1.969180 0.000000 -0.060330 
#    y 0.000000 1.978400 0.000000 
#    z -0.060330 0.000000 2.005210 
# 
# From -- ./inp_files/27894.got.cif
#   From: 2010.05.17/outbox.cif.g08.bks.cpg/sg9_14_cif.got.tgz:27894.got - 2010.06.03 20:04:27.
