data_PCOD9137409
_publ_section_title
;
Structure prediction by ZEFSAII (Michael W. Deem and Ramdas Pophale) SiO2 
 PCOD9137409
Probable space group: C C
;
_chemical_formula_sum "Si O2"
_cell_formula_units_Z 24
_cell_length_a 9.338238
_cell_length_b 21.918681
_cell_length_c 5.337450
_cell_angle_alpha 90.000000
_cell_angle_beta 107.387055
_cell_angle_gamma 90.000000
_cell_volume 1042.561488
_symmetry_space_group_name_H-M "C C"
_symmetry_group_IT_number 9
_symmetry_cell_setting 'monoclinic'
loop_
_space_group_symop_operation_xyz
x,y,z
x,-y,1/2+z
1/2+x,1/2+y,z
1/2+x,1/2-y,1/2+z
loop_
_atom_site_type_symbol
_atom_site_label
_atom_site_fract_x
_atom_site_fract_y
_atom_site_fract_z
Si Si1 0.979100 0.157181 0.517840
Si Si2 0.290469 0.354747 0.414262
Si Si3 0.972248 0.583328 0.258952
Si Si4 0.525945 0.797633 0.502157
Si Si5 0.245781 0.512055 0.932975
Si Si6 0.308353 0.109442 0.687591
O O1 0.904835 0.149836 0.205738
O O2 0.009694 0.228976 0.577671
O O3 0.131301 0.118601 0.602675
O O4 0.869888 0.140914 0.689872
O O5 0.168891 0.302648 0.394679
O O6 0.198964 0.417864 0.399990
O O7 0.104940 0.533937 0.353490
O O8 0.873380 0.586607 0.457727
O O9 0.039443 0.651418 0.231337
O O10 0.870302 0.571484 0.959002
O O11 0.382452 0.823611 0.277952
O O12 0.336077 0.498137 0.731473
#
# Coordination Sequence:
#
# PCOD9137409 Si02
#       6
#     4   4   4   4   4   4
#     4  12  27  42  68 107 161 180 225 309 373 431
#     4  12  27  43  72 110 137 196 243 298 357 418
#     4  10  22  41  72 101 128 192 243 300 324 429
#     4  10  25  42  71 103 140 196 245 276 357 435
#     4  12  22  44  73 106 130 173 251 313 327 410
#     4  10  23  44  66 101 144 187 237 284 370 423
#
# _framework density 23.020227999999999
#
# number of rings (size 3 to 8) (size 9 to 14) (size 15 to 20)
#    1.000    0.000    1.667    5.000    7.000    0.000 
#    0.000    0.000    0.000   32.000    0.000    0.000 
#    0.000    0.000    0.000    0.000    0.000    0.000 
#
# Total GULP energy -67066.402052 kJ/mol
# GULP energy per Si atom -5588.866838 kJ/mol
# Density = 2.296783 g / cm^3
# Si number density = 23.020228 Si / 1000 Ang^3
#
#
#
# Elastic Constant Matrix: (Units=GPa)
#
#
# Indices 1 2 3 4 5 6 
#
# 1 100.9435 8.5399 37.8406 0.0000 -12.0820 0.0000
# 2 8.5399 108.0389 -4.4754 0.0000 -8.5664 0.0000
# 3 37.8406 -4.4754 126.2594 0.0000 -27.3057 0.0000
# 4 0.0000 0.0000 0.0000 26.4419 0.0000 -2.0243
# 5 -12.0820 -8.5664 -27.3057 0.0000 48.7788 0.0000
# 6 0.0000 0.0000 0.0000 -2.0243 0.0000 26.0586
#
#
#
# Elastic Compliance Matrix: (Units=1/GPa)
#
#
# Indices 1 2 3 4 5 6 
#
# 1 0.011302 -0.000963 -0.003246 0.000000 0.000813 0.000000
# 2 -0.000963 0.009537 0.001067 0.000000 0.002033 0.000000
# 3 -0.003246 0.001067 0.010009 0.000000 0.004986 0.000000
# 4 0.000000 0.000000 0.000000 0.038045 0.000000 0.002955
# 5 0.000813 0.002033 0.004986 0.000000 0.023851 0.000000
# 6 0.000000 0.000000 0.000000 0.002955 0.000000 0.038605
#
#
# Mechanical properties :
#
#
# Convention : Reuss Voigt Hill
#
# Bulk Modulus (GPa) = 40.70999 46.56135 43.63567
# Shear Modulus (GPa) = 34.28851 39.81163 37.05007
#
# Velocity S-wave (km/s) = 3.86358 4.16314 4.01616
# Velocity P-wave (km/s) = 6.13399 6.58629 6.36416
#
# Compressibility (1/GPa) = 0.02456400
#
# Stress axis : x y z
#
# Youngs Moduli (GPa) = 88.47968 104.84960 99.90926
#
# Poissons Ratio (x) = 0.10100 0.32426
# Poissons Ratio (y) = 0.08523 -0.10656
# Poissons Ratio (z) = 0.28716 -0.11182
#
# Static dielectric constant tensor:
#      x y z
#    x 1.817770 0.000000 -0.029770 
#    y 0.000000 1.889830 0.000000 
#    z -0.029770 0.000000 1.949480 
# 
# From -- ./inp_files/677.got.cif
#   From: 2010.05.17/outbox.cif.g08.bks.cpg/sg9_1_cif.got.tgz:677.got - 2010.06.03 20:04:27.
