data_PCOD9137123
_publ_section_title
;
Structure prediction by ZEFSAII (Michael W. Deem and Ramdas Pophale) SiO2 
 PCOD9137123
Probable space group: C C
;
_chemical_formula_sum "Si O2"
_cell_formula_units_Z 32
_cell_length_a 7.559001
_cell_length_b 16.761073
_cell_length_c 21.853825
_cell_angle_alpha 90.000000
_cell_angle_beta 32.807942
_cell_angle_gamma 90.000000
_cell_volume 1500.211520
_symmetry_space_group_name_H-M "C C"
_symmetry_group_IT_number 9
_symmetry_cell_setting 'monoclinic'
loop_
_space_group_symop_operation_xyz
x,y,z
x,-y,1/2+z
1/2+x,1/2+y,z
1/2+x,1/2-y,1/2+z
loop_
_atom_site_type_symbol
_atom_site_label
_atom_site_fract_x
_atom_site_fract_y
_atom_site_fract_z
Si Si1 0.739330 0.379670 0.461040
Si Si2 0.002417 0.396619 0.707118
Si Si3 0.705290 0.653564 0.727734
Si Si4 0.507747 0.991884 0.098365
Si Si5 0.416470 0.310223 0.078109
Si Si6 0.255779 0.733567 0.760714
Si Si7 0.221713 0.945612 0.911731
Si Si8 0.609930 0.135328 0.979724
O O1 0.356548 0.366815 0.582058
O O2 0.802423 0.466024 0.412318
O O3 0.912914 0.308417 0.374642
O O4 0.902951 0.380320 0.479426
O O5 0.969880 0.478846 0.679504
O O6 0.746325 0.329291 0.760765
O O7 0.967539 0.413312 0.789131
O O8 0.498701 0.716115 0.747505
O O9 0.484954 0.628479 0.849573
O O10 0.752340 0.579008 0.667824
O O11 0.059707 0.679494 0.649476
O O12 0.492725 0.070649 0.062536
O O13 0.867168 0.956327 0.983050
O O14 0.379899 0.304563 0.161597
O O15 0.647364 0.381610 0.986696
O O16 0.554722 0.225107 0.017358
#
# Coordination Sequence:
#
# PCOD9137123 Si02
#       8
#     4   4   4   4   4   4   4   4
#     4  10  25  38  69  94 129 164 216 268 313 382
#     4  11  22  44  63  93 130 168 211 262 322 378
#     4  10  24  42  63  90 136 162 207 277 310 381
#     4  10  22  39  65  93 125 171 205 262 323 381
#     4  11  24  42  68  94 127 174 214 259 324 381
#     4  11  24  42  67  95 128 170 217 260 321 378
#     4  10  23  40  67  92 128 171 211 260 322 383
#     4  11  22  43  62  97 127 164 217 262 321 376
#
# _framework density 21.330327
#
# number of rings (size 3 to 8) (size 9 to 14) (size 15 to 20)
#    0.000    1.500    1.250    3.000   10.500    2.000 
#    0.000    0.000    0.000    0.000    0.000    0.000 
#    0.000    0.000    0.000    0.000    0.000    0.000 
#
# Total GULP energy -89371.976868 kJ/mol
# GULP energy per Si atom -5585.748554 kJ/mol
# Density = 2.128178 g / cm^3
# Si number density = 21.330327 Si / 1000 Ang^3
#
#
#
# Elastic Constant Matrix: (Units=GPa)
#
#
# Indices 1 2 3 4 5 6 
#
# 1 32.1424 -3.8526 21.4345 -0.0096 12.7491 0.0234
# 2 -3.8526 91.9419 53.1803 -0.0077 -6.3609 -0.0118
# 3 21.4345 53.1803 103.9222 0.1736 19.3862 -0.0496
# 4 -0.0096 -0.0077 0.1736 60.5809 -0.0340 -1.2380
# 5 12.7491 -6.3609 19.3862 -0.0340 26.5492 -0.0052
# 6 0.0234 -0.0118 -0.0496 -1.2380 -0.0052 27.1401
#
#
#
# Elastic Compliance Matrix: (Units=1/GPa)
#
#
# Indices 1 2 3 4 5 6 
#
# 1 0.043500 0.007043 -0.010413 0.000030 -0.011598 -0.000054
# 2 0.007043 0.019949 -0.013802 0.000049 0.011475 -0.000018
# 3 -0.010413 -0.013802 0.021438 -0.000072 -0.013960 0.000036
# 4 0.000030 0.000049 -0.000072 0.016523 0.000071 0.000754
# 5 -0.011598 0.011475 -0.013960 0.000071 0.056178 0.000004
# 6 -0.000054 -0.000018 0.000036 0.000754 0.000004 0.036880
#
#
# Mechanical properties :
#
#
# Convention : Reuss Voigt Hill
#
# Bulk Modulus (GPa) = 19.78501 41.05895 30.42198
# Shear Modulus (GPa) = 20.35348 33.33700 26.84524
#
# Velocity S-wave (km/s) = 3.09237 3.95763 3.55145
# Velocity P-wave (km/s) = 4.69532 6.33835 5.57766
#
# Compressibility (1/GPa) = 0.05054332
#
# Stress axis : x y z
#
# Youngs Moduli (GPa) = 22.98847 50.12867 46.64720
#
# Poissons Ratio (x) = -0.35308 0.48574
# Poissons Ratio (y) = -0.16192 0.64382
# Poissons Ratio (z) = 0.23938 0.69187
#
# Static dielectric constant tensor:
#      x y z
#    x 1.766810 0.000010 -0.011100 
#    y 0.000010 1.757480 0.000000 
#    z -0.011100 0.000000 1.785740 
# 
# From -- ./inp_files/14595.got.cif
#   From: 2010.05.17/outbox.cif.g08.bks.cpg/sg9_8_cif.got.tgz:14595.got - 2010.06.03 20:04:27.
