data_PCOD9137565
_publ_section_title
;
Structure prediction by ZEFSAII (Michael W. Deem and Ramdas Pophale) SiO2 
 PCOD9137565
Probable space group: C C
;
_chemical_formula_sum "Si O2"
_cell_formula_units_Z 24
_cell_length_a 9.343706
_cell_length_b 23.448024
_cell_length_c 7.468471
_cell_angle_alpha 90.000000
_cell_angle_beta 34.523128
_cell_angle_gamma 90.000000
_cell_volume 927.342372
_symmetry_space_group_name_H-M "C C"
_symmetry_group_IT_number 9
_symmetry_cell_setting 'monoclinic'
loop_
_space_group_symop_operation_xyz
x,y,z
x,-y,1/2+z
1/2+x,1/2+y,z
1/2+x,1/2-y,1/2+z
loop_
_atom_site_type_symbol
_atom_site_label
_atom_site_fract_x
_atom_site_fract_y
_atom_site_fract_z
Si Si1 0.825180 0.769809 0.225590
Si Si2 0.739328 0.274100 0.406601
Si Si3 0.108273 0.554811 0.759532
Si Si4 0.111095 0.996514 0.614651
Si Si5 0.862468 0.892098 0.306808
Si Si6 0.418633 0.385570 0.657122
O O1 0.542163 0.767334 0.594634
O O2 0.776831 0.745375 0.075515
O O3 0.923650 0.834137 0.139094
O O4 0.603191 0.334650 0.525466
O O5 0.025623 0.267705 0.042760
O O6 0.133389 0.580460 0.930861
O O7 0.860362 0.520847 0.964171
O O8 0.345912 0.512371 0.493606
O O9 0.187715 0.603691 0.533889
O O10 0.083461 0.060584 0.573440
O O11 0.082186 0.943796 0.504922
O O12 0.824285 0.878085 0.553209
#
# Coordination Sequence:
#
# PCOD9137565 Si02
#       6
#     4   4   4   4   4   4
#     4  10  24  43  70 105 145 199 253 307 374 443
#     4  10  22  42  72 104 148 198 248 305 379 442
#     4  10  25  48  71 104 154 200 241 317 386 448
#     4  10  26  48  72 108 153 201 246 318 389 446
#     4  12  25  50  77 116 152 205 264 313 380 468
#     4  10  26  47  76 113 150 201 258 316 376 463
#
# _framework density 25.880409
#
# number of rings (size 3 to 8) (size 9 to 14) (size 15 to 20)
#    1.000    0.667    0.000    3.000    7.000    5.333 
#    6.000    0.000    0.000    0.000    0.000    0.000 
#    0.000    0.000    0.000    0.000    0.000    0.000 
#
# Total GULP energy -67030.740607 kJ/mol
# GULP energy per Si atom -5585.895051 kJ/mol
# Density = 2.582150 g / cm^3
# Si number density = 25.880409 Si / 1000 Ang^3
#
#
#
# Elastic Constant Matrix: (Units=GPa)
#
#
# Indices 1 2 3 4 5 6 
#
# 1 189.6491 79.6002 74.3615 0.0000 0.0387 0.0000
# 2 79.6002 187.0844 22.8392 0.0000 -8.6272 0.0000
# 3 74.3615 22.8392 88.8482 0.0000 -34.1394 0.0000
# 4 0.0000 0.0000 0.0000 24.3315 0.0000 -8.7453
# 5 0.0387 -8.6272 -34.1394 0.0000 51.6615 0.0000
# 6 0.0000 0.0000 0.0000 -8.7453 0.0000 61.3951
#
#
#
# Elastic Compliance Matrix: (Units=1/GPa)
#
#
# Indices 1 2 3 4 5 6 
#
# 1 0.011620 -0.003871 -0.012039 0.000000 -0.008611 0.000000
# 2 -0.003871 0.006808 0.002584 0.000000 0.002848 0.000000
# 3 -0.012039 0.002584 0.027927 0.000000 0.018896 0.000000
# 4 0.000000 0.000000 0.000000 0.043317 0.000000 0.006170
# 5 -0.008611 0.002848 0.018896 0.000000 0.032326 0.000000
# 6 0.000000 0.000000 0.000000 0.006170 0.000000 0.017167
#
#
# Mechanical properties :
#
#
# Convention : Reuss Voigt Hill
#
# Bulk Modulus (GPa) = 50.75224 91.02039 70.88632
# Shear Modulus (GPa) = 29.00486 46.72968 37.86727
#
# Velocity S-wave (km/s) = 3.35136 4.25385 3.82928
# Velocity P-wave (km/s) = 5.88458 7.70538 6.85570
#
# Compressibility (1/GPa) = 0.01970356
#
# Stress axis : x y z
#
# Youngs Moduli (GPa) = 86.05811 146.88120 35.80707
#
# Poissons Ratio (x) = 0.56864 0.43108
# Poissons Ratio (y) = 0.33317 -0.09254
# Poissons Ratio (z) = 1.03605 -0.37958
#
# Static dielectric constant tensor:
#      x y z
#    x 2.041090 0.000000 0.108230 
#    y 0.000000 2.101860 0.000000 
#    z 0.108230 0.000000 2.253990 
# 
# From -- ./inp_files/5981.got.cif
#   From: 2010.05.17/outbox.cif.g08.bks.cpg/sg9_3_cif.got.tgz:5981.got - 2010.06.03 20:04:27.
