data_PCOD9137246
_publ_section_title
;
Structure prediction by ZEFSAII (Michael W. Deem and Ramdas Pophale) SiO2 
 PCOD9137246
Probable space group: C C
;
_chemical_formula_sum "Si O2"
_cell_formula_units_Z 32
_cell_length_a 11.624283
_cell_length_b 15.827698
_cell_length_c 8.785984
_cell_angle_alpha 90.000000
_cell_angle_beta 110.765225
_cell_angle_gamma 90.000000
_cell_volume 1511.489056
_symmetry_space_group_name_H-M "C C"
_symmetry_group_IT_number 9
_symmetry_cell_setting 'monoclinic'
loop_
_space_group_symop_operation_xyz
x,y,z
x,-y,1/2+z
1/2+x,1/2+y,z
1/2+x,1/2-y,1/2+z
loop_
_atom_site_type_symbol
_atom_site_label
_atom_site_fract_x
_atom_site_fract_y
_atom_site_fract_z
Si Si1 0.525260 0.183050 0.739880
Si Si2 0.784511 0.862006 0.470153
Si Si3 0.018875 0.182048 0.674110
Si Si4 0.482712 0.540865 0.897278
Si Si5 0.414401 0.799657 0.874690
Si Si6 0.948079 0.849089 0.820386
Si Si7 0.747931 0.430215 0.617957
Si Si8 0.284068 0.112054 0.782089
O O1 0.642218 0.136679 0.864158
O O2 0.500179 0.165929 0.550555
O O3 0.535457 0.284014 0.771097
O O4 0.403679 0.157280 0.774334
O O5 0.839356 0.778205 0.414372
O O6 0.823797 0.856320 0.664280
O O7 0.859982 0.939821 0.433491
O O8 0.980616 0.096319 0.743591
O O9 0.161877 0.168671 0.700633
O O10 0.993794 0.258712 0.776191
O O11 0.938867 0.188148 0.485064
O O12 0.500100 0.443217 0.866729
O O13 0.599778 0.576643 0.044323
O O14 0.320346 0.867432 0.762679
O O15 0.772530 0.525341 0.682757
O O16 0.788445 0.410993 0.463184
#
# Coordination Sequence:
#
# PCOD9137246 Si02
#       8
#     4   4   4   4   4   4   4   4
#     4  11  26  45  64  99 141 189 230 281 358 414
#     4  10  25  41  66  97 138 180 226 282 357 411
#     4  10  22  40  67 103 133 170 234 286 351 400
#     4  10  22  42  67 102 128 180 228 287 340 412
#     4  10  24  44  68  98 139 185 225 293 348 416
#     4  11  22  40  69  94 136 176 232 286 334 413
#     4  11  23  42  74  98 137 174 241 285 344 411
#     4  11  24  42  69 103 136 184 234 286 344 415
#
# _framework density 21.171175999999999
#
# number of rings (size 3 to 8) (size 9 to 14) (size 15 to 20)
#    0.000    1.500    1.250    2.250   12.250    0.000 
#    4.500    0.000    0.000    0.000    0.000    0.000 
#    0.000    0.000    0.000    0.000    0.000    0.000 
#
# Total GULP energy -89474.990772 kJ/mol
# GULP energy per Si atom -5592.186923 kJ/mol
# Density = 2.112299 g / cm^3
# Si number density = 21.171176 Si / 1000 Ang^3
#
#
#
# Elastic Constant Matrix: (Units=GPa)
#
#
# Indices 1 2 3 4 5 6 
#
# 1 116.8871 42.6092 65.1747 0.0000 7.9122 0.0000
# 2 42.6092 88.4035 43.9355 0.0000 8.8275 0.0000
# 3 65.1747 43.9355 184.2866 0.0000 13.4328 0.0000
# 4 0.0000 0.0000 0.0000 37.3384 0.0000 0.4513
# 5 7.9122 8.8275 13.4328 0.0000 20.0444 0.0000
# 6 0.0000 0.0000 0.0000 0.4513 0.0000 22.5362
#
#
#
# Elastic Compliance Matrix: (Units=1/GPa)
#
#
# Indices 1 2 3 4 5 6 
#
# 1 0.011855 -0.004063 -0.003168 0.000000 -0.000767 0.000000
# 2 -0.004063 0.014504 -0.001758 0.000000 -0.003605 0.000000
# 3 -0.003168 -0.001758 0.007168 0.000000 -0.002779 0.000000
# 4 0.000000 0.000000 0.000000 0.026789 0.000000 -0.000536
# 5 -0.000767 -0.003605 -0.002779 0.000000 0.053642 0.000000
# 6 0.000000 0.000000 0.000000 -0.000536 0.000000 0.044384
#
#
# Mechanical properties :
#
#
# Convention : Reuss Voigt Hill
#
# Bulk Modulus (GPa) = 64.31262 77.00182 70.65722
# Shear Modulus (GPa) = 27.54785 31.84099 29.69442
#
# Velocity S-wave (km/s) = 3.61112 3.88232 3.74918
# Velocity P-wave (km/s) = 6.91595 7.51975 7.22416
#
# Compressibility (1/GPa) = 0.01554905
#
# Stress axis : x y z
#
# Youngs Moduli (GPa) = 84.35537 68.94770 139.49981
#
# Poissons Ratio (x) = 0.28011 0.44193
# Poissons Ratio (y) = 0.34271 0.24527
# Poissons Ratio (z) = 0.26724 0.12122
#
# Static dielectric constant tensor:
#      x y z
#    x 1.747300 0.000000 -0.015150 
#    y 0.000000 1.779110 0.000000 
#    z -0.015150 0.000000 1.788240 
# 
# From -- ./inp_files/7484.got.cif
#   From: 2010.05.17/outbox.cif.g08.bks.cpg/sg9_4_cif.got.tgz:7484.got - 2010.06.03 20:04:27.
