data_PCOD9137223
_publ_section_title
;
Structure prediction by ZEFSAII (Michael W. Deem and Ramdas Pophale) SiO2 
 PCOD9137223
Probable space group: C C
;
_chemical_formula_sum "Si O2"
_cell_formula_units_Z 28
_cell_length_a 13.461064
_cell_length_b 7.271196
_cell_length_c 12.426696
_cell_angle_alpha 90.000000
_cell_angle_beta 69.747986
_cell_angle_gamma 90.000000
_cell_volume 1141.107870
_symmetry_space_group_name_H-M "C C"
_symmetry_group_IT_number 9
_symmetry_cell_setting 'monoclinic'
loop_
_space_group_symop_operation_xyz
x,y,z
x,-y,1/2+z
1/2+x,1/2+y,z
1/2+x,1/2-y,1/2+z
loop_
_atom_site_type_symbol
_atom_site_label
_atom_site_fract_x
_atom_site_fract_y
_atom_site_fract_z
Si Si1 0.562840 0.546857 0.363810
Si Si2 0.372572 0.003951 0.388414
Si Si3 0.620852 0.831632 0.525803
Si Si4 0.532795 0.798548 0.991054
Si Si5 0.861239 0.216974 0.213665
Si Si6 0.844979 0.886812 0.348688
Si Si7 0.701850 0.456866 0.133711
O O1 0.572850 0.713479 0.444176
O O2 0.603410 0.355472 0.405755
O O3 0.447285 0.477037 0.367620
O O4 0.636772 0.592643 0.234170
O O5 0.464348 0.086957 0.429452
O O6 0.359413 0.175057 0.310468
O O7 0.271242 0.973962 0.505914
O O8 0.393295 0.827147 0.309380
O O9 0.746599 0.865308 0.465308
O O10 0.614592 0.692199 0.626968
O O11 0.577919 0.036456 0.545585
O O12 0.458857 0.682256 0.098215
O O13 0.784044 0.347360 0.176572
O O14 0.812776 0.023631 0.266517
#
# Coordination Sequence:
#
# PCOD9137223 Si02
#       7
#     4   4   4   4   4   4   4
#     4  11  24  45  66  98 142 176 231 284 342 418
#     4   9  21  43  66  97 135 172 227 279 345 408
#     4  11  24  45  66 101 136 182 226 279 355 408
#     4  10  24  40  69  99 133 180 224 284 342 415
#     4  11  22  43  68  97 131 175 227 284 341 407
#     4  10  23  42  66  95 134 178 221 279 337 412
#     4  10  22  40  65  97 133 173 220 287 336 408
#
# _framework density 24.537558000000001
#
# number of rings (size 3 to 8) (size 9 to 14) (size 15 to 20)
#    0.000    1.714    0.000    4.286    6.000    0.000 
#    2.571   14.286    0.000    0.000    0.000    0.000 
#    0.000    0.000    0.000    0.000    0.000    0.000 
#
# Total GULP energy -78201.537089 kJ/mol
# GULP energy per Si atom -5585.824078 kJ/mol
# Density = 2.448171 g / cm^3
# Si number density = 24.537558 Si / 1000 Ang^3
#
#
#
# Elastic Constant Matrix: (Units=GPa)
#
#
# Indices 1 2 3 4 5 6 
#
# 1 55.7447 -1.7971 5.6905 0.0000 4.0284 0.0000
# 2 -1.7971 100.2308 28.0778 0.0000 5.2905 0.0000
# 3 5.6905 28.0778 96.3132 0.0000 -2.8501 0.0000
# 4 0.0000 0.0000 0.0000 23.5059 0.0000 11.5844
# 5 4.0284 5.2905 -2.8501 0.0000 24.9203 0.0000
# 6 0.0000 0.0000 0.0000 11.5844 0.0000 15.1836
#
#
#
# Elastic Compliance Matrix: (Units=1/GPa)
#
#
# Indices 1 2 3 4 5 6 
#
# 1 0.018356 0.000910 -0.001448 0.000000 -0.003326 0.000000
# 2 0.000910 0.011090 -0.003372 0.000000 -0.002887 0.000000
# 3 -0.001448 -0.003372 0.011519 0.000000 0.002267 0.000000
# 4 0.000000 0.000000 0.000000 0.068178 0.000000 -0.052017
# 5 -0.003326 -0.002887 0.002267 0.000000 0.041538 0.000000
# 6 0.000000 0.000000 0.000000 -0.052017 0.000000 0.105547
#
#
# Mechanical properties :
#
#
# Convention : Reuss Voigt Hill
#
# Bulk Modulus (GPa) = 30.17064 35.13680 32.65372
# Shear Modulus (GPa) = 18.17539 27.40979 22.79259
#
# Velocity S-wave (km/s) = 2.72456 3.34586 3.05107
# Velocity P-wave (km/s) = 4.71382 5.41083 5.07430
#
# Compressibility (1/GPa) = 0.03314481
#
# Stress axis : x y z
#
# Youngs Moduli (GPa) = 54.47662 90.16805 86.81610
#
# Poissons Ratio (x) = -0.08209 0.12574
# Poissons Ratio (y) = -0.04960 0.29278
# Poissons Ratio (z) = 0.07890 0.30408
#
# Static dielectric constant tensor:
#      x y z
#    x 2.072450 0.000000 0.021580 
#    y 0.000000 1.937420 0.000000 
#    z 0.021580 0.000000 1.934830 
# 
# From -- ./inp_files/17711.got.cif
#   From: 2010.05.17/outbox.cif.g08.bks.cpg/sg9_9_cif.got.tgz:17711.got - 2010.06.03 20:04:27.
