data_PCOD9137062
_publ_section_title
;
Structure prediction by ZEFSAII (Michael W. Deem and Ramdas Pophale) SiO2 
 PCOD9137062
Probable space group: C C
;
_chemical_formula_sum "Si O2"
_cell_formula_units_Z 32
_cell_length_a 14.200171
_cell_length_b 9.835122
_cell_length_c 22.160672
_cell_angle_alpha 90.000000
_cell_angle_beta 28.505156
_cell_angle_gamma 90.000000
_cell_volume 1477.036151
_symmetry_space_group_name_H-M "C C"
_symmetry_group_IT_number 9
_symmetry_cell_setting 'monoclinic'
loop_
_space_group_symop_operation_xyz
x,y,z
x,-y,1/2+z
1/2+x,1/2+y,z
1/2+x,1/2-y,1/2+z
loop_
_atom_site_type_symbol
_atom_site_label
_atom_site_fract_x
_atom_site_fract_y
_atom_site_fract_z
Si Si1 0.385580 0.262018 0.590810
Si Si2 0.478430 0.036614 0.015260
Si Si3 0.834770 0.375420 0.727241
Si Si4 0.023004 0.206193 0.140209
Si Si5 0.881447 0.202036 0.493269
Si Si6 0.361803 0.574396 0.729255
Si Si7 0.656208 0.985943 0.216512
Si Si8 0.311070 0.895012 0.342083
O O1 0.388328 0.240384 0.661386
O O2 0.200577 0.355588 0.679756
O O3 0.582202 0.355804 0.473241
O O4 0.407196 0.118281 0.546002
O O5 0.426594 0.076589 0.112759
O O6 0.386638 0.152230 0.024019
O O7 0.709693 0.046438 0.869178
O O8 0.850137 0.488130 0.770417
O O9 0.928341 0.229944 0.692446
O O10 0.600450 0.343502 0.852784
O O11 0.022786 0.043909 0.138916
O O12 0.920456 0.258984 0.258477
O O13 0.234053 0.278760 0.020400
O O14 0.785030 0.097163 0.594898
O O15 0.238399 0.551207 0.736319
O O16 0.429439 0.947303 0.333665
#
# Coordination Sequence:
#
# PCOD9137062 Si02
#       8
#     4   4   4   4   4   4   4   4
#     4  11  22  39  64  92 128 162 208 264 315 376
#     4  11  22  38  62  90 126 167 206 263 314 371
#     4  11  22  40  63  90 130 168 208 259 321 378
#     4  10  22  38  64  94 122 161 211 260 311 379
#     4  10  22  39  63  93 122 169 210 256 317 380
#     4  10  22  40  63  92 126 161 214 260 314 371
#     4  10  22  41  64  92 124 165 209 261 319 378
#     4  11  22  39  63  91 126 165 210 255 321 377
#
# _framework density 21.665006999999999
#
# number of rings (size 3 to 8) (size 9 to 14) (size 15 to 20)
#    0.000    1.500    5.000    0.000    3.500    1.000 
#    0.000    0.000    5.500    0.000    0.000    0.000 
#    0.000    0.000    0.000    0.000    0.000    0.000 
#
# Total GULP energy -89348.342391 kJ/mol
# GULP energy per Si atom -5584.271399 kJ/mol
# Density = 2.161570 g / cm^3
# Si number density = 21.665007 Si / 1000 Ang^3
#
#
#
# Elastic Constant Matrix: (Units=GPa)
#
#
# Indices 1 2 3 4 5 6 
#
# 1 57.2196 21.5450 21.4955 0.0003 -1.5173 0.0001
# 2 21.5450 144.5308 21.0309 0.0002 6.2871 0.0001
# 3 21.4955 21.0309 82.8835 -0.0001 14.6487 0.0017
# 4 0.0003 0.0002 -0.0001 34.9752 0.0012 4.6764
# 5 -1.5173 6.2871 14.6487 0.0012 24.9617 0.0000
# 6 0.0001 0.0001 0.0017 4.6764 0.0000 15.5328
#
#
#
# Elastic Compliance Matrix: (Units=1/GPa)
#
#
# Indices 1 2 3 4 5 6 
#
# 1 0.020673 -0.002486 -0.005649 0.000000 0.005198 0.000001
# 2 -0.002486 0.007498 -0.001001 0.000000 -0.001452 0.000000
# 3 -0.005649 -0.001001 0.015397 0.000001 -0.009127 -0.000002
# 4 0.000000 0.000000 0.000001 0.029791 -0.000002 -0.008969
# 5 0.005198 -0.001452 -0.009127 -0.000002 0.046099 0.000002
# 6 0.000001 0.000000 -0.000002 -0.008969 0.000002 0.067080
#
#
# Mechanical properties :
#
#
# Convention : Reuss Voigt Hill
#
# Bulk Modulus (GPa) = 39.53245 45.86406 42.69826
# Shear Modulus (GPa) = 23.44739 29.79810 26.62275
#
# Velocity S-wave (km/s) = 3.29336 3.71267 3.50928
# Velocity P-wave (km/s) = 5.72262 6.29239 6.01425
#
# Compressibility (1/GPa) = 0.02529568
#
# Stress axis : x y z
#
# Youngs Moduli (GPa) = 48.37333 133.36261 64.94584
#
# Poissons Ratio (x) = 0.33150 0.36690
# Poissons Ratio (y) = 0.12024 0.06503
# Poissons Ratio (z) = 0.27328 0.13354
#
# Static dielectric constant tensor:
#      x y z
#    x 1.799740 0.000000 0.001890 
#    y 0.000000 1.796860 0.000000 
#    z 0.001890 0.000000 1.799680 
# 
# From -- ./inp_files/17848.got.cif
#   From: 2010.05.17/outbox.cif.g08.bks.cpg/sg9_9_cif.got.tgz:17848.got - 2010.06.03 20:04:27.
