data_PCOD9137549
_publ_section_title
;
Structure prediction by ZEFSAII (Michael W. Deem and Ramdas Pophale) SiO2 
 PCOD9137549
Probable space group: C C
;
_chemical_formula_sum "Si O2"
_cell_formula_units_Z 32
_cell_length_a 11.009801
_cell_length_b 8.529374
_cell_length_c 17.340552
_cell_angle_alpha 90.000000
_cell_angle_beta 60.542150
_cell_angle_gamma 90.000000
_cell_volume 1417.871672
_symmetry_space_group_name_H-M "C C"
_symmetry_group_IT_number 9
_symmetry_cell_setting 'monoclinic'
loop_
_space_group_symop_operation_xyz
x,y,z
x,-y,1/2+z
1/2+x,1/2+y,z
1/2+x,1/2-y,1/2+z
loop_
_atom_site_type_symbol
_atom_site_label
_atom_site_fract_x
_atom_site_fract_y
_atom_site_fract_z
Si Si1 0.290630 0.597170 0.415340
Si Si2 0.271740 0.648535 0.054590
Si Si3 0.075949 0.144476 0.963745
Si Si4 0.028053 0.803201 0.029848
Si Si5 0.538883 0.902068 0.744776
Si Si6 0.613349 0.877121 0.356974
Si Si7 0.807018 0.360204 0.701241
Si Si8 0.563188 0.554937 0.791244
O O1 0.296977 0.505372 0.494190
O O2 0.208237 0.758039 0.450200
O O3 0.195561 0.499487 0.385119
O O4 0.443783 0.577539 0.331016
O O5 0.160297 0.743876 0.038511
O O6 0.192370 0.602953 0.157827
O O7 0.423659 0.729000 0.014319
O O8 0.104490 0.094034 0.866509
O O9 0.046334 0.988081 0.020436
O O10 0.890316 0.740423 0.113622
O O11 0.030184 0.727784 0.944181
O O12 0.534614 0.019034 0.817875
O O13 0.424368 0.944295 0.716759
O O14 0.509505 0.720698 0.776328
O O15 0.718011 0.759271 0.281201
O O16 0.697046 0.487989 0.705615
#
# Coordination Sequence:
#
# PCOD9137549 Si02
#       8
#     4   4   4   4   4   4   4   4
#     4  10  22  42  70  97 135 178 227 280 332 405
#     4   9  23  42  66  99 136 173 228 278 334 405
#     4  11  21  44  69  95 132 177 223 280 333 403
#     4  10  23  44  68 102 135 177 228 282 336 406
#     4  11  23  43  67  98 138 181 219 284 343 397
#     4  11  21  42  70  95 135 180 221 282 340 396
#     4  11  24  45  66  98 141 171 232 280 333 410
#     4  11  23  42  66  98 134 177 228 272 335 412
#
# _framework density 22.569040000000001
#
# number of rings (size 3 to 8) (size 9 to 14) (size 15 to 20)
#    0.000    1.500    3.750    0.750    0.000    4.000 
#    2.250    7.500    0.000    0.000    0.000    0.000 
#    0.000    0.000    0.000    0.000    0.000    0.000 
#
# Total GULP energy -89463.284770 kJ/mol
# GULP energy per Si atom -5591.455298 kJ/mol
# Density = 2.251767 g / cm^3
# Si number density = 22.569040 Si / 1000 Ang^3
#
#
#
# Elastic Constant Matrix: (Units=GPa)
#
#
# Indices 1 2 3 4 5 6 
#
# 1 62.2222 20.6065 17.0022 0.0000 -16.3686 0.0000
# 2 20.6065 39.0191 10.9766 0.0000 -11.7599 0.0000
# 3 17.0022 10.9766 113.2087 0.0000 -16.5768 0.0000
# 4 0.0000 0.0000 0.0000 30.3010 0.0000 -5.5723
# 5 -16.3686 -11.7599 -16.5768 0.0000 35.5025 0.0000
# 6 0.0000 0.0000 0.0000 -5.5723 0.0000 30.4652
#
#
#
# Elastic Compliance Matrix: (Units=1/GPa)
#
#
# Indices 1 2 3 4 5 6 
#
# 1 0.020989 -0.008855 -0.001402 0.000000 0.006089 0.000000
# 2 -0.008855 0.032440 -0.000901 0.000000 0.006242 0.000000
# 3 -0.001402 -0.000901 0.009653 0.000000 0.003562 0.000000
# 4 0.000000 0.000000 0.000000 0.034151 0.000000 0.006246
# 5 0.006089 0.006242 0.003562 0.000000 0.034705 0.000000
# 6 0.000000 0.000000 0.000000 0.006246 0.000000 0.033967
#
#
# Mechanical properties :
#
#
# Convention : Reuss Voigt Hill
#
# Bulk Modulus (GPa) = 24.53105 34.62451 29.57778
# Shear Modulus (GPa) = 24.77584 30.31140 27.54362
#
# Velocity S-wave (km/s) = 3.31687 3.66874 3.49724
# Velocity P-wave (km/s) = 5.05587 5.77245 5.42600
#
# Compressibility (1/GPa) = 0.04076467
#
# Stress axis : x y z
#
# Youngs Moduli (GPa) = 47.64408 30.82645 103.59700
#
# Poissons Ratio (x) = 0.27297 0.14524
# Poissons Ratio (y) = 0.42188 0.09339
# Poissons Ratio (z) = 0.06680 0.02779
#
# Static dielectric constant tensor:
#      x y z
#    x 1.855100 0.000000 -0.013130 
#    y 0.000000 1.855160 0.000000 
#    z -0.013130 0.000000 1.816600 
# 
# From -- ./inp_files/33124.got.cif
#   From: 2010.05.17/outbox.cif.g08.bks.cpg/sg9_17_cif.got.tgz:33124.got - 2010.06.03 20:04:27.
