data_PCOD9137314
_publ_section_title
;
Structure prediction by ZEFSAII (Michael W. Deem and Ramdas Pophale) SiO2 
 PCOD9137314
Probable space group: C C
;
_chemical_formula_sum "Si O2"
_cell_formula_units_Z 32
_cell_length_a 19.405203
_cell_length_b 11.846407
_cell_length_c 6.947522
_cell_angle_alpha 90.000000
_cell_angle_beta 46.846789
_cell_angle_gamma 90.000000
_cell_volume 1165.135350
_symmetry_space_group_name_H-M "C C"
_symmetry_group_IT_number 9
_symmetry_cell_setting 'monoclinic'
loop_
_space_group_symop_operation_xyz
x,y,z
x,-y,1/2+z
1/2+x,1/2+y,z
1/2+x,1/2-y,1/2+z
loop_
_atom_site_type_symbol
_atom_site_label
_atom_site_fract_x
_atom_site_fract_y
_atom_site_fract_z
Si Si1 0.394480 0.998203 0.918500
Si Si2 0.212836 0.859796 0.745847
Si Si3 0.042332 0.004480 0.152152
Si Si4 0.039477 0.463050 0.892883
Si Si5 0.936679 0.851737 0.095748
Si Si6 0.719774 0.850102 0.496598
Si Si7 0.480667 0.283826 0.404604
Si Si8 0.780875 0.276605 0.242909
O O1 0.517968 0.001126 0.680025
O O2 0.421325 0.000589 0.618309
O O3 0.330054 0.885099 0.050005
O O4 0.321002 0.102728 0.069218
O O5 0.184432 0.752624 0.928475
O O6 0.209581 0.817746 0.536433
O O7 0.144995 0.968813 0.885061
O O8 0.035683 0.900531 0.329424
O O9 0.952101 0.958071 0.207920
O O10 0.013206 0.124726 0.287159
O O11 0.153656 0.460057 0.644123
O O12 0.021050 0.326677 0.926425
O O13 0.830685 0.857744 0.227876
O O14 0.974095 0.761112 0.180874
O O15 0.729607 0.799803 0.689408
O O16 0.369712 0.290128 0.665392
#
# Coordination Sequence:
#
# PCOD9137314 Si02
#       8
#     4   4   4   4   4   4   4   4
#     4  11  23  43  72  99 139 177 235 304 335 421
#     4  12  24  43  71 104 139 185 233 293 352 422
#     4  10  22  41  64 101 132 175 227 281 344 410
#     4  11  22  46  68 103 136 181 238 287 358 418
#     4   9  22  41  66  94 140 176 225 288 338 420
#     4  11  24  46  70  99 140 189 231 286 358 422
#     4   8  18  43  63  87 141 172 225 290 329 419
#     4  10  23  45  68  99 137 183 240 283 352 416
#
# _framework density 27.464621000000001
#
# number of rings (size 3 to 8) (size 9 to 14) (size 15 to 20)
#    0.750    1.000    3.750    0.750    1.750    2.000 
#    4.500    0.000    0.000    0.000    0.000    0.000 
#    0.000    0.000    0.000    0.000    0.000    0.000 
#
# Total GULP energy -89079.604475 kJ/mol
# GULP energy per Si atom -5567.475280 kJ/mol
# Density = 2.740211 g / cm^3
# Si number density = 27.464621 Si / 1000 Ang^3
#
#
#
# Elastic Constant Matrix: (Units=GPa)
#
#
# Indices 1 2 3 4 5 6 
#
# 1 106.0575 20.7780 64.2651 0.0000 -19.2817 0.0000
# 2 20.7780 52.8969 34.2054 0.0000 -6.2679 0.0000
# 3 64.2651 34.2054 150.3497 0.0000 -20.2203 0.0000
# 4 0.0000 0.0000 0.0000 58.8598 0.0000 4.7363
# 5 -19.2817 -6.2679 -20.2203 0.0000 36.7335 0.0000
# 6 0.0000 0.0000 0.0000 4.7363 0.0000 35.5383
#
#
#
# Elastic Compliance Matrix: (Units=1/GPa)
#
#
# Indices 1 2 3 4 5 6 
#
# 1 0.013413 -0.001679 -0.004798 0.000000 0.004113 0.000000
# 2 -0.001679 0.022416 -0.004305 0.000000 0.000574 0.000000
# 3 -0.004798 -0.004305 0.009983 0.000000 0.002242 0.000000
# 4 0.000000 0.000000 0.000000 0.017174 0.000000 -0.002289
# 5 0.004113 0.000574 0.002242 0.000000 0.030714 0.000000
# 6 0.000000 0.000000 0.000000 -0.002289 0.000000 0.028444
#
#
# Mechanical properties :
#
#
# Convention : Reuss Voigt Hill
#
# Bulk Modulus (GPa) = 41.24006 60.86679 51.05342
# Shear Modulus (GPa) = 32.94033 38.89669 35.91851
#
# Velocity S-wave (km/s) = 3.46695 3.76739 3.62029
# Velocity P-wave (km/s) = 5.57447 6.41360 6.00870
#
# Compressibility (1/GPa) = 0.02424827
#
# Stress axis : x y z
#
# Youngs Moduli (GPa) = 74.55528 44.61120 100.17000
#
# Poissons Ratio (x) = 0.07488 0.48063
# Poissons Ratio (y) = 0.12514 0.43124
# Poissons Ratio (z) = 0.35773 0.19205
#
# Static dielectric constant tensor:
#      x y z
#    x 2.481220 0.000000 0.300360 
#    y 0.000000 2.146000 0.000000 
#    z 0.300360 0.000000 2.447140 
# 
# From -- ./inp_files/11738.got.cif
#   From: 2010.05.17/outbox.cif.g08.bks.cpg/sg9_6_cif.got.tgz:11738.got - 2010.06.03 20:04:27.
