data_PCOD9137435
_publ_section_title
;
Structure prediction by ZEFSAII (Michael W. Deem and Ramdas Pophale) SiO2 
 PCOD9137435
Probable space group: C C
;
_chemical_formula_sum "Si O2"
_cell_formula_units_Z 32
_cell_length_a 7.714380
_cell_length_b 11.037689
_cell_length_c 17.997499
_cell_angle_alpha 90.000000
_cell_angle_beta 59.398012
_cell_angle_gamma 90.000000
_cell_volume 1319.032315
_symmetry_space_group_name_H-M "C C"
_symmetry_group_IT_number 9
_symmetry_cell_setting 'monoclinic'
loop_
_space_group_symop_operation_xyz
x,y,z
x,-y,1/2+z
1/2+x,1/2+y,z
1/2+x,1/2-y,1/2+z
loop_
_atom_site_type_symbol
_atom_site_label
_atom_site_fract_x
_atom_site_fract_y
_atom_site_fract_z
Si Si1 0.111840 0.646193 0.543110
Si Si2 0.258954 0.499959 0.885974
Si Si3 0.127593 0.400726 0.701918
Si Si4 0.668758 0.395501 0.788201
Si Si5 0.564663 0.850621 0.229557
Si Si6 0.639979 0.257785 0.339118
Si Si7 0.790868 0.221719 0.026158
Si Si8 0.523740 0.238870 0.951560
O O1 0.212469 0.528717 0.483430
O O2 0.076398 0.646130 0.637937
O O3 0.284304 0.749489 0.493289
O O4 0.903997 0.670252 0.545415
O O5 0.495718 0.495806 0.812969
O O6 0.185228 0.373282 0.866343
O O7 0.120711 0.615065 0.899314
O O8 0.898545 0.429310 0.729522
O O9 0.186334 0.528693 0.727039
O O10 0.119627 0.285430 0.758347
O O11 0.253819 0.369479 0.601898
O O12 0.642771 0.278281 0.741412
O O13 0.624668 0.345268 0.880871
O O14 0.332602 0.842694 0.306759
O O15 0.447695 0.307450 0.425098
O O16 0.589747 0.251426 0.023328
#
# Coordination Sequence:
#
# PCOD9137435 Si02
#       8
#     4   4   4   4   4   4   4   4
#     4  10  22  42  63  95 139 175 221 289 335 401
#     4   9  21  40  65  95 129 178 225 276 346 400
#     4  12  23  41  69  99 132 186 229 273 356 405
#     4  10  23  40  64  97 134 176 226 281 332 405
#     4  11  23  43  66  94 139 181 225 285 339 403
#     4  10  22  43  65  94 140 173 231 291 328 406
#     4  11  23  41  69 100 134 177 227 284 338 407
#     4  11  21  42  67  96 135 174 226 283 340 405
#
# _framework density 24.260207000000001
#
# number of rings (size 3 to 8) (size 9 to 14) (size 15 to 20)
#    0.000    1.500    2.500    3.000    1.750    0.000 
#    0.000    5.000    0.000    0.000    0.000    0.000 
#    0.000    0.000    0.000    0.000    0.000    0.000 
#
# Total GULP energy -89352.701287 kJ/mol
# GULP energy per Si atom -5584.543830 kJ/mol
# Density = 2.420499 g / cm^3
# Si number density = 24.260207 Si / 1000 Ang^3
#
#
#
# Elastic Constant Matrix: (Units=GPa)
#
#
# Indices 1 2 3 4 5 6 
#
# 1 59.0744 11.1716 5.2057 0.0000 9.0018 0.0000
# 2 11.1716 88.0323 30.2452 0.0000 -0.9554 0.0000
# 3 5.2057 30.2452 119.9487 0.0000 14.1100 0.0000
# 4 0.0000 0.0000 0.0000 36.3782 0.0000 2.4181
# 5 9.0018 -0.9554 14.1100 0.0000 38.7384 0.0000
# 6 0.0000 0.0000 0.0000 2.4181 0.0000 34.5089
#
#
#
# Elastic Compliance Matrix: (Units=1/GPa)
#
#
# Indices 1 2 3 4 5 6 
#
# 1 0.018028 -0.002456 0.000352 0.000000 -0.004378 0.000000
# 2 -0.002456 0.012857 -0.003385 0.000000 0.002121 0.000000
# 3 0.000352 -0.003385 0.009606 0.000000 -0.003664 0.000000
# 4 0.000000 0.000000 0.000000 0.027618 0.000000 -0.001935
# 5 -0.004378 0.002121 -0.003664 0.000000 0.028219 0.000000
# 6 0.000000 0.000000 0.000000 -0.001935 0.000000 0.029114
#
#
# Mechanical properties :
#
#
# Convention : Reuss Voigt Hill
#
# Bulk Modulus (GPa) = 33.88295 40.03339 36.95817
# Shear Modulus (GPa) = 34.18627 36.62062 35.40345
#
# Velocity S-wave (km/s) = 3.75794 3.88943 3.82425
# Velocity P-wave (km/s) = 5.72942 6.05869 5.89636
#
# Compressibility (1/GPa) = 0.02951337
#
# Stress axis : x y z
#
# Youngs Moduli (GPa) = 55.46791 77.77800 104.10017
#
# Poissons Ratio (x) = 0.19105 -0.03664
# Poissons Ratio (y) = 0.13625 0.35236
# Poissons Ratio (z) = -0.01952 0.26326
#
# Static dielectric constant tensor:
#      x y z
#    x 2.005950 0.000000 0.048410 
#    y 0.000000 2.044960 0.000000 
#    z 0.048410 0.000000 1.915360 
# 
# From -- ./inp_files/22722.got.cif
#   From: 2010.05.17/outbox.cif.g08.bks.cpg/sg9_12_cif.got.tgz:22722.got - 2010.06.03 20:04:27.
