data_PCOD9137706
_publ_section_title
;
Structure prediction by ZEFSAII (Michael W. Deem and Ramdas Pophale) SiO2 
 PCOD9137706
Probable space group: C C
;
_chemical_formula_sum "Si O2"
_cell_formula_units_Z 28
_cell_length_a 20.735230
_cell_length_b 10.437234
_cell_length_c 15.280159
_cell_angle_alpha 90.000000
_cell_angle_beta 18.183879
_cell_angle_gamma 90.000000
_cell_volume 1031.978992
_symmetry_space_group_name_H-M "C C"
_symmetry_group_IT_number 9
_symmetry_cell_setting 'monoclinic'
loop_
_space_group_symop_operation_xyz
x,y,z
x,-y,1/2+z
1/2+x,1/2+y,z
1/2+x,1/2-y,1/2+z
loop_
_atom_site_type_symbol
_atom_site_label
_atom_site_fract_x
_atom_site_fract_y
_atom_site_fract_z
Si Si1 0.526150 0.174219 0.297520
Si Si2 0.008550 0.461208 0.176787
Si Si3 0.707362 0.371933 0.825281
Si Si4 0.661983 0.090189 0.806506
Si Si5 0.221304 0.784952 0.444080
Si Si6 0.452594 0.570495 0.826910
Si Si7 0.581773 0.377608 0.446462
O O1 0.538149 0.327789 0.285991
O O2 0.306415 0.146735 0.622111
O O3 0.510204 0.094181 0.226510
O O4 0.733107 0.123317 0.074342
O O5 0.800960 0.386908 0.412338
O O6 0.122970 0.490748 0.936968
O O7 0.113993 0.351610 0.102040
O O8 0.684282 0.230991 0.818275
O O9 0.564191 0.470643 0.954031
O O10 0.949600 0.408225 0.523028
O O11 0.613397 0.394143 0.042471
O O12 0.865366 0.054491 0.489002
O O13 0.082442 0.856347 0.551614
O O14 0.417689 0.730008 0.135933
#
# Coordination Sequence:
#
# PCOD9137706 Si02
#       7
#     4   4   4   4   4   4   4
#     4  12  24  44  73 111 146 199 270 313 399 473
#     4  11  23  45  71 109 151 195 266 325 387 482
#     4  12  26  50  75 111 157 204 262 332 392 478
#     4  12  27  51  75 117 160 205 269 333 402 472
#     4  10  22  43  72  99 146 202 247 325 398 448
#     4  12  26  49  82 112 151 213 261 328 404 476
#     4  11  22  44  68 103 147 192 255 320 382 477
#
# _framework density 27.132335999999999
#
# number of rings (size 3 to 8) (size 9 to 14) (size 15 to 20)
#    0.000    0.571    4.286    4.286    2.000    0.000 
#    7.714    0.000    0.000    0.000    0.000    0.000 
#    0.000    0.000    0.000    0.000    0.000    0.000 
#
# Total GULP energy -78238.831446 kJ/mol
# GULP energy per Si atom -5588.487960 kJ/mol
# Density = 2.707058 g / cm^3
# Si number density = 27.132336 Si / 1000 Ang^3
#
#
#
# Elastic Constant Matrix: (Units=GPa)
#
#
# Indices 1 2 3 4 5 6 
#
# 1 78.0191 18.0907 25.0645 -0.0007 -15.5449 0.0003
# 2 18.0907 174.0015 17.8168 -0.0004 -2.5229 0.0002
# 3 25.0645 17.8168 127.9161 -0.0011 1.4226 0.0007
# 4 -0.0007 -0.0004 -0.0011 29.3268 0.0007 -1.7508
# 5 -15.5449 -2.5229 1.4226 0.0007 40.1752 -0.0004
# 6 0.0003 0.0002 0.0007 -1.7508 -0.0004 35.5261
#
#
#
# Elastic Compliance Matrix: (Units=1/GPa)
#
#
# Indices 1 2 3 4 5 6 
#
# 1 0.015196 -0.001200 -0.002876 0.000000 0.005906 0.000000
# 2 -0.001200 0.005931 -0.000590 0.000000 -0.000071 0.000000
# 3 -0.002876 -0.000590 0.008480 0.000000 -0.001450 0.000000
# 4 0.000000 0.000000 0.000000 0.034199 -0.000001 0.001685
# 5 0.005906 -0.000071 -0.001450 -0.000001 0.027223 0.000000
# 6 0.000000 0.000000 0.000000 0.001685 0.000000 0.028231
#
#
# Mechanical properties :
#
#
# Convention : Reuss Voigt Hill
#
# Bulk Modulus (GPa) = 49.32270 55.76452 52.54361
# Shear Modulus (GPa) = 36.94082 42.26996 39.60539
#
# Velocity S-wave (km/s) = 3.69386 3.95133 3.82476
# Velocity P-wave (km/s) = 6.03414 6.43543 6.23801
#
# Compressibility (1/GPa) = 0.02027464
#
# Stress axis : x y z
#
# Youngs Moduli (GPa) = 65.80496 168.59917 117.93086
#
# Poissons Ratio (x) = 0.20228 0.33920
# Poissons Ratio (y) = 0.07895 0.06961
# Poissons Ratio (z) = 0.18927 0.09952
#
# Static dielectric constant tensor:
#      x y z
#    x 2.205700 0.000000 0.003690 
#    y 0.000000 2.303110 0.000000 
#    z 0.003690 0.000000 2.116950 
# 
# From -- ./inp_files/27417.got.cif
#   From: 2010.05.17/outbox.cif.g08.bks.cpg/sg9_14_cif.got.tgz:27417.got - 2010.06.03 20:04:27.
