data_PCOD9137779
_publ_section_title
;
Structure prediction by ZEFSAII (Michael W. Deem and Ramdas Pophale) SiO2 
 PCOD9137779
Probable space group: C C
;
_chemical_formula_sum "Si O2"
_cell_formula_units_Z 32
_cell_length_a 8.212946
_cell_length_b 11.561385
_cell_length_c 15.937943
_cell_angle_alpha 90.000000
_cell_angle_beta 113.005034
_cell_angle_gamma 90.000000
_cell_volume 1392.999576
_symmetry_space_group_name_H-M "C C"
_symmetry_group_IT_number 9
_symmetry_cell_setting 'monoclinic'
loop_
_space_group_symop_operation_xyz
x,y,z
x,-y,1/2+z
1/2+x,1/2+y,z
1/2+x,1/2-y,1/2+z
loop_
_atom_site_type_symbol
_atom_site_label
_atom_site_fract_x
_atom_site_fract_y
_atom_site_fract_z
Si Si1 0.930600 0.959471 0.314290
Si Si2 0.328707 0.989638 0.399035
Si Si3 0.039318 0.881144 0.584544
Si Si4 0.363204 0.824786 0.563334
Si Si5 0.771279 0.135593 0.181946
Si Si6 0.936385 0.892571 0.979097
Si Si7 0.507236 0.774238 0.354298
Si Si8 0.394949 0.247953 0.392984
O O1 0.971767 0.824113 0.333107
O O2 0.125261 0.007978 0.330708
O O3 0.791646 0.003355 0.218509
O O4 0.872052 0.019892 0.391509
O O5 0.319899 0.930108 0.489594
O O6 0.438300 0.897905 0.367976
O O7 0.420240 0.112795 0.407779
O O8 0.244928 0.845106 0.622198
O O9 0.909577 0.852731 0.634032
O O10 0.963692 0.809456 0.490513
O O11 0.024386 0.018295 0.561236
O O12 0.571867 0.831305 0.621768
O O13 0.322992 0.701650 0.508856
O O14 0.850688 0.213453 0.272181
O O15 0.050568 0.803156 0.945804
O O16 0.687263 0.775739 0.340490
#
# Coordination Sequence:
#
# PCOD9137779 Si02
#       8
#     4   4   4   4   4   4   4   4
#     4  10  22  46  67  98 140 179 232 291 337 417
#     4  11  21  45  72  98 131 185 241 281 338 423
#     4  11  23  43  72 104 136 183 229 292 350 416
#     4  11  23  43  71 104 137 186 227 290 362 408
#     4  11  25  46  64 104 154 175 225 306 357 403
#     4   9  19  42  70  94 139 172 235 282 323 425
#     4  10  22  44  68  97 138 185 225 292 348 408
#     4  11  21  45  74  95 129 185 242 280 335 426
#
# _framework density 22.972010999999998
#
# number of rings (size 3 to 8) (size 9 to 14) (size 15 to 20)
#    0.000    1.500    5.000    1.500    0.000    4.000 
#   13.500    0.000    0.000    0.000    0.000    0.000 
#    0.000    0.000    0.000    0.000    0.000    0.000 
#
# Total GULP energy -89250.720913 kJ/mol
# GULP energy per Si atom -5578.170057 kJ/mol
# Density = 2.291973 g / cm^3
# Si number density = 22.972011 Si / 1000 Ang^3
#
#
#
# Elastic Constant Matrix: (Units=GPa)
#
#
# Indices 1 2 3 4 5 6 
#
# 1 114.2312 32.9268 25.4838 0.0000 5.0684 0.0000
# 2 32.9268 174.7551 16.9791 0.0000 -6.9884 0.0000
# 3 25.4838 16.9791 33.1683 0.0000 17.4139 0.0000
# 4 0.0000 0.0000 0.0000 17.2006 0.0000 5.9762
# 5 5.0684 -6.9884 17.4139 0.0000 28.9329 0.0000
# 6 0.0000 0.0000 0.0000 5.9762 0.0000 23.6591
#
#
#
# Elastic Compliance Matrix: (Units=1/GPa)
#
#
# Indices 1 2 3 4 5 6 
#
# 1 0.011108 -0.000957 -0.010090 0.000000 0.003896 0.000000
# 2 -0.000957 0.006606 -0.005223 0.000000 0.004907 0.000000
# 3 -0.010090 -0.005223 0.058932 0.000000 -0.034963 0.000000
# 4 0.000000 0.000000 0.000000 0.063731 0.000000 -0.016098
# 5 0.003896 0.004907 -0.034963 0.000000 0.056109 0.000000
# 6 0.000000 0.000000 0.000000 -0.016098 0.000000 0.046333
#
#
# Mechanical properties :
#
#
# Convention : Reuss Voigt Hill
#
# Bulk Modulus (GPa) = 22.67250 52.54823 37.61037
# Shear Modulus (GPa) = 17.23779 30.40952 23.82365
#
# Velocity S-wave (km/s) = 2.74228 3.64230 3.22386
# Velocity P-wave (km/s) = 4.46294 6.37284 5.50141
#
# Compressibility (1/GPa) = 0.04410629
#
# Stress axis : x y z
#
# Youngs Moduli (GPa) = 90.02406 151.37231 16.96882
#
# Poissons Ratio (x) = 0.14483 0.17122
# Poissons Ratio (y) = 0.08613 0.08862
# Poissons Ratio (z) = 0.90837 0.79058
#
# Static dielectric constant tensor:
#      x y z
#    x 1.878920 0.000000 -0.018800 
#    y 0.000000 1.900500 0.000000 
#    z -0.018800 0.000000 1.875100 
# 
# From -- ./inp_files/29260.got.cif
#   From: 2010.05.17/outbox.cif.g08.bks.cpg/sg9_15_cif.got.tgz:29260.got - 2010.06.03 20:04:27.
