data_PCOD9137065
_publ_section_title
;
Structure prediction by ZEFSAII (Michael W. Deem and Ramdas Pophale) SiO2 
 PCOD9137065
Probable space group: C C
;
_chemical_formula_sum "Si O2"
_cell_formula_units_Z 32
_cell_length_a 5.229312
_cell_length_b 31.142411
_cell_length_c 8.694999
_cell_angle_alpha 90.000000
_cell_angle_beta 92.981064
_cell_angle_gamma 90.000000
_cell_volume 1414.093830
_symmetry_space_group_name_H-M "C C"
_symmetry_group_IT_number 9
_symmetry_cell_setting 'monoclinic'
loop_
_space_group_symop_operation_xyz
x,y,z
x,-y,1/2+z
1/2+x,1/2+y,z
1/2+x,1/2-y,1/2+z
loop_
_atom_site_type_symbol
_atom_site_label
_atom_site_fract_x
_atom_site_fract_y
_atom_site_fract_z
Si Si1 0.641010 0.776883 0.540360
Si Si2 0.296459 0.062212 0.173104
Si Si3 0.241279 0.082147 0.500679
Si Si4 0.137690 0.267726 0.909805
Si Si5 0.173712 0.626751 0.094194
Si Si6 0.261431 0.634974 0.447768
Si Si7 0.612235 0.015753 0.643570
Si Si8 0.889220 0.956776 0.430649
O O1 0.375798 0.762539 0.456918
O O2 0.614667 0.771007 0.724125
O O3 0.682403 0.827564 0.514587
O O4 0.877590 0.750004 0.478070
O O5 0.157176 0.062223 0.332349
O O6 0.391044 0.109641 0.131428
O O7 0.527443 0.029740 0.211973
O O8 0.166115 0.043370 0.016288
O O9 0.497766 0.110289 0.476284
O O10 0.363322 0.045433 0.612023
O O11 0.005362 0.112953 0.537291
O O12 0.212785 0.314881 0.976286
O O13 0.307474 0.631524 0.264530
O O14 0.281379 0.588060 0.995369
O O15 0.821567 0.040032 0.751665
O O16 0.748430 0.998316 0.496409
#
# Coordination Sequence:
#
# PCOD9137065 Si02
#       8
#     4   4   4   4   4   4   4   4
#     4  11  24  45  74 105 143 185 239 291 367 432
#     4  10  22  38  65  89 133 180 235 277 340 419
#     4  11  22  42  65  95 130 179 228 282 335 421
#     4  11  24  45  74 104 142 185 235 298 359 439
#     4   9  22  40  66  97 129 182 228 281 346 432
#     4  10  22  43  70  96 130 178 231 276 352 425
#     4  11  25  38  60  96 133 180 227 287 346 406
#     4  11  23  41  62  94 134 177 233 284 345 410
#
# _framework density 22.629331000000001
#
# number of rings (size 3 to 8) (size 9 to 14) (size 15 to 20)
#    0.000    1.500    2.500    1.500    5.250    2.000 
#    6.750    0.000    0.000    0.000    0.000    0.000 
#    0.000    0.000    0.000    0.000    0.000    0.000 
#
# Total GULP energy -89333.631613 kJ/mol
# GULP energy per Si atom -5583.351976 kJ/mol
# Density = 2.257783 g / cm^3
# Si number density = 22.629331 Si / 1000 Ang^3
#
#
#
# Elastic Constant Matrix: (Units=GPa)
#
#
# Indices 1 2 3 4 5 6 
#
# 1 67.7963 6.1828 -1.5903 0.0000 -0.2114 0.0000
# 2 6.1828 97.2388 27.5177 0.0000 -6.1583 0.0000
# 3 -1.5903 27.5177 47.9191 0.0000 8.6892 0.0000
# 4 0.0000 0.0000 0.0000 24.2542 0.0000 6.9972
# 5 -0.2114 -6.1583 8.6892 0.0000 32.8396 0.0000
# 6 0.0000 0.0000 0.0000 6.9972 0.0000 30.7950
#
#
#
# Elastic Compliance Matrix: (Units=1/GPa)
#
#
# Indices 1 2 3 4 5 6 
#
# 1 0.014906 -0.001371 0.001377 0.000000 -0.000525 0.000000
# 2 -0.001371 0.013036 -0.008375 0.000000 0.004652 0.000000
# 3 0.001377 -0.008375 0.027317 0.000000 -0.008790 0.000000
# 4 0.000000 0.000000 0.000000 0.044122 0.000000 -0.010025
# 5 -0.000525 0.004652 -0.008790 0.000000 0.033646 0.000000
# 6 0.000000 0.000000 0.000000 -0.010025 0.000000 0.034751
#
#
# Mechanical properties :
#
#
# Convention : Reuss Voigt Hill
#
# Bulk Modulus (GPa) = 25.95924 30.79717 28.37820
# Shear Modulus (GPa) = 25.33509 29.63403 27.48456
#
# Velocity S-wave (km/s) = 3.34963 3.62268 3.48883
# Velocity P-wave (km/s) = 5.14358 5.58009 5.36627
#
# Compressibility (1/GPa) = 0.03852193
#
# Stress axis : x y z
#
# Youngs Moduli (GPa) = 67.08826 76.71248 36.60691
#
# Poissons Ratio (x) = 0.10515 -0.05041
# Poissons Ratio (y) = 0.09196 0.30657
# Poissons Ratio (z) = -0.09239 0.64245
#
# Static dielectric constant tensor:
#      x y z
#    x 1.913270 0.000000 0.014290 
#    y 0.000000 1.829220 0.000000 
#    z 0.014290 0.000000 1.973390 
# 
# From -- ./inp_files/4346.got.cif
#   From: 2010.05.17/outbox.cif.g08.bks.cpg/sg9_3_cif.got.tgz:4346.got - 2010.06.03 20:04:27.
