data_PCOD9137473
_publ_section_title
;
Structure prediction by ZEFSAII (Michael W. Deem and Ramdas Pophale) SiO2 
 PCOD9137473
Probable space group: C C
;
_chemical_formula_sum "Si O2"
_cell_formula_units_Z 32
_cell_length_a 12.758034
_cell_length_b 10.275635
_cell_length_c 20.242927
_cell_angle_alpha 90.000000
_cell_angle_beta 28.524915
_cell_angle_gamma 90.000000
_cell_volume 1267.290787
_symmetry_space_group_name_H-M "C C"
_symmetry_group_IT_number 9
_symmetry_cell_setting 'monoclinic'
loop_
_space_group_symop_operation_xyz
x,y,z
x,-y,1/2+z
1/2+x,1/2+y,z
1/2+x,1/2-y,1/2+z
loop_
_atom_site_type_symbol
_atom_site_label
_atom_site_fract_x
_atom_site_fract_y
_atom_site_fract_z
Si Si1 0.475130 0.016178 0.589980
Si Si2 0.306458 0.654959 0.846250
Si Si3 0.637207 0.383427 0.855576
Si Si4 0.164829 0.665452 0.220566
Si Si5 0.630078 0.515362 0.100741
Si Si6 0.340859 0.951504 0.359046
Si Si7 0.968679 0.687526 0.463481
Si Si8 0.151204 0.693941 0.612417
O O1 0.627384 0.889052 0.498684
O O2 0.234875 0.953462 0.736445
O O3 0.491418 0.088306 0.511466
O O4 0.563173 0.119511 0.595427
O O5 0.217506 0.739732 0.833854
O O6 0.489142 0.735134 0.784998
O O7 0.411494 0.525712 0.757414
O O8 0.762504 0.468645 0.840234
O O9 0.376817 0.380445 0.003004
O O10 0.373841 0.687624 0.056028
O O11 0.050390 0.525588 0.275256
O O12 0.159986 0.701152 0.302121
O O13 0.778957 0.387041 0.027211
O O14 0.715133 0.654715 0.077200
O O15 0.633263 0.544251 0.021514
O O16 0.448454 0.818387 0.275911
#
# Coordination Sequence:
#
# PCOD9137473 Si02
#       8
#     4   4   4   4   4   4   4   4
#     4  11  26  42  66 102 136 178 232 282 348 405
#     4  10  23  42  70  98 131 180 232 281 334 419
#     4  10  24  44  72  98 133 185 233 280 347 411
#     4   9  21  40  73  94 129 174 226 283 334 405
#     4  10  23  43  67  98 138 176 223 285 345 410
#     4   9  22  45  66 100 132 176 233 282 342 411
#     4  10  22  42  66  99 130 173 229 277 342 406
#     4  11  25  44  68 101 141 182 226 290 342 413
#
# _framework density 25.250715
#
# number of rings (size 3 to 8) (size 9 to 14) (size 15 to 20)
#    0.000    2.000    0.000    0.750   15.750    2.000 
#    9.000    0.000    0.000    0.000    0.000    0.000 
#    0.000    0.000    0.000    0.000    0.000    0.000 
#
# Total GULP energy -89275.492870 kJ/mol
# GULP energy per Si atom -5579.718304 kJ/mol
# Density = 2.519324 g / cm^3
# Si number density = 25.250715 Si / 1000 Ang^3
#
#
#
# Elastic Constant Matrix: (Units=GPa)
#
#
# Indices 1 2 3 4 5 6 
#
# 1 57.5058 9.4497 15.7123 -0.0127 17.4650 -0.0023
# 2 9.4497 75.9470 18.5464 -0.0100 6.3957 0.0003
# 3 15.7123 18.5464 104.8432 -0.0312 21.0028 -0.0056
# 4 -0.0127 -0.0100 -0.0312 64.9211 0.0145 -5.0300
# 5 17.4650 6.3957 21.0028 0.0145 31.1223 0.0038
# 6 -0.0023 0.0003 -0.0056 -5.0300 0.0038 19.7084
#
#
#
# Elastic Compliance Matrix: (Units=1/GPa)
#
#
# Indices 1 2 3 4 5 6 
#
# 1 0.021207 -0.001536 -0.000677 0.000007 -0.011128 0.000006
# 2 -0.001536 0.013924 -0.002119 0.000001 -0.000569 -0.000001
# 3 -0.000677 -0.002119 0.011391 0.000007 -0.006872 0.000006
# 4 0.000007 0.000001 0.000007 0.015714 -0.000016 0.004011
# 5 -0.011128 -0.000569 -0.006872 -0.000016 0.043130 -0.000016
# 6 0.000006 -0.000001 0.000006 0.004011 -0.000016 0.051763
#
#
# Mechanical properties :
#
#
# Convention : Reuss Voigt Hill
#
# Bulk Modulus (GPa) = 26.41522 36.19032 31.30277
# Shear Modulus (GPa) = 28.02500 36.12286 32.07393
#
# Velocity S-wave (km/s) = 3.33508 3.78639 3.56788
# Velocity P-wave (km/s) = 5.03133 5.78612 5.42187
#
# Compressibility (1/GPa) = 0.03785696
#
# Stress axis : x y z
#
# Youngs Moduli (GPa) = 47.15509 71.82068 87.78924
#
# Poissons Ratio (x) = 0.11033 0.05945
# Poissons Ratio (y) = 0.07244 0.18600
# Poissons Ratio (z) = 0.03193 0.15217
#
# Static dielectric constant tensor:
#      x y z
#    x 2.011680 0.000020 0.065230 
#    y 0.000020 1.990930 0.000000 
#    z 0.065230 0.000000 2.098550 
# 
# From -- ./inp_files/33698.got.cif
#   From: 2010.05.17/outbox.cif.g08.bks.cpg/sg9_17_cif.got.tgz:33698.got - 2010.06.03 20:04:27.
