data_PCOD9137098
_publ_section_title
;
Structure prediction by ZEFSAII (Michael W. Deem and Ramdas Pophale) SiO2 
 PCOD9137098
Probable space group: C C
;
_chemical_formula_sum "Si O2"
_cell_formula_units_Z 28
_cell_length_a 9.245100
_cell_length_b 24.695930
_cell_length_c 5.119406
_cell_angle_alpha 90.000000
_cell_angle_beta 74.906490
_cell_angle_gamma 90.000000
_cell_volume 1128.521426
_symmetry_space_group_name_H-M "C C"
_symmetry_group_IT_number 9
_symmetry_cell_setting 'monoclinic'
loop_
_space_group_symop_operation_xyz
x,y,z
x,-y,1/2+z
1/2+x,1/2+y,z
1/2+x,1/2-y,1/2+z
loop_
_atom_site_type_symbol
_atom_site_label
_atom_site_fract_x
_atom_site_fract_y
_atom_site_fract_z
Si Si1 0.363500 0.302490 0.954430
Si Si2 0.521182 0.375674 0.529945
Si Si3 0.326820 0.158597 0.644664
Si Si4 0.535545 0.468567 0.882960
Si Si5 0.517473 0.863144 0.570607
Si Si6 0.785007 0.082422 0.749277
Si Si7 0.168469 0.253483 0.454134
O O1 0.433629 0.321034 0.644866
O O2 0.515198 0.280108 0.015578
O O3 0.303590 0.360545 0.086648
O O4 0.235461 0.262951 0.130347
O O5 0.667820 0.366277 0.294405
O O6 0.572165 0.408284 0.765302
O O7 0.402602 0.412352 0.431664
O O8 0.411542 0.129060 0.368053
O O9 0.288248 0.218826 0.560040
O O10 0.426868 0.156226 0.857638
O O11 0.591886 0.506861 0.625289
O O12 0.355102 0.462787 0.026818
O O13 0.619054 0.914290 0.441658
O O14 0.625317 0.812059 0.590797
#
# Coordination Sequence:
#
# PCOD9137098 Si02
#       7
#     4   4   4   4   4   4   4
#     4  10  22  39  61  95 133 183 229 287 324 391
#     4  11  24  43  73 100 142 173 230 288 349 404
#     4  12  26  46  64  96 138 191 230 285 342 399
#     4  11  23  42  77 112 131 167 223 287 350 425
#     4  11  28  41  68  96 138 189 233 284 338 395
#     4  10  23  44  68 103 136 175 222 292 341 407
#     4  11  22  43  59  94 132 188 245 277 324 389
#
# _framework density 24.811225
#
# number of rings (size 3 to 8) (size 9 to 14) (size 15 to 20)
#    0.000    1.143    4.286    0.857    8.000    4.571 
#    0.000    0.000    0.000    5.143    0.000    0.000 
#    0.000    0.000    0.000    0.000    0.000    0.000 
#
# Total GULP energy -78223.186918 kJ/mol
# GULP energy per Si atom -5587.370494 kJ/mol
# Density = 2.475475 g / cm^3
# Si number density = 24.811225 Si / 1000 Ang^3
#
#
#
# Elastic Constant Matrix: (Units=GPa)
#
#
# Indices 1 2 3 4 5 6 
#
# 1 85.5215 10.2748 46.3320 0.0000 -10.7773 0.0000
# 2 10.2748 51.1291 31.9817 0.0000 -2.9340 0.0000
# 3 46.3320 31.9817 214.0077 0.0000 -22.5231 0.0000
# 4 0.0000 0.0000 0.0000 49.1794 0.0000 3.1927
# 5 -10.7773 -2.9340 -22.5231 0.0000 45.4395 0.0000
# 6 0.0000 0.0000 0.0000 3.1927 0.0000 11.0455
#
#
#
# Elastic Compliance Matrix: (Units=1/GPa)
#
#
# Indices 1 2 3 4 5 6 
#
# 1 0.013435 -0.000989 -0.002566 0.000000 0.001851 0.000000
# 2 -0.000989 0.021650 -0.003058 0.000000 -0.000353 0.000000
# 3 -0.002566 -0.003058 0.005909 0.000000 0.002123 0.000000
# 4 0.000000 0.000000 0.000000 0.020723 0.000000 -0.005990
# 5 0.001851 -0.000353 0.002123 0.000000 0.023476 0.000000
# 6 0.000000 0.000000 0.000000 -0.005990 0.000000 0.092266
#
#
# Mechanical properties :
#
#
# Convention : Reuss Voigt Hill
#
# Bulk Modulus (GPa) = 36.01341 58.64836 47.33088
# Shear Modulus (GPa) = 25.00747 38.60420 31.80583
#
# Velocity S-wave (km/s) = 3.17820 3.94879 3.58427
# Velocity P-wave (km/s) = 5.29287 6.66931 6.02056
#
# Compressibility (1/GPa) = 0.02776744
#
# Stress axis : x y z
#
# Youngs Moduli (GPa) = 74.43134 46.18968 169.24010
#
# Poissons Ratio (x) = 0.04566 0.43430
# Poissons Ratio (y) = 0.07358 0.51762
# Poissons Ratio (z) = 0.19100 0.14127
#
# Static dielectric constant tensor:
#      x y z
#    x 1.992700 0.000000 0.066250 
#    y 0.000000 2.053050 0.000000 
#    z 0.066250 0.000000 2.047770 
# 
# From -- ./inp_files/1211.got.cif
#   From: 2010.05.17/outbox.cif.g08.bks.cpg/sg9_1_cif.got.tgz:1211.got - 2010.06.03 20:04:27.
