data_PCOD9137130
_publ_section_title
;
Structure prediction by ZEFSAII (Michael W. Deem and Ramdas Pophale) SiO2 
 PCOD9137130
Probable space group: C C
;
_chemical_formula_sum "Si O2"
_cell_formula_units_Z 32
_cell_length_a 18.677634
_cell_length_b 5.227290
_cell_length_c 19.436712
_cell_angle_alpha 90.000000
_cell_angle_beta 45.081800
_cell_angle_gamma 90.000000
_cell_volume 1343.771439
_symmetry_space_group_name_H-M "C C"
_symmetry_group_IT_number 9
_symmetry_cell_setting 'monoclinic'
loop_
_space_group_symop_operation_xyz
x,y,z
x,-y,1/2+z
1/2+x,1/2+y,z
1/2+x,1/2-y,1/2+z
loop_
_atom_site_type_symbol
_atom_site_label
_atom_site_fract_x
_atom_site_fract_y
_atom_site_fract_z
Si Si1 0.658380 0.872623 0.265020
Si Si2 0.307072 0.092072 0.981359
Si Si3 0.526474 0.887146 0.561676
Si Si4 0.788439 0.782789 0.606277
Si Si5 0.975454 0.858531 0.947026
Si Si6 0.665522 0.813312 0.889615
Si Si7 0.741268 0.882163 0.451590
Si Si8 0.311383 0.035222 0.227472
O O1 0.579905 0.642044 0.332019
O O2 0.766466 0.772953 0.217776
O O3 0.693501 0.021223 0.173688
O O4 0.626973 0.084314 0.342945
O O5 0.253274 0.952826 0.082492
O O6 0.308631 0.858578 0.926082
O O7 0.413881 0.153624 0.943591
O O8 0.264744 0.357297 0.978656
O O9 0.502174 0.733577 0.506958
O O10 0.570421 0.162420 0.504784
O O11 0.624114 0.789242 0.536476
O O12 0.424926 0.916989 0.672847
O O13 0.812950 0.677784 0.665644
O O14 0.892633 0.914539 0.509187
O O15 0.742967 0.015260 0.872168
O O16 0.728941 0.559949 0.837748
#
# Coordination Sequence:
#
# PCOD9137130 Si02
#       8
#     4   4   4   4   4   4   4   4
#     4  10  22  39  66 108 133 179 234 308 335 413
#     4  12  23  45  69  99 141 189 220 281 354 423
#     4   9  20  41  65 101 125 184 226 286 333 413
#     4  11  22  39  68 103 142 178 236 288 353 411
#     4  11  22  42  71 101 135 184 239 283 352 412
#     4   8  22  38  61  97 133 174 222 284 343 407
#     4  10  25  43  67  98 143 185 223 279 353 421
#     4  11  20  37  69 101 138 167 240 293 345 398
#
# _framework density 23.813572000000001
#
# number of rings (size 3 to 8) (size 9 to 14) (size 15 to 20)
#    0.750    1.000    3.750    0.000    3.500    2.000 
#    0.000    2.500    0.000    0.000    0.000    0.000 
#    0.000    0.000    0.000    0.000    0.000    0.000 
#
# Total GULP energy -89068.450565 kJ/mol
# GULP energy per Si atom -5566.778160 kJ/mol
# Density = 2.375937 g / cm^3
# Si number density = 23.813572 Si / 1000 Ang^3
#
#
#
# Elastic Constant Matrix: (Units=GPa)
#
#
# Indices 1 2 3 4 5 6 
#
# 1 102.6995 47.3910 5.8940 0.0012 -1.0571 -0.0058
# 2 47.3910 118.0062 12.3022 -0.0077 -0.8491 0.0304
# 3 5.8940 12.3022 73.3025 -0.0092 -19.0173 -0.0014
# 4 0.0012 -0.0077 -0.0092 30.3745 -0.0076 6.7891
# 5 -1.0571 -0.8491 -19.0173 -0.0076 25.3391 -0.0040
# 6 -0.0058 0.0304 -0.0014 6.7891 -0.0040 44.8430
#
#
#
# Elastic Compliance Matrix: (Units=1/GPa)
#
#
# Indices 1 2 3 4 5 6 
#
# 1 0.011955 -0.004790 -0.000086 -0.000003 0.000273 0.000005
# 2 -0.004790 0.010564 -0.001674 0.000004 -0.001102 -0.000009
# 3 -0.000086 -0.001674 0.017279 0.000008 0.012908 0.000002
# 4 -0.000003 0.000004 0.000008 0.034075 0.000015 -0.005159
# 5 0.000273 -0.001102 0.012908 0.000015 0.049127 0.000003
# 6 0.000005 -0.000009 0.000002 -0.005159 0.000003 0.023081
#
#
# Mechanical properties :
#
#
# Convention : Reuss Voigt Hill
#
# Bulk Modulus (GPa) = 37.45629 47.24251 42.34940
# Shear Modulus (GPa) = 29.74731 35.33938 32.54335
#
# Velocity S-wave (km/s) = 3.53820 3.85645 3.70075
# Velocity P-wave (km/s) = 5.69692 6.30168 6.00692
#
# Compressibility (1/GPa) = 0.02669778
#
# Stress axis : x y z
#
# Youngs Moduli (GPa) = 83.64416 94.65705 57.87437
#
# Poissons Ratio (x) = 0.45343 0.00500
# Poissons Ratio (y) = 0.40068 0.09687
# Poissons Ratio (z) = 0.00723 0.15843
#
# Static dielectric constant tensor:
#      x y z
#    x 1.950530 -0.000020 0.040890 
#    y -0.000020 2.012060 0.000010 
#    z 0.040890 0.000010 1.971130 
# 
# From -- ./inp_files/35903.got.cif
#   From: 2010.05.17/outbox.cif.g08.bks.cpg/sg9_18_cif.got.tgz:35903.got - 2010.06.03 20:04:27.
