data_PCOD9137664
_publ_section_title
;
Structure prediction by ZEFSAII (Michael W. Deem and Ramdas Pophale) SiO2 
 PCOD9137664
Probable space group: C C
;
_chemical_formula_sum "Si O2"
_cell_formula_units_Z 24
_cell_length_a 18.129321
_cell_length_b 12.074839
_cell_length_c 9.336304
_cell_angle_alpha 90.000000
_cell_angle_beta 152.419989
_cell_angle_gamma 90.000000
_cell_volume 946.251351
_symmetry_space_group_name_H-M "C C"
_symmetry_group_IT_number 9
_symmetry_cell_setting 'monoclinic'
loop_
_space_group_symop_operation_xyz
x,y,z
x,-y,1/2+z
1/2+x,1/2+y,z
1/2+x,1/2-y,1/2+z
loop_
_atom_site_type_symbol
_atom_site_label
_atom_site_fract_x
_atom_site_fract_y
_atom_site_fract_z
Si Si1 0.551090 0.865414 0.959720
Si Si2 0.839971 0.456208 0.382395
Si Si3 0.624150 0.899096 0.656743
Si Si4 0.981083 0.133522 0.779468
Si Si5 0.027181 0.928412 0.674351
Si Si6 0.946189 0.303667 0.085228
O O1 0.377355 0.910322 0.605006
O O2 0.567583 0.750173 0.903939
O O3 0.552249 0.822489 0.125221
O O4 0.648520 0.979226 0.126394
O O5 0.002435 0.424379 0.576374
O O6 0.830396 0.589938 0.372434
O O7 0.693708 0.406367 0.043641
O O8 0.537748 0.825599 0.389755
O O9 0.792786 0.847799 0.986782
O O10 0.984563 0.050299 0.653701
O O11 0.040277 0.074447 0.026328
O O12 0.910229 0.826835 0.517259
#
# Coordination Sequence:
#
# PCOD9137664 Si02
#       6
#     4   4   4   4   4   4
#     4   9  21  42  67  91 130 167 219 262 322 390
#     4  10  22  43  69  93 130 173 217 264 330 386
#     4  10  22  43  69  93 130 173 217 264 330 386
#     4  11  26  43  63  99 135 167 219 272 322 388
#     4  11  26  43  63  99 135 167 219 272 322 388
#     4   9  21  42  67  91 130 167 219 262 322 390
#
# _framework density 25.363239
#
# number of rings (size 3 to 8) (size 9 to 14) (size 15 to 20)
#    0.000    2.000    0.000    1.000   14.000    2.667 
#   12.000    0.000    0.000    0.000    0.000    0.000 
#    0.000    0.000    0.000    0.000    0.000    0.000 
#
# Total GULP energy -67028.619510 kJ/mol
# GULP energy per Si atom -5585.718293 kJ/mol
# Density = 2.530551 g / cm^3
# Si number density = 25.363239 Si / 1000 Ang^3
#
#
#
# Elastic Constant Matrix: (Units=GPa)
#
#
# Indices 1 2 3 4 5 6 
#
# 1 56.8351 25.9528 21.5971 0.0000 -0.2463 0.0000
# 2 25.9528 159.7079 -14.0876 0.0000 4.4208 0.0000
# 3 21.5971 -14.0876 85.9706 0.0000 -5.3224 0.0000
# 4 0.0000 0.0000 0.0000 40.1305 0.0000 0.0422
# 5 -0.2463 4.4208 -5.3224 0.0000 34.7549 0.0000
# 6 0.0000 0.0000 0.0000 0.0422 0.0000 42.1144
#
#
#
# Elastic Compliance Matrix: (Units=1/GPa)
#
#
# Indices 1 2 3 4 5 6 
#
# 1 0.021797 -0.004078 -0.006161 0.000000 -0.000270 0.000000
# 2 -0.004078 0.007131 0.002155 0.000000 -0.000606 0.000000
# 3 -0.006161 0.002155 0.013642 0.000000 0.001771 0.000000
# 4 0.000000 0.000000 0.000000 0.024919 0.000000 -0.000025
# 5 -0.000270 -0.000606 0.001771 0.000000 0.029119 0.000000
# 6 0.000000 0.000000 0.000000 -0.000025 0.000000 0.023745
#
#
# Mechanical properties :
#
#
# Convention : Reuss Voigt Hill
#
# Bulk Modulus (GPa) = 37.87320 41.04869 39.46094
# Shear Modulus (GPa) = 34.40671 41.33672 37.87172
#
# Velocity S-wave (km/s) = 3.68714 4.04144 3.86835
# Velocity P-wave (km/s) = 5.75252 6.16418 5.96190
#
# Compressibility (1/GPa) = 0.02640389
#
# Stress axis : x y z
#
# Youngs Moduli (GPa) = 45.87850 140.23280 73.30100
#
# Poissons Ratio (x) = 0.57186 0.45158
# Poissons Ratio (y) = 0.18709 -0.15800
# Poissons Ratio (z) = 0.28264 -0.30226
#
# Static dielectric constant tensor:
#      x y z
#    x 2.035590 0.000000 0.070280 
#    y 0.000000 1.984690 0.000000 
#    z 0.070280 0.000000 1.982530 
# 
# From -- ./inp_files/14163.got.cif
#   From: 2010.05.17/outbox.cif.g08.bks.cpg/sg9_8_cif.got.tgz:14163.got - 2010.06.03 20:04:27.
