data_PCOD9137387
_publ_section_title
;
Structure prediction by ZEFSAII (Michael W. Deem and Ramdas Pophale) SiO2 
 PCOD9137387
Probable space group: C C
;
_chemical_formula_sum "Si O2"
_cell_formula_units_Z 32
_cell_length_a 17.198297
_cell_length_b 7.879451
_cell_length_c 12.878576
_cell_angle_alpha 90.000000
_cell_angle_beta 122.149220
_cell_angle_gamma 90.000000
_cell_volume 1477.613712
_symmetry_space_group_name_H-M "C C"
_symmetry_group_IT_number 9
_symmetry_cell_setting 'monoclinic'
loop_
_space_group_symop_operation_xyz
x,y,z
x,-y,1/2+z
1/2+x,1/2+y,z
1/2+x,1/2-y,1/2+z
loop_
_atom_site_type_symbol
_atom_site_label
_atom_site_fract_x
_atom_site_fract_y
_atom_site_fract_z
Si Si1 0.338200 0.574323 0.177720
Si Si2 0.198104 0.041399 0.412002
Si Si3 0.967896 0.682866 0.076562
Si Si4 0.874402 0.419588 0.155818
Si Si5 0.014385 0.860998 0.321740
Si Si6 0.688933 0.929594 0.403485
Si Si7 0.776224 0.224605 0.345247
Si Si8 0.517364 0.006176 0.413108
O O1 0.391410 0.720603 0.152767
O O2 0.413209 0.439488 0.266942
O O3 0.293627 0.684049 0.237987
O O4 0.256891 0.514995 0.046033
O O5 0.269195 0.033746 0.558829
O O6 0.206081 0.236373 0.380630
O O7 0.231720 0.901420 0.352081
O O8 0.097008 0.994399 0.380258
O O9 0.928150 0.518868 0.105705
O O10 0.013065 0.787319 0.202473
O O11 0.878372 0.782350 0.969507
O O12 0.025786 0.606186 0.022370
O O13 0.915324 0.478117 0.294570
O O14 0.031894 0.709067 0.416450
O O15 0.710674 0.071990 0.335509
O O16 0.587725 0.935910 0.377968
#
# Coordination Sequence:
#
# PCOD9137387 Si02
#       8
#     4   4   4   4   4   4   4   4
#     4  11  23  40  71  96 135 181 230 283 351 406
#     4  10  23  42  67  94 141 176 224 287 341 401
#     4  10  22  41  69  97 139 181 228 282 350 409
#     4   9  21  41  64  94 134 178 225 286 336 407
#     4  11  23  42  69 102 140 180 232 289 344 416
#     4  11  24  43  67 102 138 177 230 289 340 411
#     4  11  22  45  68  97 135 178 227 285 346 408
#     4  11  22  40  71  96 138 183 230 283 348 408
#
# _framework density 21.65654
#
# number of rings (size 3 to 8) (size 9 to 14) (size 15 to 20)
#    0.000    1.500    3.750    0.750    1.750    3.000 
#    0.000    0.000   11.000    0.000    0.000    0.000 
#    0.000    0.000    0.000    0.000    0.000    0.000 
#
# Total GULP energy -89263.803827 kJ/mol
# GULP energy per Si atom -5578.987739 kJ/mol
# Density = 2.160725 g / cm^3
# Si number density = 21.656540 Si / 1000 Ang^3
#
#
#
# Elastic Constant Matrix: (Units=GPa)
#
#
# Indices 1 2 3 4 5 6 
#
# 1 71.6701 43.4511 30.0309 0.0000 5.1398 0.0000
# 2 43.4511 113.1762 11.1281 0.0000 -2.0007 0.0000
# 3 30.0309 11.1281 38.5250 0.0000 -2.4334 0.0000
# 4 0.0000 0.0000 0.0000 22.3541 0.0000 14.0817
# 5 5.1398 -2.0007 -2.4334 0.0000 24.6230 0.0000
# 6 0.0000 0.0000 0.0000 14.0817 0.0000 20.5223
#
#
#
# Elastic Compliance Matrix: (Units=1/GPa)
#
#
# Indices 1 2 3 4 5 6 
#
# 1 0.028576 -0.009140 -0.020185 0.000000 -0.008703 0.000000
# 2 -0.009140 0.012023 0.003858 0.000000 0.003266 0.000000
# 3 -0.020185 0.003858 0.041120 0.000000 0.008591 0.000000
# 4 0.000000 0.000000 0.000000 0.078791 0.000000 -0.054064
# 5 -0.008703 0.003266 0.008591 0.000000 0.043543 0.000000
# 6 0.000000 0.000000 0.000000 -0.054064 0.000000 0.085824
#
#
# Mechanical properties :
#
#
# Convention : Reuss Voigt Hill
#
# Bulk Modulus (GPa) = 32.48302 43.62128 38.05215
# Shear Modulus (GPa) = 14.24199 22.75062 18.49630
#
# Velocity S-wave (km/s) = 2.56721 3.24469 2.92563
# Velocity P-wave (km/s) = 4.88049 5.85007 5.38714
#
# Compressibility (1/GPa) = 0.03078532
#
# Stress axis : x y z
#
# Youngs Moduli (GPa) = 34.99406 83.17175 24.31905
#
# Poissons Ratio (x) = 0.76021 0.49089
# Poissons Ratio (y) = 0.31985 -0.09383
# Poissons Ratio (z) = 0.70636 -0.32090
#
# Static dielectric constant tensor:
#      x y z
#    x 1.798270 0.000000 0.026550 
#    y 0.000000 1.840370 0.000000 
#    z 0.026550 0.000000 1.837680 
# 
# From -- ./inp_files/19167.got.cif
#   From: 2010.05.17/outbox.cif.g08.bks.cpg/sg9_10_cif.got.tgz:19167.got - 2010.06.03 20:04:27.
