data_PCOD9137953
_publ_section_title
;
Structure prediction by ZEFSAII (Michael W. Deem and Ramdas Pophale) SiO2 
 PCOD9137953
Probable space group: C C
;
_chemical_formula_sum "Si O2"
_cell_formula_units_Z 24
_cell_length_a 9.748896
_cell_length_b 9.687014
_cell_length_c 10.813760
_cell_angle_alpha 90.000000
_cell_angle_beta 122.192759
_cell_angle_gamma 90.000000
_cell_volume 864.223683
_symmetry_space_group_name_H-M "C C"
_symmetry_group_IT_number 9
_symmetry_cell_setting 'monoclinic'
loop_
_space_group_symop_operation_xyz
x,y,z
x,-y,1/2+z
1/2+x,1/2+y,z
1/2+x,1/2-y,1/2+z
loop_
_atom_site_type_symbol
_atom_site_label
_atom_site_fract_x
_atom_site_fract_y
_atom_site_fract_z
Si Si1 0.775890 0.396236 0.726140
Si Si2 0.252778 0.413176 0.212704
Si Si3 0.247130 0.919703 0.439087
Si Si4 0.459608 0.249802 0.622727
Si Si5 0.819960 0.119250 0.468590
Si Si6 0.087775 0.181294 0.436802
O O1 0.828457 0.238652 0.781683
O O2 0.832991 0.427953 0.615550
O O3 0.814672 0.511015 0.846306
O O4 0.577267 0.374369 0.631572
O O5 0.061430 0.376560 0.114939
O O6 0.302330 0.445391 0.095654
O O7 0.278043 0.519915 0.334873
O O8 0.212816 0.758435 0.409448
O O9 0.099327 0.022565 0.397288
O O10 0.486314 0.244873 0.782841
O O11 0.268596 0.239771 0.516037
O O12 0.999062 0.181156 0.524545
#
# Coordination Sequence:
#
# PCOD9137953 Si02
#       6
#     4   4   4   4   4   4
#     4   8  20  44  78 112 157 209 268 337 405 496
#     4   9  23  51  76 116 161 218 275 342 414 505
#     4  10  22  45  76 118 154 211 270 339 409 491
#     4   9  23  51  76 111 164 217 268 342 413 500
#     4  11  25  49  81 121 161 220 278 344 418 500
#     4  11  25  48  81 116 167 217 275 342 423 496
#
# _framework density 27.770589999999999
#
# number of rings (size 3 to 8) (size 9 to 14) (size 15 to 20)
#    1.000    1.333    0.000    0.000    2.333    6.667 
#    6.000    1.667    0.000    0.000    0.000    0.000 
#    0.000    0.000    0.000    0.000    0.000    0.000 
#
# Total GULP energy -67085.935190 kJ/mol
# GULP energy per Si atom -5590.494599 kJ/mol
# Density = 2.770738 g / cm^3
# Si number density = 27.770590 Si / 1000 Ang^3
#
#
#
# Elastic Constant Matrix: (Units=GPa)
#
#
# Indices 1 2 3 4 5 6 
#
# 1 118.1607 41.1125 63.4585 0.0000 -24.2229 0.0000
# 2 41.1125 149.9670 102.5548 0.0000 -22.1679 0.0000
# 3 63.4585 102.5548 222.4887 0.0000 -43.3014 0.0000
# 4 0.0000 0.0000 0.0000 63.7754 0.0000 -15.6873
# 5 -24.2229 -22.1679 -43.3014 0.0000 55.6893 0.0000
# 6 0.0000 0.0000 0.0000 -15.6873 0.0000 33.3339
#
#
#
# Elastic Compliance Matrix: (Units=1/GPa)
#
#
# Indices 1 2 3 4 5 6 
#
# 1 0.010435 -0.001150 -0.001946 0.000000 0.002568 0.000000
# 2 -0.001150 0.009874 -0.004190 0.000000 0.000172 0.000000
# 3 -0.001946 -0.004190 0.007649 0.000000 0.003433 0.000000
# 4 0.000000 0.000000 0.000000 0.017733 0.000000 0.008345
# 5 0.002568 0.000172 0.003433 0.000000 0.021812 0.000000
# 6 0.000000 0.000000 0.000000 0.008345 0.000000 0.033927
#
#
# Mechanical properties :
#
#
# Convention : Reuss Voigt Hill
#
# Bulk Modulus (GPa) = 74.70709 100.54087 87.62398
# Shear Modulus (GPa) = 41.50612 49.45908 45.48260
#
# Velocity S-wave (km/s) = 3.87021 4.22475 4.05136
# Velocity P-wave (km/s) = 6.85064 7.75118 7.31478
#
# Compressibility (1/GPa) = 0.01338561
#
# Stress axis : x y z
#
# Youngs Moduli (GPa) = 95.83237 101.27493 130.73210
#
# Poissons Ratio (x) = 0.11647 0.25446
# Poissons Ratio (y) = 0.11021 0.54774
# Poissons Ratio (z) = 0.18653 0.42432
#
# Static dielectric constant tensor:
#      x y z
#    x 2.161660 0.000000 0.034550 
#    y 0.000000 2.251930 0.000000 
#    z 0.034550 0.000000 2.159780 
# 
# From -- ./inp_files/16045.got.cif
#   From: 2010.05.17/outbox.cif.g08.bks.cpg/sg9_9_cif.got.tgz:16045.got - 2010.06.03 20:04:27.
