data_PCOD9137381
_publ_section_title
;
Structure prediction by ZEFSAII (Michael W. Deem and Ramdas Pophale) SiO2 
 PCOD9137381
Probable space group: C C
;
_chemical_formula_sum "Si O2"
_cell_formula_units_Z 32
_cell_length_a 12.943586
_cell_length_b 7.902596
_cell_length_c 20.807320
_cell_angle_alpha 90.000000
_cell_angle_beta 36.818198
_cell_angle_gamma 90.000000
_cell_volume 1275.465738
_symmetry_space_group_name_H-M "C C"
_symmetry_group_IT_number 9
_symmetry_cell_setting 'monoclinic'
loop_
_space_group_symop_operation_xyz
x,y,z
x,-y,1/2+z
1/2+x,1/2+y,z
1/2+x,1/2-y,1/2+z
loop_
_atom_site_type_symbol
_atom_site_label
_atom_site_fract_x
_atom_site_fract_y
_atom_site_fract_z
Si Si1 0.882170 0.047839 0.022250
Si Si2 0.857252 0.752472 0.927602
Si Si3 0.976268 0.827548 0.603421
Si Si4 0.774653 0.483880 0.176443
Si Si5 0.517680 0.108209 0.957371
Si Si6 0.359570 0.573885 0.293920
Si Si7 0.231952 0.067166 0.339756
Si Si8 0.558051 0.242428 0.208336
O O1 0.731891 0.185560 0.085550
O O2 0.879447 0.045054 0.102497
O O3 0.839916 0.898260 0.992250
O O4 0.088227 0.082329 0.912254
O O5 0.916667 0.841090 0.832344
O O6 0.985016 0.622425 0.897723
O O7 0.680544 0.653174 0.003664
O O8 0.939054 0.637628 0.599964
O O9 0.903214 0.817377 0.711187
O O10 0.757658 0.587032 0.250188
O O11 0.624740 0.344764 0.238139
O O12 0.834244 0.590935 0.084808
O O13 0.616534 0.281573 0.927208
O O14 0.660382 0.968655 0.897896
O O15 0.453287 0.396627 0.229415
O O16 0.420156 0.088085 0.278255
#
# Coordination Sequence:
#
# PCOD9137381 Si02
#       8
#     4   4   4   4   4   4   4   4
#     4  10  24  45  67 110 142 190 251 305 369 448
#     4  11  23  45  72 101 144 195 237 309 374 440
#     4  11  25  42  70 102 148 191 246 312 367 456
#     4  11  22  44  68 102 147 189 244 311 372 442
#     4  10  23  42  70 101 145 191 244 311 371 455
#     4  11  24  45  66 109 144 194 255 306 378 444
#     4  10  23  42  72 107 143 197 242 311 372 444
#     4  10  22  41  69 102 141 195 241 299 377 441
#
# _framework density 25.088874000000001
#
# number of rings (size 3 to 8) (size 9 to 14) (size 15 to 20)
#    0.000    1.500    1.250    3.000    1.750    5.000 
#    9.000    0.000    0.000    0.000    0.000    0.000 
#    0.000    0.000    0.000    0.000    0.000    0.000 
#
# Total GULP energy -89111.736400 kJ/mol
# GULP energy per Si atom -5569.483525 kJ/mol
# Density = 2.503177 g / cm^3
# Si number density = 25.088874 Si / 1000 Ang^3
#
#
#
# Elastic Constant Matrix: (Units=GPa)
#
#
# Indices 1 2 3 4 5 6 
#
# 1 121.2432 27.0380 54.1745 0.0000 8.5034 0.0000
# 2 27.0380 56.5540 33.0163 0.0000 -0.3764 0.0000
# 3 54.1745 33.0163 120.5061 0.0000 -4.5244 0.0000
# 4 0.0000 0.0000 0.0000 18.8365 0.0000 7.4066
# 5 8.5034 -0.3764 -4.5244 0.0000 48.4190 0.0000
# 6 0.0000 0.0000 0.0000 7.4066 0.0000 34.2702
#
#
#
# Elastic Compliance Matrix: (Units=1/GPa)
#
#
# Indices 1 2 3 4 5 6 
#
# 1 0.010923 -0.002761 -0.004242 0.000000 -0.002336 0.000000
# 2 -0.002761 0.021754 -0.004711 0.000000 0.000214 0.000000
# 3 -0.004242 -0.004711 0.011563 0.000000 0.001789 0.000000
# 4 0.000000 0.000000 0.000000 0.058019 0.000000 -0.012539
# 5 -0.002336 0.000214 0.001789 0.000000 0.021232 0.000000
# 6 0.000000 0.000000 0.000000 -0.012539 0.000000 0.031890
#
#
# Mechanical properties :
#
#
# Convention : Reuss Voigt Hill
#
# Bulk Modulus (GPa) = 48.04842 58.52899 53.28870
# Shear Modulus (GPa) = 26.91857 32.57679 29.74768
#
# Velocity S-wave (km/s) = 3.27911 3.60732 3.44712
# Velocity P-wave (km/s) = 5.79048 6.38198 6.09341
#
# Compressibility (1/GPa) = 0.02081234
#
# Stress axis : x y z
#
# Youngs Moduli (GPa) = 91.55191 45.96862 86.48313
#
# Poissons Ratio (x) = 0.12694 0.36682
# Poissons Ratio (y) = 0.25281 0.40740
# Poissons Ratio (z) = 0.38832 0.21654
#
# Static dielectric constant tensor:
#      x y z
#    x 2.040760 0.000000 -0.032500 
#    y 0.000000 2.155160 0.000000 
#    z -0.032500 0.000000 2.012720 
# 
# From -- ./inp_files/33213.got.cif
#   From: 2010.05.17/outbox.cif.g08.bks.cpg/sg9_17_cif.got.tgz:33213.got - 2010.06.03 20:04:27.
