data_PCOD9137718
_publ_section_title
;
Structure prediction by ZEFSAII (Michael W. Deem and Ramdas Pophale) SiO2 
 PCOD9137718
Probable space group: C C
;
_chemical_formula_sum "Si O2"
_cell_formula_units_Z 32
_cell_length_a 7.746186
_cell_length_b 14.512692
_cell_length_c 13.390622
_cell_angle_alpha 90.000000
_cell_angle_beta 57.325186
_cell_angle_gamma 90.000000
_cell_volume 1267.123179
_symmetry_space_group_name_H-M "C C"
_symmetry_group_IT_number 9
_symmetry_cell_setting 'monoclinic'
loop_
_space_group_symop_operation_xyz
x,y,z
x,-y,1/2+z
1/2+x,1/2+y,z
1/2+x,1/2-y,1/2+z
loop_
_atom_site_type_symbol
_atom_site_label
_atom_site_fract_x
_atom_site_fract_y
_atom_site_fract_z
Si Si1 0.229230 0.284068 0.539580
Si Si2 0.736849 0.948774 0.926287
Si Si3 0.248914 0.806345 0.716434
Si Si4 0.685181 0.522749 0.371311
Si Si5 0.922772 0.396208 0.181926
Si Si6 0.371807 0.681808 0.208173
Si Si7 0.644834 0.423563 0.101222
Si Si8 0.733217 0.870778 0.336179
O O1 0.311301 0.337017 0.612179
O O2 0.254757 0.174803 0.544241
O O3 0.320038 0.318530 0.407478
O O4 0.982640 0.293772 0.610932
O O5 0.752987 0.875101 0.830988
O O6 0.960352 0.985706 0.890116
O O7 0.625363 0.039822 0.917595
O O8 0.635824 0.903479 0.056458
O O9 0.250649 0.878683 0.806005
O O10 0.149630 0.712425 0.793895
O O11 0.107123 0.834488 0.667767
O O12 0.873720 0.452839 0.295439
O O13 0.644580 0.522085 0.500738
O O14 0.845366 0.292619 0.221034
O O15 0.775263 0.455623 0.154163
O O16 0.415667 0.409477 0.210916
#
# Coordination Sequence:
#
# PCOD9137718 Si02
#       8
#     4   4   4   4   4   4   4   4
#     4  10  22  43  75 104 146 195 239 305 381 436
#     4  11  26  46  72 110 148 189 258 302 369 454
#     4  10  23  43  75 105 145 194 245 307 368 441
#     4  11  23  48  71 105 149 188 245 310 360 447
#     4  11  25  46  72 110 144 194 247 299 380 437
#     4  10  26  46  72 113 149 190 254 309 373 449
#     4  10  23  42  68 101 144 185 237 302 363 435
#     4  11  22  44  71 106 143 197 245 304 370 439
#
# _framework density 25.254055000000001
#
# number of rings (size 3 to 8) (size 9 to 14) (size 15 to 20)
#    0.000    1.500    2.500    0.750    5.250    5.000 
#    2.250    0.000    0.000    0.000    0.000    0.000 
#    0.000    0.000    0.000    0.000    0.000    0.000 
#
# Total GULP energy -89399.390835 kJ/mol
# GULP energy per Si atom -5587.461927 kJ/mol
# Density = 2.519658 g / cm^3
# Si number density = 25.254055 Si / 1000 Ang^3
#
#
#
# Elastic Constant Matrix: (Units=GPa)
#
#
# Indices 1 2 3 4 5 6 
#
# 1 68.2977 -9.4258 13.6193 0.0000 13.9819 0.0000
# 2 -9.4258 103.4399 32.9373 0.0000 -7.8977 0.0000
# 3 13.6193 32.9373 118.9241 0.0000 17.8965 0.0000
# 4 0.0000 0.0000 0.0000 43.2410 0.0000 2.5219
# 5 13.9819 -7.8977 17.8965 0.0000 34.4694 0.0000
# 6 0.0000 0.0000 0.0000 2.5219 0.0000 18.6197
#
#
#
# Elastic Compliance Matrix: (Units=1/GPa)
#
#
# Indices 1 2 3 4 5 6 
#
# 1 0.016268 0.001528 -0.001460 0.000000 -0.005491 0.000000
# 2 0.001528 0.011365 -0.003928 0.000000 0.004024 0.000000
# 3 -0.001460 -0.003928 0.010533 0.000000 -0.005777 0.000000
# 4 0.000000 0.000000 0.000000 0.023310 0.000000 -0.003157
# 5 -0.005491 0.004024 -0.005777 0.000000 0.035160 0.000000
# 6 0.000000 0.000000 0.000000 -0.003157 0.000000 0.054134
#
#
# Mechanical properties :
#
#
# Convention : Reuss Voigt Hill
#
# Bulk Modulus (GPa) = 32.84530 40.54703 36.69617
# Shear Modulus (GPa) = 29.64929 36.16808 32.90868
#
# Velocity S-wave (km/s) = 3.43015 3.78851 3.61377
# Velocity P-wave (km/s) = 5.35930 5.93528 5.65463
#
# Compressibility (1/GPa) = 0.03044575
#
# Stress axis : x y z
#
# Youngs Moduli (GPa) = 61.47093 87.99217 94.93848
#
# Poissons Ratio (x) = -0.13446 0.13860
# Poissons Ratio (y) = -0.09393 0.37292
# Poissons Ratio (z) = 0.08974 0.34564
#
# Static dielectric constant tensor:
#      x y z
#    x 2.092070 0.000000 0.032100 
#    y 0.000000 2.060790 0.000000 
#    z 0.032100 0.000000 1.997810 
# 
# From -- ./inp_files/14716.got.cif
#   From: 2010.05.17/outbox.cif.g08.bks.cpg/sg9_8_cif.got.tgz:14716.got - 2010.06.03 20:04:27.
