data_PCOD9137187
_publ_section_title
;
Structure prediction by ZEFSAII (Michael W. Deem and Ramdas Pophale) SiO2 
 PCOD9137187
Probable space group: C C
;
_chemical_formula_sum "Si O2"
_cell_formula_units_Z 32
_cell_length_a 12.963973
_cell_length_b 13.816244
_cell_length_c 9.558825
_cell_angle_alpha 90.000000
_cell_angle_beta 99.074363
_cell_angle_gamma 90.000000
_cell_volume 1690.685780
_symmetry_space_group_name_H-M "C C"
_symmetry_group_IT_number 9
_symmetry_cell_setting 'monoclinic'
loop_
_space_group_symop_operation_xyz
x,y,z
x,-y,1/2+z
1/2+x,1/2+y,z
1/2+x,1/2-y,1/2+z
loop_
_atom_site_type_symbol
_atom_site_label
_atom_site_fract_x
_atom_site_fract_y
_atom_site_fract_z
Si Si1 0.412060 0.723029 0.061310
Si Si2 0.439191 0.291824 0.008900
Si Si3 0.115235 0.894374 0.898556
Si Si4 0.657229 0.703689 0.116461
Si Si5 0.896839 0.942539 0.791536
Si Si6 0.331676 0.344704 0.250000
Si Si7 0.817515 0.402021 0.456497
Si Si8 0.311953 0.925258 0.133032
O O1 0.536596 0.727473 0.063102
O O2 0.394561 0.632355 0.162425
O O3 0.369278 0.823379 0.115852
O O4 0.351958 0.699900 0.906078
O O5 0.426877 0.312007 0.169338
O O6 0.550989 0.308520 0.962188
O O7 0.369836 0.376220 0.919586
O O8 0.396160 0.187610 0.964158
O O9 0.159220 0.858332 0.760772
O O10 0.019898 0.968302 0.845688
O O11 0.202733 0.924953 0.025240
O O12 0.728400 0.797486 0.161694
O O13 0.714337 0.642874 0.007530
O O14 0.832990 0.039498 0.759328
O O15 0.798015 0.438925 0.295437
O O16 0.865288 0.483488 0.568661
#
# Coordination Sequence:
#
# PCOD9137187 Si02
#       8
#     4   4   4   4   4   4   4   4
#     4  11  23  41  64  88 130 166 199 257 318 364
#     4   9  21  40  60  85 128 153 204 262 295 368
#     4   9  20  39  60  91 121 158 198 261 308 358
#     4  10  22  40  62  93 126 158 206 258 301 375
#     4   9  20  39  62  86 121 159 201 252 306 358
#     4  11  21  36  65  96 121 160 207 255 308 368
#     4  11  24  39  62  87 124 163 209 254 308 374
#     4  12  23  40  63  90 123 167 204 257 318 365
#
# _framework density 18.927230999999999
#
# number of rings (size 3 to 8) (size 9 to 14) (size 15 to 20)
#    0.750    1.000    2.500    1.500    5.250    1.000 
#    0.000    1.250    8.250    0.000    0.000    0.000 
#    0.000    0.000    0.000    0.000    0.000    0.000 
#
# Total GULP energy -89196.485920 kJ/mol
# GULP energy per Si atom -5574.780370 kJ/mol
# Density = 1.888415 g / cm^3
# Si number density = 18.927231 Si / 1000 Ang^3
#
#
#
# Elastic Constant Matrix: (Units=GPa)
#
#
# Indices 1 2 3 4 5 6 
#
# 1 43.5543 31.8813 4.4288 0.0000 -0.8804 0.0000
# 2 31.8813 122.0904 23.5030 0.0000 3.2440 0.0000
# 3 4.4288 23.5030 92.1934 0.0000 -7.8967 0.0000
# 4 0.0000 0.0000 0.0000 29.0808 0.0000 -5.8732
# 5 -0.8804 3.2440 -7.8967 0.0000 24.0255 0.0000
# 6 0.0000 0.0000 0.0000 -5.8732 0.0000 9.9063
#
#
#
# Elastic Compliance Matrix: (Units=1/GPa)
#
#
# Indices 1 2 3 4 5 6 
#
# 1 0.028538 -0.007665 0.000783 0.000000 0.002338 0.000000
# 2 -0.007665 0.010761 -0.002597 0.000000 -0.002587 0.000000
# 3 0.000783 -0.002597 0.011837 0.000000 0.004270 0.000000
# 4 0.000000 0.000000 0.000000 0.039065 0.000000 0.023161
# 5 0.002338 -0.002587 0.004270 0.000000 0.043461 0.000000
# 6 0.000000 0.000000 0.000000 0.023161 0.000000 0.114677
#
#
# Mechanical properties :
#
#
# Convention : Reuss Voigt Hill
#
# Bulk Modulus (GPa) = 31.07598 41.94050 36.50824
# Shear Modulus (GPa) = 17.98423 25.80419 21.89421
#
# Velocity S-wave (km/s) = 3.08584 3.69634 3.40480
# Velocity P-wave (km/s) = 5.39915 6.35800 5.89809
#
# Compressibility (1/GPa) = 0.03217920
#
# Stress axis : x y z
#
# Youngs Moduli (GPa) = 35.04075 92.92955 84.48212
#
# Poissons Ratio (x) = 0.71231 -0.06618
# Poissons Ratio (y) = 0.26859 0.21937
# Poissons Ratio (z) = -0.02745 0.24131
#
# Static dielectric constant tensor:
#      x y z
#    x 1.655320 0.000000 -0.007900 
#    y 0.000000 1.675720 0.000000 
#    z -0.007900 0.000000 1.676220 
# 
# From -- ./inp_files/9123.got.cif
#   From: 2010.05.17/outbox.cif.g08.bks.cpg/sg9_5_cif.got.tgz:9123.got - 2010.06.03 20:04:27.
