data_PCOD9137790
_publ_section_title
;
Structure prediction by ZEFSAII (Michael W. Deem and Ramdas Pophale) SiO2 
 PCOD9137790
Probable space group: C C
;
_chemical_formula_sum "Si O2"
_cell_formula_units_Z 24
_cell_length_a 11.458420
_cell_length_b 8.140117
_cell_length_c 13.660239
_cell_angle_alpha 90.000000
_cell_angle_beta 132.578083
_cell_angle_gamma 90.000000
_cell_volume 938.213084
_symmetry_space_group_name_H-M "C C"
_symmetry_group_IT_number 9
_symmetry_cell_setting 'monoclinic'
loop_
_space_group_symop_operation_xyz
x,y,z
x,-y,1/2+z
1/2+x,1/2+y,z
1/2+x,1/2-y,1/2+z
loop_
_atom_site_type_symbol
_atom_site_label
_atom_site_fract_x
_atom_site_fract_y
_atom_site_fract_z
Si Si1 0.334950 0.436544 0.653960
Si Si2 0.505506 0.039015 0.059159
Si Si3 0.859321 0.780164 0.374003
Si Si4 0.869795 0.879312 0.977224
Si Si5 0.604672 0.227000 0.878827
Si Si6 0.497963 0.883911 0.771869
O O1 0.193298 0.480681 0.647796
O O2 0.385679 0.569825 0.600908
O O3 0.483110 0.373515 0.799261
O O4 0.251257 0.294527 0.537313
O O5 0.463643 0.221100 0.994712
O O6 0.440652 0.067590 0.132124
O O7 0.430662 0.877261 0.971209
O O8 0.679617 0.781061 0.311123
O O9 0.902732 0.739661 0.286877
O O10 0.920067 0.954487 0.449597
O O11 0.682855 0.836055 0.861639
O O12 0.510591 0.056103 0.837017
#
# Coordination Sequence:
#
# PCOD9137790 Si02
#       6
#     4   4   4   4   4   4
#     4  10  23  45  70 104 151 179 257 299 359 444
#     4  12  24  45  75 103 148 195 242 309 365 440
#     4  10  22  50  70 100 157 182 244 313 364 433
#     4  10  25  45  68 112 139 195 245 298 375 434
#     4  10  22  45  72 105 139 203 233 305 373 424
#     4  10  22  44  69 108 146 184 253 302 358 449
#
# _framework density 25.580542999999999
#
# number of rings (size 3 to 8) (size 9 to 14) (size 15 to 20)
#    0.000    2.000    3.333    2.000    2.333    5.333 
#   15.000    0.000    0.000    0.000    0.000    0.000 
#    0.000    0.000    0.000    0.000    0.000    0.000 
#
# Total GULP energy -67064.886068 kJ/mol
# GULP energy per Si atom -5588.740506 kJ/mol
# Density = 2.552232 g / cm^3
# Si number density = 25.580543 Si / 1000 Ang^3
#
#
#
# Elastic Constant Matrix: (Units=GPa)
#
#
# Indices 1 2 3 4 5 6 
#
# 1 149.0860 85.0261 27.1316 0.0000 -41.0926 0.0000
# 2 85.0261 170.7940 40.3498 0.0000 -4.2298 0.0000
# 3 27.1316 40.3498 73.9390 0.0000 -34.8081 0.0000
# 4 0.0000 0.0000 0.0000 40.0223 0.0000 -6.8273
# 5 -41.0926 -4.2298 -34.8081 0.0000 42.2158 0.0000
# 6 0.0000 0.0000 0.0000 -6.8273 0.0000 68.3222
#
#
#
# Elastic Compliance Matrix: (Units=1/GPa)
#
#
# Indices 1 2 3 4 5 6 
#
# 1 0.018224 -0.011221 0.011863 0.000000 0.026396 0.000000
# 2 -0.011221 0.014035 -0.013111 0.000000 -0.020327 0.000000
# 3 0.011863 -0.013111 0.034558 0.000000 0.038728 0.000000
# 4 0.000000 0.000000 0.000000 0.025419 0.000000 0.002540
# 5 0.026396 -0.020327 0.038728 0.000000 0.079277 0.000000
# 6 0.000000 0.000000 0.000000 0.002540 0.000000 0.014890
#
#
# Mechanical properties :
#
#
# Convention : Reuss Voigt Hill
#
# Bulk Modulus (GPa) = 23.87840 77.64821 50.76331
# Shear Modulus (GPa) = 22.19241 46.19948 34.19595
#
# Velocity S-wave (km/s) = 2.94862 4.25436 3.66019
# Velocity P-wave (km/s) = 4.57682 7.38601 6.14412
#
# Compressibility (1/GPa) = 0.04187885
#
# Stress axis : x y z
#
# Youngs Moduli (GPa) = 54.87339 71.24923 28.93655
#
# Poissons Ratio (x) = 0.79950 -0.34327
# Poissons Ratio (y) = 0.61574 0.37938
# Poissons Ratio (z) = -0.65095 0.93414
#
# Static dielectric constant tensor:
#      x y z
#    x 2.035460 0.000000 -0.109980 
#    y 0.000000 2.042960 0.000000 
#    z -0.109980 0.000000 2.130630 
# 
# From -- ./inp_files/24133.got.cif
#   From: 2010.05.17/outbox.cif.g08.bks.cpg/sg9_13_cif.got.tgz:24133.got - 2010.06.03 20:04:27.
