data_PCOD9137328
_publ_section_title
;
Structure prediction by ZEFSAII (Michael W. Deem and Ramdas Pophale) SiO2 
 PCOD9137328
Probable space group: C C
;
_chemical_formula_sum "Si O2"
_cell_formula_units_Z 32
_cell_length_a 10.635324
_cell_length_b 7.516958
_cell_length_c 20.737136
_cell_angle_alpha 90.000000
_cell_angle_beta 133.620449
_cell_angle_gamma 90.000000
_cell_volume 1200.150229
_symmetry_space_group_name_H-M "C C"
_symmetry_group_IT_number 9
_symmetry_cell_setting 'monoclinic'
loop_
_space_group_symop_operation_xyz
x,y,z
x,-y,1/2+z
1/2+x,1/2+y,z
1/2+x,1/2-y,1/2+z
loop_
_atom_site_type_symbol
_atom_site_label
_atom_site_fract_x
_atom_site_fract_y
_atom_site_fract_z
Si Si1 0.005740 0.151571 0.481490
Si Si2 0.401500 0.136803 0.752345
Si Si3 0.785071 0.768716 0.053697
Si Si4 0.919573 0.414641 0.123477
Si Si5 0.937269 0.044718 0.726333
Si Si6 0.448021 0.669918 0.868622
Si Si7 0.577877 0.594297 0.102624
Si Si8 0.843923 0.532328 0.866694
O O1 0.216345 0.148320 0.554933
O O2 0.944721 0.051401 0.525740
O O3 0.936750 0.350013 0.453032
O O4 0.944430 0.024051 0.400857
O O5 0.496907 0.062839 0.722758
O O6 0.394650 0.345056 0.734373
O O7 0.220671 0.028828 0.686218
O O8 0.455637 0.092255 0.843369
O O9 0.924498 0.609263 0.094464
O O10 0.643462 0.748698 0.946682
O O11 0.843137 0.319618 0.870615
O O12 0.010179 0.256287 0.119156
O O13 0.861405 0.077725 0.627779
O O14 0.142517 0.080824 0.793726
O O15 0.889089 0.160298 0.773165
O O16 0.661828 0.683525 0.068851
#
# Coordination Sequence:
#
# PCOD9137328 Si02
#       8
#     4   4   4   4   4   4   4   4
#     4   9  22  43  65 104 146 177 243 301 345 446
#     4  10  22  41  64  99 143 178 241 298 350 439
#     4   9  23  42  69 107 141 188 248 302 356 445
#     4   9  19  41  71 100 138 185 237 298 367 424
#     4  12  25  45  69 106 146 191 242 303 370 431
#     4  10  23  46  70 101 147 185 246 300 356 439
#     4   9  19  41  70 103 136 189 235 299 369 420
#     4  12  25  45  68 102 143 193 234 297 369 426
#
# _framework density 26.663330999999999
#
# number of rings (size 3 to 8) (size 9 to 14) (size 15 to 20)
#    0.000    2.500    1.250    2.250    3.500    6.000 
#   13.500    0.000    0.000    0.000    0.000    0.000 
#    0.000    0.000    0.000    0.000    0.000    0.000 
#
# Total GULP energy -89353.968923 kJ/mol
# GULP energy per Si atom -5584.623058 kJ/mol
# Density = 2.660264 g / cm^3
# Si number density = 26.663331 Si / 1000 Ang^3
#
#
#
# Elastic Constant Matrix: (Units=GPa)
#
#
# Indices 1 2 3 4 5 6 
#
# 1 36.9802 11.9934 20.3517 0.0000 -9.6446 0.0000
# 2 11.9934 139.9222 32.5505 0.0000 -5.0931 0.0000
# 3 20.3517 32.5505 101.4287 0.0000 -28.3991 0.0000
# 4 0.0000 0.0000 0.0000 48.8475 0.0000 -2.0599
# 5 -9.6446 -5.0931 -28.3991 0.0000 39.2100 0.0000
# 6 0.0000 0.0000 0.0000 -2.0599 0.0000 44.5389
#
#
#
# Elastic Compliance Matrix: (Units=1/GPa)
#
#
# Indices 1 2 3 4 5 6 
#
# 1 0.031131 -0.001441 -0.004632 0.000000 0.004116 0.000000
# 2 -0.001441 0.007821 -0.002553 0.000000 -0.001188 0.000000
# 3 -0.004632 -0.002553 0.014044 0.000000 0.008701 0.000000
# 4 0.000000 0.000000 0.000000 0.020512 0.000000 0.000949
# 5 0.004116 -0.001188 0.008701 0.000000 0.032664 0.000000
# 6 0.000000 0.000000 0.000000 0.000949 0.000000 0.022496
#
#
# Mechanical properties :
#
#
# Convention : Reuss Voigt Hill
#
# Bulk Modulus (GPa) = 27.97667 45.34690 36.66179
# Shear Modulus (GPa) = 31.67860 40.74831 36.21346
#
# Velocity S-wave (km/s) = 3.45062 3.91353 3.68934
# Velocity P-wave (km/s) = 5.13722 6.12087 5.65049
#
# Compressibility (1/GPa) = 0.03574406
#
# Stress axis : x y z
#
# Youngs Moduli (GPa) = 32.12212 127.85891 71.20416
#
# Poissons Ratio (x) = 0.18426 0.32979
# Poissons Ratio (y) = 0.04629 0.18181
# Poissons Ratio (z) = 0.14878 0.32648
#
# Static dielectric constant tensor:
#      x y z
#    x 2.275360 0.000000 -0.045400 
#    y 0.000000 2.190410 0.000000 
#    z -0.045400 0.000000 2.168350 
# 
# From -- ./inp_files/33147.got.cif
#   From: 2010.05.17/outbox.cif.g08.bks.cpg/sg9_17_cif.got.tgz:33147.got - 2010.06.03 20:04:27.
