data_PCOD9137803
_publ_section_title
;
Structure prediction by ZEFSAII (Michael W. Deem and Ramdas Pophale) SiO2 
 PCOD9137803
Probable space group: C C
;
_chemical_formula_sum "Si O2"
_cell_formula_units_Z 32
_cell_length_a 11.837551
_cell_length_b 8.065619
_cell_length_c 14.446307
_cell_angle_alpha 90.000000
_cell_angle_beta 66.064064
_cell_angle_gamma 90.000000
_cell_volume 1260.672981
_symmetry_space_group_name_H-M "C C"
_symmetry_group_IT_number 9
_symmetry_cell_setting 'monoclinic'
loop_
_space_group_symop_operation_xyz
x,y,z
x,-y,1/2+z
1/2+x,1/2+y,z
1/2+x,1/2-y,1/2+z
loop_
_atom_site_type_symbol
_atom_site_label
_atom_site_fract_x
_atom_site_fract_y
_atom_site_fract_z
Si Si1 0.938560 0.845210 0.909070
Si Si2 0.316857 0.134414 0.557734
Si Si3 0.452228 0.599832 0.763770
Si Si4 0.879177 0.462092 0.727513
Si Si5 0.569154 0.200820 0.375580
Si Si6 0.865654 0.002880 0.109509
Si Si7 0.115109 0.613052 0.749681
Si Si8 0.226203 0.912241 0.448490
O O1 0.841470 0.697507 0.946059
O O2 0.060912 0.774305 0.818754
O O3 0.883070 0.992175 0.864526
O O4 0.955150 0.925268 0.002945
O O5 0.430162 0.148169 0.447237
O O6 0.308029 0.321339 0.598101
O O7 0.348295 0.019295 0.634710
O O8 0.208766 0.052468 0.532282
O O9 0.398951 0.768160 0.738698
O O10 0.564367 0.671759 0.789774
O O11 0.442468 0.480143 0.678558
O O12 0.775072 0.515389 0.835118
O O13 0.006443 0.551594 0.717639
O O14 0.622668 0.283805 0.449803
O O15 0.633015 0.033509 0.319645
O O16 0.746148 0.882501 0.156609
#
# Coordination Sequence:
#
# PCOD9137803 Si02
#       8
#     4   4   4   4   4   4   4   4
#     4  11  22  45  71 108 151 191 257 328 384 468
#     4  12  23  48  71 108 153 199 262 318 388 472
#     4  11  23  45  68 109 154 186 260 317 376 469
#     4  10  22  44  70 100 148 191 246 319 378 460
#     4  11  23  46  70 102 146 202 246 326 390 457
#     4  12  25  44  74 110 148 209 253 320 393 474
#     4  10  23  46  71 103 149 203 251 317 396 461
#     4  11  23  46  73 100 147 197 245 323 391 455
#
# _framework density 25.383268999999999
#
# number of rings (size 3 to 8) (size 9 to 14) (size 15 to 20)
#    0.000    1.000    5.000    3.750    1.750    1.000 
#    6.750    0.000    0.000    0.000    0.000    0.000 
#    0.000    0.000    0.000    0.000    0.000    0.000 
#
# Total GULP energy -89494.470063 kJ/mol
# GULP energy per Si atom -5593.404379 kJ/mol
# Density = 2.532550 g / cm^3
# Si number density = 25.383269 Si / 1000 Ang^3
#
#
#
# Elastic Constant Matrix: (Units=GPa)
#
#
# Indices 1 2 3 4 5 6 
#
# 1 95.7763 38.6066 40.8740 0.0000 23.9449 0.0000
# 2 38.6066 126.3661 38.7100 0.0000 18.4249 0.0000
# 3 40.8740 38.7100 119.2042 0.0000 32.6386 0.0000
# 4 0.0000 0.0000 0.0000 44.5311 0.0000 13.3876
# 5 23.9449 18.4249 32.6386 0.0000 51.4614 0.0000
# 6 0.0000 0.0000 0.0000 13.3876 0.0000 34.1792
#
#
#
# Elastic Compliance Matrix: (Units=1/GPa)
#
#
# Indices 1 2 3 4 5 6 
#
# 1 0.013655 -0.002794 -0.002794 0.000000 -0.003581 0.000000
# 2 -0.002794 0.009472 -0.001870 0.000000 -0.000905 0.000000
# 3 -0.002794 -0.001870 0.011394 0.000000 -0.005256 0.000000
# 4 0.000000 0.000000 0.000000 0.025454 0.000000 -0.009970
# 5 -0.003581 -0.000905 -0.005256 0.000000 0.024756 0.000000
# 6 0.000000 0.000000 0.000000 -0.009970 0.000000 0.033163
#
#
# Mechanical properties :
#
#
# Convention : Reuss Voigt Hill
#
# Bulk Modulus (GPa) = 51.00941 64.19199 57.60070
# Shear Modulus (GPa) = 35.88242 40.91139 38.39691
#
# Velocity S-wave (km/s) = 3.76390 4.01901 3.89355
# Velocity P-wave (km/s) = 6.24728 6.84694 6.55397
#
# Compressibility (1/GPa) = 0.01960422
#
# Stress axis : x y z
#
# Youngs Moduli (GPa) = 73.23346 105.57585 87.76783
#
# Poissons Ratio (x) = 0.29494 0.24526
# Poissons Ratio (y) = 0.20458 0.16413
# Poissons Ratio (z) = 0.20465 0.19744
#
# Static dielectric constant tensor:
#      x y z
#    x 2.002680 0.000000 -0.029160 
#    y 0.000000 2.023230 0.000000 
#    z -0.029160 0.000000 1.982090 
# 
# From -- ./inp_files/24367.got.cif
#   From: 2010.05.17/outbox.cif.g08.bks.cpg/sg9_13_cif.got.tgz:24367.got - 2010.06.03 20:04:27.
