data_PCOD9137446
_publ_section_title
;
Structure prediction by ZEFSAII (Michael W. Deem and Ramdas Pophale) SiO2 
 PCOD9137446
Probable space group: C C
;
_chemical_formula_sum "Si O2"
_cell_formula_units_Z 32
_cell_length_a 19.499701
_cell_length_b 12.439470
_cell_length_c 16.130258
_cell_angle_alpha 90.000000
_cell_angle_beta 159.592291
_cell_angle_gamma 90.000000
_cell_volume 1364.334276
_symmetry_space_group_name_H-M "C C"
_symmetry_group_IT_number 9
_symmetry_cell_setting 'monoclinic'
loop_
_space_group_symop_operation_xyz
x,y,z
x,-y,1/2+z
1/2+x,1/2+y,z
1/2+x,1/2-y,1/2+z
loop_
_atom_site_type_symbol
_atom_site_label
_atom_site_fract_x
_atom_site_fract_y
_atom_site_fract_z
Si Si1 0.536440 0.144938 0.460390
Si Si2 0.027060 0.582637 0.000813
Si Si3 0.183184 0.342702 0.312205
Si Si4 0.959270 0.960099 0.995488
Si Si5 0.133336 0.803116 0.077250
Si Si6 0.040871 0.946134 0.816733
Si Si7 0.883809 0.117556 0.754938
Si Si8 0.785804 0.596480 0.455879
O O1 0.663489 0.164313 0.689373
O O2 0.650611 0.116108 0.505094
O O3 0.435176 0.258305 0.329376
O O4 0.436693 0.032416 0.372091
O O5 0.237932 0.553097 0.281979
O O6 0.105475 0.676684 0.028120
O O7 0.846630 0.645314 0.835641
O O8 0.372881 0.402636 0.564082
O O9 0.201054 0.217628 0.356784
O O10 0.991204 0.394617 0.139381
O O11 0.019024 0.844632 0.028310
O O12 0.945920 0.041909 0.902370
O O13 0.138627 0.010404 0.248418
O O14 0.046960 0.864014 0.900012
O O15 0.254898 0.937895 0.016227
O O16 0.975032 0.062051 0.777718
#
# Coordination Sequence:
#
# PCOD9137446 Si02
#       8
#     4   4   4   4   4   4   4   4
#     4  11  23  43  76 103 138 189 251 310 363 437
#     4  11  23  39  68  98 135 179 241 303 366 423
#     4  12  24  44  72 110 147 193 247 316 372 437
#     4  10  22  42  65 100 133 181 242 307 360 431
#     4  11  24  41  66  99 138 188 239 301 369 434
#     4  11  27  43  66 105 152 189 239 305 378 452
#     4  10  23  42  69 104 143 180 243 306 371 435
#     4  12  24  40  72 103 146 193 248 302 381 443
#
# _framework density 23.454661999999999
#
# number of rings (size 3 to 8) (size 9 to 14) (size 15 to 20)
#    0.000    1.000    3.750    3.000    5.250    3.000 
#    0.000    0.000    5.500    0.000    0.000    0.000 
#    0.000    0.000    0.000    0.000    0.000    0.000 
#
# Total GULP energy -89121.106979 kJ/mol
# GULP energy per Si atom -5570.069186 kJ/mol
# Density = 2.340128 g / cm^3
# Si number density = 23.454662 Si / 1000 Ang^3
#
#
#
# Elastic Constant Matrix: (Units=GPa)
#
#
# Indices 1 2 3 4 5 6 
#
# 1 71.1392 16.5683 24.0326 0.0000 19.7491 0.0001
# 2 16.5683 159.4614 17.8525 -0.0005 4.3499 0.0001
# 3 24.0326 17.8525 85.4133 0.0000 17.1847 0.0006
# 4 0.0000 -0.0005 0.0000 38.3117 0.0008 8.6634
# 5 19.7491 4.3499 17.1847 0.0008 38.2075 0.0010
# 6 0.0001 0.0001 0.0006 8.6634 0.0010 35.5862
#
#
#
# Elastic Compliance Matrix: (Units=1/GPa)
#
#
# Indices 1 2 3 4 5 6 
#
# 1 0.017492 -0.001260 -0.003153 0.000000 -0.007480 0.000000
# 2 -0.001260 0.006513 -0.001087 0.000000 0.000399 0.000000
# 3 -0.003153 -0.001087 0.013710 0.000000 -0.004413 0.000000
# 4 0.000000 0.000000 0.000000 0.027622 -0.000001 -0.006725
# 5 -0.007480 0.000399 -0.004413 -0.000001 0.031978 -0.000001
# 6 0.000000 0.000000 0.000000 -0.006725 -0.000001 0.029738
#
#
# Mechanical properties :
#
#
# Convention : Reuss Voigt Hill
#
# Bulk Modulus (GPa) = 37.43391 48.10230 42.76810
# Shear Modulus (GPa) = 34.02292 39.59179 36.80735
#
# Velocity S-wave (km/s) = 3.81278 4.11300 3.96573
# Velocity P-wave (km/s) = 5.94793 6.56573 6.26445
#
# Compressibility (1/GPa) = 0.02671375
#
# Stress axis : x y z
#
# Youngs Moduli (GPa) = 57.16806 153.54217 72.93925
#
# Poissons Ratio (x) = 0.19352 0.23001
# Poissons Ratio (y) = 0.07205 0.07928
# Poissons Ratio (z) = 0.18028 0.16688
#
# Static dielectric constant tensor:
#      x y z
#    x 2.023440 0.000000 0.039990 
#    y 0.000000 1.909240 0.000000 
#    z 0.039990 0.000000 2.024160 
# 
# From -- ./inp_files/31293.got.cif
#   From: 2010.05.17/outbox.cif.g08.bks.cpg/sg9_16_cif.got.tgz:31293.got - 2010.06.03 20:04:27.
