data_PCOD9137059
_publ_section_title
;
Structure prediction by ZEFSAII (Michael W. Deem and Ramdas Pophale) SiO2 
 PCOD9137059
Probable space group: C C
;
_chemical_formula_sum "Si O2"
_cell_formula_units_Z 28
_cell_length_a 7.337445
_cell_length_b 20.935874
_cell_length_c 11.892510
_cell_angle_alpha 90.000000
_cell_angle_beta 140.682402
_cell_angle_gamma 90.000000
_cell_volume 1157.543563
_symmetry_space_group_name_H-M "C C"
_symmetry_group_IT_number 9
_symmetry_cell_setting 'monoclinic'
loop_
_space_group_symop_operation_xyz
x,y,z
x,-y,1/2+z
1/2+x,1/2+y,z
1/2+x,1/2-y,1/2+z
loop_
_atom_site_type_symbol
_atom_site_label
_atom_site_fract_x
_atom_site_fract_y
_atom_site_fract_z
Si Si1 0.679690 0.624329 0.209580
Si Si2 0.289974 0.161942 0.499197
Si Si3 0.128062 0.239957 0.041205
Si Si4 0.913459 0.547695 0.134182
Si Si5 0.774429 0.921268 0.331725
Si Si6 0.957318 0.666074 0.021946
Si Si7 0.117417 0.800803 0.150704
O O1 0.680324 0.620631 0.342523
O O2 0.756339 0.695924 0.202909
O O3 0.906106 0.578848 0.255252
O O4 0.382379 0.604260 0.005600
O O5 0.355074 0.230520 0.472900
O O6 0.598849 0.134997 0.687754
O O7 0.106258 0.165852 0.525159
O O8 0.177192 0.188470 0.963974
O O9 0.325017 0.296294 0.083495
O O10 0.053919 0.479697 0.215648
O O11 0.053746 0.598824 0.116601
O O12 0.579138 0.549620 0.934089
O O13 0.170293 0.725278 0.148858
O O14 0.851617 0.669556 0.844591
#
# Coordination Sequence:
#
# PCOD9137059 Si02
#       7
#     4   4   4   4   4   4   4
#     4   9  23  44  73 103 147 200 243 309 376 447
#     4  12  24  42  73 110 146 194 241 307 384 445
#     4   9  21  39  69 103 150 190 230 298 380 443
#     4   9  21  49  76  98 148 198 258 305 381 438
#     4  10  23  48  70 109 139 201 256 313 370 447
#     4   9  20  42  65 105 147 187 234 304 365 450
#     4  10  22  38  64 112 141 184 238 288 370 452
#
# _framework density 24.189152
#
# number of rings (size 3 to 8) (size 9 to 14) (size 15 to 20)
#    1.714    0.571    0.000    1.714    4.000    0.000 
#   10.286    0.000    0.000    0.000    0.000    0.000 
#    0.000    0.000    0.000    0.000    0.000    0.000 
#
# Total GULP energy -77978.912674 kJ/mol
# GULP energy per Si atom -5569.922334 kJ/mol
# Density = 2.413410 g / cm^3
# Si number density = 24.189152 Si / 1000 Ang^3
#
#
#
# Elastic Constant Matrix: (Units=GPa)
#
#
# Indices 1 2 3 4 5 6 
#
# 1 103.9567 17.3554 51.3727 0.0000 -14.9804 0.0000
# 2 17.3554 59.7826 24.6033 0.0000 -2.8196 0.0000
# 3 51.3727 24.6033 152.2059 0.0000 -33.6947 0.0000
# 4 0.0000 0.0000 0.0000 18.3808 0.0000 15.3529
# 5 -14.9804 -2.8196 -33.6947 0.0000 52.0014 0.0000
# 6 0.0000 0.0000 0.0000 15.3529 0.0000 20.7056
#
#
#
# Elastic Compliance Matrix: (Units=1/GPa)
#
#
# Indices 1 2 3 4 5 6 
#
# 1 0.011795 -0.001963 -0.003426 0.000000 0.001071 0.000000
# 2 -0.001963 0.018296 -0.002569 0.000000 -0.001238 0.000000
# 3 -0.003426 -0.002569 0.009214 0.000000 0.004844 0.000000
# 4 0.000000 0.000000 0.000000 0.142920 0.000000 -0.105973
# 5 0.001071 -0.001238 0.004844 0.000000 0.022610 0.000000
# 6 0.000000 0.000000 0.000000 -0.105973 0.000000 0.126874
#
#
# Mechanical properties :
#
#
# Convention : Reuss Voigt Hill
#
# Bulk Modulus (GPa) = 42.75795 55.84532 49.30163
# Shear Modulus (GPa) = 14.06773 33.05849 23.56311
#
# Velocity S-wave (km/s) = 2.41420 3.70085 3.12447
# Velocity P-wave (km/s) = 5.04837 6.43419 5.78294
#
# Compressibility (1/GPa) = 0.02338747
#
# Stress axis : x y z
#
# Youngs Moduli (GPa) = 84.78296 54.65649 108.52882
#
# Poissons Ratio (x) = 0.10732 0.37187
# Poissons Ratio (y) = 0.16647 0.27879
# Poissons Ratio (z) = 0.29051 0.14040
#
# Static dielectric constant tensor:
#      x y z
#    x 2.002430 0.000000 0.048410 
#    y 0.000000 1.928140 0.000000 
#    z 0.048410 0.000000 1.977590 
# 
# From -- ./inp_files/15512.got.cif
#   From: 2010.05.17/outbox.cif.g08.bks.cpg/sg9_8_cif.got.tgz:15512.got - 2010.06.03 20:04:27.
