data_PCOD9137342
_publ_section_title
;
Structure prediction by ZEFSAII (Michael W. Deem and Ramdas Pophale) SiO2 
 PCOD9137342
Probable space group: C C
;
_chemical_formula_sum "Si O2"
_cell_formula_units_Z 28
_cell_length_a 18.593528
_cell_length_b 6.381361
_cell_length_c 10.206136
_cell_angle_alpha 90.000000
_cell_angle_beta 79.602587
_cell_angle_gamma 90.000000
_cell_volume 1191.093868
_symmetry_space_group_name_H-M "C C"
_symmetry_group_IT_number 9
_symmetry_cell_setting 'monoclinic'
loop_
_space_group_symop_operation_xyz
x,y,z
x,-y,1/2+z
1/2+x,1/2+y,z
1/2+x,1/2-y,1/2+z
loop_
_atom_site_type_symbol
_atom_site_label
_atom_site_fract_x
_atom_site_fract_y
_atom_site_fract_z
Si Si1 0.535500 0.109668 0.175560
Si Si2 0.329585 0.469096 0.060098
Si Si3 0.001612 0.921374 0.734953
Si Si4 0.274324 0.729030 0.839714
Si Si5 0.106316 0.324844 0.371166
Si Si6 0.882512 0.394241 0.369643
Si Si7 0.958171 0.692160 0.540196
O O1 0.506146 0.335260 0.221873
O O2 0.585468 0.009481 0.273571
O O3 0.461332 0.988314 0.152745
O O4 0.582113 0.117634 0.025804
O O5 0.302045 0.424848 0.215336
O O6 0.401425 0.617358 0.042883
O O7 0.280929 0.606171 0.976166
O O8 0.340501 0.237114 0.997394
O O9 0.924410 0.811637 0.795137
O O10 0.025025 0.820538 0.586242
O O11 0.054341 0.855326 0.833127
O O12 0.188714 0.754444 0.840425
O O13 0.322113 0.944824 0.829049
O O14 0.942251 0.544885 0.421903
#
# Coordination Sequence:
#
# PCOD9137342 Si02
#       7
#     4   4   4   4   4   4   4
#     4  11  25  45  74 110 157 196 265 318 395 462
#     4  11  24  43  75 105 149 198 252 314 382 467
#     4  11  24  41  72 109 146 196 251 330 379 449
#     4  11  26  47  73 108 155 205 255 309 395 472
#     4  11  26  47  73 110 152 206 251 323 382 478
#     4  11  23  42  71 107 150 194 255 316 385 458
#     4  10  22  41  66 103 145 185 251 314 386 440
#
# _framework density 23.507802999999999
#
# number of rings (size 3 to 8) (size 9 to 14) (size 15 to 20)
#    0.000    1.143    1.429    3.429    2.000    6.857 
#    2.571    0.000    0.000    0.000    0.000    0.000 
#    0.000    0.000    0.000    0.000    0.000    0.000 
#
# Total GULP energy -77962.286628 kJ/mol
# GULP energy per Si atom -5568.734759 kJ/mol
# Density = 2.345430 g / cm^3
# Si number density = 23.507803 Si / 1000 Ang^3
#
#
#
# Elastic Constant Matrix: (Units=GPa)
#
#
# Indices 1 2 3 4 5 6 
#
# 1 135.3808 52.1441 49.7953 0.0000 9.8323 0.0000
# 2 52.1441 169.5378 64.8123 0.0000 10.5226 0.0000
# 3 49.7953 64.8123 122.8059 0.0000 21.5395 0.0000
# 4 0.0000 0.0000 0.0000 55.4386 0.0000 12.8324
# 5 9.8323 10.5226 21.5395 0.0000 26.8088 0.0000
# 6 0.0000 0.0000 0.0000 12.8324 0.0000 25.6230
#
#
#
# Elastic Compliance Matrix: (Units=1/GPa)
#
#
# Indices 1 2 3 4 5 6 
#
# 1 0.009076 -0.001738 -0.002676 0.000000 -0.000497 0.000000
# 2 -0.001738 0.007724 -0.003436 0.000000 0.000366 0.000000
# 3 -0.002676 -0.003436 0.012377 0.000000 -0.007614 0.000000
# 4 0.000000 0.000000 0.000000 0.020403 0.000000 -0.010218
# 5 -0.000497 0.000366 -0.007614 0.000000 0.043457 0.000000
# 6 0.000000 0.000000 0.000000 -0.010218 0.000000 0.044145
#
#
# Mechanical properties :
#
#
# Convention : Reuss Voigt Hill
#
# Bulk Modulus (GPa) = 74.19808 84.58088 79.38948
# Shear Modulus (GPa) = 31.77158 38.97228 35.37193
#
# Velocity S-wave (km/s) = 3.68031 4.07608 3.88324
# Velocity P-wave (km/s) = 7.04920 7.62959 7.34513
#
# Compressibility (1/GPa) = 0.01347744
#
# Stress axis : x y z
#
# Youngs Moduli (GPa) = 110.17788 129.47312 80.79632
#
# Poissons Ratio (x) = 0.22499 0.21621
# Poissons Ratio (y) = 0.19146 0.27761
# Poissons Ratio (z) = 0.29484 0.44485
#
# Static dielectric constant tensor:
#      x y z
#    x 1.910630 0.000000 -0.133710 
#    y 0.000000 1.919550 0.000000 
#    z -0.133710 0.000000 2.366220 
# 
# From -- ./inp_files/19545.got.cif
#   From: 2010.05.17/outbox.cif.g08.bks.cpg/sg9_10_cif.got.tgz:19545.got - 2010.06.03 20:04:27.
