data_PCOD9137399
_publ_section_title
;
Structure prediction by ZEFSAII (Michael W. Deem and Ramdas Pophale) SiO2 
 PCOD9137399
Probable space group: C C
;
_chemical_formula_sum "Si O2"
_cell_formula_units_Z 32
_cell_length_a 7.657999
_cell_length_b 11.033119
_cell_length_c 17.888395
_cell_angle_alpha 90.000000
_cell_angle_beta 71.019508
_cell_angle_gamma 90.000000
_cell_volume 1429.242547
_symmetry_space_group_name_H-M "C C"
_symmetry_group_IT_number 9
_symmetry_cell_setting 'monoclinic'
loop_
_space_group_symop_operation_xyz
x,y,z
x,-y,1/2+z
1/2+x,1/2+y,z
1/2+x,1/2-y,1/2+z
loop_
_atom_site_type_symbol
_atom_site_label
_atom_site_fract_x
_atom_site_fract_y
_atom_site_fract_z
Si Si1 0.486970 0.147376 0.198460
Si Si2 0.042760 0.463621 0.408983
Si Si3 0.418267 0.774444 0.937140
Si Si4 0.587588 0.630846 0.779831
Si Si5 0.012906 0.608158 0.750508
Si Si6 0.284268 0.645407 0.450775
Si Si7 0.072054 0.859740 0.775362
Si Si8 0.496793 0.769448 0.531181
O O1 0.595432 0.260321 0.218837
O O2 0.287118 0.145272 0.266088
O O3 0.452519 0.176718 0.117124
O O4 0.567930 0.012089 0.197275
O O5 0.928079 0.585490 0.408107
O O6 0.204129 0.514222 0.439879
O O7 0.944644 0.364600 0.473037
O O8 0.097199 0.410824 0.321420
O O9 0.463203 0.683612 0.863645
O O10 0.598347 0.773274 0.966543
O O11 0.216047 0.754164 0.997597
O O12 0.791063 0.610427 0.784767
O O13 0.531230 0.498287 0.756465
O O14 0.054565 0.746253 0.721229
O O15 0.434729 0.666307 0.363787
O O16 0.380596 0.655139 0.517420
#
# Coordination Sequence:
#
# PCOD9137399 Si02
#       8
#     4   4   4   4   4   4   4   4
#     4  11  27  41  65 100 142 182 224 286 354 407
#     4  10  22  41  71 101 130 177 234 284 342 404
#     4  10  22  41  71  98 131 173 232 283 339 405
#     4  11  22  41  69 102 126 178 234 284 344 400
#     4  11  22  43  71 100 133 174 234 291 331 409
#     4  10  22  42  69 103 126 177 230 284 342 399
#     4  11  23  40  70  95 129 173 233 282 331 413
#     4  12  24  45  64  99 147 178 225 288 347 413
#
# _framework density 22.389481
#
# number of rings (size 3 to 8) (size 9 to 14) (size 15 to 20)
#    0.750    0.500    3.750    1.500    3.500    3.000 
#    4.500    0.000    0.000    0.000    0.000    0.000 
#    0.000    0.000    0.000    0.000    0.000    0.000 
#
# Total GULP energy -89160.472053 kJ/mol
# GULP energy per Si atom -5572.529503 kJ/mol
# Density = 2.233852 g / cm^3
# Si number density = 22.389481 Si / 1000 Ang^3
#
#
#
# Elastic Constant Matrix: (Units=GPa)
#
#
# Indices 1 2 3 4 5 6 
#
# 1 91.4824 25.0448 21.3091 0.0000 2.2205 0.0000
# 2 25.0448 134.6513 1.0230 0.0000 -11.3399 0.0000
# 3 21.3091 1.0230 33.3298 0.0000 6.8744 0.0000
# 4 0.0000 0.0000 0.0000 18.6840 0.0000 10.1872
# 5 2.2205 -11.3399 6.8744 0.0000 15.8431 0.0000
# 6 0.0000 0.0000 0.0000 10.1872 0.0000 36.1726
#
#
#
# Elastic Compliance Matrix: (Units=1/GPa)
#
#
# Indices 1 2 3 4 5 6 
#
# 1 0.013617 -0.002460 -0.008647 0.000000 0.000083 0.000000
# 2 -0.002460 0.008421 0.000000 0.000000 0.006372 0.000000
# 3 -0.008647 0.000000 0.038750 0.000000 -0.015602 0.000000
# 4 0.000000 0.000000 0.000000 0.063231 0.000000 -0.017808
# 5 0.000083 0.006372 -0.015602 0.000000 0.074438 0.000000
# 6 0.000000 0.000000 0.000000 -0.017808 0.000000 0.032660
#
#
# Mechanical properties :
#
#
# Convention : Reuss Voigt Hill
#
# Bulk Modulus (GPa) = 25.92512 39.35749 32.64130
# Shear Modulus (GPa) = 18.78367 28.27904 23.53136
#
# Velocity S-wave (km/s) = 2.89961 3.55780 3.24543
# Velocity P-wave (km/s) = 4.77646 5.87316 5.35297
#
# Compressibility (1/GPa) = 0.03857263
#
# Stress axis : x y z
#
# Youngs Moduli (GPa) = 73.43893 118.75392 25.80668
#
# Poissons Ratio (x) = 0.29214 0.22316
# Poissons Ratio (y) = 0.18066 0.00000
# Poissons Ratio (z) = 0.63505 -0.00001
#
# Static dielectric constant tensor:
#      x y z
#    x 1.869300 0.000000 -0.004090 
#    y 0.000000 1.917540 0.000000 
#    z -0.004090 0.000000 1.786150 
# 
# From -- ./inp_files/22726.got.cif
#   From: 2010.05.17/outbox.cif.g08.bks.cpg/sg9_12_cif.got.tgz:22726.got - 2010.06.03 20:04:27.
