data_PCOD9137825
_publ_section_title
;
Structure prediction by ZEFSAII (Michael W. Deem and Ramdas Pophale) SiO2 
 PCOD9137825
Probable space group: C C
;
_chemical_formula_sum "Si O2"
_cell_formula_units_Z 32
_cell_length_a 6.778988
_cell_length_b 13.623331
_cell_length_c 17.776506
_cell_angle_alpha 90.000000
_cell_angle_beta 124.996223
_cell_angle_gamma 90.000000
_cell_volume 1344.866395
_symmetry_space_group_name_H-M "C C"
_symmetry_group_IT_number 9
_symmetry_cell_setting 'monoclinic'
loop_
_space_group_symop_operation_xyz
x,y,z
x,-y,1/2+z
1/2+x,1/2+y,z
1/2+x,1/2-y,1/2+z
loop_
_atom_site_type_symbol
_atom_site_label
_atom_site_fract_x
_atom_site_fract_y
_atom_site_fract_z
Si Si1 0.721940 0.874465 0.865870
Si Si2 0.879647 0.613741 0.161502
Si Si3 0.982849 0.953928 0.345627
Si Si4 0.880749 0.336635 0.365095
Si Si5 0.516886 0.093816 0.646279
Si Si6 0.679149 0.278590 0.158268
Si Si7 0.164469 0.377987 0.015508
Si Si8 0.934072 0.823180 0.480118
O O1 0.473151 0.870806 0.765974
O O2 0.803442 0.762215 0.892646
O O3 0.903997 0.937006 0.853082
O O4 0.695316 0.925009 0.940662
O O5 0.870157 0.498930 0.144445
O O6 0.080151 0.668425 0.152337
O O7 0.624000 0.659354 0.087719
O O8 0.766916 0.908740 0.247465
O O9 0.003418 0.893732 0.426911
O O10 0.228339 0.931127 0.356184
O O11 0.815691 0.312678 0.264118
O O12 0.161406 0.344855 0.439379
O O13 0.357894 0.189850 0.630277
O O14 0.569363 0.073230 0.570532
O O15 0.429816 0.337349 0.094004
O O16 0.978486 0.287963 0.963582
#
# Coordination Sequence:
#
# PCOD9137825 Si02
#       8
#     4   4   4   4   4   4   4   4
#     4  10  24  47  71 102 148 186 243 303 350 441
#     4   9  24  47  69 104 146 182 244 302 349 440
#     4  11  23  46  73 103 143 185 246 297 364 436
#     4  11  22  47  73 100 146 187 238 300 369 427
#     4  11  23  46  75 102 141 190 239 300 367 428
#     4  10  22  44  72 101 140 185 234 301 360 431
#     4  11  24  43  73 105 140 192 237 294 365 430
#     4  11  24  42  70 109 140 191 233 297 366 429
#
# _framework density 23.794187000000001
#
# number of rings (size 3 to 8) (size 9 to 14) (size 15 to 20)
#    0.000    1.500    3.750    0.000    3.500    0.000 
#    6.750    0.000    0.000    0.000    0.000    0.000 
#    0.000    0.000    0.000    0.000    0.000    0.000 
#
# Total GULP energy -89508.341063 kJ/mol
# GULP energy per Si atom -5594.271316 kJ/mol
# Density = 2.374003 g / cm^3
# Si number density = 23.794187 Si / 1000 Ang^3
#
#
#
# Elastic Constant Matrix: (Units=GPa)
#
#
# Indices 1 2 3 4 5 6 
#
# 1 104.1477 24.0233 53.5115 0.0000 18.7176 0.0000
# 2 24.0233 62.5862 26.4823 0.0000 7.8401 0.0000
# 3 53.5115 26.4823 93.7455 0.0000 7.5921 0.0000
# 4 0.0000 0.0000 0.0000 24.8183 0.0000 0.0618
# 5 18.7176 7.8401 7.5921 0.0000 34.6208 0.0000
# 6 0.0000 0.0000 0.0000 0.0618 0.0000 23.4523
#
#
#
# Elastic Compliance Matrix: (Units=1/GPa)
#
#
# Indices 1 2 3 4 5 6 
#
# 1 0.014984 -0.001798 -0.007556 0.000000 -0.006037 0.000000
# 2 -0.001798 0.018683 -0.004060 0.000000 -0.002369 0.000000
# 3 -0.007556 -0.004060 0.016006 0.000000 0.001495 0.000000
# 4 0.000000 0.000000 0.000000 0.040293 0.000000 -0.000106
# 5 -0.006037 -0.002369 0.001495 0.000000 0.032357 0.000000
# 6 0.000000 0.000000 0.000000 -0.000106 0.000000 0.042640
#
#
# Mechanical properties :
#
#
# Convention : Reuss Voigt Hill
#
# Bulk Modulus (GPa) = 43.77308 52.05706 47.91507
# Shear Modulus (GPa) = 25.07464 27.00911 26.04188
#
# Velocity S-wave (km/s) = 3.24977 3.37280 3.31186
# Velocity P-wave (km/s) = 5.70244 6.09042 5.89962
#
# Compressibility (1/GPa) = 0.02284509
#
# Stress axis : x y z
#
# Youngs Moduli (GPa) = 66.73865 53.52599 62.47598
#
# Poissons Ratio (x) = 0.09624 0.47208
# Poissons Ratio (y) = 0.11999 0.25362
# Poissons Ratio (z) = 0.50429 0.21729
#
# Static dielectric constant tensor:
#      x y z
#    x 1.913820 0.000000 -0.023950 
#    y 0.000000 1.914490 0.000000 
#    z -0.023950 0.000000 1.891280 
# 
# From -- ./inp_files/28669.got.cif
#   From: 2010.05.17/outbox.cif.g08.bks.cpg/sg9_15_cif.got.tgz:28669.got - 2010.06.03 20:04:27.
