data_PCOD9137101
_publ_section_title
;
Structure prediction by ZEFSAII (Michael W. Deem and Ramdas Pophale) SiO2 
 PCOD9137101
Probable space group: C C
;
_chemical_formula_sum "Si O2"
_cell_formula_units_Z 28
_cell_length_a 8.549614
_cell_length_b 6.573904
_cell_length_c 25.909800
_cell_angle_alpha 90.000000
_cell_angle_beta 127.269371
_cell_angle_gamma 90.000000
_cell_volume 1158.874469
_symmetry_space_group_name_H-M "C C"
_symmetry_group_IT_number 9
_symmetry_cell_setting 'monoclinic'
loop_
_space_group_symop_operation_xyz
x,y,z
x,-y,1/2+z
1/2+x,1/2+y,z
1/2+x,1/2-y,1/2+z
loop_
_atom_site_type_symbol
_atom_site_label
_atom_site_fract_x
_atom_site_fract_y
_atom_site_fract_z
Si Si1 0.592860 0.117244 0.470630
Si Si2 0.600854 0.361926 0.213536
Si Si3 0.842445 0.997005 0.742210
Si Si4 0.778123 0.601935 0.089247
Si Si5 0.030143 0.760656 0.625907
Si Si6 0.689156 0.251795 0.925278
Si Si7 0.367082 0.406957 0.360323
O O1 0.742622 0.259659 0.532076
O O2 0.389258 0.113138 0.463105
O O3 0.523049 0.230474 0.404591
O O4 0.673662 0.903499 0.469159
O O5 0.552232 0.422376 0.263043
O O6 0.446134 0.198239 0.159461
O O7 0.560097 0.568427 0.174869
O O8 0.803399 0.243913 0.241564
O O9 0.694965 0.087810 0.670027
O O10 0.790585 0.095605 0.786943
O O11 0.583512 0.627021 0.084103
O O12 0.832381 0.369585 0.089031
O O13 0.495752 0.388537 0.888818
O O14 0.714086 0.126532 0.876253
#
# Coordination Sequence:
#
# PCOD9137101 Si02
#       7
#     4   4   4   4   4   4   4
#     4  10  26  43  67  97 131 175 212 272 314 394
#     4  10  22  39  62  90 123 163 208 267 318 379
#     4  10  23  38  61  90 124 160 217 255 323 376
#     4  10  23  38  63  91 126 158 219 252 325 371
#     4  10  22  41  61  93 119 168 203 271 311 383
#     4  10  26  41  66  93 132 165 220 254 328 371
#     4  10  26  42  66  96 129 175 215 269 317 392
#
# _framework density 24.161373999999999
#
# number of rings (size 3 to 8) (size 9 to 14) (size 15 to 20)
#    0.857    1.143    0.000    0.857   10.000    1.143 
#    0.000    0.000    0.000    0.000    0.000    0.000 
#    0.000    0.000    0.000    0.000    0.000    0.000 
#
# Total GULP energy -78092.350369 kJ/mol
# GULP energy per Si atom -5578.025026 kJ/mol
# Density = 2.410638 g / cm^3
# Si number density = 24.161374 Si / 1000 Ang^3
#
#
#
# Elastic Constant Matrix: (Units=GPa)
#
#
# Indices 1 2 3 4 5 6 
#
# 1 100.9456 82.4214 24.0117 0.0000 -16.8510 0.0000
# 2 82.4214 121.7976 17.6993 0.0000 -5.5512 0.0000
# 3 24.0117 17.6993 50.6298 0.0000 4.7254 0.0000
# 4 0.0000 0.0000 0.0000 24.2451 0.0000 -11.8448
# 5 -16.8510 -5.5512 4.7254 0.0000 19.7045 0.0000
# 6 0.0000 0.0000 0.0000 -11.8448 0.0000 40.2621
#
#
#
# Elastic Compliance Matrix: (Units=1/GPa)
#
#
# Indices 1 2 3 4 5 6 
#
# 1 0.032244 -0.019101 -0.010931 0.000000 0.024815 0.000000
# 2 -0.019101 0.020171 0.003070 0.000000 -0.011388 0.000000
# 3 -0.010931 0.003070 0.025218 0.000000 -0.014531 0.000000
# 4 0.000000 0.000000 0.000000 0.048168 0.000000 0.014171
# 5 0.024815 -0.011388 -0.014531 0.000000 0.072248 0.000000
# 6 0.000000 0.000000 0.000000 0.014171 0.000000 0.029006
#
#
# Mechanical properties :
#
#
# Convention : Reuss Voigt Hill
#
# Bulk Modulus (GPa) = 42.17543 57.95976 50.06759
# Shear Modulus (GPa) = 17.30813 26.79173 22.04993
#
# Velocity S-wave (km/s) = 2.67939 3.33358 3.02422
# Velocity P-wave (km/s) = 5.20248 6.23359 5.74123
#
# Compressibility (1/GPa) = 0.02371049
#
# Stress axis : x y z
#
# Youngs Moduli (GPa) = 31.01320 49.57702 39.65386
#
# Poissons Ratio (x) = 0.94695 0.43346
# Poissons Ratio (y) = 0.59237 -0.12174
# Poissons Ratio (z) = 0.33901 -0.15221
#
# Static dielectric constant tensor:
#      x y z
#    x 1.981730 0.000000 0.029850 
#    y 0.000000 1.917810 0.000000 
#    z 0.029850 0.000000 1.957960 
# 
# From -- ./inp_files/34857.got.cif
#   From: 2010.05.17/outbox.cif.g08.bks.cpg/sg9_18_cif.got.tgz:34857.got - 2010.06.03 20:04:27.
