data_PCOD9137072
_publ_section_title
;
Structure prediction by ZEFSAII (Michael W. Deem and Ramdas Pophale) SiO2 
 PCOD9137072
Probable space group: C C
;
_chemical_formula_sum "Si O2"
_cell_formula_units_Z 32
_cell_length_a 18.992481
_cell_length_b 5.002221
_cell_length_c 12.921562
_cell_angle_alpha 90.000000
_cell_angle_beta 93.842616
_cell_angle_gamma 90.000000
_cell_volume 1224.847878
_symmetry_space_group_name_H-M "C C"
_symmetry_group_IT_number 9
_symmetry_cell_setting 'monoclinic'
loop_
_space_group_symop_operation_xyz
x,y,z
x,-y,1/2+z
1/2+x,1/2+y,z
1/2+x,1/2-y,1/2+z
loop_
_atom_site_type_symbol
_atom_site_label
_atom_site_fract_x
_atom_site_fract_y
_atom_site_fract_z
Si Si1 0.481960 0.960277 0.130900
Si Si2 0.622230 0.035294 0.762726
Si Si3 0.950661 0.071528 0.758662
Si Si4 0.763688 0.816850 0.817817
Si Si5 0.680036 0.634467 0.087145
Si Si6 0.276307 0.368585 0.587768
Si Si7 0.051780 0.316259 0.933099
Si Si8 0.834425 0.289510 0.904934
O O1 0.462064 0.712450 0.204175
O O2 0.561578 0.042473 0.175152
O O3 0.439041 0.218025 0.163469
O O4 0.491881 0.903276 0.010239
O O5 0.768142 0.093928 0.879240
O O6 0.585153 0.061692 0.870648
O O7 0.659621 0.273133 0.701988
O O8 0.891697 0.156757 0.836939
O O9 0.018653 0.135825 0.838613
O O10 0.680304 0.805217 0.789057
O O11 0.712534 0.655483 0.574183
O O12 0.807995 0.582228 0.874400
O O13 0.612995 0.680732 0.007089
O O14 0.743396 0.840485 0.066179
O O15 0.297816 0.354395 0.708970
O O16 0.341695 0.262059 0.527032
#
# Coordination Sequence:
#
# PCOD9137072 Si02
#       8
#     4   4   4   4   4   4   4   4
#     4  10  24  43  65  95 127 167 221 273 327 392
#     4   9  20  39  65  98 128 160 207 263 333 402
#     4  11  26  44  62  92 129 171 228 271 311 389
#     4  11  24  42  66  95 131 167 208 274 333 389
#     4  10  22  38  66  99 130 159 208 265 330 408
#     4  11  23  42  64  97 128 164 212 266 331 399
#     4  10  22  42  67  92 130 174 206 269 337 383
#     4  12  25  42  65  92 127 176 224 263 320 394
#
# _framework density 26.125695
#
# number of rings (size 3 to 8) (size 9 to 14) (size 15 to 20)
#    0.000    1.500    0.000    4.500    0.000   19.000 
#    0.000    0.000    0.000    0.000    0.000    0.000 
#    0.000    0.000    0.000    0.000    0.000    0.000 
#
# Total GULP energy -89404.249312 kJ/mol
# GULP energy per Si atom -5587.765582 kJ/mol
# Density = 2.606623 g / cm^3
# Si number density = 26.125695 Si / 1000 Ang^3
#
#
#
# Elastic Constant Matrix: (Units=GPa)
#
#
# Indices 1 2 3 4 5 6 
#
# 1 71.5522 12.1666 31.4486 0.0000 -17.0691 0.0000
# 2 12.1666 78.9064 9.1472 0.0000 6.8900 0.0000
# 3 31.4486 9.1472 118.3017 0.0000 -20.4668 0.0000
# 4 0.0000 0.0000 0.0000 22.6856 0.0000 5.4117
# 5 -17.0691 6.8900 -20.4668 0.0000 50.3147 0.0000
# 6 0.0000 0.0000 0.0000 5.4117 0.0000 11.8095
#
#
#
# Elastic Compliance Matrix: (Units=1/GPa)
#
#
# Indices 1 2 3 4 5 6 
#
# 1 0.017102 -0.002642 -0.003524 0.000000 0.004730 0.000000
# 2 -0.002642 0.013452 -0.000873 0.000000 -0.003093 0.000000
# 3 -0.003524 -0.000873 0.009973 0.000000 0.002981 0.000000
# 4 0.000000 0.000000 0.000000 0.049491 0.000000 -0.022679
# 5 0.004730 -0.003093 0.002981 0.000000 0.023116 0.000000
# 6 0.000000 0.000000 0.000000 -0.022679 0.000000 0.095071
#
#
# Mechanical properties :
#
#
# Convention : Reuss Voigt Hill
#
# Bulk Modulus (GPa) = 37.80684 41.58723 39.69703
# Shear Modulus (GPa) = 21.63586 31.36182 26.49884
#
# Velocity S-wave (km/s) = 2.88087 3.46847 3.18824
# Velocity P-wave (km/s) = 5.05653 5.65624 5.36477
#
# Compressibility (1/GPa) = 0.02645024
#
# Stress axis : x y z
#
# Youngs Moduli (GPa) = 58.47219 74.33918 100.27171
#
# Poissons Ratio (x) = 0.19637 0.35333
# Poissons Ratio (y) = 0.15446 0.08754
# Poissons Ratio (z) = 0.20604 0.06490
#
# Static dielectric constant tensor:
#      x y z
#    x 2.213700 0.000000 -0.010380 
#    y 0.000000 2.028460 0.000000 
#    z -0.010380 0.000000 2.173210 
# 
# From -- ./inp_files/20580.got.cif
#   From: 2010.05.17/outbox.cif.g08.bks.cpg/sg9_11_cif.got.tgz:20580.got - 2010.06.03 20:04:27.
