data_PCOD9137824
_publ_section_title
;
Structure prediction by ZEFSAII (Michael W. Deem and Ramdas Pophale) SiO2 
 PCOD9137824
Probable space group: C C
;
_chemical_formula_sum "Si O2"
_cell_formula_units_Z 32
_cell_length_a 8.184062
_cell_length_b 11.623926
_cell_length_c 14.856082
_cell_angle_alpha 90.000000
_cell_angle_beta 115.226269
_cell_angle_gamma 90.000000
_cell_volume 1278.491542
_symmetry_space_group_name_H-M "C C"
_symmetry_group_IT_number 9
_symmetry_cell_setting 'monoclinic'
loop_
_space_group_symop_operation_xyz
x,y,z
x,-y,1/2+z
1/2+x,1/2+y,z
1/2+x,1/2-y,1/2+z
loop_
_atom_site_type_symbol
_atom_site_label
_atom_site_fract_x
_atom_site_fract_y
_atom_site_fract_z
Si Si1 0.746680 0.208050 0.834940
Si Si2 0.000738 0.992222 0.228264
Si Si3 0.112907 0.581829 0.564031
Si Si4 0.547425 0.339552 0.909813
Si Si5 0.532161 0.167940 0.053205
Si Si6 0.463735 0.714771 0.139631
Si Si7 0.544521 0.245736 0.253086
Si Si8 0.765735 0.050901 0.405444
O O1 0.735568 0.296594 0.914922
O O2 0.545339 0.221565 0.746626
O O3 0.893194 0.245427 0.796082
O O4 0.759904 0.079748 0.873467
O O5 0.997222 0.069411 0.317523
O O6 0.047369 0.086531 0.163433
O O7 0.117685 0.877185 0.264460
O O8 0.798920 0.946511 0.161024
O O9 0.993229 0.467686 0.551014
O O10 0.040867 0.702574 0.581803
O O11 0.159758 0.576271 0.470793
O O12 0.477632 0.420971 0.973425
O O13 0.472826 0.222618 0.943554
O O14 0.472557 0.219824 0.135215
O O15 0.749811 0.194735 0.099567
O O16 0.681079 0.143346 0.314194
#
# Coordination Sequence:
#
# PCOD9137824 Si02
#       8
#     4   4   4   4   4   4   4   4
#     4  11  23  47  71  98 143 188 239 298 367 430
#     4  10  22  44  72  96 144 187 238 288 368 434
#     4  11  22  46  73 103 139 196 239 297 373 432
#     4  11  23  47  69 104 142 190 233 305 359 428
#     4  11  25  45  71 104 147 184 251 301 357 443
#     4  10  22  44  71  97 141 188 235 295 367 418
#     4  12  24  45  72 107 138 194 237 298 366 438
#     4  12  25  44  75  99 150 187 240 304 363 435
#
# _framework density 25.029498
#
# number of rings (size 3 to 8) (size 9 to 14) (size 15 to 20)
#    0.000    1.000    3.750    3.750    1.750    0.000 
#   18.000    0.000    0.000    0.000    0.000    0.000 
#    0.000    0.000    0.000    0.000    0.000    0.000 
#
# Total GULP energy -89082.708231 kJ/mol
# GULP energy per Si atom -5567.669264 kJ/mol
# Density = 2.497253 g / cm^3
# Si number density = 25.029498 Si / 1000 Ang^3
#
#
#
# Elastic Constant Matrix: (Units=GPa)
#
#
# Indices 1 2 3 4 5 6 
#
# 1 74.7908 84.0037 33.0671 0.0000 -28.2246 0.0000
# 2 84.0037 174.1662 44.3172 0.0000 -23.5706 0.0000
# 3 33.0671 44.3172 88.1073 0.0000 -14.5358 0.0000
# 4 0.0000 0.0000 0.0000 43.6043 0.0000 -17.2651
# 5 -28.2246 -23.5706 -14.5358 0.0000 53.3827 0.0000
# 6 0.0000 0.0000 0.0000 -17.2651 0.0000 42.8401
#
#
#
# Elastic Compliance Matrix: (Units=1/GPa)
#
#
# Indices 1 2 3 4 5 6 
#
# 1 0.036258 -0.014858 -0.004245 0.000000 0.011454 0.000000
# 2 -0.014858 0.012905 -0.001331 0.000000 -0.002520 0.000000
# 3 -0.004245 -0.001331 0.013763 0.000000 0.000916 0.000000
# 4 0.000000 0.000000 0.000000 0.027288 0.000000 0.010997
# 5 0.011454 -0.002520 0.000916 0.000000 0.023926 0.000000
# 6 0.000000 0.000000 0.000000 0.010997 0.000000 0.027775
#
#
# Mechanical properties :
#
#
# Convention : Reuss Voigt Hill
#
# Bulk Modulus (GPa) = 45.33082 73.31561 59.32322
# Shear Modulus (GPa) = 26.29717 39.67716 32.98716
#
# Velocity S-wave (km/s) = 3.24489 3.98580 3.63427
# Velocity P-wave (km/s) = 5.67356 7.10896 6.43143
#
# Compressibility (1/GPa) = 0.02206005
#
# Stress axis : x y z
#
# Youngs Moduli (GPa) = 27.58033 77.48706 72.65659
#
# Poissons Ratio (x) = 1.15127 0.30841
# Poissons Ratio (y) = 0.40978 0.09670
# Poissons Ratio (z) = 0.11707 0.10313
#
# Static dielectric constant tensor:
#      x y z
#    x 2.094430 0.000000 0.075360 
#    y 0.000000 1.999910 0.000000 
#    z 0.075360 0.000000 2.161450 
# 
# From -- ./inp_files/22806.got.cif
#   From: 2010.05.17/outbox.cif.g08.bks.cpg/sg9_12_cif.got.tgz:22806.got - 2010.06.03 20:04:27.
