data_PCOD9137398
_publ_section_title
;
Structure prediction by ZEFSAII (Michael W. Deem and Ramdas Pophale) SiO2 
 PCOD9137398
Probable space group: C C
;
_chemical_formula_sum "Si O2"
_cell_formula_units_Z 32
_cell_length_a 13.024187
_cell_length_b 10.753417
_cell_length_c 14.197304
_cell_angle_alpha 90.000000
_cell_angle_beta 140.608891
_cell_angle_gamma 90.000000
_cell_volume 1261.857492
_symmetry_space_group_name_H-M "C C"
_symmetry_group_IT_number 9
_symmetry_cell_setting 'monoclinic'
loop_
_space_group_symop_operation_xyz
x,y,z
x,-y,1/2+z
1/2+x,1/2+y,z
1/2+x,1/2-y,1/2+z
loop_
_atom_site_type_symbol
_atom_site_label
_atom_site_fract_x
_atom_site_fract_y
_atom_site_fract_z
Si Si1 0.729670 0.162034 0.513070
Si Si2 0.556187 0.082541 0.555879
Si Si3 0.611932 0.178211 0.006419
Si Si4 0.581237 0.308083 0.173983
Si Si5 0.704749 0.425178 0.750070
Si Si6 0.055220 0.540806 0.238149
Si Si7 0.173524 0.931799 0.503086
Si Si8 0.993093 0.152983 0.266932
O O1 0.634580 0.049996 0.395987
O O2 0.643041 0.295319 0.437656
O O3 0.907002 0.164586 0.596138
O O4 0.705989 0.142196 0.607296
O O5 0.540353 0.942987 0.504126
O O6 0.591248 0.067293 0.690501
O O7 0.378809 0.132929 0.402214
O O8 0.577309 0.286643 0.058855
O O9 0.801591 0.155559 0.130297
O O10 0.542183 0.223757 0.858531
O O11 0.692014 0.427988 0.270039
O O12 0.625148 0.171263 0.244355
O O13 0.667055 0.422717 0.612088
O O14 0.569596 0.359274 0.718033
O O15 0.862207 0.543383 0.112326
O O16 0.064578 0.036795 0.377846
#
# Coordination Sequence:
#
# PCOD9137398 Si02
#       8
#     4   4   4   4   4   4   4   4
#     4  11  24  45  70 108 144 187 249 302 368 434
#     4  11  24  42  70 104 141 189 240 300 364 439
#     4  11  26  45  73 107 142 191 249 301 367 442
#     4  10  23  40  72 100 136 187 247 293 346 434
#     4  12  23  44  70 104 148 191 236 303 379 430
#     4  10  22  41  71 100 136 193 243 300 352 432
#     4  11  24  46  72 105 145 192 243 308 372 437
#     4  12  26  47  74 106 148 190 247 309 370 444
#
# _framework density 25.359441
#
# number of rings (size 3 to 8) (size 9 to 14) (size 15 to 20)
#    0.000    1.000    3.750    2.250    7.000    2.000 
#    2.250    0.000    0.000    0.000    0.000    0.000 
#    0.000    0.000    0.000    0.000    0.000    0.000 
#
# Total GULP energy -89607.636409 kJ/mol
# GULP energy per Si atom -5600.477276 kJ/mol
# Density = 2.530172 g / cm^3
# Si number density = 25.359441 Si / 1000 Ang^3
#
#
#
# Elastic Constant Matrix: (Units=GPa)
#
#
# Indices 1 2 3 4 5 6 
#
# 1 155.7075 11.1510 32.1801 0.0000 -4.2032 0.0000
# 2 11.1510 80.7023 9.2134 0.0000 -0.1303 0.0000
# 3 32.1801 9.2134 78.9883 0.0000 3.0482 0.0000
# 4 0.0000 0.0000 0.0000 37.6491 0.0000 -4.3048
# 5 -4.2032 -0.1303 3.0482 0.0000 57.5315 0.0000
# 6 0.0000 0.0000 0.0000 -4.3048 0.0000 44.9981
#
#
#
# Elastic Compliance Matrix: (Units=1/GPa)
#
#
# Indices 1 2 3 4 5 6 
#
# 1 0.007072 -0.000653 -0.002831 0.000000 0.000665 0.000000
# 2 -0.000653 0.012619 -0.001208 0.000000 0.000045 0.000000
# 3 -0.002831 -0.001208 0.013991 0.000000 -0.000951 0.000000
# 4 0.000000 0.000000 0.000000 0.026855 0.000000 0.002569
# 5 0.000665 0.000045 -0.000951 0.000000 0.017481 0.000000
# 6 0.000000 0.000000 0.000000 0.002569 0.000000 0.022469
#
#
# Mechanical properties :
#
#
# Convention : Reuss Voigt Hill
#
# Bulk Modulus (GPa) = 41.15275 46.72080 43.93677
# Shear Modulus (GPa) = 42.38386 45.55930 43.97158
#
# Velocity S-wave (km/s) = 4.09262 4.24316 4.16857
# Velocity P-wave (km/s) = 6.21254 6.51685 6.36652
#
# Compressibility (1/GPa) = 0.02429972
#
# Stress axis : x y z
#
# Youngs Moduli (GPa) = 141.40204 79.24310 71.47505
#
# Poissons Ratio (x) = 0.05174 0.20232
# Poissons Ratio (y) = 0.09233 0.08632
# Poissons Ratio (z) = 0.40026 0.09570
#
# Static dielectric constant tensor:
#      x y z
#    x 1.968030 0.000000 -0.079460 
#    y 0.000000 2.057060 0.000000 
#    z -0.079460 0.000000 1.977610 
# 
# From -- ./inp_files/24730.got.cif
#   From: 2010.05.17/outbox.cif.g08.bks.cpg/sg9_13_cif.got.tgz:24730.got - 2010.06.03 20:04:27.
