data_PCOD9137204
_publ_section_title
;
Structure prediction by ZEFSAII (Michael W. Deem and Ramdas Pophale) SiO2 
 PCOD9137204
Probable space group: C C
;
_chemical_formula_sum "Si O2"
_cell_formula_units_Z 28
_cell_length_a 9.450702
_cell_length_b 5.497410
_cell_length_c 24.082828
_cell_angle_alpha 90.000000
_cell_angle_beta 58.884609
_cell_angle_gamma 90.000000
_cell_volume 1071.194995
_symmetry_space_group_name_H-M "C C"
_symmetry_group_IT_number 9
_symmetry_cell_setting 'monoclinic'
loop_
_space_group_symop_operation_xyz
x,y,z
x,-y,1/2+z
1/2+x,1/2+y,z
1/2+x,1/2-y,1/2+z
loop_
_atom_site_type_symbol
_atom_site_label
_atom_site_fract_x
_atom_site_fract_y
_atom_site_fract_z
Si Si1 0.299200 0.317033 0.835320
Si Si2 0.211789 0.580235 0.660247
Si Si3 0.468600 0.942148 0.863141
Si Si4 0.893265 0.696039 0.988364
Si Si5 0.584851 0.415666 0.217461
Si Si6 0.557038 0.585584 0.104941
Si Si7 0.718924 0.066913 0.961841
O O1 0.422693 0.521154 0.786329
O O2 0.230809 0.359714 0.911503
O O3 0.138596 0.293309 0.829995
O O4 0.412725 0.083454 0.820171
O O5 0.203035 0.841932 0.694917
O O6 0.391243 0.475197 0.605343
O O7 0.094958 0.659854 0.631238
O O8 0.159861 0.350696 0.708336
O O9 0.316506 0.782614 0.913698
O O10 0.486973 0.129763 0.911607
O O11 0.027853 0.630457 0.007446
O O12 0.825038 0.965782 0.991123
O O13 0.724226 0.551864 0.035961
O O14 0.540024 0.410983 0.161221
#
# Coordination Sequence:
#
# PCOD9137204 Si02
#       7
#     4   4   4   4   4   4   4
#     4  10  23  38  63  95 130 172 225 281 346 425
#     4  10  26  43  68 100 136 179 236 280 358 412
#     4  10  22  40  64  94 130 173 225 281 354 413
#     4  10  23  41  63  98 130 179 228 288 350 427
#     4  10  26  44  68 101 138 181 235 285 358 417
#     4  10  26  42  68  99 136 186 231 293 354 422
#     4  10  22  40  64  95 130 174 224 284 354 414
#
# _framework density 26.139033000000001
#
# number of rings (size 3 to 8) (size 9 to 14) (size 15 to 20)
#    0.857    1.143    0.000    0.857   10.000    1.143 
#    0.000    0.000    0.000    0.000    0.000    0.000 
#    0.000    0.000    0.000    0.000    0.000    0.000 
#
# Total GULP energy -78003.049446 kJ/mol
# GULP energy per Si atom -5571.646389 kJ/mol
# Density = 2.607954 g / cm^3
# Si number density = 26.139033 Si / 1000 Ang^3
#
#
#
# Elastic Constant Matrix: (Units=GPa)
#
#
# Indices 1 2 3 4 5 6 
#
# 1 131.5212 50.5129 25.6588 0.0000 -37.0520 0.0000
# 2 50.5129 119.2779 22.5974 0.0000 -15.5871 -0.0001
# 3 25.6588 22.5974 105.6015 0.0000 -15.9549 0.0000
# 4 0.0000 0.0000 0.0000 28.0058 0.0000 -11.6502
# 5 -37.0520 -15.5871 -15.9549 0.0000 46.9601 0.0000
# 6 0.0000 -0.0001 0.0000 -11.6502 0.0000 33.4265
#
#
#
# Elastic Compliance Matrix: (Units=1/GPa)
#
#
# Indices 1 2 3 4 5 6 
#
# 1 0.011243 -0.003638 -0.000838 0.000000 0.007378 0.000000
# 2 -0.003638 0.010177 -0.001283 0.000000 0.000071 0.000000
# 3 -0.000838 -0.001283 0.010313 0.000000 0.002416 0.000000
# 4 0.000000 0.000000 0.000000 0.041762 0.000000 0.014555
# 5 0.007378 0.000071 0.002416 0.000000 0.027961 0.000000
# 6 0.000000 0.000000 0.000000 0.014555 0.000000 0.034989
#
#
# Mechanical properties :
#
#
# Convention : Reuss Voigt Hill
#
# Bulk Modulus (GPa) = 49.47201 61.54875 55.51038
# Shear Modulus (GPa) = 32.32029 38.85392 35.58711
#
# Velocity S-wave (km/s) = 3.52017 3.85961 3.69379
# Velocity P-wave (km/s) = 5.95732 6.59241 6.28290
#
# Compressibility (1/GPa) = 0.02021345
#
# Stress axis : x y z
#
# Youngs Moduli (GPa) = 88.94573 98.26168 96.96578
#
# Poissons Ratio (x) = 0.35749 0.08130
# Poissons Ratio (y) = 0.32360 0.12440
# Poissons Ratio (z) = 0.07458 0.12606
#
# Static dielectric constant tensor:
#      x y z
#    x 2.135890 0.000000 0.033550 
#    y 0.000000 2.107060 0.000000 
#    z 0.033550 0.000000 2.098280 
# 
# From -- ./inp_files/34859.got.cif
#   From: 2010.05.17/outbox.cif.g08.bks.cpg/sg9_18_cif.got.tgz:34859.got - 2010.06.03 20:04:27.
