data_PCOD9137924
_publ_section_title
;
Structure prediction by ZEFSAII (Michael W. Deem and Ramdas Pophale) SiO2 
 PCOD9137924
Probable space group: C C
;
_chemical_formula_sum "Si O2"
_cell_formula_units_Z 28
_cell_length_a 9.625482
_cell_length_b 13.294118
_cell_length_c 14.338702
_cell_angle_alpha 90.000000
_cell_angle_beta 142.235320
_cell_angle_gamma 90.000000
_cell_volume 1123.676014
_symmetry_space_group_name_H-M "C C"
_symmetry_group_IT_number 9
_symmetry_cell_setting 'monoclinic'
loop_
_space_group_symop_operation_xyz
x,y,z
x,-y,1/2+z
1/2+x,1/2+y,z
1/2+x,1/2-y,1/2+z
loop_
_atom_site_type_symbol
_atom_site_label
_atom_site_fract_x
_atom_site_fract_y
_atom_site_fract_z
Si Si1 0.365630 0.157155 0.882870
Si Si2 0.557460 0.626886 0.467866
Si Si3 0.752709 0.027729 0.150168
Si Si4 0.973187 0.942806 0.563931
Si Si5 0.835522 0.827760 0.129338
Si Si6 0.027592 0.600466 0.762426
Si Si7 0.944264 0.376895 0.777073
O O1 0.456210 0.268886 0.951762
O O2 0.434298 0.139937 0.812234
O O3 0.098759 0.145886 0.751082
O O4 0.504988 0.077156 0.017904
O O5 0.414396 0.589212 0.303874
O O6 0.523788 0.539650 0.526717
O O7 0.826428 0.637517 0.588734
O O8 0.845004 0.038790 0.093033
O O9 0.756770 0.907751 0.166925
O O10 0.795431 0.876348 0.408356
O O11 0.221014 0.901552 0.718686
O O12 0.855341 0.711428 0.164770
O O13 0.652320 0.841856 0.950658
O O14 0.014441 0.478165 0.759504
#
# Coordination Sequence:
#
# PCOD9137924 Si02
#       7
#     4   4   4   4   4   4   4
#     4  11  24  46  74 100 144 186 243 298 349 423
#     4  11  24  43  74 111 133 190 249 275 364 428
#     4  11  26  45  71 108 142 190 234 296 358 419
#     4  10  23  50  68  98 158 181 227 306 352 415
#     4  12  26  43  71 102 139 187 243 291 358 424
#     4  10  22  45  72 100 143 188 225 301 357 405
#     4  11  25  44  70  99 141 190 229 291 366 408
#
# _framework density 24.918213000000002
#
# number of rings (size 3 to 8) (size 9 to 14) (size 15 to 20)
#    0.000    1.143    2.857    3.429    8.000    1.143 
#   10.286    0.000    0.000    0.000    0.000    0.000 
#    0.000    0.000    0.000    0.000    0.000    0.000 
#
# Total GULP energy -78336.309375 kJ/mol
# GULP energy per Si atom -5595.450670 kJ/mol
# Density = 2.486150 g / cm^3
# Si number density = 24.918213 Si / 1000 Ang^3
#
#
#
# Elastic Constant Matrix: (Units=GPa)
#
#
# Indices 1 2 3 4 5 6 
#
# 1 48.4316 9.0114 31.5534 0.0000 12.1794 0.0000
# 2 9.0114 91.3365 43.1829 0.0000 10.2562 0.0000
# 3 31.5534 43.1829 199.6711 0.0003 32.4587 0.0001
# 4 0.0000 0.0000 0.0003 50.2903 0.0002 -1.7667
# 5 12.1794 10.2562 32.4587 0.0002 42.0104 0.0001
# 6 0.0000 0.0000 0.0001 -1.7667 0.0001 20.5610
#
#
#
# Elastic Compliance Matrix: (Units=1/GPa)
#
#
# Indices 1 2 3 4 5 6 
#
# 1 0.023774 -0.000456 -0.002923 0.000000 -0.004523 0.000000
# 2 -0.000456 0.012247 -0.002415 0.000000 -0.000992 0.000000
# 3 -0.002923 -0.002415 0.006586 0.000000 -0.003652 0.000000
# 4 0.000000 0.000000 0.000000 0.019945 0.000000 0.001714
# 5 -0.004523 -0.000992 -0.003652 0.000000 0.028178 0.000000
# 6 0.000000 0.000000 0.000000 0.001714 0.000000 0.048783
#
#
# Mechanical properties :
#
#
# Convention : Reuss Voigt Hill
#
# Bulk Modulus (GPa) = 32.23874 56.32606 44.28240
# Shear Modulus (GPa) = 30.97100 39.61845 35.29473
#
# Velocity S-wave (km/s) = 3.52931 3.99173 3.76762
# Velocity P-wave (km/s) = 5.43820 6.62561 6.06105
#
# Compressibility (1/GPa) = 0.03101858
#
# Stress axis : x y z
#
# Youngs Moduli (GPa) = 42.06230 81.65389 151.83335
#
# Poissons Ratio (x) = 0.03721 0.44384
# Poissons Ratio (y) = 0.01917 0.36674
# Poissons Ratio (z) = 0.12296 0.19723
#
# Static dielectric constant tensor:
#      x y z
#    x 2.012730 0.000000 0.000820 
#    y 0.000000 2.037480 0.000000 
#    z 0.000820 0.000000 1.982680 
# 
# From -- ./inp_files/30096.got.cif
#   From: 2010.05.17/outbox.cif.g08.bks.cpg/sg9_16_cif.got.tgz:30096.got - 2010.06.03 20:04:27.
