data_PCOD9137104
_publ_section_title
;
Structure prediction by ZEFSAII (Michael W. Deem and Ramdas Pophale) SiO2 
 PCOD9137104
Probable space group: C C
;
_chemical_formula_sum "Si O2"
_cell_formula_units_Z 32
_cell_length_a 5.048592
_cell_length_b 22.211062
_cell_length_c 12.422355
_cell_angle_alpha 90.000000
_cell_angle_beta 78.611355
_cell_angle_gamma 90.000000
_cell_volume 1365.548449
_symmetry_space_group_name_H-M "C C"
_symmetry_group_IT_number 9
_symmetry_cell_setting 'monoclinic'
loop_
_space_group_symop_operation_xyz
x,y,z
x,-y,1/2+z
1/2+x,1/2+y,z
1/2+x,1/2-y,1/2+z
loop_
_atom_site_type_symbol
_atom_site_label
_atom_site_fract_x
_atom_site_fract_y
_atom_site_fract_z
Si Si1 0.727940 0.662278 0.922020
Si Si2 0.808449 0.008188 0.907874
Si Si3 0.072216 0.096004 0.725651
Si Si4 0.055052 0.774194 0.180749
Si Si5 0.741013 0.513044 0.064935
Si Si6 0.130374 0.344018 0.564315
Si Si7 0.506999 0.266057 0.795028
Si Si8 0.390013 0.599614 0.243395
O O1 0.744508 0.626325 0.808461
O O2 0.823206 0.730615 0.894573
O O3 0.426460 0.658594 0.989722
O O4 0.925105 0.632989 0.992033
O O5 0.550189 0.015373 0.003964
O O6 0.848426 0.058898 0.811778
O O7 0.062135 0.010727 0.969691
O O8 0.793195 0.945593 0.843607
O O9 0.002036 0.155945 0.663271
O O10 0.208002 0.048333 0.636647
O O11 0.022187 0.723016 0.095512
O O12 0.356971 0.759092 0.199192
O O13 0.610018 0.562630 0.155915
O O14 0.165235 0.379300 0.673938
O O15 0.313066 0.256685 0.282603
O O16 0.494440 0.337823 0.786438
#
# Coordination Sequence:
#
# PCOD9137104 Si02
#       8
#     4   4   4   4   4   4   4   4
#     4  11  23  40  68 103 137 176 219 268 334 409
#     4  11  27  46  69  99 132 180 233 281 333 393
#     4  10  25  46  70  98 139 178 224 282 336 397
#     4  10  22  39  62  94 129 168 213 267 328 388
#     4  11  27  46  69  99 132 180 233 281 333 393
#     4  11  23  40  68 103 137 176 219 268 334 409
#     4  10  22  39  62  94 129 168 213 267 328 388
#     4  10  25  46  70  98 139 178 224 282 336 397
#
# _framework density 23.433807999999999
#
# number of rings (size 3 to 8) (size 9 to 14) (size 15 to 20)
#    0.000    1.500    0.000    3.750    0.000   22.000 
#    0.000    0.000    0.000    0.000    0.000    0.000 
#    0.000    0.000    0.000    0.000    0.000    0.000 
#
# Total GULP energy -89393.714456 kJ/mol
# GULP energy per Si atom -5587.107153 kJ/mol
# Density = 2.338047 g / cm^3
# Si number density = 23.433808 Si / 1000 Ang^3
#
#
#
# Elastic Constant Matrix: (Units=GPa)
#
#
# Indices 1 2 3 4 5 6 
#
# 1 91.7208 -2.6381 -1.6017 0.0000 -8.1536 0.0000
# 2 -2.6381 187.4638 20.7561 0.0000 -13.2247 0.0000
# 3 -1.6017 20.7561 52.5667 0.0000 -2.1962 0.0000
# 4 0.0000 0.0000 0.0000 50.1657 0.0000 -6.0371
# 5 -8.1536 -13.2247 -2.1962 0.0000 23.9809 0.0000
# 6 0.0000 0.0000 0.0000 -6.0371 0.0000 16.8653
#
#
#
# Elastic Compliance Matrix: (Units=1/GPa)
#
#
# Indices 1 2 3 4 5 6 
#
# 1 0.011285 0.000408 0.000354 0.000000 0.004094 0.000000
# 2 0.000408 0.005799 -0.002146 0.000000 0.003140 0.000000
# 3 0.000354 -0.002146 0.019913 0.000000 0.000760 0.000000
# 4 0.000000 0.000000 0.000000 0.020831 0.000000 0.007457
# 5 0.004094 0.003140 0.000760 0.000000 0.044893 0.000000
# 6 0.000000 0.000000 0.000000 0.007457 0.000000 0.061962
#
#
# Mechanical properties :
#
#
# Convention : Reuss Voigt Hill
#
# Bulk Modulus (GPa) = 29.21495 40.53154 34.87325
# Shear Modulus (GPa) = 27.95446 39.21805 33.58625
#
# Velocity S-wave (km/s) = 3.45760 4.09536 3.78992
# Velocity P-wave (km/s) = 5.33236 6.30051 5.83654
#
# Compressibility (1/GPa) = 0.03422905
#
# Stress axis : x y z
#
# Youngs Moduli (GPa) = 88.61666 172.43502 50.21736
#
# Poissons Ratio (x) = -0.07044 -0.01776
# Poissons Ratio (y) = -0.03620 0.10778
# Poissons Ratio (z) = -0.03133 0.37008
#
# Static dielectric constant tensor:
#      x y z
#    x 1.883360 0.000000 0.025650 
#    y 0.000000 1.960060 0.000000 
#    z 0.025650 0.000000 1.903670 
# 
# From -- ./inp_files/15287.got.cif
#   From: 2010.05.17/outbox.cif.g08.bks.cpg/sg9_8_cif.got.tgz:15287.got - 2010.06.03 20:04:27.
