data_PCOD9137737
_publ_section_title
;
Structure prediction by ZEFSAII (Michael W. Deem and Ramdas Pophale) SiO2 
 PCOD9137737
Probable space group: C C
;
_chemical_formula_sum "Si O2"
_cell_formula_units_Z 32
_cell_length_a 10.753254
_cell_length_b 20.842503
_cell_length_c 5.585577
_cell_angle_alpha 90.000000
_cell_angle_beta 104.689734
_cell_angle_gamma 90.000000
_cell_volume 1210.946444
_symmetry_space_group_name_H-M "C C"
_symmetry_group_IT_number 9
_symmetry_cell_setting 'monoclinic'
loop_
_space_group_symop_operation_xyz
x,y,z
x,-y,1/2+z
1/2+x,1/2+y,z
1/2+x,1/2-y,1/2+z
loop_
_atom_site_type_symbol
_atom_site_label
_atom_site_fract_x
_atom_site_fract_y
_atom_site_fract_z
Si Si1 0.529830 0.704464 0.059210
Si Si2 0.769036 0.082312 0.737280
Si Si3 0.744276 0.218149 0.468268
Si Si4 0.642317 0.604196 0.397911
Si Si5 0.020983 0.512906 0.135015
Si Si6 0.874792 0.692608 0.665342
Si Si7 0.054492 0.075791 0.850880
Si Si8 0.112684 0.643664 0.038029
O O1 0.533365 0.658387 0.291653
O O2 0.410544 0.751421 0.996457
O O3 0.659046 0.745744 0.122459
O O4 0.537787 0.653881 0.850115
O O5 0.771602 0.144495 0.561741
O O6 0.740055 0.115524 0.977712
O O7 0.909032 0.050026 0.802883
O O8 0.651998 0.030471 0.663157
O O9 0.839496 0.269328 0.392898
O O10 0.644303 0.206132 0.200239
O O11 0.771151 0.642790 0.521315
O O12 0.608619 0.563382 0.614249
O O13 0.639075 0.569581 0.135837
O O14 0.952338 0.493550 0.345600
O O15 0.056043 0.587287 0.172592
O O16 0.006821 0.655777 0.784334
#
# Coordination Sequence:
#
# PCOD9137737 Si02
#       8
#     4   4   4   4   4   4   4   4
#     4  10  23  34  56  87 139 176 220 255 319 406
#     4  11  23  41  66  93 127 178 223 288 327 387
#     4  12  23  37  59  95 137 180 219 264 336 411
#     4  10  23  41  53  90 131 184 210 262 319 414
#     4  10  22  44  65  94 125 160 225 282 330 379
#     4  12  22  38  60  92 144 176 215 269 341 411
#     4  10  23  38  60  86 130 172 219 267 326 386
#     4  11  25  41  63  99 131 176 219 281 342 396
#
# _framework density 26.425611
#
# number of rings (size 3 to 8) (size 9 to 14) (size 15 to 20)
#    0.750    0.500    3.750    2.250    5.250    1.000 
#    0.000    0.000    0.000    0.000    0.000   21.000 
#    0.000    0.000    0.000    0.000    0.000    0.000 
#
# Total GULP energy -89365.439493 kJ/mol
# GULP energy per Si atom -5585.339968 kJ/mol
# Density = 2.636546 g / cm^3
# Si number density = 26.425611 Si / 1000 Ang^3
#
#
#
# Elastic Constant Matrix: (Units=GPa)
#
#
# Indices 1 2 3 4 5 6 
#
# 1 59.2275 13.7015 12.8304 0.0000 12.2430 0.0000
# 2 13.7015 103.1044 8.3563 0.0000 4.0793 0.0000
# 3 12.8304 8.3563 138.8748 0.0000 -13.7284 0.0000
# 4 0.0000 0.0000 0.0000 -292.5047 0.0000 84.7329
# 5 12.2430 4.0793 -13.7284 0.0000 37.3720 0.0000
# 6 0.0000 0.0000 0.0000 84.7329 0.0000 -5.2430
#
#
#
# Elastic Compliance Matrix: (Units=1/GPa)
#
#
# Indices 1 2 3 4 5 6 
#
# 1 0.019317 -0.002102 -0.002346 0.000000 -0.006961 0.000000
# 2 -0.002102 0.010039 -0.000467 0.000000 -0.000579 0.000000
# 3 -0.002346 -0.000467 0.007810 0.000000 0.003689 0.000000
# 4 0.000000 0.000000 0.000000 0.000929 0.000000 0.015007
# 5 -0.006961 -0.000579 0.003689 0.000000 0.030457 0.000000
# 6 0.000000 0.000000 0.000000 0.015007 0.000000 0.051807
#
#
# Mechanical properties :
#
#
# Convention : Reuss Voigt Hill
#
# Bulk Modulus (GPa) = 36.58102 41.22035 38.90069
# Shear Modulus (GPa) = 35.89359 -34.32056 0.78652
#
# Velocity S-wave (km/s) = 3.68949 -3.60774 0.54615
# Velocity P-wave (km/s) = 5.65888 1.31222 3.89236
#
# Compressibility (1/GPa) = 0.02733658
#
# Stress axis : x y z
#
# Youngs Moduli (GPa) = 51.76680 99.61213 128.03669
#
# Poissons Ratio (x) = 0.20934 0.30042
# Poissons Ratio (y) = 0.10879 0.05981
# Poissons Ratio (z) = 0.12146 0.04653
#
# Static dielectric constant tensor:
#      x y z
#    x 2.047960 0.000000 0.021120 
#    y 0.000000 2.079080 0.000000 
#    z 0.021120 0.000000 2.148930 
# 
# From -- ./inp_files/2060.got.cif
#   From: 2010.05.17/outbox.cif.g08.bks.cpg/sg9_2_cif.got.tgz:2060.got - 2010.06.03 20:04:27.
