data_PCOD9137791
_publ_section_title
;
Structure prediction by ZEFSAII (Michael W. Deem and Ramdas Pophale) SiO2 
 PCOD9137791
Probable space group: C C
;
_chemical_formula_sum "Si O2"
_cell_formula_units_Z 32
_cell_length_a 24.690753
_cell_length_b 5.467953
_cell_length_c 17.618552
_cell_angle_alpha 90.000000
_cell_angle_beta 30.906964
_cell_angle_gamma 90.000000
_cell_volume 1221.779526
_symmetry_space_group_name_H-M "C C"
_symmetry_group_IT_number 9
_symmetry_cell_setting 'monoclinic'
loop_
_space_group_symop_operation_xyz
x,y,z
x,-y,1/2+z
1/2+x,1/2+y,z
1/2+x,1/2-y,1/2+z
loop_
_atom_site_type_symbol
_atom_site_label
_atom_site_fract_x
_atom_site_fract_y
_atom_site_fract_z
Si Si1 0.487650 0.154740 0.884080
Si Si2 0.397469 0.212037 0.836939
Si Si3 0.576059 0.873711 0.555036
Si Si4 0.727161 0.954258 0.106058
Si Si5 0.744203 0.402149 0.935768
Si Si6 0.777538 0.552847 0.629230
Si Si7 0.746390 0.220570 0.317769
Si Si8 0.925588 0.865397 0.123198
O O1 0.454263 0.291122 0.847085
O O2 0.607017 0.084862 0.730432
O O3 0.465265 0.280852 0.992383
O O4 0.404867 0.931440 0.978803
O O5 0.308909 0.992254 0.932028
O O6 0.491384 0.086236 0.676950
O O7 0.314136 0.438916 0.933125
O O8 0.639875 0.762729 0.550667
O O9 0.516545 0.667319 0.576886
O O10 0.666992 0.000772 0.395938
O O11 0.751716 0.718239 0.130189
O O12 0.734243 0.209319 0.140044
O O13 0.710325 0.657940 0.938695
O O14 0.832448 0.299183 0.771592
O O15 0.738807 0.583970 0.760999
O O16 0.865810 0.123088 0.185025
#
# Coordination Sequence:
#
# PCOD9137791 Si02
#       8
#     4   4   4   4   4   4   4   4
#     4  11  24  47  77 107 148 200 250 314 390 444
#     4  10  25  48  68 107 147 199 250 309 374 460
#     4  10  24  45  72 105 147 199 252 314 384 448
#     4  11  27  48  76 110 152 198 254 305 380 455
#     4  10  23  45  70 102 145 190 255 307 383 449
#     4  11  25  48  75 113 150 193 251 321 374 454
#     4  11  22  41  73 103 146 191 250 316 379 449
#     4  10  22  44  69 109 143 190 254 318 376 453
#
# _framework density 26.191305
#
# number of rings (size 3 to 8) (size 9 to 14) (size 15 to 20)
#    0.000    1.500    1.250    2.250    5.250    7.000 
#   13.500    1.250    0.000    0.000    0.000    0.000 
#    0.000    0.000    0.000    0.000    0.000    0.000 
#
# Total GULP energy -89248.254368 kJ/mol
# GULP energy per Si atom -5578.015898 kJ/mol
# Density = 2.613169 g / cm^3
# Si number density = 26.191305 Si / 1000 Ang^3
#
#
#
# Elastic Constant Matrix: (Units=GPa)
#
#
# Indices 1 2 3 4 5 6 
#
# 1 100.8698 24.9096 54.7228 -0.0018 -18.3667 -0.0058
# 2 24.9096 75.1790 12.4554 -0.0033 -4.6195 -0.0184
# 3 54.7228 12.4554 113.5931 -0.0211 -34.6852 -0.0049
# 4 -0.0018 -0.0033 -0.0211 31.5971 0.0111 -6.2004
# 5 -18.3667 -4.6195 -34.6852 0.0111 52.4423 0.0027
# 6 -0.0058 -0.0184 -0.0049 -6.2004 0.0027 22.7582
#
#
#
# Elastic Compliance Matrix: (Units=1/GPa)
#
#
# Indices 1 2 3 4 5 6 
#
# 1 0.014365 -0.003675 -0.006366 -0.000004 0.000497 -0.000002
# 2 -0.003675 0.014491 0.000223 0.000004 0.000137 0.000012
# 3 -0.006366 0.000223 0.013998 0.000007 0.007048 0.000003
# 4 -0.000004 0.000004 0.000007 0.033436 -0.000004 0.009110
# 5 0.000497 0.000137 0.007048 -0.000004 0.023916 -0.000002
# 6 -0.000002 0.000012 0.000003 0.009110 -0.000002 0.046422
#
#
# Mechanical properties :
#
#
# Convention : Reuss Voigt Hill
#
# Bulk Modulus (GPa) = 43.06740 52.64637 47.85688
# Shear Modulus (GPa) = 28.73539 34.52980 31.63260
#
# Velocity S-wave (km/s) = 3.31590 3.63487 3.47904
# Velocity P-wave (km/s) = 5.58026 6.14498 5.86942
#
# Compressibility (1/GPa) = 0.02321942
#
# Stress axis : x y z
#
# Youngs Moduli (GPa) = 69.61317 69.01054 71.44069
#
# Poissons Ratio (x) = 0.25358 0.45476
# Poissons Ratio (y) = 0.25579 -0.01594
# Poissons Ratio (z) = 0.44313 -0.01540
#
# Static dielectric constant tensor:
#      x y z
#    x 2.133600 -0.000040 0.062850 
#    y -0.000040 2.080880 0.000030 
#    z 0.062850 0.000030 2.095030 
# 
# From -- ./inp_files/34575.got.cif
#   From: 2010.05.17/outbox.cif.g08.bks.cpg/sg9_18_cif.got.tgz:34575.got - 2010.06.03 20:04:27.
