data_PCOD9137645
_publ_section_title
;
Structure prediction by ZEFSAII (Michael W. Deem and Ramdas Pophale) SiO2 
 PCOD9137645
Probable space group: C C
;
_chemical_formula_sum "Si O2"
_cell_formula_units_Z 24
_cell_length_a 16.313338
_cell_length_b 12.131334
_cell_length_c 5.240594
_cell_angle_alpha 90.000000
_cell_angle_beta 111.347685
_cell_angle_gamma 90.000000
_cell_volume 965.968181
_symmetry_space_group_name_H-M "C C"
_symmetry_group_IT_number 9
_symmetry_cell_setting 'monoclinic'
loop_
_space_group_symop_operation_xyz
x,y,z
x,-y,1/2+z
1/2+x,1/2+y,z
1/2+x,1/2-y,1/2+z
loop_
_atom_site_type_symbol
_atom_site_label
_atom_site_fract_x
_atom_site_fract_y
_atom_site_fract_z
Si Si1 0.934610 0.374767 0.855870
Si Si2 0.700995 0.729339 0.803391
Si Si3 0.284872 0.549733 0.567290
Si Si4 0.993091 0.950439 0.386781
Si Si5 0.589432 0.244684 0.676267
Si Si6 0.861609 0.377758 0.275979
O O1 0.922412 0.323372 0.562491
O O2 0.898246 0.498810 0.777818
O O3 0.873639 0.325275 0.011398
O O4 0.035418 0.366729 0.055867
O O5 0.763854 0.835051 0.911014
O O6 0.631888 0.752783 0.500736
O O7 0.763789 0.631097 0.776349
O O8 0.656983 0.721168 0.030180
O O9 0.248902 0.536478 0.814383
O O10 0.389114 0.535441 0.726009
O O11 0.013736 0.835930 0.546824
O O12 0.030025 0.035473 0.642086
#
# Coordination Sequence:
#
# PCOD9137645 Si02
#       6
#     4   4   4   4   4   4
#     4  10  22  44  68  96 131 190 237 275 344 438
#     4  12  25  43  66 106 144 177 230 307 359 408
#     4  10  22  43  68  93 128 183 232 275 343 434
#     4  10  22  43  68  93 128 183 232 275 343 434
#     4  12  25  43  66 106 144 177 230 307 359 408
#     4  10  22  44  68  96 131 190 237 275 344 438
#
# _framework density 24.845541000000001
#
# number of rings (size 3 to 8) (size 9 to 14) (size 15 to 20)
#    0.000    1.333    0.000    5.000    0.000    4.000 
#   36.000    0.000    0.000    0.000    0.000    0.000 
#    0.000    0.000    0.000    0.000    0.000    0.000 
#
# Total GULP energy -67001.911293 kJ/mol
# GULP energy per Si atom -5583.492608 kJ/mol
# Density = 2.478899 g / cm^3
# Si number density = 24.845541 Si / 1000 Ang^3
#
#
#
# Elastic Constant Matrix: (Units=GPa)
#
#
# Indices 1 2 3 4 5 6 
#
# 1 59.6566 3.2800 10.1485 0.0000 -14.5652 0.0000
# 2 3.2800 62.8659 22.9692 0.0000 9.6017 0.0000
# 3 10.1485 22.9692 180.5273 0.0000 -18.4387 0.0000
# 4 0.0000 0.0000 0.0000 27.4172 0.0000 5.4248
# 5 -14.5652 9.6017 -18.4387 0.0000 46.1881 0.0000
# 6 0.0000 0.0000 0.0000 5.4248 0.0000 25.6172
#
#
#
# Elastic Compliance Matrix: (Units=1/GPa)
#
#
# Indices 1 2 3 4 5 6 
#
# 1 0.018384 -0.001827 -0.000177 0.000000 0.006106 0.000000
# 2 -0.001827 0.017812 -0.002711 0.000000 -0.005361 0.000000
# 3 -0.000177 -0.002711 0.006199 0.000000 0.002982 0.000000
# 4 0.000000 0.000000 0.000000 0.038069 0.000000 -0.008062
# 5 0.006106 -0.005361 0.002982 0.000000 0.025881 0.000000
# 6 0.000000 0.000000 0.000000 -0.008062 0.000000 0.040743
#
#
# Mechanical properties :
#
#
# Convention : Reuss Voigt Hill
#
# Bulk Modulus (GPa) = 30.33653 41.76058 36.04856
# Shear Modulus (GPa) = 29.84958 37.62132 33.73545
#
# Velocity S-wave (km/s) = 3.46989 3.89550 3.68884
# Velocity P-wave (km/s) = 5.31884 6.08916 5.71699
#
# Compressibility (1/GPa) = 0.03296356
#
# Stress axis : x y z
#
# Youngs Moduli (GPa) = 54.39487 56.14330 161.32037
#
# Poissons Ratio (x) = 0.10258 0.02861
# Poissons Ratio (y) = 0.09938 0.43736
# Poissons Ratio (z) = 0.00965 0.15221
#
# Static dielectric constant tensor:
#      x y z
#    x 2.010410 0.000000 -0.042980 
#    y 0.000000 2.314000 0.000000 
#    z -0.042980 0.000000 1.992630 
# 
# From -- ./inp_files/2312.got.cif
#   From: 2010.05.17/outbox.cif.g08.bks.cpg/sg9_2_cif.got.tgz:2312.got - 2010.06.03 20:04:27.
