data_PCOD9137055
_publ_section_title
;
Structure prediction by ZEFSAII (Michael W. Deem and Ramdas Pophale) SiO2 
 PCOD9137055
Probable space group: C C
;
_chemical_formula_sum "Si O2"
_cell_formula_units_Z 28
_cell_length_a 13.025651
_cell_length_b 16.771570
_cell_length_c 7.792536
_cell_angle_alpha 90.000000
_cell_angle_beta 46.389728
_cell_angle_gamma 90.000000
_cell_volume 1232.592331
_symmetry_space_group_name_H-M "C C"
_symmetry_group_IT_number 9
_symmetry_cell_setting 'monoclinic'
loop_
_space_group_symop_operation_xyz
x,y,z
x,-y,1/2+z
1/2+x,1/2+y,z
1/2+x,1/2-y,1/2+z
loop_
_atom_site_type_symbol
_atom_site_label
_atom_site_fract_x
_atom_site_fract_y
_atom_site_fract_z
Si Si1 0.980100 0.493054 0.590920
Si Si2 0.323111 0.904814 0.497112
Si Si3 0.607994 0.882476 0.727161
Si Si4 0.768488 0.233645 0.436633
Si Si5 0.129219 0.155122 0.492002
Si Si6 0.535537 0.709957 0.938668
Si Si7 0.819060 0.193747 0.743775
O O1 0.951558 0.437541 0.461606
O O2 0.017922 0.431542 0.694335
O O3 0.094897 0.561445 0.410158
O O4 0.837443 0.540559 0.812413
O O5 0.343983 0.814393 0.415922
O O6 0.189744 0.906290 0.780861
O O7 0.539424 0.796154 0.840058
O O8 0.754509 0.865851 0.459751
O O9 0.635392 0.270292 0.487263
O O10 0.758779 0.180935 0.620103
O O11 0.876638 0.192506 0.181604
O O12 0.090138 0.144736 0.737995
O O13 0.255233 0.219891 0.361349
O O14 0.987617 0.190319 0.566438
#
# Coordination Sequence:
#
# PCOD9137055 Si02
#       7
#     4   4   4   4   4   4   4
#     4  10  22  40  64  92 120 186 212 268 290 402
#     4  10  22  38  63  89 129 163 228 252 322 369
#     4  10  22  38  63  89 129 163 228 252 322 369
#     4  11  22  35  60  95 129 160 203 267 328 377
#     4  10  22  39  63  93 128 165 207 270 326 377
#     4  11  22  35  60  95 129 160 203 267 328 377
#     4  10  22  39  63  93 128 165 207 270 326 377
#
# _framework density 22.716351
#
# number of rings (size 3 to 8) (size 9 to 14) (size 15 to 20)
#    0.000    1.714    1.429    3.429   12.000    0.000 
#    0.000    1.429    0.000    1.714    0.000    0.000 
#    0.000    0.000    0.000    0.000    0.000    0.000 
#
# Total GULP energy -77979.624737 kJ/mol
# GULP energy per Si atom -5569.973195 kJ/mol
# Density = 2.266465 g / cm^3
# Si number density = 22.716351 Si / 1000 Ang^3
#
#
#
# Elastic Constant Matrix: (Units=GPa)
#
#
# Indices 1 2 3 4 5 6 
#
# 1 74.2535 9.8326 24.8814 0.0000 7.9113 0.0000
# 2 9.8326 55.1810 31.2911 0.0000 5.6170 0.0000
# 3 24.8814 31.2911 83.9034 0.0000 16.6840 0.0000
# 4 0.0000 0.0000 0.0000 32.0323 0.0000 5.6354
# 5 7.9113 5.6170 16.6840 0.0000 38.6890 0.0000
# 6 0.0000 0.0000 0.0000 5.6354 0.0000 17.9866
#
#
#
# Elastic Compliance Matrix: (Units=1/GPa)
#
#
# Indices 1 2 3 4 5 6 
#
# 1 0.015011 -0.000208 -0.004123 0.000000 -0.001261 0.000000
# 2 -0.000208 0.022991 -0.008594 0.000000 0.000411 0.000000
# 3 -0.004123 -0.008594 0.017425 0.000000 -0.005423 0.000000
# 4 0.000000 0.000000 0.000000 0.033040 0.000000 -0.010352
# 5 -0.001261 0.000411 -0.005423 0.000000 0.028384 0.000000
# 6 0.000000 0.000000 0.000000 -0.010352 0.000000 0.058840
#
#
# Mechanical properties :
#
#
# Convention : Reuss Voigt Hill
#
# Bulk Modulus (GPa) = 33.81181 38.37202 36.09191
# Shear Modulus (GPa) = 23.65183 27.56375 25.60779
#
# Velocity S-wave (km/s) = 3.23023 3.48715 3.36115
# Velocity P-wave (km/s) = 5.36928 5.75692 5.56648
#
# Compressibility (1/GPa) = 0.02957547
#
# Stress axis : x y z
#
# Youngs Moduli (GPa) = 66.61825 43.49537 57.38998
#
# Poissons Ratio (x) = 0.00907 0.23661
# Poissons Ratio (y) = 0.01389 0.49322
# Poissons Ratio (z) = 0.27466 0.37381
#
# Static dielectric constant tensor:
#      x y z
#    x 1.901450 0.000000 0.091960 
#    y 0.000000 1.832950 0.000000 
#    z 0.091960 0.000000 1.998230 
# 
# From -- ./inp_files/7862.got.cif
#   From: 2010.05.17/outbox.cif.g08.bks.cpg/sg9_4_cif.got.tgz:7862.got - 2010.06.03 20:04:27.
