data_PCOD9137165
_publ_section_title
;
Structure prediction by ZEFSAII (Michael W. Deem and Ramdas Pophale) SiO2 
 PCOD9137165
Probable space group: C C
;
_chemical_formula_sum "Si O2"
_cell_formula_units_Z 32
_cell_length_a 5.388803
_cell_length_b 32.152270
_cell_length_c 7.586954
_cell_angle_alpha 90.000000
_cell_angle_beta 67.675516
_cell_angle_gamma 90.000000
_cell_volume 1216.005177
_symmetry_space_group_name_H-M "C C"
_symmetry_group_IT_number 9
_symmetry_cell_setting 'monoclinic'
loop_
_space_group_symop_operation_xyz
x,y,z
x,-y,1/2+z
1/2+x,1/2+y,z
1/2+x,1/2-y,1/2+z
loop_
_atom_site_type_symbol
_atom_site_label
_atom_site_fract_x
_atom_site_fract_y
_atom_site_fract_z
Si Si1 0.030650 0.290907 0.458510
Si Si2 0.047971 0.469008 0.742218
Si Si3 0.097373 0.155630 0.074798
Si Si4 0.893399 0.559450 0.675366
Si Si5 0.419836 0.593901 0.622628
Si Si6 0.329659 0.741719 0.205985
Si Si7 0.066411 0.180464 0.679191
Si Si8 0.564541 0.435217 0.709796
O O1 0.109022 0.276437 0.630470
O O2 0.289859 0.293317 0.262411
O O3 0.912699 0.336616 0.513695
O O4 0.825456 0.260775 0.405552
O O5 0.943851 0.515870 0.756548
O O6 0.370659 0.465849 0.654356
O O7 0.879405 0.445660 0.635617
O O8 0.977337 0.448220 0.948845
O O9 0.005824 0.111422 0.163069
O O10 0.982274 0.197642 0.196824
O O11 0.054920 0.161403 0.878862
O O12 0.097466 0.592545 0.707174
O O13 0.587122 0.574576 0.739940
O O14 0.538816 0.640510 0.563269
O O15 0.484840 0.565209 0.436888
O O16 0.320560 0.788246 0.106759
#
# Coordination Sequence:
#
# PCOD9137165 Si02
#       8
#     4   4   4   4   4   4   4   4
#     4  10  22  42  60  92 126 164 222 268 324 388
#     4  10  22  41  64  93 127 161 208 257 319 389
#     4  10  23  40  62  90 127 164 218 264 322 382
#     4  10  22  41  64  93 127 161 208 257 319 389
#     4  10  23  41  63  95 127 166 210 262 319 388
#     4  10  22  40  60  90 124 166 216 268 318 386
#     4  10  23  40  62  90 127 164 218 264 322 382
#     4  10  23  41  63  95 127 166 210 262 319 388
#
# _framework density 26.315676
#
# number of rings (size 3 to 8) (size 9 to 14) (size 15 to 20)
#    0.000    2.000    0.000    1.500    8.750    2.000 
#    0.000    0.000    0.000    0.000    0.000    0.000 
#    0.000    0.000    0.000    0.000    0.000    0.000 
#
# Total GULP energy -89111.925428 kJ/mol
# GULP energy per Si atom -5569.495339 kJ/mol
# Density = 2.625578 g / cm^3
# Si number density = 26.315676 Si / 1000 Ang^3
#
#
#
# Elastic Constant Matrix: (Units=GPa)
#
#
# Indices 1 2 3 4 5 6 
#
# 1 169.8555 57.4522 25.1804 0.0000 29.7255 0.0000
# 2 57.4522 140.7256 12.9337 0.0000 14.8872 0.0000
# 3 25.1804 12.9337 41.9680 0.0000 12.9083 0.0000
# 4 0.0000 0.0000 0.0000 30.8347 0.0000 15.0346
# 5 29.7255 14.8872 12.9083 0.0000 18.0932 0.0000
# 6 0.0000 0.0000 0.0000 15.0346 0.0000 40.3442
#
#
#
# Elastic Compliance Matrix: (Units=1/GPa)
#
#
# Indices 1 2 3 4 5 6 
#
# 1 0.008913 -0.002272 -0.000921 0.000000 -0.012117 0.000000
# 2 -0.002272 0.008373 -0.000315 0.000000 -0.002931 0.000000
# 3 -0.000921 -0.000315 0.030660 0.000000 -0.020102 0.000000
# 4 0.000000 0.000000 0.000000 0.039632 0.000000 -0.014769
# 5 -0.012117 -0.002931 -0.020102 0.000000 0.091929 0.000000
# 6 0.000000 0.000000 0.000000 -0.014769 0.000000 0.030291
#
#
# Mechanical properties :
#
#
# Convention : Reuss Voigt Hill
#
# Bulk Modulus (GPa) = 24.43262 60.40908 42.42085
# Shear Modulus (GPa) = 21.69597 34.98659 28.34128
#
# Velocity S-wave (km/s) = 2.87444 3.65018 3.28529
# Velocity P-wave (km/s) = 4.50790 6.38518 5.52683
#
# Compressibility (1/GPa) = 0.04092889
#
# Stress axis : x y z
#
# Youngs Moduli (GPa) = 112.19694 119.43479 32.61573
#
# Poissons Ratio (x) = 0.27140 0.03003
# Poissons Ratio (y) = 0.25495 0.01029
# Poissons Ratio (z) = 0.10329 0.03768
#
# Static dielectric constant tensor:
#      x y z
#    x 2.223210 0.000000 -0.130730 
#    y 0.000000 2.051880 0.000000 
#    z -0.130730 0.000000 2.102080 
# 
# From -- ./inp_files/4379.got.cif
#   From: 2010.05.17/outbox.cif.g08.bks.cpg/sg9_3_cif.got.tgz:4379.got - 2010.06.03 20:04:27.
