data_PCOD9137235
_publ_section_title
;
Structure prediction by ZEFSAII (Michael W. Deem and Ramdas Pophale) SiO2 
 PCOD9137235
Probable space group: C C
;
_chemical_formula_sum "Si O2"
_cell_formula_units_Z 28
_cell_length_a 18.761754
_cell_length_b 4.643120
_cell_length_c 12.471408
_cell_angle_alpha 90.000000
_cell_angle_beta 113.542104
_cell_angle_gamma 90.000000
_cell_volume 995.996270
_symmetry_space_group_name_H-M "C C"
_symmetry_group_IT_number 9
_symmetry_cell_setting 'monoclinic'
loop_
_space_group_symop_operation_xyz
x,y,z
x,-y,1/2+z
1/2+x,1/2+y,z
1/2+x,1/2-y,1/2+z
loop_
_atom_site_type_symbol
_atom_site_label
_atom_site_fract_x
_atom_site_fract_y
_atom_site_fract_z
Si Si1 0.865760 0.307308 0.131560
Si Si2 0.282922 0.390319 0.378592
Si Si3 0.017397 0.188122 0.101954
Si Si4 0.578741 0.623499 0.841969
Si Si5 0.250383 0.935383 0.223217
Si Si6 0.623264 0.081137 0.010898
Si Si7 0.430081 0.600059 0.855198
O O1 0.808868 0.525224 0.160096
O O2 0.946407 0.360007 0.117075
O O3 0.896055 0.115031 0.248195
O O4 0.806396 0.147824 0.014683
O O5 0.278937 0.709731 0.331748
O O6 0.358086 0.241768 0.365477
O O7 0.219564 0.198418 0.278506
O O8 0.062330 0.985446 0.212814
O O9 0.071928 0.399614 0.065718
O O10 0.972573 0.987978 0.988177
O O11 0.642675 0.845138 0.927095
O O12 0.496921 0.767228 0.831593
O O13 0.587841 0.335065 0.916909
O O14 0.187173 0.747980 0.119517
#
# Coordination Sequence:
#
# PCOD9137235 Si02
#       7
#     4   4   4   4   4   4   4
#     4   9  20  40  67  97 132 173 221 277 341 404
#     4  10  22  40  66  94 128 175 222 275 336 402
#     4   9  20  40  68 100 135 177 225 281 345 406
#     4  10  22  40  66  97 136 181 226 280 344 407
#     4  11  24  43  64  94 133 174 226 279 332 402
#     4  11  24  43  64  96 138 180 228 284 339 407
#     4   8  18  38  63  96 130 164 218 280 331 390
#
# _framework density 28.112556000000001
#
# number of rings (size 3 to 8) (size 9 to 14) (size 15 to 20)
#    0.000    2.286    0.000    0.857    0.000   16.000 
#    0.000   18.571    0.000    0.000    0.000    0.000 
#    0.000    0.000    0.000    0.000    0.000    0.000 
#
# Total GULP energy -78093.655217 kJ/mol
# GULP energy per Si atom -5578.118230 kJ/mol
# Density = 2.804857 g / cm^3
# Si number density = 28.112556 Si / 1000 Ang^3
#
#
#
# Elastic Constant Matrix: (Units=GPa)
#
#
# Indices 1 2 3 4 5 6 
#
# 1 72.0049 -6.3414 13.8009 -0.0001 -12.8459 0.0000
# 2 -6.3414 126.4378 49.2592 -0.0003 -6.9603 0.0000
# 3 13.8009 49.2592 200.5472 0.0000 -18.2025 0.0000
# 4 -0.0001 -0.0003 0.0000 42.7184 0.0000 -16.2916
# 5 -12.8459 -6.9603 -18.2025 0.0000 30.7271 0.0000
# 6 0.0000 0.0000 0.0000 -16.2916 0.0000 11.0928
#
#
#
# Elastic Compliance Matrix: (Units=1/GPa)
#
#
# Indices 1 2 3 4 5 6 
#
# 1 0.015285 0.001436 -0.000840 0.000000 0.006218 0.000000
# 2 0.001436 0.008897 -0.002163 0.000000 0.001334 0.000000
# 3 -0.000840 -0.002163 0.005812 0.000000 0.002601 0.000000
# 4 0.000000 0.000000 0.000000 0.053216 0.000000 0.078156
# 5 0.006218 0.001334 0.002601 0.000000 0.036987 0.000000
# 6 0.000000 0.000000 0.000000 0.078156 0.000000 0.204934
#
#
# Mechanical properties :
#
#
# Convention : Reuss Voigt Hill
#
# Bulk Modulus (GPa) = 37.23102 56.93634 47.08368
# Shear Modulus (GPa) = 14.82722 39.72576 27.27649
#
# Velocity S-wave (km/s) = 2.29906 3.76320 3.11828
# Velocity P-wave (km/s) = 4.50776 6.25933 5.45431
#
# Compressibility (1/GPa) = 0.02685932
#
# Stress axis : x y z
#
# Youngs Moduli (GPa) = 65.42477 112.39440 172.06943
#
# Poissons Ratio (x) = -0.16142 0.14459
# Poissons Ratio (y) = -0.09397 0.37220
# Poissons Ratio (z) = 0.05497 0.24312
#
# Static dielectric constant tensor:
#      x y z
#    x 2.465330 0.000000 0.110560 
#    y 0.000000 2.209970 0.000000 
#    z 0.110560 0.000000 2.229870 
# 
# From -- ./inp_files/19748.got.cif
#   From: 2010.05.17/outbox.cif.g08.bks.cpg/sg9_10_cif.got.tgz:19748.got - 2010.06.03 20:04:27.
