data_PCOD9137827
_publ_section_title
;
Structure prediction by ZEFSAII (Michael W. Deem and Ramdas Pophale) SiO2 
 PCOD9137827
Probable space group: C C
;
_chemical_formula_sum "Si O2"
_cell_formula_units_Z 32
_cell_length_a 10.184607
_cell_length_b 15.141627
_cell_length_c 9.758874
_cell_angle_alpha 90.000000
_cell_angle_beta 58.104159
_cell_angle_gamma 90.000000
_cell_volume 1277.701361
_symmetry_space_group_name_H-M "C C"
_symmetry_group_IT_number 9
_symmetry_cell_setting 'monoclinic'
loop_
_space_group_symop_operation_xyz
x,y,z
x,-y,1/2+z
1/2+x,1/2+y,z
1/2+x,1/2-y,1/2+z
loop_
_atom_site_type_symbol
_atom_site_label
_atom_site_fract_x
_atom_site_fract_y
_atom_site_fract_z
Si Si1 0.468840 0.809270 0.974170
Si Si2 0.047352 0.654509 0.950953
Si Si3 0.369832 0.763706 0.317081
Si Si4 0.845936 0.489232 0.088511
Si Si5 0.387612 0.528140 0.639144
Si Si6 0.258271 0.588741 0.446215
Si Si7 0.905950 0.209911 0.739253
Si Si8 0.174789 0.921671 0.448291
O O1 0.481493 0.747252 0.836137
O O2 0.615951 0.860043 0.956855
O O3 0.390353 0.758836 0.143904
O O4 0.368168 0.896926 0.995869
O O5 0.996074 0.676413 0.823915
O O6 0.225022 0.685590 0.867940
O O7 0.995584 0.553696 0.010781
O O8 0.938852 0.714549 0.108974
O O9 0.381752 0.668618 0.378065
O O10 0.210721 0.817754 0.429578
O O11 0.789218 0.462208 0.270502
O O12 0.719656 0.543757 0.073607
O O13 0.316221 0.484484 0.811270
O O14 0.470034 0.618214 0.642574
O O15 0.506263 0.458214 0.509362
O O16 0.257429 0.551206 0.599031
#
# Coordination Sequence:
#
# PCOD9137827 Si02
#       8
#     4   4   4   4   4   4   4   4
#     4  11  27  45  73 105 154 194 261 313 395 461
#     4  11  25  47  77 108 154 205 261 323 396 465
#     4  10  25  47  73 105 152 202 252 315 392 469
#     4  10  22  44  72 105 145 198 255 310 381 466
#     4  12  28  48  79 113 161 196 270 320 402 460
#     4  12  28  47  72 109 153 204 251 330 384 469
#     4  12  28  46  77 116 153 204 264 327 392 473
#     4  10  23  44  75 109 146 201 252 320 384 463
#
# _framework density 25.044975000000001
#
# number of rings (size 3 to 8) (size 9 to 14) (size 15 to 20)
#    0.000    1.000    1.250    3.000    8.750    5.000 
#    0.000    0.000    0.000    0.000    0.000    0.000 
#    0.000    0.000    0.000    0.000    0.000    0.000 
#
# Total GULP energy -89564.977549 kJ/mol
# GULP energy per Si atom -5597.811097 kJ/mol
# Density = 2.498797 g / cm^3
# Si number density = 25.044975 Si / 1000 Ang^3
#
#
#
# Elastic Constant Matrix: (Units=GPa)
#
#
# Indices 1 2 3 4 5 6 
#
# 1 114.0577 28.2605 28.1764 0.0000 10.8972 0.0000
# 2 28.2605 118.9316 37.8439 0.0000 15.4312 0.0000
# 3 28.1764 37.8439 65.0329 0.0000 20.0849 0.0000
# 4 0.0000 0.0000 0.0000 45.9093 0.0000 2.4852
# 5 10.8972 15.4312 20.0849 0.0000 51.8827 0.0000
# 6 0.0000 0.0000 0.0000 2.4852 0.0000 37.4642
#
#
#
# Elastic Compliance Matrix: (Units=1/GPa)
#
#
# Indices 1 2 3 4 5 6 
#
# 1 0.009967 -0.001206 -0.003499 0.000000 -0.000380 0.000000
# 2 -0.001206 0.010497 -0.005339 0.000000 -0.000802 0.000000
# 3 -0.003499 -0.005339 0.021901 0.000000 -0.006155 0.000000
# 4 0.000000 0.000000 0.000000 0.021861 0.000000 -0.001450
# 5 -0.000380 -0.000802 -0.006155 0.000000 0.021976 0.000000
# 6 0.000000 0.000000 0.000000 -0.001450 0.000000 0.026788
#
#
# Mechanical properties :
#
#
# Convention : Reuss Voigt Hill
#
# Bulk Modulus (GPa) = 44.88708 54.06485 49.47597
# Shear Modulus (GPa) = 35.58650 40.63402 38.11026
#
# Velocity S-wave (km/s) = 3.77358 4.03232 3.90509
# Velocity P-wave (km/s) = 6.07849 6.58130 6.33488
#
# Compressibility (1/GPa) = 0.02227812
#
# Stress axis : x y z
#
# Youngs Moduli (GPa) = 100.33119 95.26093 45.66070
#
# Poissons Ratio (x) = 0.11484 0.15979
# Poissons Ratio (y) = 0.12095 0.24376
# Poissons Ratio (z) = 0.35110 0.50856
#
# Static dielectric constant tensor:
#      x y z
#    x 2.041340 0.000000 -0.100700 
#    y 0.000000 1.978980 0.000000 
#    z -0.100700 0.000000 1.954110 
# 
# From -- ./inp_files/18446.got.cif
#   From: 2010.05.17/outbox.cif.g08.bks.cpg/sg9_10_cif.got.tgz:18446.got - 2010.06.03 20:04:27.
