data_PCOD9137274
_publ_section_title
;
Structure prediction by ZEFSAII (Michael W. Deem and Ramdas Pophale) SiO2 
 PCOD9137274
Probable space group: C C
;
_chemical_formula_sum "Si O2"
_cell_formula_units_Z 32
_cell_length_a 13.467442
_cell_length_b 20.182169
_cell_length_c 8.300284
_cell_angle_alpha 90.000000
_cell_angle_beta 41.932133
_cell_angle_gamma 90.000000
_cell_volume 1507.595367
_symmetry_space_group_name_H-M "C C"
_symmetry_group_IT_number 9
_symmetry_cell_setting 'monoclinic'
loop_
_space_group_symop_operation_xyz
x,y,z
x,-y,1/2+z
1/2+x,1/2+y,z
1/2+x,1/2-y,1/2+z
loop_
_atom_site_type_symbol
_atom_site_label
_atom_site_fract_x
_atom_site_fract_y
_atom_site_fract_z
Si Si1 0.637400 0.418824 0.868090
Si Si2 0.436421 0.039342 0.829258
Si Si3 0.509269 0.715758 0.598605
Si Si4 0.450121 0.898824 0.957230
Si Si5 0.644985 0.636019 0.700401
Si Si6 0.230844 0.448841 0.174598
Si Si7 0.682608 0.831060 0.469971
Si Si8 0.911759 0.957517 0.641104
O O1 0.950241 0.431379 0.133686
O O2 0.678754 0.411432 0.006123
O O3 0.571031 0.345164 0.915130
O O4 0.517380 0.477545 0.007682
O O5 0.573846 0.059977 0.776363
O O6 0.853724 0.058999 0.387742
O O7 0.447143 0.959922 0.833800
O O8 0.578862 0.699858 0.690987
O O9 0.573491 0.787921 0.487152
O O10 0.333218 0.709727 0.817423
O O11 0.589225 0.854069 0.737837
O O12 0.295520 0.859242 0.118694
O O13 0.779362 0.437210 0.591869
O O14 0.511336 0.601543 0.955787
O O15 0.234602 0.396666 0.313783
O O16 0.270881 0.520625 0.202320
#
# Coordination Sequence:
#
# PCOD9137274 Si02
#       8
#     4   4   4   4   4   4   4   4
#     4  10  22  43  65 100 135 173 215 274 334 406
#     4  12  26  39  66 106 143 168 222 271 347 397
#     4  10  25  45  74  92 132 182 232 268 335 403
#     4  12  25  40  66 101 140 180 215 278 328 403
#     4  10  22  40  69  95 138 174 217 266 337 397
#     4  12  25  39  68 100 140 174 220 278 333 399
#     4  12  25  47  71  96 130 185 231 275 329 400
#     4  12  22  41  67 108 134 172 214 276 349 395
#
# _framework density 21.225854000000002
#
# number of rings (size 3 to 8) (size 9 to 14) (size 15 to 20)
#    0.750    0.000    3.750    4.500    7.000    0.000 
#    0.000    1.250    2.750    0.000    0.000    0.000 
#    0.000    0.000    0.000    0.000    0.000    0.000 
#
# Total GULP energy -89336.352449 kJ/mol
# GULP energy per Si atom -5583.522028 kJ/mol
# Density = 2.117754 g / cm^3
# Si number density = 21.225854 Si / 1000 Ang^3
#
#
#
# Elastic Constant Matrix: (Units=GPa)
#
#
# Indices 1 2 3 4 5 6 
#
# 1 75.0017 -16.2821 35.4491 0.0000 -15.5523 0.0000
# 2 -16.2821 40.3848 42.1128 0.0000 -8.1996 0.0000
# 3 35.4491 42.1128 159.6364 0.0000 -13.8515 0.0000
# 4 0.0000 0.0000 0.0000 29.3553 0.0000 -10.2913
# 5 -15.5523 -8.1996 -13.8515 0.0000 35.4662 0.0000
# 6 0.0000 0.0000 0.0000 -10.2913 0.0000 26.8779
#
#
#
# Elastic Compliance Matrix: (Units=1/GPa)
#
#
# Indices 1 2 3 4 5 6 
#
# 1 0.027312 0.025994 -0.011760 0.000000 0.013393 0.000000
# 2 0.025994 0.059617 -0.019992 0.000000 0.017374 0.000000
# 3 -0.011760 -0.019992 0.013768 0.000000 -0.004402 0.000000
# 4 0.000000 0.000000 0.000000 0.039347 0.000000 0.015066
# 5 0.013393 0.017374 -0.004402 0.000000 0.036366 0.000000
# 6 0.000000 0.000000 0.000000 0.015066 0.000000 0.042974
#
#
# Mechanical properties :
#
#
# Convention : Reuss Voigt Hill
#
# Bulk Modulus (GPa) = 11.21330 44.17580 27.69455
# Shear Modulus (GPa) = 19.18459 32.58942 25.88700
#
# Velocity S-wave (km/s) = 3.00964 3.92262 3.49606
# Velocity P-wave (km/s) = 4.16792 6.43222 5.41964
#
# Compressibility (1/GPa) = 0.08917983
#
# Stress axis : x y z
#
# Youngs Moduli (GPa) = 36.61456 16.77384 72.63397
#
# Poissons Ratio (x) = -0.43602 0.85418
# Poissons Ratio (y) = -0.95175 1.45209
# Poissons Ratio (z) = 0.43059 0.33534
#
# Static dielectric constant tensor:
#      x y z
#    x 1.798720 0.000000 -0.038430 
#    y 0.000000 1.778820 0.000000 
#    z -0.038430 0.000000 1.764340 
# 
# From -- ./inp_files/19492.got.cif
#   From: 2010.05.17/outbox.cif.g08.bks.cpg/sg9_10_cif.got.tgz:19492.got - 2010.06.03 20:04:27.
