data_PCOD9137510
_publ_section_title
;
Structure prediction by ZEFSAII (Michael W. Deem and Ramdas Pophale) SiO2 
 PCOD9137510
Probable space group: C C
;
_chemical_formula_sum "Si O2"
_cell_formula_units_Z 32
_cell_length_a 16.602183
_cell_length_b 12.022973
_cell_length_c 13.880578
_cell_angle_alpha 90.000000
_cell_angle_beta 147.476444
_cell_angle_gamma 90.000000
_cell_volume 1489.639864
_symmetry_space_group_name_H-M "C C"
_symmetry_group_IT_number 9
_symmetry_cell_setting 'monoclinic'
loop_
_space_group_symop_operation_xyz
x,y,z
x,-y,1/2+z
1/2+x,1/2+y,z
1/2+x,1/2-y,1/2+z
loop_
_atom_site_type_symbol
_atom_site_label
_atom_site_fract_x
_atom_site_fract_y
_atom_site_fract_z
Si Si1 0.862480 0.873862 0.603220
Si Si2 0.222308 0.844031 0.409321
Si Si3 0.155084 0.787642 0.790331
Si Si4 0.427558 0.459735 0.876791
Si Si5 0.906693 0.617659 0.272141
Si Si6 0.876085 0.885262 0.038384
Si Si7 0.714691 0.173473 0.653162
Si Si8 0.755313 0.503575 0.276187
O O1 0.735330 0.783701 0.453710
O O2 0.906981 0.888805 0.759264
O O3 0.000200 0.834479 0.674766
O O4 0.821180 0.997168 0.524248
O O5 0.325599 0.907679 0.590658
O O6 0.271327 0.716375 0.460695
O O7 0.045889 0.864537 0.248363
O O8 0.261454 0.892778 0.344260
O O9 0.144499 0.708018 0.685849
O O10 0.246632 0.894394 0.843372
O O11 0.319453 0.566433 0.765173
O O12 0.390741 0.394860 0.937909
O O13 0.597520 0.503362 0.059851
O O14 0.813933 0.723009 0.219421
O O15 0.883870 0.521930 0.328264
O O16 0.078732 0.650203 0.444009
#
# Coordination Sequence:
#
# PCOD9137510 Si02
#       8
#     4   4   4   4   4   4   4   4
#     4  12  24  43  71 103 138 183 234 289 353 419
#     4  11  23  43  66  92 137 178 226 278 353 410
#     4  11  21  44  69  98 139 183 228 289 352 417
#     4  11  23  43  66  98 139 177 228 286 353 410
#     4  11  22  37  67  97 126 172 234 275 337 414
#     4  11  24  45  66  95 136 182 224 291 346 419
#     4  11  21  41  67  98 132 175 229 289 335 417
#     4  10  22  42  68  95 135 184 227 287 347 420
#
# _framework density 21.481701999999999
#
# number of rings (size 3 to 8) (size 9 to 14) (size 15 to 20)
#    0.000    1.000    3.750    5.250    0.000    3.000 
#    6.750    0.000    0.000    0.000    0.000    0.000 
#    0.000    0.000    0.000    0.000    0.000    0.000 
#
# Total GULP energy -89524.959831 kJ/mol
# GULP energy per Si atom -5595.309989 kJ/mol
# Density = 2.143281 g / cm^3
# Si number density = 21.481702 Si / 1000 Ang^3
#
#
#
# Elastic Constant Matrix: (Units=GPa)
#
#
# Indices 1 2 3 4 5 6 
#
# 1 61.2128 9.5401 19.2475 0.0000 -13.2141 0.0000
# 2 9.5401 73.6018 32.9533 0.0000 -2.4776 0.0000
# 3 19.2475 32.9533 93.0451 0.0000 -21.2664 0.0000
# 4 0.0000 0.0000 0.0000 35.4026 0.0000 0.2487
# 5 -13.2141 -2.4776 -21.2664 0.0000 26.1494 0.0000
# 6 0.0000 0.0000 0.0000 0.2487 0.0000 29.6557
#
#
#
# Elastic Compliance Matrix: (Units=1/GPa)
#
#
# Indices 1 2 3 4 5 6 
#
# 1 0.018797 -0.001491 -0.001501 0.000000 0.008137 0.000000
# 2 -0.001491 0.016584 -0.006606 0.000000 -0.004555 0.000000
# 3 -0.001501 -0.006606 0.016068 0.000000 0.011683 0.000000
# 4 0.000000 0.000000 0.000000 0.028248 0.000000 -0.000237
# 5 0.008137 -0.004555 0.011683 0.000000 0.051424 0.000000
# 6 0.000000 0.000000 0.000000 -0.000237 0.000000 0.033722
#
#
# Mechanical properties :
#
#
# Convention : Reuss Voigt Hill
#
# Bulk Modulus (GPa) = 31.00352 39.03793 35.02073
# Shear Modulus (GPa) = 25.66864 29.31612 27.49238
#
# Velocity S-wave (km/s) = 3.46049 3.69819 3.58132
# Velocity P-wave (km/s) = 5.51639 6.03719 5.78265
#
# Compressibility (1/GPa) = 0.03225440
#
# Stress axis : x y z
#
# Youngs Moduli (GPa) = 53.19935 60.29808 62.23579
#
# Poissons Ratio (x) = 0.08988 0.09339
# Poissons Ratio (y) = 0.07930 0.41114
# Poissons Ratio (z) = 0.07983 0.39834
#
# Static dielectric constant tensor:
#      x y z
#    x 1.785650 0.000000 -0.023330 
#    y 0.000000 1.764470 0.000000 
#    z -0.023330 0.000000 1.777150 
# 
# From -- ./inp_files/9071.got.cif
#   From: 2010.05.17/outbox.cif.g08.bks.cpg/sg9_5_cif.got.tgz:9071.got - 2010.06.03 20:04:27.
