data_PCOD9137626
_publ_section_title
;
Structure prediction by ZEFSAII (Michael W. Deem and Ramdas Pophale) SiO2 
 PCOD9137626
Probable space group: C C
;
_chemical_formula_sum "Si O2"
_cell_formula_units_Z 28
_cell_length_a 14.375378
_cell_length_b 12.124850
_cell_length_c 21.755424
_cell_angle_alpha 90.000000
_cell_angle_beta 160.334650
_cell_angle_gamma 90.000000
_cell_volume 1276.090901
_symmetry_space_group_name_H-M "C C"
_symmetry_group_IT_number 9
_symmetry_cell_setting 'monoclinic'
loop_
_space_group_symop_operation_xyz
x,y,z
x,-y,1/2+z
1/2+x,1/2+y,z
1/2+x,1/2-y,1/2+z
loop_
_atom_site_type_symbol
_atom_site_label
_atom_site_fract_x
_atom_site_fract_y
_atom_site_fract_z
Si Si1 0.178280 0.754863 0.688060
Si Si2 0.501591 0.427232 0.671623
Si Si3 0.054095 0.739475 0.791285
Si Si4 0.117792 0.820453 0.122218
Si Si5 0.224685 0.818890 0.574654
Si Si6 0.662792 0.341774 0.294202
Si Si7 0.681158 0.998799 0.357665
O O1 0.196076 0.861636 0.744187
O O2 0.215870 0.790180 0.641137
O O3 0.860902 0.716972 0.498434
O O4 0.419152 0.672549 0.857118
O O5 0.410633 0.333147 0.661884
O O6 0.646365 0.528274 0.795375
O O7 0.262872 0.479540 0.480412
O O8 0.120209 0.624543 0.797075
O O9 0.865536 0.706311 0.730855
O O10 0.205174 0.828683 0.247367
O O11 0.897441 0.721938 0.977326
O O12 0.945957 0.932161 0.997944
O O13 0.377766 0.718183 0.635162
O O14 0.416435 0.925011 0.685080
#
# Coordination Sequence:
#
# PCOD9137626 Si02
#       7
#     4   4   4   4   4   4   4
#     4  11  23  40  69 103 138 180 236 290 348 415
#     4  10  22  43  67 102 138 179 236 271 368 415
#     4  11  24  41  69 106 142 183 234 299 351 415
#     4  10  23  42  72  97 138 182 241 286 354 423
#     4  11  22  44  74 100 140 183 243 290 342 426
#     4  10  23  44  70  98 130 187 233 286 352 416
#     4   9  23  42  69 100 132 194 233 284 353 416
#
# _framework density 21.942011000000001
#
# number of rings (size 3 to 8) (size 9 to 14) (size 15 to 20)
#    0.000    1.714    1.429    2.571   10.000    1.143 
#    0.000   10.000    0.000    0.000    0.000    0.000 
#    0.000    0.000    0.000    0.000    0.000    0.000 
#
# Total GULP energy -78220.481193 kJ/mol
# GULP energy per Si atom -5587.177228 kJ/mol
# Density = 2.189207 g / cm^3
# Si number density = 21.942011 Si / 1000 Ang^3
#
#
#
# Elastic Constant Matrix: (Units=GPa)
#
#
# Indices 1 2 3 4 5 6 
#
# 1 103.0348 31.4830 17.4662 -0.0100 24.6805 -0.0346
# 2 31.4830 119.3232 31.5363 0.0466 -4.4373 0.0065
# 3 17.4662 31.5363 112.5588 0.0614 15.1461 -0.0683
# 4 -0.0100 0.0466 0.0614 26.2543 -0.0089 -9.2159
# 5 24.6805 -4.4373 15.1461 -0.0089 27.8315 -0.0301
# 6 -0.0346 0.0065 -0.0683 -9.2159 -0.0301 28.5646
#
#
#
# Elastic Compliance Matrix: (Units=1/GPa)
#
#
# Indices 1 2 3 4 5 6 
#
# 1 0.014249 -0.004518 0.000919 0.000010 -0.013857 0.000009
# 2 -0.004518 0.010729 -0.003317 -0.000015 0.007522 -0.000013
# 3 0.000919 -0.003317 0.010630 -0.000016 -0.007129 0.000015
# 4 0.000010 -0.000015 -0.000016 0.042954 0.000026 0.013858
# 5 -0.013857 0.007522 -0.007129 0.000026 0.053297 0.000029
# 6 0.000009 -0.000013 0.000015 0.013858 0.000029 0.039480
#
#
# Mechanical properties :
#
#
# Convention : Reuss Voigt Hill
#
# Bulk Modulus (GPa) = 45.91989 55.09866 50.50927
# Shear Modulus (GPa) = 25.98351 33.49216 29.73783
#
# Velocity S-wave (km/s) = 3.44494 3.91115 3.68542
# Velocity P-wave (km/s) = 6.06603 6.74994 6.41710
#
# Compressibility (1/GPa) = 0.02177706
#
# Stress axis : x y z
#
# Youngs Moduli (GPa) = 70.17918 93.20485 94.07057
#
# Poissons Ratio (x) = 0.42109 -0.08647
# Poissons Ratio (y) = 0.31706 0.31205
# Poissons Ratio (z) = -0.06451 0.30918
#
# Static dielectric constant tensor:
#      x y z
#    x 1.811530 0.000000 0.000610 
#    y 0.000000 1.815600 -0.000030 
#    z 0.000610 -0.000030 1.844610 
# 
# From -- ./inp_files/35629.got.cif
#   From: 2010.05.17/outbox.cif.g08.bks.cpg/sg9_18_cif.got.tgz:35629.got - 2010.06.03 20:04:27.
