data_PCOD9137498
_publ_section_title
;
Structure prediction by ZEFSAII (Michael W. Deem and Ramdas Pophale) SiO2 
 PCOD9137498
Probable space group: C C
;
_chemical_formula_sum "Si O2"
_cell_formula_units_Z 24
_cell_length_a 7.482950
_cell_length_b 12.200240
_cell_length_c 14.307525
_cell_angle_alpha 90.000000
_cell_angle_beta 126.679241
_cell_angle_gamma 90.000000
_cell_volume 1047.552581
_symmetry_space_group_name_H-M "C C"
_symmetry_group_IT_number 9
_symmetry_cell_setting 'monoclinic'
loop_
_space_group_symop_operation_xyz
x,y,z
x,-y,1/2+z
1/2+x,1/2+y,z
1/2+x,1/2-y,1/2+z
loop_
_atom_site_type_symbol
_atom_site_label
_atom_site_fract_x
_atom_site_fract_y
_atom_site_fract_z
Si Si1 0.695910 0.371972 0.666080
Si Si2 0.322007 0.772150 0.359122
Si Si3 0.068677 0.541368 0.830163
Si Si4 0.371267 0.646307 0.775755
Si Si5 0.478830 0.813107 0.592817
Si Si6 0.744460 0.994650 0.571980
O O1 0.858683 0.476315 0.725484
O O2 0.770577 0.268730 0.752973
O O3 0.750732 0.327987 0.579611
O O4 0.452396 0.413882 0.615985
O O5 0.488709 0.844314 0.349857
O O6 0.455199 0.732105 0.494552
O O7 0.135764 0.846830 0.351788
O O8 0.167288 0.709880 0.233376
O O9 0.261735 0.567552 0.817579
O O10 0.154343 0.470603 0.943655
O O11 0.308936 0.595488 0.655964
O O12 0.561841 0.924883 0.570813
#
# Coordination Sequence:
#
# PCOD9137498 Si02
#       6
#     4   4   4   4   4   4
#     4  11  23  42  67  95 132 175 220 273 333 393
#     4  10  22  42  67  99 135 176 224 273 333 398
#     4  11  23  42  66  96 135 177 222 274 331 395
#     4  11  23  42  67  95 132 175 220 273 333 393
#     4  10  22  42  67  99 135 176 224 273 333 398
#     4  11  23  42  66  96 135 177 222 274 331 395
#
# _framework density 22.910544000000002
#
# number of rings (size 3 to 8) (size 9 to 14) (size 15 to 20)
#    0.000    1.333    3.333    2.000    0.000    6.667 
#    0.000    1.667    0.000    0.000    0.000    0.000 
#    0.000    0.000    0.000    0.000    0.000    0.000 
#
# Total GULP energy -66925.198409 kJ/mol
# GULP energy per Si atom -5577.099867 kJ/mol
# Density = 2.285840 g / cm^3
# Si number density = 22.910544 Si / 1000 Ang^3
#
#
#
# Elastic Constant Matrix: (Units=GPa)
#
#
# Indices 1 2 3 4 5 6 
#
# 1 87.3503 19.5280 22.2065 0.0000 -7.8261 0.0000
# 2 19.5280 36.9390 -4.0518 0.0000 -3.2438 0.0000
# 3 22.2065 -4.0518 94.7678 0.0000 -26.6442 0.0000
# 4 0.0000 0.0000 0.0000 24.4489 0.0000 5.5786
# 5 -7.8261 -3.2438 -26.6442 0.0000 39.8092 0.0000
# 6 0.0000 0.0000 0.0000 5.5786 0.0000 34.8274
#
#
#
# Elastic Compliance Matrix: (Units=1/GPa)
#
#
# Indices 1 2 3 4 5 6 
#
# 1 0.014141 -0.007921 -0.003760 0.000000 -0.000382 0.000000
# 2 -0.007921 0.032084 0.004342 0.000000 0.003963 0.000000
# 3 -0.003760 0.004342 0.014178 0.000000 0.009104 0.000000
# 4 0.000000 0.000000 0.000000 0.042453 0.000000 -0.006800
# 5 -0.000382 0.003963 0.009104 0.000000 0.031461 0.000000
# 6 0.000000 0.000000 0.000000 -0.006800 0.000000 0.029802
#
#
# Mechanical properties :
#
#
# Convention : Reuss Voigt Hill
#
# Bulk Modulus (GPa) = 21.86981 32.71363 27.29172
# Shear Modulus (GPa) = 25.76808 31.90873 28.83841
#
# Velocity S-wave (km/s) = 3.35733 3.73601 3.55172
# Velocity P-wave (km/s) = 4.95937 5.73761 5.36263
#
# Compressibility (1/GPa) = 0.04572513
#
# Stress axis : x y z
#
# Youngs Moduli (GPa) = 70.71828 31.16851 70.52990
#
# Poissons Ratio (x) = 0.24690 0.26516
# Poissons Ratio (y) = 0.56019 -0.30625
# Poissons Ratio (z) = 0.26587 -0.13534
#
# Static dielectric constant tensor:
#      x y z
#    x 1.800190 0.000000 0.001110 
#    y 0.000000 1.868370 0.000000 
#    z 0.001110 0.000000 2.027660 
# 
# From -- ./inp_files/22514.got.cif
#   From: 2010.05.17/outbox.cif.g08.bks.cpg/sg9_12_cif.got.tgz:22514.got - 2010.06.03 20:04:27.
