data_PCOD9137152
_publ_section_title
;
Structure prediction by ZEFSAII (Michael W. Deem and Ramdas Pophale) SiO2 
 PCOD9137152
Probable space group: C C
;
_chemical_formula_sum "Si O2"
_cell_formula_units_Z 32
_cell_length_a 16.839660
_cell_length_b 11.119354
_cell_length_c 7.547638
_cell_angle_alpha 90.000000
_cell_angle_beta 88.635744
_cell_angle_gamma 90.000000
_cell_volume 1412.865479
_symmetry_space_group_name_H-M "C C"
_symmetry_group_IT_number 9
_symmetry_cell_setting 'monoclinic'
loop_
_space_group_symop_operation_xyz
x,y,z
x,-y,1/2+z
1/2+x,1/2+y,z
1/2+x,1/2-y,1/2+z
loop_
_atom_site_type_symbol
_atom_site_label
_atom_site_fract_x
_atom_site_fract_y
_atom_site_fract_z
Si Si1 0.700990 0.338672 0.976960
Si Si2 0.441807 0.857459 0.029465
Si Si3 0.940928 0.864357 0.934830
Si Si4 0.009067 0.886329 0.554007
Si Si5 0.556050 0.799474 0.589604
Si Si6 0.696170 0.610648 0.060093
Si Si7 0.302609 0.758166 0.261184
Si Si8 0.529192 0.008903 0.810436
O O1 0.613323 0.311420 0.055763
O O2 0.704883 0.341934 0.762820
O O3 0.722874 0.471528 0.045000
O O4 0.751844 0.239396 0.083316
O O5 0.464493 0.724552 0.962744
O O6 0.371075 0.841705 0.170608
O O7 0.514669 0.912379 0.137342
O O8 0.442118 0.958809 0.879140
O O9 0.853587 0.845234 0.857275
O O10 0.998652 0.858133 0.761561
O O11 0.967960 0.753589 0.058197
O O12 0.961653 0.991169 0.020810
O O13 0.102573 0.890267 0.510638
O O14 0.569612 0.882080 0.760134
O O15 0.570660 0.898020 0.436261
O O16 0.746818 0.316207 0.413397
#
# Coordination Sequence:
#
# PCOD9137152 Si02
#       8
#     4   4   4   4   4   4   4   4
#     4  12  25  42  71 112 146 185 249 310 378 442
#     4  10  23  41  66  99 138 183 244 288 367 448
#     4  11  24  46  72 104 150 182 253 309 374 448
#     4  11  22  44  74 103 137 190 251 304 368 448
#     4  11  22  44  67 104 138 189 254 306 365 449
#     4  12  23  42  76 105 149 190 243 320 368 431
#     4  11  27  44  65 110 148 190 232 311 386 432
#     4  10  22  39  69  95 136 185 238 298 362 434
#
# _framework density 22.649007000000001
#
# number of rings (size 3 to 8) (size 9 to 14) (size 15 to 20)
#    0.000    1.000    6.250    0.000    5.250    1.000 
#    2.250    2.500    0.000    0.000    0.000    0.000 
#    0.000    0.000    0.000    0.000    0.000    0.000 
#
# Total GULP energy -89141.457127 kJ/mol
# GULP energy per Si atom -5571.341070 kJ/mol
# Density = 2.259746 g / cm^3
# Si number density = 22.649007 Si / 1000 Ang^3
#
#
#
# Elastic Constant Matrix: (Units=GPa)
#
#
# Indices 1 2 3 4 5 6 
#
# 1 85.7844 27.7739 25.0127 0.0000 4.7345 0.0000
# 2 27.7739 97.9842 38.6264 0.0000 1.5728 0.0000
# 3 25.0127 38.6264 109.6035 0.0000 1.8961 0.0000
# 4 0.0000 0.0000 0.0000 34.0968 0.0000 2.4145
# 5 4.7345 1.5728 1.8961 0.0000 30.6664 0.0000
# 6 0.0000 0.0000 0.0000 2.4145 0.0000 30.3491
#
#
#
# Elastic Compliance Matrix: (Units=1/GPa)
#
#
# Indices 1 2 3 4 5 6 
#
# 1 0.013286 -0.002966 -0.001956 0.000000 -0.001778 0.000000
# 2 -0.002966 0.012518 -0.003736 0.000000 0.000047 0.000000
# 3 -0.001956 -0.003736 0.010890 0.000000 -0.000180 0.000000
# 4 0.000000 0.000000 0.000000 0.029494 0.000000 -0.002346
# 5 -0.001778 0.000047 -0.000180 0.000000 0.032892 0.000000
# 6 0.000000 0.000000 0.000000 -0.002346 0.000000 0.033137
#
#
# Mechanical properties :
#
#
# Convention : Reuss Voigt Hill
#
# Bulk Modulus (GPa) = 51.60355 52.91090 52.25723
# Shear Modulus (GPa) = 32.05285 32.48640 32.26962
#
# Velocity S-wave (km/s) = 3.76599 3.79138 3.77871
# Velocity P-wave (km/s) = 6.46094 6.52518 6.49314
#
# Compressibility (1/GPa) = 0.01937851
#
# Stress axis : x y z
#
# Youngs Moduli (GPa) = 75.26754 79.88242 91.82960
#
# Poissons Ratio (x) = 0.23696 0.17960
# Poissons Ratio (y) = 0.22327 0.34304
# Poissons Ratio (z) = 0.14721 0.29841
#
# Static dielectric constant tensor:
#      x y z
#    x 1.931320 0.000000 0.002400 
#    y 0.000000 1.849580 0.000000 
#    z 0.002400 0.000000 2.009600 
# 
# From -- ./inp_files/10548.got.cif
#   From: 2010.05.17/outbox.cif.g08.bks.cpg/sg9_6_cif.got.tgz:10548.got - 2010.06.03 20:04:27.
