data_PCOD9137722
_publ_section_title
;
Structure prediction by ZEFSAII (Michael W. Deem and Ramdas Pophale) SiO2 
 PCOD9137722
Probable space group: C C
;
_chemical_formula_sum "Si O2"
_cell_formula_units_Z 28
_cell_length_a 13.257891
_cell_length_b 7.434423
_cell_length_c 12.726579
_cell_angle_alpha 90.000000
_cell_angle_beta 66.536868
_cell_angle_gamma 90.000000
_cell_volume 1150.674739
_symmetry_space_group_name_H-M "C C"
_symmetry_group_IT_number 9
_symmetry_cell_setting 'monoclinic'
loop_
_space_group_symop_operation_xyz
x,y,z
x,-y,1/2+z
1/2+x,1/2+y,z
1/2+x,1/2-y,1/2+z
loop_
_atom_site_type_symbol
_atom_site_label
_atom_site_fract_x
_atom_site_fract_y
_atom_site_fract_z
Si Si1 0.810410 0.860074 0.272930
Si Si2 0.308854 0.956521 0.318207
Si Si3 0.159309 0.600672 0.204318
Si Si4 0.509041 0.334578 0.039686
Si Si5 0.009416 0.433019 0.097024
Si Si6 0.264159 0.797590 0.997119
Si Si7 0.064792 0.158627 0.894877
O O1 0.787265 0.646989 0.267189
O O2 0.809693 0.858110 0.400224
O O3 0.919735 0.904176 0.161796
O O4 0.709555 0.974166 0.271657
O O5 0.415862 0.881860 0.219717
O O6 0.196844 0.850304 0.355860
O O7 0.325457 0.024583 0.431382
O O8 0.256396 0.725427 0.116720
O O9 0.061163 0.728367 0.288254
O O10 0.114121 0.519723 0.627161
O O11 0.635810 0.342875 0.026190
O O12 0.487450 0.121243 0.044878
O O13 0.512948 0.461735 0.935107
O O14 0.021962 0.279665 0.007059
#
# Coordination Sequence:
#
# PCOD9137722 Si02
#       7
#     4   4   4   4   4   4   4
#     4   9  19  39  64  84 128 158 199 252 307 346
#     4   8  20  44  62  82 127 168 193 254 310 354
#     4  11  21  36  64  97 121 159 206 254 298 364
#     4   9  19  41  62  85 119 167 194 249 306 355
#     4  10  22  44  61  89 129 160 202 254 305 361
#     4   8  18  39  61  83 126 158 196 250 302 354
#     4  11  23  39  66  90 124 162 208 245 310 368
#
# _framework density 24.333548
#
# number of rings (size 3 to 8) (size 9 to 14) (size 15 to 20)
#    0.857    1.714    0.000    1.714    2.000    1.143 
#    7.714    2.857    0.000    0.000    0.000    0.000 
#    0.000    0.000    0.000    0.000    0.000    0.000 
#
# Total GULP energy -78056.326361 kJ/mol
# GULP energy per Si atom -5575.451883 kJ/mol
# Density = 2.427816 g / cm^3
# Si number density = 24.333548 Si / 1000 Ang^3
#
#
#
# Elastic Constant Matrix: (Units=GPa)
#
#
# Indices 1 2 3 4 5 6 
#
# 1 50.2046 6.3330 8.3828 0.0000 -12.2397 0.0000
# 2 6.3330 47.3608 5.8622 0.0000 -3.8211 0.0000
# 3 8.3828 5.8622 127.4057 0.0000 -33.0003 0.0000
# 4 0.0000 0.0000 0.0000 39.7187 0.0000 -11.6926
# 5 -12.2397 -3.8211 -33.0003 0.0000 40.8401 0.0000
# 6 0.0000 0.0000 0.0000 -11.6926 0.0000 17.6864
#
#
#
# Elastic Compliance Matrix: (Units=1/GPa)
#
#
# Indices 1 2 3 4 5 6 
#
# 1 0.021772 -0.002426 0.000393 0.000000 0.006615 0.000000
# 2 -0.002426 0.021580 -0.000631 0.000000 0.000782 0.000000
# 3 0.000393 -0.000631 0.009950 0.000000 0.008098 0.000000
# 4 0.000000 0.000000 0.000000 0.031261 0.000000 0.020667
# 5 0.006615 0.000782 0.008098 0.000000 0.033085 0.000000
# 6 0.000000 0.000000 0.000000 0.020667 0.000000 0.070204
#
#
# Mechanical properties :
#
#
# Convention : Reuss Voigt Hill
#
# Bulk Modulus (GPa) = 20.84503 29.56971 25.20737
# Shear Modulus (GPa) = 23.90387 33.27524 28.58955
#
# Velocity S-wave (km/s) = 3.13763 3.70194 3.43140
# Velocity P-wave (km/s) = 4.65954 5.51821 5.10695
#
# Compressibility (1/GPa) = 0.04797308
#
# Stress axis : x y z
#
# Youngs Moduli (GPa) = 45.93112 46.33898 100.50490
#
# Poissons Ratio (x) = 0.11243 -0.03945
# Poissons Ratio (y) = 0.11144 0.06338
# Poissons Ratio (z) = -0.01803 0.02922
#
# Static dielectric constant tensor:
#      x y z
#    x 1.972930 0.000000 0.023440 
#    y 0.000000 1.983220 0.000000 
#    z 0.023440 0.000000 1.988140 
# 
# From -- ./inp_files/26584.got.cif
#   From: 2010.05.17/outbox.cif.g08.bks.cpg/sg9_14_cif.got.tgz:26584.got - 2010.06.03 20:04:27.
