data_PCOD9137725
_publ_section_title
;
Structure prediction by ZEFSAII (Michael W. Deem and Ramdas Pophale) SiO2 
 PCOD9137725
Probable space group: C C
;
_chemical_formula_sum "Si O2"
_cell_formula_units_Z 28
_cell_length_a 6.412198
_cell_length_b 12.600236
_cell_length_c 16.767018
_cell_angle_alpha 90.000000
_cell_angle_beta 121.882534
_cell_angle_gamma 90.000000
_cell_volume 1150.315625
_symmetry_space_group_name_H-M "C C"
_symmetry_group_IT_number 9
_symmetry_cell_setting 'monoclinic'
loop_
_space_group_symop_operation_xyz
x,y,z
x,-y,1/2+z
1/2+x,1/2+y,z
1/2+x,1/2-y,1/2+z
loop_
_atom_site_type_symbol
_atom_site_label
_atom_site_fract_x
_atom_site_fract_y
_atom_site_fract_z
Si Si1 0.798790 0.839706 0.633060
Si Si2 0.436231 0.646219 0.582374
Si Si3 0.569392 0.494586 0.483673
Si Si4 0.537378 0.005413 0.470447
Si Si5 0.303385 0.717677 0.727060
Si Si6 0.807980 0.839707 0.821061
Si Si7 0.670540 0.853780 0.371748
O O1 0.579179 0.752251 0.586007
O O2 0.724165 0.933573 0.560181
O O3 0.803385 0.872953 0.727060
O O4 0.060802 0.788868 0.662590
O O5 0.600236 0.553878 0.574016
O O6 0.164574 0.620088 0.493641
O O7 0.390965 0.651265 0.667736
O O8 0.442197 0.379912 0.460480
O O9 0.382603 0.566426 0.393940
O O10 0.803383 0.500000 0.477060
O O11 0.506535 0.946121 0.380105
O O12 0.545967 0.788869 0.791531
O O13 0.215805 0.651266 0.786386
O O14 0.027590 0.752252 0.868114
#
# Coordination Sequence:
#
# PCOD9137725 Si02
#       7
#     4   4   4   4   4   4   4
#     4  10  23  42  64  95 132 177 219 278 338 395
#     4  10  23  40  65  93 128 174 219 273 334 392
#     4  11  24  41  65 100 132 173 224 278 332 405
#     4  11  24  41  65 100 132 173 224 278 332 405
#     4  10  22  44  62  92 130 174 224 274 332 400
#     4  10  23  42  64  95 132 177 219 278 338 395
#     4  10  23  40  65  93 128 174 219 273 334 392
#
# _framework density 24.341145000000001
#
# number of rings (size 3 to 8) (size 9 to 14) (size 15 to 20)
#    0.000    1.714    0.000    2.571    2.000   11.429 
#    7.714    0.000    0.000    0.000    0.000    0.000 
#    0.000    0.000    0.000    0.000    0.000    0.000 
#
# Total GULP energy -78156.904893 kJ/mol
# GULP energy per Si atom -5582.636064 kJ/mol
# Density = 2.428574 g / cm^3
# Si number density = 24.341145 Si / 1000 Ang^3
#
#
#
# Elastic Constant Matrix: (Units=GPa)
#
#
# Indices 1 2 3 4 5 6 
#
# 1 207.6198 29.6037 43.7080 0.0000 -10.1944 0.0000
# 2 29.6037 69.2481 40.2381 0.0000 -2.3898 0.0000
# 3 43.7080 40.2381 90.2061 0.0000 -21.4814 0.0000
# 4 0.0000 0.0000 0.0000 44.4099 0.0000 2.9838
# 5 -10.1944 -2.3898 -21.4814 0.0000 44.6021 0.0000
# 6 0.0000 0.0000 0.0000 2.9838 0.0000 29.9654
#
#
#
# Elastic Compliance Matrix: (Units=1/GPa)
#
#
# Indices 1 2 3 4 5 6 
#
# 1 0.005423 -0.001092 -0.002100 0.000000 0.000170 0.000000
# 2 -0.001092 0.020224 -0.009368 0.000000 -0.003678 0.000000
# 3 -0.002100 -0.009368 0.018127 0.000000 0.007749 0.000000
# 4 0.000000 0.000000 0.000000 0.022669 0.000000 -0.002257
# 5 0.000170 -0.003678 0.007749 0.000000 0.025994 0.000000
# 6 0.000000 0.000000 0.000000 -0.002257 0.000000 0.033597
#
#
# Mechanical properties :
#
#
# Convention : Reuss Voigt Hill
#
# Bulk Modulus (GPa) = 53.60804 66.01925 59.81365
# Shear Modulus (GPa) = 31.77181 40.69710 36.23445
#
# Velocity S-wave (km/s) = 3.61677 4.09338 3.86244
# Velocity P-wave (km/s) = 6.28592 7.03721 6.67215
#
# Compressibility (1/GPa) = 0.01865392
#
# Stress axis : x y z
#
# Youngs Moduli (GPa) = 184.41292 49.44539 55.16557
#
# Poissons Ratio (x) = 0.05400 0.11584
# Poissons Ratio (y) = 0.20140 0.51680
# Poissons Ratio (z) = 0.38725 0.46321
#
# Static dielectric constant tensor:
#      x y z
#    x 1.976690 0.000000 0.011430 
#    y 0.000000 1.974860 0.000000 
#    z 0.011430 0.000000 1.974600 
# 
# From -- ./inp_files/28565.got.cif
#   From: 2010.05.17/outbox.cif.g08.bks.cpg/sg9_15_cif.got.tgz:28565.got - 2010.06.03 20:04:27.
