data_PCOD9137289
_publ_section_title
;
Structure prediction by ZEFSAII (Michael W. Deem and Ramdas Pophale) SiO2 
 PCOD9137289
Probable space group: C C
;
_chemical_formula_sum "Si O2"
_cell_formula_units_Z 32
_cell_length_a 15.648347
_cell_length_b 5.681412
_cell_length_c 14.487559
_cell_angle_alpha 90.000000
_cell_angle_beta 109.701210
_cell_angle_gamma 90.000000
_cell_volume 1212.616359
_symmetry_space_group_name_H-M "C C"
_symmetry_group_IT_number 9
_symmetry_cell_setting 'monoclinic'
loop_
_space_group_symop_operation_xyz
x,y,z
x,-y,1/2+z
1/2+x,1/2+y,z
1/2+x,1/2-y,1/2+z
loop_
_atom_site_type_symbol
_atom_site_label
_atom_site_fract_x
_atom_site_fract_y
_atom_site_fract_z
Si Si1 0.241980 0.611233 0.617080
Si Si2 0.588810 0.528807 0.451743
Si Si3 0.266410 0.951740 0.787094
Si Si4 0.591945 0.760907 0.777040
Si Si5 0.712120 0.109796 0.915252
Si Si6 0.432966 0.531533 0.632138
Si Si7 0.549717 0.828765 0.094122
Si Si8 0.925923 0.312034 0.446605
O O1 0.266616 0.846691 0.684183
O O2 0.224242 0.590148 0.499461
O O3 0.340836 0.485623 0.654766
O O4 0.145750 0.525894 0.628582
O O5 0.564525 0.348172 0.364328
O O6 0.681129 0.665352 0.464276
O O7 0.585195 0.391110 0.545519
O O8 0.510466 0.718873 0.420815
O O9 0.276532 0.728876 0.861813
O O10 0.171591 0.089211 0.768499
O O11 0.343016 0.127838 0.850814
O O12 0.499909 0.744656 0.686116
O O13 0.634334 0.008514 0.820166
O O14 0.498167 0.305091 0.657239
O O15 0.405763 0.615704 0.518285
O O16 0.469167 0.961703 0.012404
#
# Coordination Sequence:
#
# PCOD9137289 Si02
#       8
#     4   4   4   4   4   4   4   4
#     4  12  24  47  72 106 144 199 247 302 394 448
#     4  10  22  40  74  94 142 188 235 303 380 423
#     4  11  27  45  74 107 148 195 252 318 377 460
#     4  11  23  45  67 104 145 189 249 309 373 456
#     4  11  24  45  74 102 145 193 248 310 379 456
#     4  11  27  43  71 105 143 194 254 313 377 463
#     4  11  23  47  69 103 146 190 254 313 370 458
#     4  11  24  46  71 103 145 192 247 314 376 442
#
# _framework density 26.389220000000002
#
# number of rings (size 3 to 8) (size 9 to 14) (size 15 to 20)
#    0.000    1.000    3.750    1.500    7.000    1.000 
#    0.000    0.000    0.000    0.000    0.000    0.000 
#    0.000    0.000    0.000    0.000    0.000    0.000 
#
# Total GULP energy -89315.324376 kJ/mol
# GULP energy per Si atom -5582.207773 kJ/mol
# Density = 2.632916 g / cm^3
# Si number density = 26.389220 Si / 1000 Ang^3
#
#
#
# Elastic Constant Matrix: (Units=GPa)
#
#
# Indices 1 2 3 4 5 6 
#
# 1 99.9698 2.8200 34.1236 0.0000 17.3158 0.0000
# 2 2.8200 73.3926 34.3627 0.0000 0.5264 0.0000
# 3 34.1236 34.3627 129.4149 0.0000 15.3526 0.0000
# 4 0.0000 0.0000 0.0000 54.3110 0.0000 -3.1475
# 5 17.3158 0.5264 15.3526 0.0000 37.6364 0.0000
# 6 0.0000 0.0000 0.0000 -3.1475 0.0000 23.5436
#
#
#
# Elastic Compliance Matrix: (Units=1/GPa)
#
#
# Indices 1 2 3 4 5 6 
#
# 1 0.011672 0.000899 -0.002814 0.000000 -0.004235 0.000000
# 2 0.000899 0.015715 -0.004555 0.000000 0.001224 0.000000
# 3 -0.002814 -0.004555 0.010001 0.000000 -0.002721 0.000000
# 4 0.000000 0.000000 0.000000 0.018556 0.000000 0.002481
# 5 -0.004235 0.001224 -0.002721 0.000000 0.029611 0.000000
# 6 0.000000 0.000000 0.000000 0.002481 0.000000 0.042806
#
#
# Mechanical properties :
#
#
# Convention : Reuss Voigt Hill
#
# Bulk Modulus (GPa) = 40.90229 49.48777 45.19503
# Shear Modulus (GPa) = 33.45600 38.52960 35.99280
#
# Velocity S-wave (km/s) = 3.56447 3.82521 3.69714
# Velocity P-wave (km/s) = 5.69858 6.18897 5.94883
#
# Compressibility (1/GPa) = 0.02444851
#
# Stress axis : x y z
#
# Youngs Moduli (GPa) = 85.67766 63.63472 99.98622
#
# Poissons Ratio (x) = -0.05724 0.28136
# Poissons Ratio (y) = -0.07706 0.45544
# Poissons Ratio (z) = 0.24110 0.28986
#
# Static dielectric constant tensor:
#      x y z
#    x 2.108900 0.000000 0.009900 
#    y 0.000000 2.134110 0.000000 
#    z 0.009900 0.000000 2.060990 
# 
# From -- ./inp_files/26481.got.cif
#   From: 2010.05.17/outbox.cif.g08.bks.cpg/sg9_14_cif.got.tgz:26481.got - 2010.06.03 20:04:27.
