data_PCOD9137593
_publ_section_title
;
Structure prediction by ZEFSAII (Michael W. Deem and Ramdas Pophale) SiO2 
 PCOD9137593
Probable space group: C C
;
_chemical_formula_sum "Si O2"
_cell_formula_units_Z 28
_cell_length_a 10.347365
_cell_length_b 11.182712
_cell_length_c 14.712811
_cell_angle_alpha 90.000000
_cell_angle_beta 42.532910
_cell_angle_gamma 90.000000
_cell_volume 1150.874547
_symmetry_space_group_name_H-M "C C"
_symmetry_group_IT_number 9
_symmetry_cell_setting 'monoclinic'
loop_
_space_group_symop_operation_xyz
x,y,z
x,-y,1/2+z
1/2+x,1/2+y,z
1/2+x,1/2-y,1/2+z
loop_
_atom_site_type_symbol
_atom_site_label
_atom_site_fract_x
_atom_site_fract_y
_atom_site_fract_z
Si Si1 0.135100 0.039673 0.088120
Si Si2 0.208702 0.746529 0.764406
Si Si3 0.980573 0.967886 0.848218
Si Si4 0.542006 0.262183 0.339261
Si Si5 0.619124 0.312465 0.998208
Si Si6 0.887783 0.359880 0.073213
Si Si7 0.631926 0.178150 0.607543
O O1 0.299900 0.969074 0.060753
O O2 0.156668 0.181563 0.066605
O O3 0.108777 0.957641 0.012481
O O4 0.957755 0.023646 0.250720
O O5 0.434647 0.725056 0.652038
O O6 0.101469 0.735134 0.915268
O O7 0.123387 0.677161 0.721614
O O8 0.164892 0.884796 0.766841
O O9 0.011358 0.097897 0.870463
O O10 0.811160 0.898957 0.983685
O O11 0.336454 0.216002 0.412216
O O12 0.717171 0.261680 0.177504
O O13 0.562044 0.193185 0.423743
O O14 0.959257 0.376749 0.138907
#
# Coordination Sequence:
#
# PCOD9137593 Si02
#       7
#     4   4   4   4   4   4   4
#     4   9  23  45  67 103 140 189 246 298 363 442
#     4  11  23  40  70 101 138 182 238 291 371 432
#     4  10  22  43  62 102 140 177 236 291 364 430
#     4  10  23  43  68  98 133 183 242 294 365 429
#     4  11  22  46  73  99 142 190 240 313 361 439
#     4  10  23  43  70  98 141 184 241 301 358 439
#     4  11  24  42  70 103 146 187 233 306 370 433
#
# _framework density 24.329324
#
# number of rings (size 3 to 8) (size 9 to 14) (size 15 to 20)
#    0.000    1.714    1.429    2.571    6.000    3.429 
#    2.571    8.571    0.000    0.000    0.000    0.000 
#    0.000    0.000    0.000    0.000    0.000    0.000 
#
# Total GULP energy -78040.721032 kJ/mol
# GULP energy per Si atom -5574.337217 kJ/mol
# Density = 2.427395 g / cm^3
# Si number density = 24.329324 Si / 1000 Ang^3
#
#
#
# Elastic Constant Matrix: (Units=GPa)
#
#
# Indices 1 2 3 4 5 6 
#
# 1 80.6794 -12.7343 2.2452 0.0000 9.9690 0.0000
# 2 -12.7343 56.2283 20.6568 0.0000 8.1886 0.0000
# 3 2.2452 20.6568 69.4293 0.0000 14.7443 0.0000
# 4 0.0000 0.0000 0.0000 43.6354 0.0000 4.1529
# 5 9.9690 8.1886 14.7443 0.0000 36.6394 0.0000
# 6 0.0000 0.0000 0.0000 4.1529 0.0000 28.1707
#
#
#
# Elastic Compliance Matrix: (Units=1/GPa)
#
#
# Indices 1 2 3 4 5 6 
#
# 1 0.013569 0.003957 -0.000704 0.000000 -0.004293 0.000000
# 2 0.003957 0.021295 -0.005712 0.000000 -0.003537 0.000000
# 3 -0.000704 -0.005712 0.017291 0.000000 -0.005490 0.000000
# 4 0.000000 0.000000 0.000000 0.023243 0.000000 -0.003426
# 5 -0.004293 -0.003537 -0.005490 0.000000 0.031461 0.000000
# 6 0.000000 0.000000 0.000000 -0.003426 0.000000 0.036003
#
#
# Mechanical properties :
#
#
# Convention : Reuss Voigt Hill
#
# Bulk Modulus (GPa) = 21.17044 25.18582 23.17813
# Shear Modulus (GPa) = 30.57596 34.76706 32.67151
#
# Velocity S-wave (km/s) = 3.54892 3.78434 3.66852
# Velocity P-wave (km/s) = 5.05110 5.42858 5.24324
#
# Compressibility (1/GPa) = 0.04723567
#
# Stress axis : x y z
#
# Youngs Moduli (GPa) = 73.69535 46.96038 57.83233
#
# Poissons Ratio (x) = -0.18583 0.04074
# Poissons Ratio (y) = -0.29162 0.33036
# Poissons Ratio (z) = 0.05192 0.26826
#
# Static dielectric constant tensor:
#      x y z
#    x 2.147550 0.000000 0.081350 
#    y 0.000000 1.903870 0.000000 
#    z 0.081350 0.000000 1.964890 
# 
# From -- ./inp_files/29961.got.cif
#   From: 2010.05.17/outbox.cif.g08.bks.cpg/sg9_15_cif.got.tgz:29961.got - 2010.06.03 20:04:27.
