data_PCOD9137359
_publ_section_title
;
Structure prediction by ZEFSAII (Michael W. Deem and Ramdas Pophale) SiO2 
 PCOD9137359
Probable space group: C C
;
_chemical_formula_sum "Si O2"
_cell_formula_units_Z 28
_cell_length_a 8.302931
_cell_length_b 26.430349
_cell_length_c 5.035608
_cell_angle_alpha 90.000000
_cell_angle_beta 84.475342
_cell_angle_gamma 90.000000
_cell_volume 1099.927808
_symmetry_space_group_name_H-M "C C"
_symmetry_group_IT_number 9
_symmetry_cell_setting 'monoclinic'
loop_
_space_group_symop_operation_xyz
x,y,z
x,-y,1/2+z
1/2+x,1/2+y,z
1/2+x,1/2-y,1/2+z
loop_
_atom_site_type_symbol
_atom_site_label
_atom_site_fract_x
_atom_site_fract_y
_atom_site_fract_z
Si Si1 0.134240 0.649764 0.950030
Si Si2 0.293109 0.384509 0.926957
Si Si3 0.512914 0.035711 0.568119
Si Si4 0.896934 0.739835 0.797489
Si Si5 0.832152 0.405745 0.715751
Si Si6 0.027270 0.965500 0.640580
Si Si7 0.703329 0.706696 0.307232
O O1 0.280952 0.639345 0.722718
O O2 0.025323 0.694947 0.852140
O O3 0.211471 0.654196 0.229655
O O4 0.998108 0.606099 0.027764
O O5 0.435324 0.414924 0.756404
O O6 0.170997 0.431103 0.001005
O O7 0.370849 0.073607 0.503941
O O8 0.511534 0.005687 0.836618
O O9 0.811826 0.730221 0.528010
O O10 0.010087 0.787727 0.844753
O O11 0.755444 0.734766 0.031671
O O12 0.712699 0.446892 0.611954
O O13 0.751137 0.351410 0.767132
O O14 0.992533 0.989938 0.360083
#
# Coordination Sequence:
#
# PCOD9137359 Si02
#       7
#     4   4   4   4   4   4   4
#     4  10  22  41  67  91 123 165 214 259 307 386
#     4  11  22  40  63  91 125 166 212 261 315 375
#     4  11  20  34  58  83 113 158 206 245 291 358
#     4  11  23  44  68 101 133 168 214 268 329 392
#     4  10  24  42  63  92 125 164 211 263 321 377
#     4  12  26  42  60  91 132 168 212 272 328 378
#     4  11  25  43  69  97 133 169 215 270 327 398
#
# _framework density 25.456215
#
# number of rings (size 3 to 8) (size 9 to 14) (size 15 to 20)
#    0.000    1.143    0.000    7.714    0.000    8.000 
#    0.000    0.000    0.000    0.000    0.000    0.000 
#    0.000    0.000    0.000    0.000    0.000    0.000 
#
# Total GULP energy -78314.720804 kJ/mol
# GULP energy per Si atom -5593.908629 kJ/mol
# Density = 2.539828 g / cm^3
# Si number density = 25.456215 Si / 1000 Ang^3
#
#
#
# Elastic Constant Matrix: (Units=GPa)
#
#
# Indices 1 2 3 4 5 6 
#
# 1 58.9016 -4.8291 5.2964 0.0000 -0.0729 0.0000
# 2 -4.8291 63.4412 20.1332 0.0000 1.6469 0.0000
# 3 5.2964 20.1332 124.3288 0.0000 4.7448 0.0000
# 4 0.0000 0.0000 0.0000 31.2066 0.0000 -2.6666
# 5 -0.0729 1.6469 4.7448 0.0000 34.7888 0.0000
# 6 0.0000 0.0000 0.0000 -2.6666 0.0000 57.9268
#
#
#
# Elastic Compliance Matrix: (Units=1/GPa)
#
#
# Indices 1 2 3 4 5 6 
#
# 1 0.017201 0.001624 -0.000999 0.000000 0.000095 0.000000
# 2 0.001624 0.016776 -0.002770 0.000000 -0.000413 0.000000
# 3 -0.000999 -0.002770 0.008574 0.000000 -0.001040 0.000000
# 4 0.000000 0.000000 0.000000 0.032171 0.000000 0.001481
# 5 0.000095 -0.000413 -0.001040 0.000000 0.028907 0.000000
# 6 0.000000 0.000000 0.000000 0.001481 0.000000 0.017331
#
#
# Mechanical properties :
#
#
# Convention : Reuss Voigt Hill
#
# Bulk Modulus (GPa) = 26.13711 31.98583 29.06147
# Shear Modulus (GPa) = 36.23089 39.85583 38.04336
#
# Velocity S-wave (km/s) = 3.77671 3.96114 3.87002
# Velocity P-wave (km/s) = 5.41367 5.78905 5.60450
#
# Compressibility (1/GPa) = 0.03825978
#
# Stress axis : x y z
#
# Youngs Moduli (GPa) = 58.13751 59.60879 116.63118
#
# Poissons Ratio (x) = -0.09680 0.11656
# Poissons Ratio (y) = -0.09441 0.32307
# Poissons Ratio (z) = 0.05810 0.16512
#
# Static dielectric constant tensor:
#      x y z
#    x 2.024160 0.000000 -0.022660 
#    y 0.000000 2.125990 0.000000 
#    z -0.022660 0.000000 1.963610 
# 
# From -- ./inp_files/988.got.cif
#   From: 2010.05.17/outbox.cif.g08.bks.cpg/sg9_1_cif.got.tgz:988.got - 2010.06.03 20:04:27.
