data_PCOD9137239
_publ_section_title
;
Structure prediction by ZEFSAII (Michael W. Deem and Ramdas Pophale) SiO2 
 PCOD9137239
Probable space group: C C
;
_chemical_formula_sum "Si O2"
_cell_formula_units_Z 32
_cell_length_a 5.400436
_cell_length_b 31.343303
_cell_length_c 8.766102
_cell_angle_alpha 90.000000
_cell_angle_beta 63.274093
_cell_angle_gamma 90.000000
_cell_volume 1325.297332
_symmetry_space_group_name_H-M "C C"
_symmetry_group_IT_number 9
_symmetry_cell_setting 'monoclinic'
loop_
_space_group_symop_operation_xyz
x,y,z
x,-y,1/2+z
1/2+x,1/2+y,z
1/2+x,1/2-y,1/2+z
loop_
_atom_site_type_symbol
_atom_site_label
_atom_site_fract_x
_atom_site_fract_y
_atom_site_fract_z
Si Si1 0.000000 0.479404 0.062800
Si Si2 0.055334 0.328260 0.665995
Si Si3 0.910829 0.767086 0.724851
Si Si4 0.123549 0.607736 0.404646
Si Si5 0.959878 0.171914 0.472177
Si Si6 0.063561 0.135228 0.740180
Si Si7 0.847246 0.040880 0.772687
Si Si8 0.354014 0.183955 0.916903
O O1 0.162023 0.465631 0.171657
O O2 0.662635 0.479730 0.174878
O O3 0.154762 0.521202 0.958421
O O4 0.077757 0.442552 0.917127
O O5 0.169135 0.368602 0.731364
O O6 0.040302 0.339497 0.491752
O O7 0.211059 0.283077 0.645459
O O8 0.772782 0.321056 0.836622
O O9 0.934662 0.718748 0.767854
O O10 0.192260 0.786688 0.583971
O O11 0.811317 0.794666 0.900284
O O12 0.855917 0.624888 0.571989
O O13 0.376601 0.624684 0.437501
O O14 0.931226 0.170285 0.661215
O O15 0.155655 0.152399 0.879073
O O16 0.906034 0.090645 0.783072
#
# Coordination Sequence:
#
# PCOD9137239 Si02
#       8
#     4   4   4   4   4   4   4   4
#     4  11  23  46  73 111 147 194 238 306 362 453
#     4   9  21  41  59  93 126 172 228 281 349 418
#     4  10  24  39  61  91 128 175 227 281 350 410
#     4   9  19  40  70  91 129 184 229 278 358 422
#     4   9  18  39  64  87 124 169 225 274 339 421
#     4  10  22  40  66  95 136 180 228 291 355 427
#     4  11  24  47  73 110 148 192 246 295 379 437
#     4  11  25  40  62  96 132 174 233 290 350 418
#
# _framework density 24.145524999999999
#
# number of rings (size 3 to 8) (size 9 to 14) (size 15 to 20)
#    0.000    2.000    1.250    0.750    7.000    2.000 
#    6.750    0.000    0.000    0.000    0.000    0.000 
#    0.000    0.000    0.000    0.000    0.000    0.000 
#
# Total GULP energy -89243.535848 kJ/mol
# GULP energy per Si atom -5577.720990 kJ/mol
# Density = 2.409057 g / cm^3
# Si number density = 24.145525 Si / 1000 Ang^3
#
#
#
# Elastic Constant Matrix: (Units=GPa)
#
#
# Indices 1 2 3 4 5 6 
#
# 1 107.5830 23.0657 28.8047 0.0000 23.6498 0.0000
# 2 23.0657 64.5800 22.9390 0.0000 2.2524 0.0000
# 3 28.8047 22.9390 115.3306 0.0000 21.6933 0.0000
# 4 0.0000 0.0000 0.0000 31.2852 0.0000 -12.3257
# 5 23.6498 2.2524 21.6933 0.0000 52.8353 0.0000
# 6 0.0000 0.0000 0.0000 -12.3257 0.0000 21.5173
#
#
#
# Elastic Compliance Matrix: (Units=1/GPa)
#
#
# Indices 1 2 3 4 5 6 
#
# 1 0.011351 -0.003430 -0.001327 0.000000 -0.004390 0.000000
# 2 -0.003430 0.017722 -0.003051 0.000000 0.002032 0.000000
# 3 -0.001327 -0.003051 0.010266 0.000000 -0.003491 0.000000
# 4 0.000000 0.000000 0.000000 0.041280 0.000000 0.023646
# 5 -0.004390 0.002032 -0.003491 0.000000 0.022238 0.000000
# 6 0.000000 0.000000 0.000000 0.023646 0.000000 0.060020
#
#
# Mechanical properties :
#
#
# Convention : Reuss Voigt Hill
#
# Bulk Modulus (GPa) = 42.15144 48.56802 45.35973
# Shear Modulus (GPa) = 26.82415 35.30651 31.06533
#
# Velocity S-wave (km/s) = 3.33669 3.82807 3.59079
# Velocity P-wave (km/s) = 5.68681 6.30057 6.00154
#
# Compressibility (1/GPa) = 0.02372398
#
# Stress axis : x y z
#
# Youngs Moduli (GPa) = 88.09989 56.42607 97.41332
#
# Poissons Ratio (x) = 0.19352 0.12928
# Poissons Ratio (y) = 0.30215 0.29717
# Poissons Ratio (z) = 0.11692 0.17213
#
# Static dielectric constant tensor:
#      x y z
#    x 2.101880 0.000000 0.009440 
#    y 0.000000 1.921550 0.000000 
#    z 0.009440 0.000000 1.954870 
# 
# From -- ./inp_files/4393.got.cif
#   From: 2010.05.17/outbox.cif.g08.bks.cpg/sg9_3_cif.got.tgz:4393.got - 2010.06.03 20:04:27.
