data_PCOD9137313
_publ_section_title
;
Structure prediction by ZEFSAII (Michael W. Deem and Ramdas Pophale) SiO2 
 PCOD9137313
Probable space group: C C
;
_chemical_formula_sum "Si O2"
_cell_formula_units_Z 32
_cell_length_a 16.866507
_cell_length_b 11.613264
_cell_length_c 13.285270
_cell_angle_alpha 90.000000
_cell_angle_beta 30.417824
_cell_angle_gamma 90.000000
_cell_volume 1317.527008
_symmetry_space_group_name_H-M "C C"
_symmetry_group_IT_number 9
_symmetry_cell_setting 'monoclinic'
loop_
_space_group_symop_operation_xyz
x,y,z
x,-y,1/2+z
1/2+x,1/2+y,z
1/2+x,1/2-y,1/2+z
loop_
_atom_site_type_symbol
_atom_site_label
_atom_site_fract_x
_atom_site_fract_y
_atom_site_fract_z
Si Si1 0.209740 0.670059 0.811800
Si Si2 0.972475 0.173461 0.660459
Si Si3 0.919511 0.372574 0.870318
Si Si4 0.252941 0.581271 0.242195
Si Si5 0.766130 0.013122 0.998937
Si Si6 0.091829 0.706257 0.716366
Si Si7 0.292529 0.894808 0.438030
Si Si8 0.428164 0.204082 0.586420
O O1 0.391471 0.678220 0.639205
O O2 0.180510 0.535173 0.871012
O O3 0.139423 0.687210 0.779419
O O4 0.140070 0.772969 0.955537
O O5 0.904299 0.261878 0.817390
O O6 0.914415 0.054783 0.772057
O O7 0.810420 0.472316 0.945019
O O8 0.101184 0.415751 0.667867
O O9 0.880312 0.342051 0.028200
O O10 0.393564 0.659636 0.129144
O O11 0.110354 0.671537 0.394909
O O12 0.301192 0.534427 0.078728
O O13 0.712383 0.883678 0.031784
O O14 0.129135 0.834498 0.641388
O O15 0.920029 0.666222 0.873090
O O16 0.342495 0.862781 0.270486
#
# Coordination Sequence:
#
# PCOD9137313 Si02
#       8
#     4   4   4   4   4   4   4   4
#     4  11  25  41  70  95 136 176 222 275 344 391
#     4  12  21  40  68  99 126 176 218 272 333 398
#     4  10  22  41  64 100 131 168 221 279 328 401
#     4  10  22  43  64  97 133 175 218 279 325 396
#     4   9  20  40  67  89 134 171 216 274 329 381
#     4  10  23  45  61  94 132 176 219 274 328 403
#     4  11  23  41  67  90 132 176 220 268 340 395
#     4  11  22  39  69  94 130 178 222 269 339 397
#
# _framework density 24.287927
#
# number of rings (size 3 to 8) (size 9 to 14) (size 15 to 20)
#    0.000    1.500    2.500    3.000    3.500    1.000 
#    2.250    5.000    0.000    0.000    0.000    0.000 
#    0.000    0.000    0.000    0.000    0.000    0.000 
#
# Total GULP energy -89348.869449 kJ/mol
# GULP energy per Si atom -5584.304341 kJ/mol
# Density = 2.423265 g / cm^3
# Si number density = 24.287927 Si / 1000 Ang^3
#
#
#
# Elastic Constant Matrix: (Units=GPa)
#
#
# Indices 1 2 3 4 5 6 
#
# 1 93.8381 -2.2466 -5.9641 0.0000 25.5434 0.0000
# 2 -2.2466 82.7171 16.0730 0.0000 -3.3634 0.0000
# 3 -5.9641 16.0730 35.5031 0.0000 7.6525 0.0000
# 4 0.0000 0.0000 0.0000 38.4867 0.0000 0.3136
# 5 25.5434 -3.3634 7.6525 0.0000 33.3966 0.0000
# 6 0.0000 0.0000 0.0000 0.3136 0.0000 41.4055
#
#
#
# Elastic Compliance Matrix: (Units=1/GPa)
#
#
# Indices 1 2 3 4 5 6 
#
# 1 0.014360 -0.001208 0.005631 0.000000 -0.012395 0.000000
# 2 -0.001208 0.013620 -0.007221 0.000000 0.003950 0.000000
# 3 0.005631 -0.007221 0.035205 0.000000 -0.013101 0.000000
# 4 0.000000 0.000000 0.000000 0.025985 0.000000 -0.000197
# 5 -0.012395 0.003950 -0.013101 0.000000 0.042823 0.000000
# 6 0.000000 0.000000 0.000000 -0.000197 0.000000 0.024153
#
#
# Mechanical properties :
#
#
# Convention : Reuss Voigt Hill
#
# Bulk Modulus (GPa) = 17.36437 25.30921 21.33679
# Shear Modulus (GPa) = 27.63381 36.27082 31.95232
#
# Velocity S-wave (km/s) = 3.37673 3.86860 3.63100
# Velocity P-wave (km/s) = 4.72948 5.51343 5.13643
#
# Compressibility (1/GPa) = 0.05758920
#
# Stress axis : x y z
#
# Youngs Moduli (GPa) = 69.64000 73.42002 28.40492
#
# Poissons Ratio (x) = 0.08870 -0.15994
# Poissons Ratio (y) = 0.08413 0.20510
# Poissons Ratio (z) = -0.39213 0.53013
#
# Static dielectric constant tensor:
#      x y z
#    x 1.964700 0.000000 0.043500 
#    y 0.000000 1.938070 0.000000 
#    z 0.043500 0.000000 1.938980 
# 
# From -- ./inp_files/9262.got.cif
#   From: 2010.05.17/outbox.cif.g08.bks.cpg/sg9_5_cif.got.tgz:9262.got - 2010.06.03 20:04:27.
