data_PCOD9137253
_publ_section_title
;
Structure prediction by ZEFSAII (Michael W. Deem and Ramdas Pophale) SiO2 
 PCOD9137253
Probable space group: C C
;
_chemical_formula_sum "Si O2"
_cell_formula_units_Z 32
_cell_length_a 14.040326
_cell_length_b 15.410708
_cell_length_c 20.663309
_cell_angle_alpha 90.000000
_cell_angle_beta 158.479038
_cell_angle_gamma 90.000000
_cell_volume 1640.129853
_symmetry_space_group_name_H-M "C C"
_symmetry_group_IT_number 9
_symmetry_cell_setting 'monoclinic'
loop_
_space_group_symop_operation_xyz
x,y,z
x,-y,1/2+z
1/2+x,1/2+y,z
1/2+x,1/2-y,1/2+z
loop_
_atom_site_type_symbol
_atom_site_label
_atom_site_fract_x
_atom_site_fract_y
_atom_site_fract_z
Si Si1 0.601880 0.392017 0.016920
Si Si2 0.918988 0.270616 0.479320
Si Si3 0.655999 0.843618 0.313566
Si Si4 0.867101 0.910973 0.734196
Si Si5 0.561362 0.923510 0.987982
Si Si6 0.399592 0.167061 0.515236
Si Si7 0.040696 0.992967 0.597487
Si Si8 0.904057 0.156599 0.596547
O O1 0.438068 0.313986 0.945295
O O2 0.654087 0.461130 0.105525
O O3 0.872253 0.350849 0.165725
O O4 0.459734 0.434403 0.865563
O O5 0.886100 0.233369 0.531470
O O6 0.671067 0.326392 0.303006
O O7 0.169623 0.330467 0.622091
O O8 0.811929 0.763086 0.440646
O O9 0.818392 0.928311 0.433929
O O10 0.593865 0.833589 0.198620
O O11 0.130410 0.881513 0.864511
O O12 0.727042 0.988375 0.606563
O O13 0.533104 0.876942 0.038620
O O14 0.274435 0.947826 0.782706
O O15 0.687685 0.860818 0.013919
O O16 0.924546 0.068183 0.568857
#
# Coordination Sequence:
#
# PCOD9137253 Si02
#       8
#     4   4   4   4   4   4   4   4
#     4  10  22  40  67  97 127 168 223 282 328 395
#     4  11  21  42  67  97 127 168 225 270 328 402
#     4  11  23  42  64  97 127 172 225 276 335 397
#     4  11  22  41  68  98 129 173 222 276 331 400
#     4  12  25  43  63  98 140 176 221 277 344 399
#     4  11  25  41  69  95 133 175 225 278 338 404
#     4  11  23  41  66  92 136 174 222 274 337 400
#     4  11  25  42  66 100 131 178 219 277 335 403
#
# _framework density 19.510649999999998
#
# number of rings (size 3 to 8) (size 9 to 14) (size 15 to 20)
#    0.000    1.000    3.750    3.000    0.000    3.000 
#    0.000    1.250    0.000    0.000    0.000    0.000 
#    0.000    0.000    0.000    0.000    0.000    0.000 
#
# Total GULP energy -89384.145342 kJ/mol
# GULP energy per Si atom -5586.509084 kJ/mol
# Density = 1.946624 g / cm^3
# Si number density = 19.510650 Si / 1000 Ang^3
#
#
#
# Elastic Constant Matrix: (Units=GPa)
#
#
# Indices 1 2 3 4 5 6 
#
# 1 125.9147 33.8671 28.8350 0.0034 -16.1276 -0.0197
# 2 33.8671 57.2636 39.5272 0.0674 -5.8896 -0.0255
# 3 28.8350 39.5272 93.6045 0.0067 -24.6311 -0.0119
# 4 0.0034 0.0674 0.0067 46.1270 -0.0324 -1.4359
# 5 -16.1276 -5.8896 -24.6311 -0.0324 19.4176 0.0077
# 6 -0.0197 -0.0255 -0.0119 -1.4359 0.0077 20.4453
#
#
#
# Elastic Compliance Matrix: (Units=1/GPa)
#
#
# Indices 1 2 3 4 5 6 
#
# 1 0.010440 -0.006604 0.001992 0.000015 0.009195 0.000001
# 2 -0.006604 0.029819 -0.014442 -0.000051 -0.014759 0.000024
# 3 0.001992 -0.014442 0.023192 0.000036 0.026693 -0.000010
# 4 0.000015 -0.000051 0.000036 0.021727 0.000079 0.001526
# 5 0.009195 -0.014759 0.026693 0.000079 0.088520 -0.000022
# 6 0.000001 0.000024 -0.000010 0.001526 -0.000022 0.049018
#
#
# Mechanical properties :
#
#
# Convention : Reuss Voigt Hill
#
# Bulk Modulus (GPa) = 39.45581 53.47127 46.46354
# Shear Modulus (GPa) = 18.56867 28.83487 23.70177
#
# Velocity S-wave (km/s) = 3.08834 3.84852 3.48920
# Velocity P-wave (km/s) = 5.74315 6.87123 6.33236
#
# Compressibility (1/GPa) = 0.02534481
#
# Stress axis : x y z
#
# Youngs Moduli (GPa) = 95.78961 33.53536 43.11832
#
# Poissons Ratio (x) = 0.22146 -0.08590
# Poissons Ratio (y) = 0.63256 0.62269
# Poissons Ratio (z) = -0.19083 0.48430
#
# Static dielectric constant tensor:
#      x y z
#    x 1.680650 0.000010 0.000320 
#    y 0.000010 1.715230 -0.000070 
#    z 0.000320 -0.000070 1.659980 
# 
# From -- ./inp_files/7552.got.cif
#   From: 2010.05.17/outbox.cif.g08.bks.cpg/sg9_4_cif.got.tgz:7552.got - 2010.06.03 20:04:27.
