data_PCOD9137720
_publ_section_title
;
Structure prediction by ZEFSAII (Michael W. Deem and Ramdas Pophale) SiO2 
 PCOD9137720
Probable space group: C C
;
_chemical_formula_sum "Si O2"
_cell_formula_units_Z 12
_cell_length_a 8.400953
_cell_length_b 8.056342
_cell_length_c 10.048522
_cell_angle_alpha 90.000000
_cell_angle_beta 146.495795
_cell_angle_gamma 90.000000
_cell_volume 375.410388
_symmetry_space_group_name_H-M "C C"
_symmetry_group_IT_number 9
_symmetry_cell_setting 'monoclinic'
loop_
_space_group_symop_operation_xyz
x,y,z
x,-y,1/2+z
1/2+x,1/2+y,z
1/2+x,1/2-y,1/2+z
loop_
_atom_site_type_symbol
_atom_site_label
_atom_site_fract_x
_atom_site_fract_y
_atom_site_fract_z
Si Si1 0.978150 0.175283 0.930310
Si Si2 0.621320 0.824093 0.686940
Si Si3 0.855961 0.358876 0.108766
O O1 0.607552 0.006568 0.741169
O O2 0.792417 0.274382 0.919674
O O3 0.272579 0.285980 0.161174
O O4 0.141883 0.997218 0.032454
O O5 0.787819 0.791832 0.663684
O O6 0.297310 0.790539 0.410679
#
# Coordination Sequence:
#
# PCOD9137720 Si02
#       3
#     4   4   4
#     4   8  16  34  66  94 146 176 252 284 386 418
#     4  12  26  43  81 105 165 191 275 303 411 441
#     4  10  22  43  75 111 151 203 255 321 385 467
#
# _framework density 31.965019999999999
#
# number of rings (size 3 to 8) (size 9 to 14) (size 15 to 20)
#    2.000    0.000    3.333    0.000    4.667    0.000 
#    0.000    0.000   22.000    0.000    0.000    0.000 
#    0.000    0.000    0.000    0.000    0.000    0.000 
#
# Total GULP energy -33439.165279 kJ/mol
# GULP energy per Si atom -5573.194213 kJ/mol
# Density = 3.189227 g / cm^3
# Si number density = 31.965020 Si / 1000 Ang^3
#
#
#
# Elastic Constant Matrix: (Units=GPa)
#
#
# Indices 1 2 3 4 5 6 
#
# 1 442.8891 280.9423 1472.5451 -0.0239 628.6596 -0.0121
# 2 280.9423 538.8514 1762.9688 -0.0319 746.9650 -0.0147
# 3 1472.5451 1762.9688 9757.0940 -0.1871 3945.7444 -0.0867
# 4 -0.0239 -0.0319 -0.1871 0.9989 -0.0743 -83.5560
# 5 628.6596 746.9650 3945.7444 -0.0743 1705.4621 -0.0355
# 6 -0.0121 -0.0147 -0.0867 -83.5560 -0.0355 26.0246
#
#
#
# Elastic Compliance Matrix: (Units=1/GPa)
#
#
# Indices 1 2 3 4 5 6 
#
# 1 0.004750 -0.000104 -0.000131 0.000000 -0.001402 0.000000
# 2 -0.000104 0.004770 -0.000261 0.000000 -0.001446 0.000000
# 3 -0.000131 -0.000261 0.001610 0.000000 -0.003562 0.000000
# 4 0.000000 0.000000 0.000000 -0.003742 0.000000 -0.012013
# 5 -0.001402 -0.001446 -0.003562 0.000000 0.009978 0.000000
# 6 0.000000 0.000000 0.000000 -0.012013 0.000000 -0.000144
#
#
# Mechanical properties :
#
#
# Convention : Reuss Voigt Hill
#
# Bulk Modulus (GPa) = 98.65007 1974.63854 1036.64430
# Shear Modulus (GPa) = 231.54986 827.98901 529.76943
#
# Velocity S-wave (km/s) = 8.52032 16.11186 12.88774
# Velocity P-wave (km/s) = 11.30147 31.06789 23.37666
#
# Compressibility (1/GPa) = 0.01013684
#
# Stress axis : x y z
#
# Youngs Moduli (GPa) = 210.53416 209.66513 621.13369
#
# Poissons Ratio (x) = 0.02183 0.08134
# Poissons Ratio (y) = 0.02192 0.16222
# Poissons Ratio (z) = 0.02757 0.05476
#
# Static dielectric constant tensor:
#      x y z
#    x 2.947580 0.000000 2.059940 
#    y 0.000000 2.675400 0.000050 
#    z 2.059940 0.000050 -16.886890 
# 
# From -- ./inp_files/397.got.cif
#   From: 2010.05.17/outbox.cif.g08.bks.cpg/sg9_1_cif.got.tgz:397.got - 2010.06.03 20:04:27.
