data_PCOD9137912
_publ_section_title
;
Structure prediction by ZEFSAII (Michael W. Deem and Ramdas Pophale) SiO2 
 PCOD9137912
Probable space group: C C
;
_chemical_formula_sum "Si O2"
_cell_formula_units_Z 28
_cell_length_a 5.179719
_cell_length_b 18.139745
_cell_length_c 15.854851
_cell_angle_alpha 90.000000
_cell_angle_beta 64.320411
_cell_angle_gamma 90.000000
_cell_volume 1342.566732
_symmetry_space_group_name_H-M "C C"
_symmetry_group_IT_number 9
_symmetry_cell_setting 'monoclinic'
loop_
_space_group_symop_operation_xyz
x,y,z
x,-y,1/2+z
1/2+x,1/2+y,z
1/2+x,1/2-y,1/2+z
loop_
_atom_site_type_symbol
_atom_site_label
_atom_site_fract_x
_atom_site_fract_y
_atom_site_fract_z
Si Si1 0.017330 0.902414 0.613670
Si Si2 0.852663 0.102049 0.481655
Si Si3 0.789253 0.515450 0.844426
Si Si4 0.714991 0.677905 0.926708
Si Si5 0.232804 0.226527 0.404023
Si Si6 0.180337 0.613943 0.318298
Si Si7 0.969957 0.502615 0.132981
O O1 0.124682 0.840220 0.535414
O O2 0.267414 0.962506 0.590505
O O3 0.941286 0.874594 0.718209
O O4 0.728585 0.940956 0.619167
O O5 0.729673 0.129265 0.409374
O O6 0.045092 0.169573 0.487407
O O7 0.616303 0.071515 0.578044
O O8 0.046545 0.032322 0.425812
O O9 0.769914 0.598783 0.876590
O O10 0.077597 0.470799 0.827343
O O11 0.787087 0.510515 0.743446
O O12 0.453403 0.720174 0.919769
O O13 0.006418 0.724538 0.885503
O O14 0.425471 0.168092 0.324581
#
# Coordination Sequence:
#
# PCOD9137912 Si02
#       7
#     4   4   4   4   4   4   4
#     4  11  23  40  69  99 127 167 223 266 322 389
#     4  11  21  45  68  92 134 174 212 268 325 387
#     4  10  23  40  71  99 123 169 221 278 315 377
#     4  12  24  44  64  99 133 169 214 276 319 377
#     4  11  26  43  63  90 139 176 211 257 334 390
#     4  10  22  45  70  93 127 180 215 262 328 396
#     4  11  23  39  69 104 123 165 224 275 321 374
#
# _framework density 20.855575000000002
#
# number of rings (size 3 to 8) (size 9 to 14) (size 15 to 20)
#    0.000    1.143    4.286    1.714    4.000    0.000 
#    5.143    0.000    0.000    0.000    0.000    0.000 
#    0.000    0.000    0.000    0.000    0.000    0.000 
#
# Total GULP energy -78177.470647 kJ/mol
# GULP energy per Si atom -5584.105046 kJ/mol
# Density = 2.080811 g / cm^3
# Si number density = 20.855575 Si / 1000 Ang^3
#
#
#
# Elastic Constant Matrix: (Units=GPa)
#
#
# Indices 1 2 3 4 5 6 
#
# 1 109.8109 52.2116 10.6950 0.0000 -5.4938 0.0000
# 2 52.2116 135.9340 12.2643 0.0000 -4.8379 0.0000
# 3 10.6950 12.2643 55.5567 0.0000 3.1072 0.0000
# 4 0.0000 0.0000 0.0000 8.9655 0.0000 -1.5254
# 5 -5.4938 -4.8379 3.1072 0.0000 21.2333 0.0000
# 6 0.0000 0.0000 0.0000 -1.5254 0.0000 40.7201
#
#
#
# Elastic Compliance Matrix: (Units=1/GPa)
#
#
# Indices 1 2 3 4 5 6 
#
# 1 0.011322 -0.004146 -0.001387 0.000000 0.002188 0.000000
# 2 -0.004146 0.009107 -0.001279 0.000000 0.001189 0.000000
# 3 -0.001387 -0.001279 0.018739 0.000000 -0.003392 0.000000
# 4 0.000000 0.000000 0.000000 0.112254 0.000000 0.004205
# 5 0.002188 0.001189 -0.003392 0.000000 0.048429 0.000000
# 6 0.000000 0.000000 0.000000 0.004205 0.000000 0.024715
#
#
# Mechanical properties :
#
#
# Convention : Reuss Voigt Hill
#
# Bulk Modulus (GPa) = 39.14688 50.18259 44.66474
# Shear Modulus (GPa) = 20.26719 29.25916 24.76318
#
# Velocity S-wave (km/s) = 3.12073 3.74965 3.44955
# Velocity P-wave (km/s) = 5.63884 6.54681 6.10971
#
# Compressibility (1/GPa) = 0.02554482
#
# Stress axis : x y z
#
# Youngs Moduli (GPa) = 88.32126 109.81032 53.36581
#
# Poissons Ratio (x) = 0.45526 0.07400
# Poissons Ratio (y) = 0.36617 0.06824
# Poissons Ratio (z) = 0.12248 0.14042
#
# Static dielectric constant tensor:
#      x y z
#    x 1.803590 0.000000 0.005120 
#    y 0.000000 1.742450 0.000000 
#    z 0.005120 0.000000 1.747600 
# 
# From -- ./inp_files/21777.got.cif
#   From: 2010.05.17/outbox.cif.g08.bks.cpg/sg9_11_cif.got.tgz:21777.got - 2010.06.03 20:04:27.
