data_PCOD9137915
_publ_section_title
;
Structure prediction by ZEFSAII (Michael W. Deem and Ramdas Pophale) SiO2 
 PCOD9137915
Probable space group: C C
;
_chemical_formula_sum "Si O2"
_cell_formula_units_Z 28
_cell_length_a 14.649267
_cell_length_b 5.056649
_cell_length_c 21.242722
_cell_angle_alpha 90.000000
_cell_angle_beta 131.595584
_cell_angle_gamma 90.000000
_cell_volume 1176.800751
_symmetry_space_group_name_H-M "C C"
_symmetry_group_IT_number 9
_symmetry_cell_setting 'monoclinic'
loop_
_space_group_symop_operation_xyz
x,y,z
x,-y,1/2+z
1/2+x,1/2+y,z
1/2+x,1/2-y,1/2+z
loop_
_atom_site_type_symbol
_atom_site_label
_atom_site_fract_x
_atom_site_fract_y
_atom_site_fract_z
Si Si1 0.504940 0.795376 0.424570
Si Si2 0.216828 0.592891 0.556509
Si Si3 0.633258 0.687022 0.609618
Si Si4 0.392157 0.546697 0.038306
Si Si5 0.807538 0.453634 0.423580
Si Si6 0.375590 0.961042 0.693596
Si Si7 0.024936 0.058680 0.297487
O O1 0.565618 0.628865 0.510617
O O2 0.504994 0.641525 0.360552
O O3 0.594478 0.050041 0.460985
O O4 0.375485 0.891646 0.389728
O O5 0.315180 0.408876 0.566305
O O6 0.294084 0.857467 0.597896
O O7 0.261735 0.054680 0.684601
O O8 0.526911 0.584974 0.607132
O O9 0.676345 0.984656 0.607712
O O10 0.383820 0.816000 0.994384
O O11 0.317919 0.316934 0.967783
O O12 0.668386 0.532011 0.352373
O O13 0.451659 0.707804 0.749969
O O14 0.469281 0.199646 0.732155
#
# Coordination Sequence:
#
# PCOD9137915 Si02
#       7
#     4   4   4   4   4   4   4
#     4   9  22  45  75  97 130 183 235 284 338 397
#     4  10  22  45  70  98 132 182 229 283 339 405
#     4   9  22  45  67 101 125 179 233 284 323 415
#     4  11  23  40  76 101 131 172 243 288 335 393
#     4  11  23  44  67 108 133 173 233 295 327 420
#     4  12  25  44  66  96 149 178 223 285 351 412
#     4  12  25  43  67 101 140 185 218 285 355 414
#
# _framework density 23.793323000000001
#
# number of rings (size 3 to 8) (size 9 to 14) (size 15 to 20)
#    0.857    0.571    2.857    1.714    4.000    2.286 
#    2.571    2.857    0.000    0.000    0.000    0.000 
#    0.000    0.000    0.000    0.000    0.000    0.000 
#
# Total GULP energy -78046.141092 kJ/mol
# GULP energy per Si atom -5574.724364 kJ/mol
# Density = 2.373917 g / cm^3
# Si number density = 23.793323 Si / 1000 Ang^3
#
#
#
# Elastic Constant Matrix: (Units=GPa)
#
#
# Indices 1 2 3 4 5 6 
#
# 1 142.6508 24.2280 35.8218 0.0000 44.3391 0.0000
# 2 24.2280 136.5262 39.1956 -0.0001 14.5061 -0.0001
# 3 35.8218 39.1956 52.1168 0.0000 17.8914 0.0000
# 4 0.0000 -0.0001 0.0000 28.5087 0.0000 11.1580
# 5 44.3391 14.5061 17.8914 0.0000 40.5397 0.0000
# 6 0.0000 -0.0001 0.0000 11.1580 0.0000 31.6782
#
#
#
# Elastic Compliance Matrix: (Units=1/GPa)
#
#
# Indices 1 2 3 4 5 6 
#
# 1 0.011357 0.000392 -0.004465 0.000000 -0.010591 0.000000
# 2 0.000392 0.009358 -0.007084 0.000000 -0.000651 0.000000
# 3 -0.004465 -0.007084 0.029508 0.000000 -0.005605 0.000000
# 4 0.000000 0.000000 0.000000 0.040686 0.000000 -0.014331
# 5 -0.010591 -0.000651 -0.005605 0.000000 0.038957 0.000000
# 6 0.000000 0.000000 0.000000 -0.014331 0.000000 0.036615
#
#
# Mechanical properties :
#
#
# Convention : Reuss Voigt Hill
#
# Bulk Modulus (GPa) = 35.83049 58.86495 47.34772
# Shear Modulus (GPa) = 25.24021 35.61523 30.42772
#
# Velocity S-wave (km/s) = 3.26054 3.87312 3.57996
# Velocity P-wave (km/s) = 5.40986 6.69293 6.08530
#
# Compressibility (1/GPa) = 0.02790919
#
# Stress axis : x y z
#
# Youngs Moduli (GPa) = 88.05500 106.86171 33.88912
#
# Poissons Ratio (x) = -0.04186 0.15130
# Poissons Ratio (y) = -0.03449 0.24006
# Poissons Ratio (z) = 0.39313 0.75697
#
# Static dielectric constant tensor:
#      x y z
#    x 2.001420 0.000000 -0.067100 
#    y 0.000000 1.996150 0.000000 
#    z -0.067100 0.000000 1.928790 
# 
# From -- ./inp_files/35499.got.cif
#   From: 2010.05.17/outbox.cif.g08.bks.cpg/sg9_18_cif.got.tgz:35499.got - 2010.06.03 20:04:27.
