data_PCOD9137703
_publ_section_title
;
Structure prediction by ZEFSAII (Michael W. Deem and Ramdas Pophale) SiO2 
 PCOD9137703
Probable space group: C C
;
_chemical_formula_sum "Si O2"
_cell_formula_units_Z 28
_cell_length_a 7.038806
_cell_length_b 12.733383
_cell_length_c 14.058102
_cell_angle_alpha 90.000000
_cell_angle_beta 106.865974
_cell_angle_gamma 90.000000
_cell_volume 1205.799492
_symmetry_space_group_name_H-M "C C"
_symmetry_group_IT_number 9
_symmetry_cell_setting 'monoclinic'
loop_
_space_group_symop_operation_xyz
x,y,z
x,-y,1/2+z
1/2+x,1/2+y,z
1/2+x,1/2-y,1/2+z
loop_
_atom_site_type_symbol
_atom_site_label
_atom_site_fract_x
_atom_site_fract_y
_atom_site_fract_z
Si Si1 0.058220 0.537675 0.435140
Si Si2 0.345669 0.798146 0.596978
Si Si3 0.123684 0.744867 0.317922
Si Si4 0.038354 0.644690 0.621845
Si Si5 0.654461 0.452049 0.433401
Si Si6 0.074846 0.324079 0.342665
Si Si7 0.105695 0.162511 0.491730
O O1 0.110523 0.640486 0.381184
O O2 0.109399 0.561618 0.552790
O O3 0.133673 0.424903 0.412971
O O4 0.820124 0.511841 0.393581
O O5 0.489432 0.785219 0.707879
O O6 0.135623 0.750875 0.597463
O O7 0.285288 0.906998 0.540119
O O8 0.453212 0.732272 0.529139
O O9 0.062249 0.851283 0.366995
O O10 0.345461 0.780571 0.317244
O O11 0.106185 0.639397 0.739811
O O12 0.801771 0.646200 0.582581
O O13 0.523067 0.548343 0.451306
O O14 0.178077 0.225968 0.408830
#
# Coordination Sequence:
#
# PCOD9137703 Si02
#       7
#     4   4   4   4   4   4   4
#     4  10  22  43  72  96 150 182 233 298 353 412
#     4  12  24  47  70 102 147 185 238 301 355 430
#     4  11  23  45  71 104 140 190 236 295 363 425
#     4  11  25  45  69 109 137 191 245 283 368 424
#     4  10  24  45  69 104 143 183 240 298 353 425
#     4  11  24  46  73 105 144 191 241 295 362 423
#     4  11  24  49  70  98 151 186 233 308 356 423
#
# _framework density 23.221108999999998
#
# number of rings (size 3 to 8) (size 9 to 14) (size 15 to 20)
#    0.000    1.143    5.714    0.000    8.000    0.000 
#   10.286    0.000    0.000    0.000    0.000    0.000 
#    0.000    0.000    0.000    0.000    0.000    0.000 
#
# Total GULP energy -78104.414765 kJ/mol
# GULP energy per Si atom -5578.886769 kJ/mol
# Density = 2.316826 g / cm^3
# Si number density = 23.221109 Si / 1000 Ang^3
#
#
#
# Elastic Constant Matrix: (Units=GPa)
#
#
# Indices 1 2 3 4 5 6 
#
# 1 53.3342 30.6720 4.7199 0.0000 3.3349 0.0000
# 2 30.6720 199.0676 70.6183 0.0000 -12.1614 0.0000
# 3 4.7199 70.6183 157.0856 0.0000 -4.7237 0.0000
# 4 0.0000 0.0000 0.0000 16.6737 0.0000 -5.7860
# 5 3.3349 -12.1614 -4.7237 0.0000 28.4360 0.0000
# 6 0.0000 0.0000 0.0000 -5.7860 0.0000 42.0830
#
#
#
# Elastic Compliance Matrix: (Units=1/GPa)
#
#
# Indices 1 2 3 4 5 6 
#
# 1 0.021120 -0.003841 0.000973 0.000000 -0.003958 0.000000
# 2 -0.003841 0.006805 -0.002857 0.000000 0.002886 0.000000
# 3 0.000973 -0.002857 0.007619 0.000000 -0.000070 0.000000
# 4 0.000000 0.000000 0.000000 0.062979 0.000000 0.008659
# 5 -0.003958 0.002886 -0.000070 0.000000 0.036854 0.000000
# 6 0.000000 0.000000 0.000000 0.008659 0.000000 0.024953
#
#
# Mechanical properties :
#
#
# Convention : Reuss Voigt Hill
#
# Bulk Modulus (GPa) = 41.50388 69.05641 55.28015
# Shear Modulus (GPa) = 27.80686 37.67035 32.73861
#
# Velocity S-wave (km/s) = 3.46422 4.03208 3.75889
# Velocity P-wave (km/s) = 5.82351 7.17496 6.53427
#
# Compressibility (1/GPa) = 0.02409413
#
# Stress axis : x y z
#
# Youngs Moduli (GPa) = 47.34829 146.94824 131.25096
#
# Poissons Ratio (x) = 0.56446 -0.12774
# Poissons Ratio (y) = 0.18187 0.37499
# Poissons Ratio (z) = -0.04608 0.41984
#
# Static dielectric constant tensor:
#      x y z
#    x 1.987230 0.000000 -0.022050 
#    y 0.000000 1.872840 0.000000 
#    z -0.022050 0.000000 1.889680 
# 
# From -- ./inp_files/22640.got.cif
#   From: 2010.05.17/outbox.cif.g08.bks.cpg/sg9_12_cif.got.tgz:22640.got - 2010.06.03 20:04:27.
