data_PCOD9137475
_publ_section_title
;
Structure prediction by ZEFSAII (Michael W. Deem and Ramdas Pophale) SiO2 
 PCOD9137475
Probable space group: C C
;
_chemical_formula_sum "Si O2"
_cell_formula_units_Z 32
_cell_length_a 7.507318
_cell_length_b 23.041694
_cell_length_c 9.613162
_cell_angle_alpha 90.000000
_cell_angle_beta 135.448285
_cell_angle_gamma 90.000000
_cell_volume 1166.610319
_symmetry_space_group_name_H-M "C C"
_symmetry_group_IT_number 9
_symmetry_cell_setting 'monoclinic'
loop_
_space_group_symop_operation_xyz
x,y,z
x,-y,1/2+z
1/2+x,1/2+y,z
1/2+x,1/2-y,1/2+z
loop_
_atom_site_type_symbol
_atom_site_label
_atom_site_fract_x
_atom_site_fract_y
_atom_site_fract_z
Si Si1 0.140790 0.014809 0.116000
Si Si2 0.217019 0.259276 0.753870
Si Si3 0.215825 0.745525 0.531118
Si Si4 0.270338 0.915899 0.354803
Si Si5 0.614010 0.997102 0.666206
Si Si6 0.560999 0.875796 0.067903
Si Si7 0.025588 0.137700 0.994721
Si Si8 0.652878 0.661350 0.526038
O O1 0.126805 0.083421 0.135949
O O2 0.143537 0.978618 0.258668
O O3 0.390931 0.001339 0.161104
O O4 0.884806 0.998251 0.891184
O O5 0.301457 0.215773 0.679241
O O6 0.918713 0.265226 0.508028
O O7 0.010412 0.248368 0.775377
O O8 0.362664 0.320380 0.834937
O O9 0.163465 0.675966 0.526838
O O10 0.091388 0.795859 0.556954
O O11 0.156241 0.879265 0.417395
O O12 0.192779 0.884670 0.170286
O O13 0.553005 0.937889 0.548019
O O14 0.593715 0.055679 0.560342
O O15 0.284030 0.857970 0.960385
O O16 0.729265 0.868672 0.302490
#
# Coordination Sequence:
#
# PCOD9137475 Si02
#       8
#     4   4   4   4   4   4   4   4
#     4  10  23  43  69 104 143 184 245 297 358 424
#     4  10  23  40  65  98 128 184 236 270 363 426
#     4  11  20  41  68  96 136 184 228 287 348 438
#     4  11  22  46  73  98 143 191 235 302 353 434
#     4  10  24  44  70 108 141 186 246 296 367 429
#     4  11  23  42  67  99 146 172 232 302 356 415
#     4  10  22  42  66  99 135 183 233 285 354 429
#     4  11  23  42  66  98 138 180 229 301 347 425
#
# _framework density 27.429895999999999
#
# number of rings (size 3 to 8) (size 9 to 14) (size 15 to 20)
#    0.000    1.500    3.750    0.750    1.750    6.000 
#    0.000    0.000    0.000    0.000    0.000    0.000 
#    0.000    0.000    0.000    0.000    0.000    0.000 
#
# Total GULP energy -89316.131847 kJ/mol
# GULP energy per Si atom -5582.258240 kJ/mol
# Density = 2.736746 g / cm^3
# Si number density = 27.429896 Si / 1000 Ang^3
#
#
#
# Elastic Constant Matrix: (Units=GPa)
#
#
# Indices 1 2 3 4 5 6 
#
# 1 84.2725 34.5256 45.0389 0.0000 21.2530 0.0000
# 2 34.5256 135.4694 30.1931 0.0000 2.6290 0.0000
# 3 45.0389 30.1931 152.5151 0.0000 1.7321 0.0000
# 4 0.0000 0.0000 0.0000 68.2642 0.0000 -2.1518
# 5 21.2530 2.6290 1.7321 0.0000 32.6421 0.0000
# 6 0.0000 0.0000 0.0000 -2.1518 0.0000 36.2829
#
#
#
# Elastic Compliance Matrix: (Units=1/GPa)
#
#
# Indices 1 2 3 4 5 6 
#
# 1 0.018771 -0.003506 -0.004716 0.000000 -0.011689 0.000000
# 2 -0.003506 0.008387 -0.000644 0.000000 0.001641 0.000000
# 3 -0.004716 -0.000644 0.008046 0.000000 0.002696 0.000000
# 4 0.000000 0.000000 0.000000 0.014676 0.000000 0.000870
# 5 -0.011689 0.001641 0.002696 0.000000 0.037971 0.000000
# 6 0.000000 0.000000 0.000000 0.000870 0.000000 0.027613
#
#
# Mechanical properties :
#
#
# Convention : Reuss Voigt Hill
#
# Bulk Modulus (GPa) = 57.23345 65.75246 61.49295
# Shear Modulus (GPa) = 35.96592 44.93782 40.45187
#
# Velocity S-wave (km/s) = 3.62497 4.05196 3.84440
# Velocity P-wave (km/s) = 6.19929 6.77601 6.49405
#
# Compressibility (1/GPa) = 0.01747230
#
# Stress axis : x y z
#
# Youngs Moduli (GPa) = 53.27306 119.23403 124.28019
#
# Poissons Ratio (x) = 0.41803 0.58616
# Poissons Ratio (y) = 0.18677 0.07999
# Poissons Ratio (z) = 0.25126 0.07674
#
# Static dielectric constant tensor:
#      x y z
#    x 2.097540 0.000000 -0.001010 
#    y 0.000000 2.134670 0.000000 
#    z -0.001010 0.000000 2.325440 
# 
# From -- ./inp_files/15653.got.cif
#   From: 2010.05.17/outbox.cif.g08.bks.cpg/sg9_8_cif.got.tgz:15653.got - 2010.06.03 20:04:27.
