data_PCOD9137713
_publ_section_title
;
Structure prediction by ZEFSAII (Michael W. Deem and Ramdas Pophale) SiO2 
 PCOD9137713
Probable space group: C C
;
_chemical_formula_sum "Si O2"
_cell_formula_units_Z 32
_cell_length_a 8.265982
_cell_length_b 12.438678
_cell_length_c 14.611410
_cell_angle_alpha 90.000000
_cell_angle_beta 68.743811
_cell_angle_gamma 90.000000
_cell_volume 1400.109948
_symmetry_space_group_name_H-M "C C"
_symmetry_group_IT_number 9
_symmetry_cell_setting 'monoclinic'
loop_
_space_group_symop_operation_xyz
x,y,z
x,-y,1/2+z
1/2+x,1/2+y,z
1/2+x,1/2-y,1/2+z
loop_
_atom_site_type_symbol
_atom_site_label
_atom_site_fract_x
_atom_site_fract_y
_atom_site_fract_z
Si Si1 0.502540 0.374874 0.481850
Si Si2 0.011961 0.215999 0.307752
Si Si3 0.192443 0.326069 0.014292
Si Si4 0.681927 0.771901 0.444387
Si Si5 0.347392 0.060300 0.807355
Si Si6 0.453791 0.597824 0.592092
Si Si7 0.960218 0.487350 0.475782
Si Si8 0.659664 0.481933 0.675165
O O1 0.584173 0.282753 0.528727
O O2 0.356574 0.316168 0.451862
O O3 0.655775 0.414847 0.384999
O O4 0.434883 0.480138 0.548375
O O5 0.856158 0.181657 0.409888
O O6 0.945784 0.326628 0.277948
O O7 0.177685 0.235091 0.339846
O O8 0.057507 0.121956 0.229548
O O9 0.277239 0.344602 0.096387
O O10 0.071830 0.421771 0.002398
O O11 0.603461 0.673681 0.518666
O O12 0.549610 0.872311 0.472280
O O13 0.307260 0.006118 0.719875
O O14 0.441325 0.995752 0.870181
O O15 0.514465 0.572783 0.682746
O O16 0.770859 0.477194 0.559378
#
# Coordination Sequence:
#
# PCOD9137713 Si02
#       8
#     4   4   4   4   4   4   4   4
#     4  11  21  42  75  94 134 182 225 281 341 405
#     4   9  23  44  66  99 138 178 234 286 334 411
#     4  10  22  43  73  99 133 184 229 278 346 409
#     4  10  22  44  73  99 134 186 228 277 353 408
#     4  10  23  46  64  99 140 179 229 280 347 407
#     4  11  23  42  65 104 136 175 230 281 339 411
#     4  11  23  45  72 103 137 188 229 280 349 413
#     4  12  25  42  70 101 142 176 232 291 337 410
#
# _framework density 22.855346999999998
#
# number of rings (size 3 to 8) (size 9 to 14) (size 15 to 20)
#    0.000    1.500    2.500    3.000    1.750    2.000 
#    4.500    0.000    0.000    0.000    0.000    0.000 
#    0.000    0.000    0.000    0.000    0.000    0.000 
#
# Total GULP energy -89470.244230 kJ/mol
# GULP energy per Si atom -5591.890264 kJ/mol
# Density = 2.280333 g / cm^3
# Si number density = 22.855347 Si / 1000 Ang^3
#
#
#
# Elastic Constant Matrix: (Units=GPa)
#
#
# Indices 1 2 3 4 5 6 
#
# 1 99.4808 6.5484 14.2712 0.0000 21.6132 0.0000
# 2 6.5484 66.2883 8.3635 0.0000 3.9644 0.0000
# 3 14.2712 8.3635 56.8962 0.0000 13.7184 0.0000
# 4 0.0000 0.0000 0.0000 28.8906 0.0000 17.0895
# 5 21.6132 3.9644 13.7184 0.0000 32.8086 0.0000
# 6 0.0000 0.0000 0.0000 17.0895 0.0000 42.6485
#
#
#
# Elastic Compliance Matrix: (Units=1/GPa)
#
#
# Indices 1 2 3 4 5 6 
#
# 1 0.011828 -0.000592 -0.001132 0.000000 -0.007247 0.000000
# 2 -0.000592 0.015431 -0.001962 0.000000 -0.000654 0.000000
# 3 -0.001132 -0.001962 0.019920 0.000000 -0.007346 0.000000
# 4 0.000000 0.000000 0.000000 0.045366 0.000000 -0.018179
# 5 -0.007247 -0.000654 -0.007346 0.000000 0.038404 0.000000
# 6 0.000000 0.000000 0.000000 -0.018179 0.000000 0.030732
#
#
# Mechanical properties :
#
#
# Convention : Reuss Voigt Hill
#
# Bulk Modulus (GPa) = 25.12244 31.22573 28.17409
# Shear Modulus (GPa) = 27.42391 33.76836 30.59613
#
# Velocity S-wave (km/s) = 3.46770 3.84797 3.66278
# Velocity P-wave (km/s) = 5.20087 5.78226 5.49925
#
# Compressibility (1/GPa) = 0.03980504
#
# Stress axis : x y z
#
# Youngs Moduli (GPa) = 84.54459 64.80551 50.20202
#
# Poissons Ratio (x) = 0.03838 0.05685
# Poissons Ratio (y) = 0.05007 0.09850
# Poissons Ratio (z) = 0.09574 0.12715
#
# Static dielectric constant tensor:
#      x y z
#    x 1.864350 0.000000 0.030020 
#    y 0.000000 1.844900 0.000000 
#    z 0.030020 0.000000 1.893100 
# 
# From -- ./inp_files/22728.got.cif
#   From: 2010.05.17/outbox.cif.g08.bks.cpg/sg9_12_cif.got.tgz:22728.got - 2010.06.03 20:04:27.
