data_PCOD9137064
_publ_section_title
;
Structure prediction by ZEFSAII (Michael W. Deem and Ramdas Pophale) SiO2 
 PCOD9137064
Probable space group: C C
;
_chemical_formula_sum "Si O2"
_cell_formula_units_Z 32
_cell_length_a 15.727982
_cell_length_b 5.644523
_cell_length_c 15.277324
_cell_angle_alpha 90.000000
_cell_angle_beta 81.313424
_cell_angle_gamma 90.000000
_cell_volume 1340.716906
_symmetry_space_group_name_H-M "C C"
_symmetry_group_IT_number 9
_symmetry_cell_setting 'monoclinic'
loop_
_space_group_symop_operation_xyz
x,y,z
x,-y,1/2+z
1/2+x,1/2+y,z
1/2+x,1/2-y,1/2+z
loop_
_atom_site_type_symbol
_atom_site_label
_atom_site_fract_x
_atom_site_fract_y
_atom_site_fract_z
Si Si1 0.072450 0.226486 0.196520
Si Si2 0.985313 0.122377 0.914859
Si Si3 0.564578 0.979106 0.027102
Si Si4 0.134272 0.212453 0.371077
Si Si5 0.274866 0.965614 0.458949
Si Si6 0.449840 0.352995 0.138630
Si Si7 0.927902 0.467416 0.797402
Si Si8 0.316684 0.462514 0.524727
O O1 0.102960 0.397794 0.113616
O O2 0.140928 0.239504 0.265354
O O3 0.979913 0.325989 0.243356
O O4 0.036960 0.979028 0.162731
O O5 0.999310 0.317333 0.839006
O O6 0.886194 0.060081 0.935054
O O7 0.039402 0.894179 0.890012
O O8 0.017353 0.248897 0.996981
O O9 0.490042 0.168323 0.062206
O O10 0.628961 0.073784 0.941987
O O11 0.196737 0.020223 0.404946
O O12 0.357194 0.966108 0.380302
O O13 0.275937 0.197859 0.523530
O O14 0.272510 0.716524 0.510689
O O15 0.402146 0.209911 0.223545
O O16 0.376406 0.504596 0.101249
#
# Coordination Sequence:
#
# PCOD9137064 Si02
#       8
#     4   4   4   4   4   4   4   4
#     4  11  22  39  73 103 132 178 248 301 345 413
#     4  11  20  39  74  92 136 177 244 286 337 420
#     4  11  22  40  67 109 133 180 236 306 348 414
#     4  12  24  43  68 102 140 190 228 293 361 433
#     4  11  28  44  66  99 143 185 229 279 368 427
#     4  11  21  38  69 104 129 173 242 298 334 405
#     4  10  22  38  65 101 128 181 230 288 343 413
#     4  11  23  45  68  96 133 186 231 285 340 421
#
# _framework density 23.867830000000001
#
# number of rings (size 3 to 8) (size 9 to 14) (size 15 to 20)
#    0.000    1.000    5.000    2.250    5.250    0.000 
#    2.250    0.000    0.000    0.000    0.000    0.000 
#    0.000    0.000    0.000    0.000    0.000    0.000 
#
# Total GULP energy -89215.044120 kJ/mol
# GULP energy per Si atom -5575.940258 kJ/mol
# Density = 2.381351 g / cm^3
# Si number density = 23.867830 Si / 1000 Ang^3
#
#
#
# Elastic Constant Matrix: (Units=GPa)
#
#
# Indices 1 2 3 4 5 6 
#
# 1 42.9827 18.2113 13.8108 0.0000 11.0832 0.0000
# 2 18.2113 97.0105 31.8493 0.0000 5.0444 0.0000
# 3 13.8108 31.8493 114.9249 0.0000 19.6402 0.0000
# 4 0.0000 0.0000 0.0000 43.9108 0.0000 5.4018
# 5 11.0832 5.0444 19.6402 0.0000 26.9089 0.0000
# 6 0.0000 0.0000 0.0000 5.4018 0.0000 31.0910
#
#
#
# Elastic Compliance Matrix: (Units=1/GPa)
#
#
# Indices 1 2 3 4 5 6 
#
# 1 0.028013 -0.004616 -0.000301 0.000000 -0.010453 0.000000
# 2 -0.004616 0.012102 -0.003126 0.000000 0.001915 0.000000
# 3 -0.000301 -0.003126 0.010834 0.000000 -0.007197 0.000000
# 4 0.000000 0.000000 0.000000 0.023271 0.000000 -0.004043
# 5 -0.010453 0.001915 -0.007197 0.000000 0.046362 0.000000
# 6 0.000000 0.000000 0.000000 -0.004043 0.000000 0.032866
#
#
# Mechanical properties :
#
#
# Convention : Reuss Voigt Hill
#
# Bulk Modulus (GPa) = 28.68458 42.51788 35.60123
# Shear Modulus (GPa) = 27.60071 33.11859 30.35965
#
# Velocity S-wave (km/s) = 3.40427 3.72907 3.57037
# Velocity P-wave (km/s) = 5.24369 6.03273 5.65200
#
# Compressibility (1/GPa) = 0.03486194
#
# Stress axis : x y z
#
# Youngs Moduli (GPa) = 35.69761 82.63389 92.30338
#
# Poissons Ratio (x) = 0.38148 0.02775
# Poissons Ratio (y) = 0.16480 0.28855
# Poissons Ratio (z) = 0.01073 0.25833
#
# Static dielectric constant tensor:
#      x y z
#    x 1.930140 0.000000 0.020160 
#    y 0.000000 1.974050 0.000000 
#    z 0.020160 0.000000 2.018110 
# 
# From -- ./inp_files/26374.got.cif
#   From: 2010.05.17/outbox.cif.g08.bks.cpg/sg9_14_cif.got.tgz:26374.got - 2010.06.03 20:04:27.
