data_PCOD9137219
_publ_section_title
;
Structure prediction by ZEFSAII (Michael W. Deem and Ramdas Pophale) SiO2 
 PCOD9137219
Probable space group: C C
;
_chemical_formula_sum "Si O2"
_cell_formula_units_Z 32
_cell_length_a 19.298742
_cell_length_b 12.302482
_cell_length_c 10.548914
_cell_angle_alpha 90.000000
_cell_angle_beta 147.264400
_cell_angle_gamma 90.000000
_cell_volume 1354.367494
_symmetry_space_group_name_H-M "C C"
_symmetry_group_IT_number 9
_symmetry_cell_setting 'monoclinic'
loop_
_space_group_symop_operation_xyz
x,y,z
x,-y,1/2+z
1/2+x,1/2+y,z
1/2+x,1/2-y,1/2+z
loop_
_atom_site_type_symbol
_atom_site_label
_atom_site_fract_x
_atom_site_fract_y
_atom_site_fract_z
Si Si1 0.975930 0.768690 0.734660
Si Si2 0.985458 0.375818 0.732742
Si Si3 0.066511 0.959799 0.578029
Si Si4 0.735497 0.636488 0.715228
Si Si5 0.572850 0.782794 0.133719
Si Si6 0.149564 0.482225 0.790991
Si Si7 0.891616 0.432412 0.241603
Si Si8 0.415930 0.513950 0.598334
O O1 0.904201 0.690622 0.718151
O O2 0.923044 0.888685 0.653009
O O3 0.963700 0.724405 0.573180
O O4 0.126881 0.778349 0.004415
O O5 0.872510 0.318552 0.476699
O O6 0.912509 0.487660 0.656973
O O7 0.117978 0.413446 0.869057
O O8 0.020570 0.313994 0.915063
O O9 0.122480 0.842019 0.705508
O O10 0.970000 0.005460 0.538578
O O11 0.163753 0.058074 0.703726
O O12 0.001616 0.934072 0.341703
O O13 0.772206 0.559738 0.651619
O O14 0.654371 0.886425 0.307684
O O15 0.018106 0.459897 0.516041
O O16 0.272057 0.445675 0.899621
#
# Coordination Sequence:
#
# PCOD9137219 Si02
#       8
#     4   4   4   4   4   4   4   4
#     4  10  22  42  65  97 127 176 226 267 336 404
#     4  10  22  41  64  97 133 171 223 277 335 391
#     4  10  24  46  64  96 130 177 226 276 338 401
#     4  10  24  43  66  95 133 178 219 280 336 398
#     4  10  22  42  65  97 129 171 225 270 333 396
#     4  10  22  42  62  95 130 169 212 276 333 394
#     4  10  22  40  65  94 130 172 217 273 336 395
#     4  10  24  42  67  93 130 172 222 277 337 399
#
# _framework density 23.627265999999999
#
# number of rings (size 3 to 8) (size 9 to 14) (size 15 to 20)
#    0.000    2.000    1.250    0.000   10.500    1.000 
#   15.750    0.000    0.000    0.000    0.000    0.000 
#    0.000    0.000    0.000    0.000    0.000    0.000 
#
# Total GULP energy -89213.822368 kJ/mol
# GULP energy per Si atom -5575.863898 kJ/mol
# Density = 2.357349 g / cm^3
# Si number density = 23.627266 Si / 1000 Ang^3
#
#
#
# Elastic Constant Matrix: (Units=GPa)
#
#
# Indices 1 2 3 4 5 6 
#
# 1 129.6998 50.8737 37.9459 0.0000 12.5719 0.0000
# 2 50.8737 62.0105 4.9493 0.0000 -1.8466 0.0000
# 3 37.9459 4.9493 66.9687 0.0000 11.7569 0.0000
# 4 0.0000 0.0000 0.0000 15.9333 0.0000 -9.5189
# 5 12.5719 -1.8466 11.7569 0.0000 36.6694 0.0000
# 6 0.0000 0.0000 0.0000 -9.5189 0.0000 37.7590
#
#
#
# Elastic Compliance Matrix: (Units=1/GPa)
#
#
# Indices 1 2 3 4 5 6 
#
# 1 0.014525 -0.011475 -0.006789 0.000000 -0.003381 0.000000
# 2 -0.011475 0.025344 0.003936 0.000000 0.003949 0.000000
# 3 -0.006789 0.003936 0.019121 0.000000 -0.003605 0.000000
# 4 0.000000 0.000000 0.000000 0.073890 0.000000 0.018627
# 5 -0.003381 0.003949 -0.003605 0.000000 0.029785 0.000000
# 6 0.000000 0.000000 0.000000 0.018627 0.000000 0.031180
#
#
# Mechanical properties :
#
#
# Convention : Reuss Voigt Hill
#
# Bulk Modulus (GPa) = 32.96613 49.57964 41.27289
# Shear Modulus (GPa) = 21.49507 29.06633 25.28070
#
# Velocity S-wave (km/s) = 3.01949 3.51123 3.27460
# Velocity P-wave (km/s) = 5.11266 6.12111 5.63947
#
# Compressibility (1/GPa) = 0.03033416
#
# Stress axis : x y z
#
# Youngs Moduli (GPa) = 68.84666 39.45690 52.29890
#
# Poissons Ratio (x) = 0.45278 0.35503
# Poissons Ratio (y) = 0.79003 -0.20584
# Poissons Ratio (z) = 0.46737 -0.15530
#
# Static dielectric constant tensor:
#      x y z
#    x 1.917540 0.000000 -0.061620 
#    y 0.000000 1.954500 0.000000 
#    z -0.061620 0.000000 1.989380 
# 
# From -- ./inp_files/20298.got.cif
#   From: 2010.05.17/outbox.cif.g08.bks.cpg/sg9_11_cif.got.tgz:20298.got - 2010.06.03 20:04:27.
