data_PCOD9137205
_publ_section_title
;
Structure prediction by ZEFSAII (Michael W. Deem and Ramdas Pophale) SiO2 
 PCOD9137205
Probable space group: C C
;
_chemical_formula_sum "Si O2"
_cell_formula_units_Z 28
_cell_length_a 4.931256
_cell_length_b 26.867477
_cell_length_c 8.584853
_cell_angle_alpha 90.000000
_cell_angle_beta 91.522104
_cell_angle_gamma 90.000000
_cell_volume 1137.009336
_symmetry_space_group_name_H-M "C C"
_symmetry_group_IT_number 9
_symmetry_cell_setting 'monoclinic'
loop_
_space_group_symop_operation_xyz
x,y,z
x,-y,1/2+z
1/2+x,1/2+y,z
1/2+x,1/2-y,1/2+z
loop_
_atom_site_type_symbol
_atom_site_label
_atom_site_fract_x
_atom_site_fract_y
_atom_site_fract_z
Si Si1 0.156100 0.290624 0.379100
Si Si2 0.918181 0.128544 0.077967
Si Si3 0.926382 0.517571 0.745710
Si Si4 0.631222 0.558026 0.465543
Si Si5 0.787685 0.026491 0.006796
Si Si6 0.414260 0.145444 0.288687
Si Si7 0.638550 0.233299 0.512813
O O1 0.263070 0.345783 0.428966
O O2 0.355377 0.261900 0.500125
O O3 0.865740 0.266820 0.426065
O O4 0.203504 0.280354 0.194742
O O5 0.997152 0.070250 0.051912
O O6 0.678810 0.126828 0.201921
O O7 0.182840 0.156905 0.152661
O O8 0.151031 0.544711 0.848291
O O9 0.073947 0.477105 0.641760
O O10 0.754874 0.553886 0.638094
O O11 0.742002 0.487343 0.861607
O O12 0.337045 0.533405 0.483653
O O13 0.735906 0.607710 0.390249
O O14 0.551657 0.185988 0.404770
#
# Coordination Sequence:
#
# PCOD9137205 Si02
#       7
#     4   4   4   4   4   4   4
#     4  12  26  49  78 111 148 190 243 313 381 450
#     4  12  26  46  74 108 149 197 253 307 374 450
#     4  10  22  40  64  94 138 190 250 300 364 428
#     4  11  23  42  66  99 145 195 248 304 366 430
#     4  11  23  42  66  99 145 195 248 304 366 430
#     4  12  26  46  74 108 149 197 253 307 374 450
#     4  12  26  49  78 111 148 190 243 313 381 450
#
# _framework density 24.626003000000001
#
# number of rings (size 3 to 8) (size 9 to 14) (size 15 to 20)
#    0.000    0.571    1.429    7.714    6.000    0.000 
#    0.000    2.857    0.000    0.000    0.000    0.000 
#    0.000    0.000    0.000    0.000    0.000    0.000 
#
# Total GULP energy -78002.769126 kJ/mol
# GULP energy per Si atom -5571.626366 kJ/mol
# Density = 2.456995 g / cm^3
# Si number density = 24.626003 Si / 1000 Ang^3
#
#
#
# Elastic Constant Matrix: (Units=GPa)
#
#
# Indices 1 2 3 4 5 6 
#
# 1 98.1379 6.4726 21.2545 0.0000 11.0657 0.0000
# 2 6.4726 75.9664 15.8266 0.0000 2.9991 0.0000
# 3 21.2545 15.8266 123.5306 0.0000 25.7302 0.0000
# 4 0.0000 0.0000 0.0000 27.2312 0.0000 4.2119
# 5 11.0657 2.9991 25.7302 0.0000 38.7187 0.0000
# 6 0.0000 0.0000 0.0000 4.2119 0.0000 26.0048
#
#
#
# Elastic Compliance Matrix: (Units=1/GPa)
#
#
# Indices 1 2 3 4 5 6 
#
# 1 0.010757 -0.000554 -0.001333 0.000000 -0.002146 0.000000
# 2 -0.000554 0.013554 -0.001689 0.000000 0.000231 0.000000
# 3 -0.001333 -0.001689 0.009789 0.000000 -0.005994 0.000000
# 4 0.000000 0.000000 0.000000 0.037666 0.000000 -0.006101
# 5 -0.002146 0.000231 -0.005994 0.000000 0.030406 0.000000
# 6 0.000000 0.000000 0.000000 -0.006101 0.000000 0.039443
#
#
# Mechanical properties :
#
#
# Convention : Reuss Voigt Hill
#
# Bulk Modulus (GPa) = 37.10943 42.74915 39.92929
# Shear Modulus (GPa) = 31.69581 35.32966 33.51273
#
# Velocity S-wave (km/s) = 3.59149 3.79178 3.69300
# Velocity P-wave (km/s) = 5.68334 6.04708 5.86803
#
# Compressibility (1/GPa) = 0.02694733
#
# Stress axis : x y z
#
# Youngs Moduli (GPa) = 92.96360 73.78038 102.15185
#
# Poissons Ratio (x) = 0.04088 0.13616
# Poissons Ratio (y) = 0.05151 0.17256
# Poissons Ratio (z) = 0.12391 0.12464
#
# Static dielectric constant tensor:
#      x y z
#    x 1.972300 0.000000 0.020100 
#    y 0.000000 2.274400 0.000000 
#    z 0.020100 0.000000 1.971670 
# 
# From -- ./inp_files/4188.got.cif
#   From: 2010.05.17/outbox.cif.g08.bks.cpg/sg9_3_cif.got.tgz:4188.got - 2010.06.03 20:04:27.
