data_PCOD9137411
_publ_section_title
;
Structure prediction by ZEFSAII (Michael W. Deem and Ramdas Pophale) SiO2 
 PCOD9137411
Probable space group: C C
;
_chemical_formula_sum "Si O2"
_cell_formula_units_Z 32
_cell_length_a 14.229115
_cell_length_b 11.211220
_cell_length_c 8.364051
_cell_angle_alpha 90.000000
_cell_angle_beta 70.971076
_cell_angle_gamma 90.000000
_cell_volume 1261.368408
_symmetry_space_group_name_H-M "C C"
_symmetry_group_IT_number 9
_symmetry_cell_setting 'monoclinic'
loop_
_space_group_symop_operation_xyz
x,y,z
x,-y,1/2+z
1/2+x,1/2+y,z
1/2+x,1/2-y,1/2+z
loop_
_atom_site_type_symbol
_atom_site_label
_atom_site_fract_x
_atom_site_fract_y
_atom_site_fract_z
Si Si1 0.220760 0.603353 0.402450
Si Si2 0.798664 0.633782 0.831431
Si Si3 0.514544 0.141941 0.686568
Si Si4 0.525036 0.785693 0.543526
Si Si5 0.237723 0.360068 0.528472
Si Si6 0.680607 0.497033 0.640582
Si Si7 0.532192 0.447562 0.940008
Si Si8 0.455427 0.710166 0.923071
O O1 0.282122 0.727128 0.386099
O O2 0.119211 0.595332 0.562135
O O3 0.272629 0.479552 0.417669
O O4 0.201705 0.603424 0.224591
O O5 0.715102 0.596013 0.747665
O O6 0.905283 0.587610 0.712578
O O7 0.772736 0.560637 0.003970
O O8 0.500797 0.253054 0.569918
O O9 0.512145 0.144230 0.881782
O O10 0.644758 0.797213 0.496861
O O11 0.466708 0.663578 0.523892
O O12 0.491123 0.788491 0.750421
O O13 0.336291 0.281044 0.492347
O O14 0.612831 0.400374 0.767822
O O15 0.603045 0.539137 0.552710
O O16 0.485577 0.569385 0.904201
#
# Coordination Sequence:
#
# PCOD9137411 Si02
#       8
#     4   4   4   4   4   4   4   4
#     4  12  26  50  77 111 165 211 265 335 401 480
#     4  11  25  47  73 113 149 209 265 331 396 488
#     4  12  27  49  78 108 161 211 271 325 407 492
#     4  12  27  48  75 114 156 211 261 334 407 471
#     4  12  29  49  77 115 167 217 265 334 411 481
#     4  10  22  41  72 106 150 190 245 331 402 447
#     4  11  21  40  74 109 146 189 257 327 401 448
#     4  12  27  48  80 118 154 206 275 341 399 487
#
# _framework density 25.369271999999999
#
# number of rings (size 3 to 8) (size 9 to 14) (size 15 to 20)
#    0.000    0.500    3.750    4.500    3.500    4.000 
#    2.250    0.000    0.000    0.000    0.000    0.000 
#    0.000    0.000    0.000    0.000    0.000    0.000 
#
# Total GULP energy -89131.523124 kJ/mol
# GULP energy per Si atom -5570.720195 kJ/mol
# Density = 2.531153 g / cm^3
# Si number density = 25.369272 Si / 1000 Ang^3
#
#
#
# Elastic Constant Matrix: (Units=GPa)
#
#
# Indices 1 2 3 4 5 6 
#
# 1 139.5417 12.4238 44.6090 0.0000 14.9438 0.0000
# 2 12.4238 61.2350 16.8731 0.0000 11.3036 0.0000
# 3 44.6090 16.8731 133.0712 0.0000 15.0713 0.0000
# 4 0.0000 0.0000 0.0000 36.6751 0.0000 4.9649
# 5 14.9438 11.3036 15.0713 0.0000 42.6569 0.0000
# 6 0.0000 0.0000 0.0000 4.9649 0.0000 27.3560
#
#
#
# Elastic Compliance Matrix: (Units=1/GPa)
#
#
# Indices 1 2 3 4 5 6 
#
# 1 0.008207 -0.000648 -0.002461 0.000000 -0.001834 0.000000
# 2 -0.000648 0.017613 -0.001576 0.000000 -0.003883 0.000000
# 3 -0.002461 -0.001576 0.008745 0.000000 -0.001810 0.000000
# 4 0.000000 0.000000 0.000000 0.027953 0.000000 -0.005073
# 5 -0.001834 -0.003883 -0.001810 0.000000 0.025754 0.000000
# 6 0.000000 0.000000 0.000000 -0.005073 0.000000 0.037476
#
#
# Mechanical properties :
#
#
# Convention : Reuss Voigt Hill
#
# Bulk Modulus (GPa) = 39.69307 53.51774 46.60541
# Shear Modulus (GPa) = 34.83893 38.66707 36.75300
#
# Velocity S-wave (km/s) = 3.70979 3.90830 3.81034
# Velocity P-wave (km/s) = 5.83354 6.44264 6.14564
#
# Compressibility (1/GPa) = 0.02519331
#
# Stress axis : x y z
#
# Youngs Moduli (GPa) = 121.84284 56.77559 114.35492
#
# Poissons Ratio (x) = 0.03681 0.28147
# Poissons Ratio (y) = 0.07901 0.18024
# Poissons Ratio (z) = 0.29990 0.08949
#
# Static dielectric constant tensor:
#      x y z
#    x 1.978970 0.000000 -0.036510 
#    y 0.000000 2.220070 0.000000 
#    z -0.036510 0.000000 2.058020 
# 
# From -- ./inp_files/9097.got.cif
#   From: 2010.05.17/outbox.cif.g08.bks.cpg/sg9_5_cif.got.tgz:9097.got - 2010.06.03 20:04:27.
