data_PCOD9137091
_publ_section_title
;
Structure prediction by ZEFSAII (Michael W. Deem and Ramdas Pophale) SiO2 
 PCOD9137091
Probable space group: C C
;
_chemical_formula_sum "Si O2"
_cell_formula_units_Z 24
_cell_length_a 7.383842
_cell_length_b 22.328907
_cell_length_c 5.899706
_cell_angle_alpha 90.000000
_cell_angle_beta 68.865492
_cell_angle_gamma 90.000000
_cell_volume 907.275585
_symmetry_space_group_name_H-M "C C"
_symmetry_group_IT_number 9
_symmetry_cell_setting 'monoclinic'
loop_
_space_group_symop_operation_xyz
x,y,z
x,-y,1/2+z
1/2+x,1/2+y,z
1/2+x,1/2-y,1/2+z
loop_
_atom_site_type_symbol
_atom_site_label
_atom_site_fract_x
_atom_site_fract_y
_atom_site_fract_z
Si Si1 0.887970 0.766776 0.090270
Si Si2 0.718682 0.409695 0.111662
Si Si3 0.708193 0.653289 0.206131
Si Si4 0.056321 0.472060 0.166501
Si Si5 0.387356 0.357608 0.469042
Si Si6 0.597113 0.151044 0.483770
O O1 0.890674 0.695443 0.070538
O O2 0.869280 0.794654 0.348454
O O3 0.707684 0.790904 0.020350
O O4 0.075735 0.800753 0.912221
O O5 0.745503 0.407659 0.826250
O O6 0.826740 0.457237 0.221275
O O7 0.864246 0.351256 0.082808
O O8 0.490465 0.404558 0.254191
O O9 0.567713 0.642462 0.061803
O O10 0.102724 0.500266 0.893091
O O11 0.144601 0.405015 0.124401
O O12 0.195760 0.367614 0.700784
#
# Coordination Sequence:
#
# PCOD9137091 Si02
#       6
#     4   4   4   4   4   4
#     4  10  23  36  59  93 125 171 220 262 332 400
#     4   9  23  39  66  88 129 166 214 278 331 386
#     4  10  23  36  59  93 125 171 220 262 332 400
#     4  10  24  43  72 104 126 176 233 278 348 400
#     4  10  22  39  58  88 130 168 213 264 338 392
#     4   9  23  39  66  88 129 166 214 278 331 386
#
# _framework density 26.452819999999999
#
# number of rings (size 3 to 8) (size 9 to 14) (size 15 to 20)
#    1.000    1.333    0.000    0.000   11.667    2.667 
#    0.000    1.667    0.000    0.000    0.000    0.000 
#    0.000    0.000    0.000    0.000    0.000    0.000 
#
# Total GULP energy -66819.640430 kJ/mol
# GULP energy per Si atom -5568.303369 kJ/mol
# Density = 2.639261 g / cm^3
# Si number density = 26.452820 Si / 1000 Ang^3
#
#
#
# Elastic Constant Matrix: (Units=GPa)
#
#
# Indices 1 2 3 4 5 6 
#
# 1 121.8537 4.0843 21.7043 0.0000 -4.7615 0.0000
# 2 4.0843 63.0510 10.8322 0.0000 -8.8030 0.0000
# 3 21.7043 10.8322 89.6190 0.0000 -15.6469 0.0000
# 4 0.0000 0.0000 0.0000 38.5850 0.0000 6.7612
# 5 -4.7615 -8.8030 -15.6469 0.0000 31.1258 0.0000
# 6 0.0000 0.0000 0.0000 6.7612 0.0000 23.4402
#
#
#
# Elastic Compliance Matrix: (Units=1/GPa)
#
#
# Indices 1 2 3 4 5 6 
#
# 1 0.008581 -0.000175 -0.002013 0.000000 0.000251 0.000000
# 2 -0.000175 0.016654 -0.001264 0.000000 0.004048 0.000000
# 3 -0.002013 -0.001264 0.012806 0.000000 0.005772 0.000000
# 4 0.000000 0.000000 0.000000 0.027296 0.000000 -0.007874
# 5 0.000251 0.004048 0.005772 0.000000 0.036213 0.000000
# 6 0.000000 0.000000 0.000000 -0.007874 0.000000 0.044933
#
#
# Mechanical properties :
#
#
# Convention : Reuss Voigt Hill
#
# Bulk Modulus (GPa) = 32.11577 38.64057 35.37817
# Shear Modulus (GPa) = 30.53137 34.49040 32.51088
#
# Velocity S-wave (km/s) = 3.40101 3.61480 3.50953
# Velocity P-wave (km/s) = 5.25258 5.66228 5.46128
#
# Compressibility (1/GPa) = 0.03113735
#
# Stress axis : x y z
#
# Youngs Moduli (GPa) = 116.53899 60.04632 78.08540
#
# Poissons Ratio (x) = 0.01050 0.15720
# Poissons Ratio (y) = 0.02038 0.09869
# Poissons Ratio (z) = 0.23461 0.07589
#
# Static dielectric constant tensor:
#      x y z
#    x 2.011860 0.000000 0.026320 
#    y 0.000000 2.102400 0.000000 
#    z 0.026320 0.000000 2.414870 
# 
# From -- ./inp_files/932.got.cif
#   From: 2010.05.17/outbox.cif.g08.bks.cpg/sg9_1_cif.got.tgz:932.got - 2010.06.03 20:04:27.
