data_PCOD9137597
_publ_section_title
;
Structure prediction by ZEFSAII (Michael W. Deem and Ramdas Pophale) SiO2 
 PCOD9137597
Probable space group: C C
;
_chemical_formula_sum "Si O2"
_cell_formula_units_Z 28
_cell_length_a 14.990004
_cell_length_b 8.737186
_cell_length_c 11.811689
_cell_angle_alpha 90.000000
_cell_angle_beta 63.431015
_cell_angle_gamma 90.000000
_cell_volume 1383.615494
_symmetry_space_group_name_H-M "C C"
_symmetry_group_IT_number 9
_symmetry_cell_setting 'monoclinic'
loop_
_space_group_symop_operation_xyz
x,y,z
x,-y,1/2+z
1/2+x,1/2+y,z
1/2+x,1/2-y,1/2+z
loop_
_atom_site_type_symbol
_atom_site_label
_atom_site_fract_x
_atom_site_fract_y
_atom_site_fract_z
Si Si1 0.588080 0.483959 0.527670
Si Si2 0.590092 0.257127 0.208129
Si Si3 0.909583 0.835734 0.012202
Si Si4 0.302466 0.818993 0.356171
Si Si5 0.799139 0.145768 0.129933
Si Si6 0.442702 0.061550 0.152400
Si Si7 0.496987 0.211744 0.494323
O O1 0.587826 0.586339 0.640145
O O2 0.523103 0.591927 0.473040
O O3 0.699509 0.411328 0.445948
O O4 0.520195 0.332840 0.580157
O O5 0.695776 0.179551 0.129658
O O6 0.508310 0.142140 0.208519
O O7 0.564828 0.270374 0.354187
O O8 0.895311 0.697425 0.107844
O O9 0.839146 0.977311 0.084730
O O10 0.867973 0.762053 0.918377
O O11 0.284177 0.689959 0.270186
O O12 0.368142 0.946309 0.254988
O O13 0.881781 0.260566 0.031184
O O14 0.509523 0.959510 0.028737
#
# Coordination Sequence:
#
# PCOD9137597 Si02
#       7
#     4   4   4   4   4   4   4
#     4  10  24  42  67  98 129 186 228 275 358 409
#     4  11  23  42  66  96 135 172 226 286 339 412
#     4  10  24  45  65  99 141 175 232 286 348 419
#     4  11  23  46  70  95 142 179 228 293 342 420
#     4  10  24  42  67 101 129 183 226 276 355 406
#     4  10  24  42  64 103 130 181 227 277 350 412
#     4  10  22  43  63  94 140 166 229 279 334 420
#
# _framework density 20.236837999999999
#
# number of rings (size 3 to 8) (size 9 to 14) (size 15 to 20)
#    0.000    1.714    1.429    0.857    8.000    9.143 
#    7.714    0.000    0.000    0.000    0.000    0.000 
#    0.000    0.000    0.000    0.000    0.000    0.000 
#
# Total GULP energy -77945.697991 kJ/mol
# GULP energy per Si atom -5567.549856 kJ/mol
# Density = 2.019078 g / cm^3
# Si number density = 20.236838 Si / 1000 Ang^3
#
#
#
# Elastic Constant Matrix: (Units=GPa)
#
#
# Indices 1 2 3 4 5 6 
#
# 1 67.7013 13.8454 25.7951 0.0000 3.4883 0.0000
# 2 13.8454 108.7099 28.2764 0.0000 7.2469 0.0000
# 3 25.7951 28.2764 60.1676 0.0000 -10.7515 0.0000
# 4 0.0000 0.0000 0.0000 34.3824 0.0000 -0.3353
# 5 3.4883 7.2469 -10.7515 0.0000 23.9987 0.0000
# 6 0.0000 0.0000 0.0000 -0.3353 0.0000 20.7282
#
#
#
# Elastic Compliance Matrix: (Units=1/GPa)
#
#
# Indices 1 2 3 4 5 6 
#
# 1 0.018662 0.000588 -0.009559 0.000000 -0.007172 0.000000
# 2 0.000588 0.011309 -0.006731 0.000000 -0.006516 0.000000
# 3 -0.009559 -0.006731 0.026625 0.000000 0.015350 0.000000
# 4 0.000000 0.000000 0.000000 0.029089 0.000000 0.000470
# 5 -0.007172 -0.006516 0.015350 0.000000 0.051556 0.000000
# 6 0.000000 0.000000 0.000000 0.000470 0.000000 0.048251
#
#
# Mechanical properties :
#
#
# Convention : Reuss Voigt Hill
#
# Bulk Modulus (GPa) = 39.69603 41.37917 40.53760
# Shear Modulus (GPa) = 22.19327 27.06597 24.62962
#
# Velocity S-wave (km/s) = 3.31520 3.66110 3.49244
# Velocity P-wave (km/s) = 5.85768 6.19382 6.02809
#
# Compressibility (1/GPa) = 0.02519143
#
# Stress axis : x y z
#
# Youngs Moduli (GPa) = 53.58449 88.42390 37.55938
#
# Poissons Ratio (x) = -0.05196 0.35902
# Poissons Ratio (y) = -0.03149 0.25282
# Poissons Ratio (z) = 0.51219 0.59519
#
# Static dielectric constant tensor:
#      x y z
#    x 1.762030 0.000000 0.011880 
#    y 0.000000 1.696830 0.000000 
#    z 0.011880 0.000000 1.749140 
# 
# From -- ./inp_files/17546.got.cif
#   From: 2010.05.17/outbox.cif.g08.bks.cpg/sg9_9_cif.got.tgz:17546.got - 2010.06.03 20:04:27.
