data_PCOD9137250
_publ_section_title
;
Structure prediction by ZEFSAII (Michael W. Deem and Ramdas Pophale) SiO2 
 PCOD9137250
Probable space group: C C
;
_chemical_formula_sum "Si O2"
_cell_formula_units_Z 32
_cell_length_a 15.040690
_cell_length_b 12.079200
_cell_length_c 19.203253
_cell_angle_alpha 90.000000
_cell_angle_beta 153.192235
_cell_angle_gamma 90.000000
_cell_volume 1573.460473
_symmetry_space_group_name_H-M "C C"
_symmetry_group_IT_number 9
_symmetry_cell_setting 'monoclinic'
loop_
_space_group_symop_operation_xyz
x,y,z
x,-y,1/2+z
1/2+x,1/2+y,z
1/2+x,1/2-y,1/2+z
loop_
_atom_site_type_symbol
_atom_site_label
_atom_site_fract_x
_atom_site_fract_y
_atom_site_fract_z
Si Si1 0.955310 0.249331 0.849430
Si Si2 0.506637 0.838173 0.598563
Si Si3 0.890463 0.793286 0.154768
Si Si4 0.730555 0.967411 0.206980
Si Si5 0.587516 0.619800 0.411035
Si Si6 0.862849 0.474498 0.842548
Si Si7 0.636249 0.514944 0.810620
Si Si8 0.781880 0.312641 0.192073
O O1 0.011556 0.226228 0.809138
O O2 0.808977 0.155821 0.776974
O O3 0.866805 0.370145 0.795356
O O4 0.176277 0.257066 0.033302
O O5 0.467452 0.774294 0.642635
O O6 0.299651 0.886733 0.426785
O O7 0.614093 0.759589 0.616321
O O8 0.642020 0.948379 0.702554
O O9 0.925119 0.923829 0.164238
O O10 0.560775 0.969848 0.028829
O O11 0.926017 0.027935 0.317619
O O12 0.678399 0.567500 0.404271
O O13 0.712431 0.643614 0.568040
O O14 0.466356 0.731165 0.310607
O O15 0.681175 0.459721 0.768599
O O16 0.841135 0.586635 0.783970
#
# Coordination Sequence:
#
# PCOD9137250 Si02
#       8
#     4   4   4   4   4   4   4   4
#     4  12  24  41  64  94 132 175 218 266 341 392
#     4  10  22  40  67  94 125 162 225 270 330 387
#     4  12  22  39  66  95 125 167 222 274 320 392
#     4  10  22  41  66  89 131 173 214 275 334 390
#     4  11  22  41  67  95 130 170 222 272 331 391
#     4  11  24  43  65  94 134 175 221 271 340 395
#     4  11  22  43  64  94 133 173 216 283 326 388
#     4  11  24  40  71  97 130 175 220 271 336 401
#
# _framework density 20.337339
#
# number of rings (size 3 to 8) (size 9 to 14) (size 15 to 20)
#    0.000    1.000    5.000    2.250    5.250    0.000 
#    4.500    0.000    0.000    0.000    0.000    0.000 
#    0.000    0.000    0.000    0.000    0.000    0.000 
#
# Total GULP energy -89168.742538 kJ/mol
# GULP energy per Si atom -5573.046409 kJ/mol
# Density = 2.029105 g / cm^3
# Si number density = 20.337339 Si / 1000 Ang^3
#
#
#
# Elastic Constant Matrix: (Units=GPa)
#
#
# Indices 1 2 3 4 5 6 
#
# 1 76.8849 45.9133 11.7850 0.0007 -3.7650 0.0004
# 2 45.9133 122.9186 30.8167 -0.0009 8.2735 0.0004
# 3 11.7850 30.8167 59.5696 -0.0009 4.7937 0.0000
# 4 0.0007 -0.0009 -0.0009 31.7629 -0.0008 -0.7012
# 5 -3.7650 8.2735 4.7937 -0.0008 18.8447 -0.0009
# 6 0.0004 0.0004 0.0000 -0.7012 -0.0009 35.8464
#
#
#
# Elastic Compliance Matrix: (Units=1/GPa)
#
#
# Indices 1 2 3 4 5 6 
#
# 1 0.017503 -0.006874 -0.000440 0.000000 0.006627 0.000000
# 2 -0.006874 0.012209 -0.004506 0.000000 -0.005587 0.000000
# 3 -0.000440 -0.004506 0.019451 0.000000 -0.003057 0.000000
# 4 0.000000 0.000000 0.000000 0.031497 0.000001 0.000616
# 5 0.006627 -0.005587 -0.003057 0.000001 0.057620 0.000002
# 6 0.000000 0.000000 0.000000 0.000616 0.000002 0.027909
#
#
# Mechanical properties :
#
#
# Convention : Reuss Voigt Hill
#
# Bulk Modulus (GPa) = 39.18023 48.48922 43.83472
# Shear Modulus (GPa) = 25.20961 28.68134 26.94548
#
# Velocity S-wave (km/s) = 3.52458 3.75944 3.64390
# Velocity P-wave (km/s) = 5.98920 6.53749 6.26934
#
# Compressibility (1/GPa) = 0.02552308
#
# Stress axis : x y z
#
# Youngs Moduli (GPa) = 57.13282 81.90832 51.40993
#
# Poissons Ratio (x) = 0.56300 0.02263
# Poissons Ratio (y) = 0.39270 0.23168
# Poissons Ratio (z) = 0.02515 0.36912
#
# Static dielectric constant tensor:
#      x y z
#    x 1.733500 0.000000 0.034990 
#    y 0.000000 1.763760 0.000000 
#    z 0.034990 0.000000 1.747080 
# 
# From -- ./inp_files/9261.got.cif
#   From: 2010.05.17/outbox.cif.g08.bks.cpg/sg9_5_cif.got.tgz:9261.got - 2010.06.03 20:04:27.
