data_PCOD9137160
_publ_section_title
;
Structure prediction by ZEFSAII (Michael W. Deem and Ramdas Pophale) SiO2 
 PCOD9137160
Probable space group: C C
;
_chemical_formula_sum "Si O2"
_cell_formula_units_Z 28
_cell_length_a 12.995762
_cell_length_b 16.117302
_cell_length_c 5.106006
_cell_angle_alpha 90.000000
_cell_angle_beta 95.596282
_cell_angle_gamma 90.000000
_cell_volume 1064.389300
_symmetry_space_group_name_H-M "C C"
_symmetry_group_IT_number 9
_symmetry_cell_setting 'monoclinic'
loop_
_space_group_symop_operation_xyz
x,y,z
x,-y,1/2+z
1/2+x,1/2+y,z
1/2+x,1/2-y,1/2+z
loop_
_atom_site_type_symbol
_atom_site_label
_atom_site_fract_x
_atom_site_fract_y
_atom_site_fract_z
Si Si1 0.075700 0.101348 0.392270
Si Si2 0.066123 0.271888 0.696072
Si Si3 0.122992 0.453274 0.717242
Si Si4 0.722447 0.323514 0.546327
Si Si5 0.850166 0.103322 0.387636
Si Si6 0.360681 0.284183 0.396122
Si Si7 0.784674 0.452190 0.190295
O O1 0.059507 0.196192 0.491073
O O2 0.160892 0.059166 0.600380
O O3 0.962747 0.061025 0.376347
O O4 0.132092 0.115918 0.128990
O O5 0.079270 0.365484 0.607545
O O6 0.167551 0.251628 0.888408
O O7 0.968698 0.258922 0.858667
O O8 0.089858 0.522263 0.500719
O O9 0.248056 0.446368 0.778561
O O10 0.776885 0.285606 0.812164
O O11 0.800755 0.369800 0.369026
O O12 0.845063 0.141944 0.677788
O O13 0.855255 0.177835 0.178583
O O14 0.819339 0.523233 0.406660
#
# Coordination Sequence:
#
# PCOD9137160 Si02
#       7
#     4   4   4   4   4   4   4
#     4  10  22  39  72  95 132 174 222 285 338 396
#     4  10  23  43  66 101 129 177 240 280 333 417
#     4  12  27  44  66  95 143 188 219 281 351 413
#     4  11  21  41  69  97 127 176 222 292 341 396
#     4  11  23  41  63 101 129 166 232 275 337 406
#     4  11  23  39  72  98 126 170 227 297 327 391
#     4  11  23  39  58  91 132 169 206 260 343 411
#
# _framework density 26.306162
#
# number of rings (size 3 to 8) (size 9 to 14) (size 15 to 20)
#    0.000    1.143    4.286    1.714    4.000    1.143 
#    0.000    1.429    0.000    0.000    0.000    0.000 
#    0.000    0.000    0.000    0.000    0.000    0.000 
#
# Total GULP energy -78335.313875 kJ/mol
# GULP energy per Si atom -5595.379562 kJ/mol
# Density = 2.624629 g / cm^3
# Si number density = 26.306162 Si / 1000 Ang^3
#
#
#
# Elastic Constant Matrix: (Units=GPa)
#
#
# Indices 1 2 3 4 5 6 
#
# 1 61.3224 -1.8429 13.5848 0.0000 0.4559 0.0000
# 2 -1.8429 82.6742 9.1556 0.0000 2.8701 0.0000
# 3 13.5848 9.1556 115.2056 0.0000 -0.5775 0.0000
# 4 0.0000 0.0000 0.0000 46.5817 0.0000 1.7384
# 5 0.4559 2.8701 -0.5775 0.0000 25.6407 0.0000
# 6 0.0000 0.0000 0.0000 1.7384 0.0000 21.3480
#
#
#
# Elastic Compliance Matrix: (Units=1/GPa)
#
#
# Indices 1 2 3 4 5 6 
#
# 1 0.016778 0.000613 -0.002029 0.000000 -0.000413 0.000000
# 2 0.000613 0.012275 -0.001055 0.000000 -0.001409 0.000000
# 3 -0.002029 -0.001055 0.009005 0.000000 0.000357 0.000000
# 4 0.000000 0.000000 0.000000 0.021533 0.000000 -0.001753
# 5 -0.000413 -0.001409 0.000357 0.000000 0.039173 0.000000
# 6 0.000000 0.000000 0.000000 -0.001753 0.000000 0.046986
#
#
# Mechanical properties :
#
#
# Convention : Reuss Voigt Hill
#
# Bulk Modulus (GPa) = 30.19666 33.44414 31.82040
# Shear Modulus (GPa) = 30.91544 34.60107 32.75826
#
# Velocity S-wave (km/s) = 3.43186 3.63067 3.53267
# Velocity P-wave (km/s) = 5.21607 5.50606 5.36303
#
# Compressibility (1/GPa) = 0.03311624
#
# Stress axis : x y z
#
# Youngs Moduli (GPa) = 59.60082 81.46604 111.04885
#
# Poissons Ratio (x) = -0.04994 0.22535
# Poissons Ratio (y) = -0.03654 0.11714
# Poissons Ratio (z) = 0.12095 0.08594
#
# Static dielectric constant tensor:
#      x y z
#    x 2.109620 0.000000 -0.028140 
#    y 0.000000 2.086290 0.000000 
#    z -0.028140 0.000000 1.990970 
# 
# From -- ./inp_files/2416.got.cif
#   From: 2010.05.17/outbox.cif.g08.bks.cpg/sg9_2_cif.got.tgz:2416.got - 2010.06.03 20:04:27.
