data_PCOD9137375
_publ_section_title
;
Structure prediction by ZEFSAII (Michael W. Deem and Ramdas Pophale) SiO2 
 PCOD9137375
Probable space group: C C
;
_chemical_formula_sum "Si O2"
_cell_formula_units_Z 24
_cell_length_a 13.540097
_cell_length_b 8.648668
_cell_length_c 14.245900
_cell_angle_alpha 90.000000
_cell_angle_beta 137.975438
_cell_angle_gamma 90.000000
_cell_volume 1116.807879
_symmetry_space_group_name_H-M "C C"
_symmetry_group_IT_number 9
_symmetry_cell_setting 'monoclinic'
loop_
_space_group_symop_operation_xyz
x,y,z
x,-y,1/2+z
1/2+x,1/2+y,z
1/2+x,1/2-y,1/2+z
loop_
_atom_site_type_symbol
_atom_site_label
_atom_site_fract_x
_atom_site_fract_y
_atom_site_fract_z
Si Si1 0.125000 0.881070 0.741260
Si Si2 0.672184 0.923096 0.580721
Si Si3 0.476712 0.559605 0.792804
Si Si4 0.952835 0.376199 0.010341
Si Si5 0.201045 0.939031 0.105728
Si Si6 0.496275 0.109135 0.327002
O O1 0.161223 0.995966 0.680565
O O2 0.055888 0.726619 0.648400
O O3 0.279295 0.869040 0.907710
O O4 0.003100 0.950611 0.722832
O O5 0.714186 0.745401 0.614330
O O6 0.806172 0.037524 0.700177
O O7 0.533128 0.958213 0.551736
O O8 0.618161 0.982330 0.439734
O O9 0.525308 0.731751 0.795444
O O10 0.577734 0.495461 0.947020
O O11 0.961166 0.321030 0.906953
O O12 0.355318 0.020568 0.188870
#
# Coordination Sequence:
#
# PCOD9137375 Si02
#       6
#     4   4   4   4   4   4
#     4  11  24  42  69 100 131 174 223 269 335 397
#     4  10  22  41  68  94 129 179 219 274 336 389
#     4  12  23  39  69  96 128 179 222 276 325 394
#     4   9  21  45  65  93 135 179 209 270 337 399
#     4  11  22  44  65  94 134 172 226 272 330 403
#     4   9  20  43  66  87 129 177 217 261 339 380
#
# _framework density 21.489820999999999
#
# number of rings (size 3 to 8) (size 9 to 14) (size 15 to 20)
#    1.000    0.667    1.667    4.000    2.333    0.000 
#    6.000    0.000    0.000    0.000    0.000    0.000 
#    0.000    0.000    0.000    0.000    0.000    0.000 
#
# Total GULP energy -66896.506392 kJ/mol
# GULP energy per Si atom -5574.708866 kJ/mol
# Density = 2.144091 g / cm^3
# Si number density = 21.489821 Si / 1000 Ang^3
#
#
#
# Elastic Constant Matrix: (Units=GPa)
#
#
# Indices 1 2 3 4 5 6 
#
# 1 27.3008 4.5697 11.1089 0.0000 7.7470 0.0000
# 2 4.5697 106.8335 17.5013 0.0000 -4.2650 0.0000
# 3 11.1089 17.5013 108.4460 0.0000 18.6999 0.0000
# 4 0.0000 0.0000 0.0000 31.0655 0.0000 6.4792
# 5 7.7470 -4.2650 18.6999 0.0000 17.1531 0.0000
# 6 0.0000 0.0000 0.0000 6.4792 0.0000 20.9889
#
#
#
# Elastic Compliance Matrix: (Units=1/GPa)
#
#
# Indices 1 2 3 4 5 6 
#
# 1 0.042767 -0.002487 -0.000668 0.000000 -0.019205 0.000000
# 2 -0.002487 0.010125 -0.002472 0.000000 0.006335 0.000000
# 3 -0.000668 -0.002472 0.011998 0.000000 -0.013393 0.000000
# 4 0.000000 0.000000 0.000000 0.034405 0.000000 -0.010621
# 5 -0.019205 0.006335 -0.013393 0.000000 0.083148 0.000000
# 6 0.000000 0.000000 0.000000 -0.010621 0.000000 0.050923
#
#
# Mechanical properties :
#
#
# Convention : Reuss Voigt Hill
#
# Bulk Modulus (GPa) = 18.64390 34.32668 26.48529
# Shear Modulus (GPa) = 19.04791 27.80152 23.42472
#
# Velocity S-wave (km/s) = 2.98042 3.60072 3.30515
# Velocity P-wave (km/s) = 4.53193 5.77018 5.18813
#
# Compressibility (1/GPa) = 0.05363685
#
# Stress axis : x y z
#
# Youngs Moduli (GPa) = 23.38266 98.77027 83.34854
#
# Poissons Ratio (x) = 0.24560 0.05567
# Poissons Ratio (y) = 0.05814 0.20600
# Poissons Ratio (z) = 0.01562 0.24412
#
# Static dielectric constant tensor:
#      x y z
#    x 1.808690 0.000000 0.004040 
#    y 0.000000 1.778330 0.000000 
#    z 0.004040 0.000000 1.776190 
# 
# From -- ./inp_files/10468.got.cif
#   From: 2010.05.17/outbox.cif.g08.bks.cpg/sg9_6_cif.got.tgz:10468.got - 2010.06.03 20:04:27.
