data_PCOD9137892
_publ_section_title
;
Structure prediction by ZEFSAII (Michael W. Deem and Ramdas Pophale) SiO2 
 PCOD9137892
Probable space group: C C
;
_chemical_formula_sum "Si O2"
_cell_formula_units_Z 28
_cell_length_a 16.529077
_cell_length_b 6.049092
_cell_length_c 14.712372
_cell_angle_alpha 90.000000
_cell_angle_beta 129.079658
_cell_angle_gamma 90.000000
_cell_volume 1141.916751
_symmetry_space_group_name_H-M "C C"
_symmetry_group_IT_number 9
_symmetry_cell_setting 'monoclinic'
loop_
_space_group_symop_operation_xyz
x,y,z
x,-y,1/2+z
1/2+x,1/2+y,z
1/2+x,1/2-y,1/2+z
loop_
_atom_site_type_symbol
_atom_site_label
_atom_site_fract_x
_atom_site_fract_y
_atom_site_fract_z
Si Si1 0.807740 0.457321 0.775290
Si Si2 0.948788 0.528617 0.032768
Si Si3 0.003938 0.811130 0.443622
Si Si4 0.119072 0.160147 0.742783
Si Si5 0.494313 0.637214 0.294325
Si Si6 0.633360 0.015279 0.401497
Si Si7 0.304312 0.175136 0.583069
O O1 0.882818 0.242799 0.827774
O O2 0.698262 0.499752 0.747172
O O3 0.785203 0.523238 0.656529
O O4 0.887001 0.598330 0.896852
O O5 0.861878 0.464761 0.045594
O O6 0.035619 0.703697 0.123516
O O7 0.001687 0.290929 0.042708
O O8 0.093375 0.667187 0.455728
O O9 0.018480 0.052757 0.412800
O O10 0.175079 0.344288 0.846401
O O11 0.056066 0.020573 0.771284
O O12 0.526731 0.889812 0.299838
O O13 0.376889 0.634083 0.177422
O O14 0.707316 0.811373 0.476967
#
# Coordination Sequence:
#
# PCOD9137892 Si02
#       7
#     4   4   4   4   4   4   4
#     4  10  23  44  66 101 135 185 221 291 344 412
#     4  10  22  45  68  99 141 178 232 289 340 429
#     4   9  22  45  64  94 138 175 231 284 340 413
#     4  11  23  43  69 100 140 175 231 286 351 412
#     4  11  22  45  68  97 133 183 224 288 345 419
#     4  11  23  44  65 102 137 179 233 279 350 416
#     4  12  23  42  70  97 140 183 228 289 348 419
#
# _framework density 24.520175999999999
#
# number of rings (size 3 to 8) (size 9 to 14) (size 15 to 20)
#    0.857    0.571    2.857    2.571    2.000    1.143 
#   10.286    0.000    0.000    0.000    0.000    0.000 
#    0.000    0.000    0.000    0.000    0.000    0.000 
#
# Total GULP energy -78060.765436 kJ/mol
# GULP energy per Si atom -5575.768960 kJ/mol
# Density = 2.446437 g / cm^3
# Si number density = 24.520176 Si / 1000 Ang^3
#
#
#
# Elastic Constant Matrix: (Units=GPa)
#
#
# Indices 1 2 3 4 5 6 
#
# 1 61.5140 10.1147 10.8425 0.0000 0.6231 0.0000
# 2 10.1147 48.8397 6.1507 0.0000 0.1536 0.0000
# 3 10.8425 6.1507 72.0836 0.0000 -2.9111 0.0000
# 4 0.0000 0.0000 0.0000 35.3501 0.0000 -0.3585
# 5 0.6231 0.1536 -2.9111 0.0000 40.3783 0.0000
# 6 0.0000 0.0000 0.0000 -0.3585 0.0000 32.7745
#
#
#
# Elastic Compliance Matrix: (Units=1/GPa)
#
#
# Indices 1 2 3 4 5 6 
#
# 1 0.017208 -0.003270 -0.002326 0.000000 -0.000421 0.000000
# 2 -0.003270 0.021321 -0.001333 0.000000 -0.000127 0.000000
# 3 -0.002326 -0.001333 0.014380 0.000000 0.001078 0.000000
# 4 0.000000 0.000000 0.000000 0.028292 0.000000 0.000309
# 5 -0.000421 -0.000127 0.001078 0.000000 0.024850 0.000000
# 6 0.000000 0.000000 0.000000 0.000309 0.000000 0.030515
#
#
# Mechanical properties :
#
#
# Convention : Reuss Voigt Hill
#
# Bulk Modulus (GPa) = 25.60704 26.29479 25.95092
# Shear Modulus (GPa) = 30.59223 32.05587 31.32405
#
# Velocity S-wave (km/s) = 3.53602 3.61962 3.57806
# Velocity P-wave (km/s) = 5.20934 5.31186 5.26085
#
# Compressibility (1/GPa) = 0.03905176
#
# Stress axis : x y z
#
# Youngs Moduli (GPa) = 58.11116 46.90318 69.54129
#
# Poissons Ratio (x) = 0.15335 0.16178
# Poissons Ratio (y) = 0.19000 0.09267
# Poissons Ratio (z) = 0.13519 0.06250
#
# Static dielectric constant tensor:
#      x y z
#    x 1.948760 0.000000 -0.002660 
#    y 0.000000 1.978060 0.000000 
#    z -0.002660 0.000000 1.985550 
# 
# From -- ./inp_files/26437.got.cif
#   From: 2010.05.17/outbox.cif.g08.bks.cpg/sg9_14_cif.got.tgz:26437.got - 2010.06.03 20:04:27.
