data_PCOD9137470
_publ_section_title
;
Structure prediction by ZEFSAII (Michael W. Deem and Ramdas Pophale) SiO2 
 PCOD9137470
Probable space group: C C
;
_chemical_formula_sum "Si O2"
_cell_formula_units_Z 20
_cell_length_a 5.183604
_cell_length_b 23.300998
_cell_length_c 5.585099
_cell_angle_alpha 90.000000
_cell_angle_beta 89.291698
_cell_angle_gamma 90.000000
_cell_volume 674.534285
_symmetry_space_group_name_H-M "C C"
_symmetry_group_IT_number 9
_symmetry_cell_setting 'monoclinic'
loop_
_space_group_symop_operation_xyz
x,y,z
x,-y,1/2+z
1/2+x,1/2+y,z
1/2+x,1/2-y,1/2+z
loop_
_atom_site_type_symbol
_atom_site_label
_atom_site_fract_x
_atom_site_fract_y
_atom_site_fract_z
Si Si1 0.586090 0.928816 0.933400
Si Si2 0.770248 0.217524 0.214896
Si Si3 0.960904 0.977383 0.391547
Si Si4 0.095401 0.880555 0.676674
Si Si5 0.527272 0.174999 0.718280
O O1 0.866130 0.905468 0.845559
O O2 0.520639 0.893182 0.174321
O O3 0.366528 0.904830 0.761089
O O4 0.668383 0.996000 0.921025
O O5 0.637798 0.192356 0.976462
O O6 0.770201 0.286217 0.207311
O O7 0.053031 0.187088 0.195328
O O8 0.662520 0.198410 0.473583
O O9 0.012686 0.910440 0.429395
O O10 0.076069 0.004678 0.635278
#
# Coordination Sequence:
#
# PCOD9137470 Si02
#       5
#     4   4   4   4   4
#     4  10  23  43  68 100 137 180 228 281 342 407
#     4  11  23  42  67 101 139 180 228 281 342 408
#     4  10  22  42  66  96 132 176 224 278 336 400
#     4  10  23  43  68 100 137 180 228 281 342 407
#     4  11  23  42  67 101 139 180 228 281 342 408
#
# _framework density 29.650082999999999
#
# number of rings (size 3 to 8) (size 9 to 14) (size 15 to 20)
#    0.000    1.600    0.000    3.600    0.000    9.600 
#    0.000   16.000    0.000    0.000    0.000    0.000 
#    0.000    0.000    0.000    0.000    0.000    0.000 
#
# Total GULP energy -55843.796551 kJ/mol
# GULP energy per Si atom -5584.379655 kJ/mol
# Density = 2.958260 g / cm^3
# Si number density = 29.650083 Si / 1000 Ang^3
#
#
#
# Elastic Constant Matrix: (Units=GPa)
#
#
# Indices 1 2 3 4 5 6 
#
# 1 113.6710 52.1240 61.4937 0.0000 2.2550 0.0000
# 2 52.1240 129.9114 31.5924 0.0000 -3.1247 0.0000
# 3 61.4937 31.5924 219.4712 0.0000 -0.2788 0.0000
# 4 0.0000 0.0000 0.0000 54.8264 0.0000 2.6726
# 5 2.2550 -3.1247 -0.2788 0.0000 60.6625 0.0000
# 6 0.0000 0.0000 0.0000 2.6726 0.0000 49.3429
#
#
#
# Elastic Compliance Matrix: (Units=1/GPa)
#
#
# Indices 1 2 3 4 5 6 
#
# 1 0.012298 -0.004262 -0.002833 0.000000 -0.000690 0.000000
# 2 -0.004262 0.009464 -0.000167 0.000000 0.000645 0.000000
# 3 -0.002833 -0.000167 0.005374 0.000000 0.000121 0.000000
# 4 0.000000 0.000000 0.000000 0.018288 0.000000 -0.000991
# 5 -0.000690 0.000645 0.000121 0.000000 0.016544 0.000000
# 6 0.000000 0.000000 0.000000 -0.000991 0.000000 0.020320
#
#
# Mechanical properties :
#
#
# Convention : Reuss Voigt Hill
#
# Bulk Modulus (GPa) = 79.29308 83.71931 81.50619
# Shear Modulus (GPa) = 49.49686 54.15592 51.82639
#
# Velocity S-wave (km/s) = 4.09022 4.27840 4.18537
# Velocity P-wave (km/s) = 7.00768 7.25970 7.13480
#
# Compressibility (1/GPa) = 0.01261144
#
# Stress axis : x y z
#
# Youngs Moduli (GPa) = 81.31420 105.66642 186.06478
#
# Poissons Ratio (x) = 0.45034 0.52715
# Poissons Ratio (y) = 0.34655 0.03113
# Poissons Ratio (z) = 0.23038 0.01768
#
# Static dielectric constant tensor:
#      x y z
#    x 2.411830 0.000000 0.028240 
#    y 0.000000 2.601140 0.000000 
#    z 0.028240 0.000000 2.345290 
# 
# From -- ./inp_files/248.got.cif
#   From: 2010.05.17/outbox.cif.g08.bks.cpg/sg9_1_cif.got.tgz:248.got - 2010.06.03 20:04:27.
