data_PCOD9137887
_publ_section_title
;
Structure prediction by ZEFSAII (Michael W. Deem and Ramdas Pophale) SiO2 
 PCOD9137887
Probable space group: C C
;
_chemical_formula_sum "Si O2"
_cell_formula_units_Z 32
_cell_length_a 29.440969
_cell_length_b 4.876838
_cell_length_c 12.995062
_cell_angle_alpha 90.000000
_cell_angle_beta 48.468370
_cell_angle_gamma 90.000000
_cell_volume 1396.730753
_symmetry_space_group_name_H-M "C C"
_symmetry_group_IT_number 9
_symmetry_cell_setting 'monoclinic'
loop_
_space_group_symop_operation_xyz
x,y,z
x,-y,1/2+z
1/2+x,1/2+y,z
1/2+x,1/2-y,1/2+z
loop_
_atom_site_type_symbol
_atom_site_label
_atom_site_fract_x
_atom_site_fract_y
_atom_site_fract_z
Si Si1 0.164420 0.827034 0.808640
Si Si2 0.402337 0.048378 0.874132
Si Si3 0.848213 0.713233 0.638754
Si Si4 0.595975 0.175900 0.334162
Si Si5 0.092677 0.324082 0.599306
Si Si6 0.524231 0.672986 0.124828
Si Si7 0.340434 0.286767 0.294719
Si Si8 0.286312 0.451620 0.059338
O O1 0.113363 0.637834 0.829895
O O2 0.227908 0.724966 0.671518
O O3 0.149024 0.137872 0.804597
O O4 0.152639 0.762797 0.946390
O O5 0.460743 0.224952 0.761950
O O6 0.389103 0.835964 0.801882
O O7 0.344325 0.250003 0.966734
O O8 0.402162 0.892226 0.983698
O O9 0.824576 0.457771 0.740726
O O10 0.864072 0.957771 0.692747
O O11 0.799545 0.835965 0.631591
O O12 0.594327 0.228807 0.216733
O O13 0.536013 0.262780 0.487077
O O14 0.075288 0.637813 0.603573
O O15 0.039629 0.137849 0.628873
O O16 0.286486 0.392227 0.449775
#
# Coordination Sequence:
#
# PCOD9137887 Si02
#       8
#     4   4   4   4   4   4   4   4
#     4  10  24  42  68  96 132 171 219 273 334 394
#     4  11  25  44  68 100 144 178 221 281 341 410
#     4  11  24  43  64  95 141 183 227 268 330 412
#     4  10  22  45  68  96 127 171 225 276 328 391
#     4  10  22  45  68  96 127 171 225 276 328 391
#     4  10  24  42  68  96 132 171 219 273 334 394
#     4  11  24  43  64  95 141 183 227 268 330 412
#     4  11  25  44  68 100 144 178 221 281 341 410
#
# _framework density 22.910643
#
# number of rings (size 3 to 8) (size 9 to 14) (size 15 to 20)
#    0.000    1.500    2.500    0.750    7.000    2.000 
#    4.500    0.000    0.000    0.000    0.000    0.000 
#    0.000    0.000    0.000    0.000    0.000    0.000 
#
# Total GULP energy -89542.062299 kJ/mol
# GULP energy per Si atom -5596.378894 kJ/mol
# Density = 2.285850 g / cm^3
# Si number density = 22.910643 Si / 1000 Ang^3
#
#
#
# Elastic Constant Matrix: (Units=GPa)
#
#
# Indices 1 2 3 4 5 6 
#
# 1 32.8039 17.3047 60.9811 -0.0001 11.5084 0.0001
# 2 17.3047 111.4618 44.2908 -0.0005 7.9809 0.0007
# 3 60.9811 44.2908 169.6618 -0.0001 19.8505 -0.0002
# 4 -0.0001 -0.0005 -0.0001 60.4968 -0.0001 38.9777
# 5 11.5084 7.9809 19.8505 -0.0001 48.0823 -0.0001
# 6 0.0001 0.0007 -0.0002 38.9777 -0.0001 100.3477
#
#
#
# Elastic Compliance Matrix: (Units=1/GPa)
#
#
# Indices 1 2 3 4 5 6 
#
# 1 0.095647 -0.001072 -0.033036 0.000000 -0.009076 0.000000
# 2 -0.001072 0.010039 -0.002176 0.000000 -0.000512 0.000000
# 3 -0.033036 -0.002176 0.018250 0.000000 0.000734 0.000000
# 4 0.000000 0.000000 0.000000 0.022047 0.000000 -0.008564
# 5 -0.009076 -0.000512 0.000734 0.000000 0.022752 0.000000
# 6 0.000000 0.000000 0.000000 -0.008564 0.000000 0.013292
#
#
# Mechanical properties :
#
#
# Convention : Reuss Voigt Hill
#
# Bulk Modulus (GPa) = 19.46721 62.12008 40.79365
# Shear Modulus (GPa) = 18.40139 54.54208 36.47174
#
# Velocity S-wave (km/s) = 2.83712 4.88448 3.99421
# Velocity P-wave (km/s) = 4.38723 7.68009 6.25426
#
# Compressibility (1/GPa) = 0.05136844
#
# Stress axis : x y z
#
# Youngs Moduli (GPa) = 10.45512 99.60899 54.79357
#
# Poissons Ratio (x) = 0.10680 1.81018
# Poissons Ratio (y) = 0.01121 0.11921
# Poissons Ratio (z) = 0.34540 0.21671
#
# Static dielectric constant tensor:
#      x y z
#    x 1.848400 0.000000 0.005190 
#    y 0.000000 1.844510 0.000000 
#    z 0.005190 0.000000 1.863850 
# 
# From -- ./inp_files/21349.got.cif
#   From: 2010.05.17/outbox.cif.g08.bks.cpg/sg9_11_cif.got.tgz:21349.got - 2010.06.03 20:04:27.
