data_PCOD9137496
_publ_section_title
;
Structure prediction by ZEFSAII (Michael W. Deem and Ramdas Pophale) SiO2 
 PCOD9137496
Probable space group: C C
;
_chemical_formula_sum "Si O2"
_cell_formula_units_Z 32
_cell_length_a 9.760152
_cell_length_b 20.097313
_cell_length_c 7.439188
_cell_angle_alpha 90.000000
_cell_angle_beta 118.512319
_cell_angle_gamma 90.000000
_cell_volume 1282.235819
_symmetry_space_group_name_H-M "C C"
_symmetry_group_IT_number 9
_symmetry_cell_setting 'monoclinic'
loop_
_space_group_symop_operation_xyz
x,y,z
x,-y,1/2+z
1/2+x,1/2+y,z
1/2+x,1/2-y,1/2+z
loop_
_atom_site_type_symbol
_atom_site_label
_atom_site_fract_x
_atom_site_fract_y
_atom_site_fract_z
Si Si1 0.950520 0.591139 0.372450
Si Si2 0.375422 0.551454 0.074267
Si Si3 0.410412 0.693006 0.152780
Si Si4 0.695475 0.814673 0.955419
Si Si5 0.457408 0.588435 0.719886
Si Si6 0.678915 0.674758 0.054006
Si Si7 0.031290 0.550027 0.022049
Si Si8 0.057597 0.693709 0.969703
O O1 0.787559 0.627878 0.241335
O O2 0.071884 0.647958 0.509538
O O3 0.023817 0.569775 0.225530
O O4 0.941593 0.519981 0.461020
O O5 0.436455 0.615551 0.220428
O O6 0.474024 0.484417 0.148117
O O7 0.203749 0.537555 0.047698
O O8 0.382060 0.574154 0.870941
O O9 0.525349 0.700960 0.058209
O O10 0.229342 0.697850 0.987690
O O11 0.454874 0.747408 0.327411
O O12 0.837295 0.866047 0.037196
O O13 0.760073 0.743137 0.053388
O O14 0.606998 0.801720 0.710942
O O15 0.615653 0.628906 0.853265
O O16 0.983650 0.619938 0.897452
#
# Coordination Sequence:
#
# PCOD9137496 Si02
#       8
#     4   4   4   4   4   4   4   4
#     4  11  24  42  66  98 131 177 225 274 337 399
#     4  10  22  42  69 102 131 179 233 275 339 402
#     4  10  25  45  68 101 132 174 231 278 343 404
#     4  11  25  42  70  93 136 178 226 278 334 409
#     4  11  24  42  69  97 134 183 225 281 339 405
#     4  11  27  43  62 101 140 174 220 280 347 392
#     4  10  22  42  67  97 130 172 224 274 332 404
#     4  10  25  44  69 103 128 179 228 280 343 399
#
# _framework density 24.956406000000001
#
# number of rings (size 3 to 8) (size 9 to 14) (size 15 to 20)
#    0.000    1.500    1.250    1.500   15.750    2.000 
#    2.250    0.000    0.000    0.000    0.000    0.000 
#    0.000    0.000    0.000    0.000    0.000    0.000 
#
# Total GULP energy -89452.759415 kJ/mol
# GULP energy per Si atom -5590.797463 kJ/mol
# Density = 2.489960 g / cm^3
# Si number density = 24.956406 Si / 1000 Ang^3
#
#
#
# Elastic Constant Matrix: (Units=GPa)
#
#
# Indices 1 2 3 4 5 6 
#
# 1 67.7529 8.2202 10.2907 0.0000 -0.4504 0.0000
# 2 8.2202 256.8910 69.2424 0.0000 23.8390 0.0000
# 3 10.2907 69.2424 63.9610 0.0000 7.8520 0.0000
# 4 0.0000 0.0000 0.0000 60.9835 0.0000 10.3162
# 5 -0.4504 23.8390 7.8520 0.0000 37.3757 0.0000
# 6 0.0000 0.0000 0.0000 10.3162 0.0000 21.0368
#
#
#
# Elastic Compliance Matrix: (Units=1/GPa)
#
#
# Indices 1 2 3 4 5 6 
#
# 1 0.015154 0.000190 -0.002721 0.000000 0.000633 0.000000
# 2 0.000190 0.005701 -0.005909 0.000000 -0.002393 0.000000
# 3 -0.002721 -0.005909 0.022593 0.000000 -0.001010 0.000000
# 4 0.000000 0.000000 0.000000 0.017881 0.000000 -0.008769
# 5 0.000633 -0.002393 -0.001010 0.000000 0.028501 0.000000
# 6 0.000000 0.000000 0.000000 -0.008769 0.000000 0.051836
#
#
# Mechanical properties :
#
#
# Convention : Reuss Voigt Hill
#
# Bulk Modulus (GPa) = 37.63971 62.67906 50.15938
# Shear Modulus (GPa) = 29.86787 43.93598 36.90193
#
# Velocity S-wave (km/s) = 3.46324 4.20039 3.84950
# Velocity P-wave (km/s) = 5.57736 6.97813 6.31670
#
# Compressibility (1/GPa) = 0.02656769
#
# Stress axis : x y z
#
# Youngs Moduli (GPa) = 65.98906 175.39637 44.26095
#
# Poissons Ratio (x) = -0.03330 0.12045
# Poissons Ratio (y) = -0.01253 0.26154
# Poissons Ratio (z) = 0.17958 1.03641
#
# Static dielectric constant tensor:
#      x y z
#    x 2.013480 0.000000 -0.059730 
#    y 0.000000 2.013470 0.000000 
#    z -0.059730 0.000000 2.012270 
# 
# From -- ./inp_files/8044.got.cif
#   From: 2010.05.17/outbox.cif.g08.bks.cpg/sg9_5_cif.got.tgz:8044.got - 2010.06.03 20:04:27.
