data_PCOD9137677
_publ_section_title
;
Structure prediction by ZEFSAII (Michael W. Deem and Ramdas Pophale) SiO2 
 PCOD9137677
Probable space group: C C
;
_chemical_formula_sum "Si O2"
_cell_formula_units_Z 32
_cell_length_a 18.469379
_cell_length_b 15.007760
_cell_length_c 8.766944
_cell_angle_alpha 90.000000
_cell_angle_beta 32.554092
_cell_angle_gamma 90.000000
_cell_volume 1307.602804
_symmetry_space_group_name_H-M "C C"
_symmetry_group_IT_number 9
_symmetry_cell_setting 'monoclinic'
loop_
_space_group_symop_operation_xyz
x,y,z
x,-y,1/2+z
1/2+x,1/2+y,z
1/2+x,1/2-y,1/2+z
loop_
_atom_site_type_symbol
_atom_site_label
_atom_site_fract_x
_atom_site_fract_y
_atom_site_fract_z
Si Si1 0.528720 0.627816 0.854380
Si Si2 0.961730 0.737436 0.702763
Si Si3 0.159887 0.626816 0.197116
Si Si4 0.940950 0.177490 0.571225
Si Si5 0.064901 0.440367 0.410674
Si Si6 0.386206 0.946499 0.436675
Si Si7 0.587914 0.526768 0.473710
Si Si8 0.569513 0.211206 0.091000
O O1 0.492966 0.556997 0.784541
O O2 0.577166 0.567418 0.908416
O O3 0.618081 0.700354 0.597247
O O4 0.429728 0.695627 0.119498
O O5 0.114206 0.699127 0.402129
O O6 0.953442 0.784059 0.880981
O O7 0.875887 0.646829 0.863447
O O8 0.158617 0.526504 0.253883
O O9 0.043835 0.643295 0.275148
O O10 0.293413 0.641357 0.865475
O O11 0.050321 0.101558 0.414311
O O12 0.957164 0.249940 0.678492
O O13 0.139255 0.353739 0.344138
O O14 0.001213 0.428906 0.357971
O O15 0.937544 0.474332 0.737306
O O16 0.240350 0.966896 0.761727
#
# Coordination Sequence:
#
# PCOD9137677 Si02
#       8
#     4   4   4   4   4   4   4   4
#     4  10  23  45  67  96 146 182 242 293 358 442
#     4  10  23  42  68 103 140 189 244 292 371 430
#     4  10  24  46  66 104 149 186 246 309 365 446
#     4  11  24  44  71 101 147 194 243 310 368 436
#     4  11  21  43  70 105 136 191 242 300 373 421
#     4  11  23  40  74 103 141 184 246 305 356 443
#     4  11  24  45  68 107 139 196 238 302 376 429
#     4  10  22  43  70 103 138 186 249 295 361 431
#
# _framework density 24.472263999999999
#
# number of rings (size 3 to 8) (size 9 to 14) (size 15 to 20)
#    0.000    1.500    2.500    1.500    5.250    2.000 
#   15.750    0.000    0.000    0.000    0.000    0.000 
#    0.000    0.000    0.000    0.000    0.000    0.000 
#
# Total GULP energy -89073.902521 kJ/mol
# GULP energy per Si atom -5567.118908 kJ/mol
# Density = 2.441656 g / cm^3
# Si number density = 24.472264 Si / 1000 Ang^3
#
#
#
# Elastic Constant Matrix: (Units=GPa)
#
#
# Indices 1 2 3 4 5 6 
#
# 1 75.8081 36.2667 37.2367 0.0000 19.0101 0.0000
# 2 36.2667 113.1799 34.7993 0.0000 15.0084 0.0000
# 3 37.2367 34.7993 84.6511 0.0000 14.4069 0.0000
# 4 0.0000 0.0000 0.0000 27.4239 0.0000 29.8972
# 5 19.0101 15.0084 14.4069 0.0000 26.2844 0.0000
# 6 0.0000 0.0000 0.0000 29.8972 0.0000 35.3463
#
#
#
# Elastic Compliance Matrix: (Units=1/GPa)
#
#
# Indices 1 2 3 4 5 6 
#
# 1 0.020015 -0.003383 -0.005822 0.000000 -0.009353 0.000000
# 2 -0.003383 0.011053 -0.002645 0.000000 -0.002415 0.000000
# 3 -0.005822 -0.002645 0.015978 0.000000 -0.003037 0.000000
# 4 0.000000 0.000000 0.000000 0.468217 0.000000 -0.396035
# 5 -0.009353 -0.002415 -0.003037 0.000000 0.047853 0.000000
# 6 0.000000 0.000000 0.000000 -0.396035 0.000000 0.363272
#
#
# Mechanical properties :
#
#
# Convention : Reuss Voigt Hill
#
# Bulk Modulus (GPa) = 42.83199 54.47165 48.65182
# Shear Modulus (GPa) = 5.21992 28.83334 17.02663
#
# Velocity S-wave (km/s) = 1.46206 3.43622 2.64057
# Velocity P-wave (km/s) = 4.51558 6.16850 5.40559
#
# Compressibility (1/GPa) = 0.02334703
#
# Stress axis : x y z
#
# Youngs Moduli (GPa) = 49.96345 90.47386 62.58567
#
# Poissons Ratio (x) = 0.30609 0.36435
# Poissons Ratio (y) = 0.16904 0.16551
# Poissons Ratio (z) = 0.29087 0.23926
#
# Static dielectric constant tensor:
#      x y z
#    x 1.968980 0.000000 0.044890 
#    y 0.000000 2.022330 0.000000 
#    z 0.044890 0.000000 1.969920 
# 
# From -- ./inp_files/11770.got.cif
#   From: 2010.05.17/outbox.cif.g08.bks.cpg/sg9_6_cif.got.tgz:11770.got - 2010.06.03 20:04:27.
