data_PCOD9137377
_publ_section_title
;
Structure prediction by ZEFSAII (Michael W. Deem and Ramdas Pophale) SiO2 
 PCOD9137377
Probable space group: C C
;
_chemical_formula_sum "Si O2"
_cell_formula_units_Z 32
_cell_length_a 14.207961
_cell_length_b 19.028968
_cell_length_c 14.135465
_cell_angle_alpha 90.000000
_cell_angle_beta 160.139012
_cell_angle_gamma 90.000000
_cell_volume 1298.382949
_symmetry_space_group_name_H-M "C C"
_symmetry_group_IT_number 9
_symmetry_cell_setting 'monoclinic'
loop_
_space_group_symop_operation_xyz
x,y,z
x,-y,1/2+z
1/2+x,1/2+y,z
1/2+x,1/2-y,1/2+z
loop_
_atom_site_type_symbol
_atom_site_label
_atom_site_fract_x
_atom_site_fract_y
_atom_site_fract_z
Si Si1 0.888210 0.798889 0.822400
Si Si2 0.975388 0.512468 0.828842
Si Si3 0.554747 0.302243 0.242211
Si Si4 0.131119 0.531428 0.771174
Si Si5 0.946074 0.397955 0.490862
Si Si6 0.986630 0.911690 0.347354
Si Si7 0.367502 0.704089 0.093698
Si Si8 0.145782 0.897724 0.708973
O O1 0.692926 0.729316 0.632245
O O2 0.714519 0.850331 0.723272
O O3 0.897010 0.829820 0.724954
O O4 0.902975 0.561145 0.850244
O O5 0.189276 0.450810 0.063155
O O6 0.095701 0.548180 0.848097
O O7 0.698465 0.475279 0.530657
O O8 0.266408 0.263157 0.951527
O O9 0.514628 0.351010 0.296407
O O10 0.697314 0.352724 0.299333
O O11 0.025582 0.454622 0.645318
O O12 0.949426 0.584307 0.534574
O O13 0.451732 0.534880 0.046243
O O14 0.089708 0.882437 0.546429
O O15 0.505224 0.660826 0.140865
O O16 0.551966 0.774991 0.276842
#
# Coordination Sequence:
#
# PCOD9137377 Si02
#       8
#     4   4   4   4   4   4   4   4
#     4  10  23  42  63  98 137 177 231 287 350 426
#     4  12  26  45  72 108 145 192 238 313 375 436
#     4  12  29  49  75 108 151 203 251 306 367 450
#     4  12  26  43  71 107 147 184 237 303 377 434
#     4  12  25  46  75 105 143 192 243 302 366 440
#     4  12  25  47  71 103 148 191 251 298 365 447
#     4  10  22  41  68  97 135 181 232 294 356 432
#     4  12  24  45  69 108 140 188 239 299 364 441
#
# _framework density 24.646042999999999
#
# number of rings (size 3 to 8) (size 9 to 14) (size 15 to 20)
#    0.000    0.500    3.750    3.750    0.000    6.000 
#    0.000    0.000    0.000    0.000    0.000    0.000 
#    0.000    0.000    0.000    0.000    0.000    0.000 
#
# Total GULP energy -89638.093641 kJ/mol
# GULP energy per Si atom -5602.380853 kJ/mol
# Density = 2.458995 g / cm^3
# Si number density = 24.646043 Si / 1000 Ang^3
#
#
#
# Elastic Constant Matrix: (Units=GPa)
#
#
# Indices 1 2 3 4 5 6 
#
# 1 187.7561 51.7360 19.7118 0.0016 -20.2734 0.0002
# 2 51.7360 74.5231 7.1694 -0.0004 -16.7721 0.0004
# 3 19.7118 7.1694 91.7669 0.0076 -1.2323 0.0030
# 4 0.0016 -0.0004 0.0076 10.7338 0.0035 -0.6157
# 5 -20.2734 -16.7721 -1.2323 0.0035 35.6650 0.0007
# 6 0.0002 0.0004 0.0030 -0.6157 0.0007 67.2123
#
#
#
# Elastic Compliance Matrix: (Units=1/GPa)
#
#
# Indices 1 2 3 4 5 6 
#
# 1 0.006799 -0.004196 -0.001108 -0.000001 0.001853 0.000000
# 2 -0.004196 0.017704 -0.000402 0.000000 0.005927 0.000000
# 3 -0.001108 -0.000402 0.011161 -0.000008 -0.000433 -0.000001
# 4 -0.000001 0.000000 -0.000008 0.093213 -0.000010 0.000854
# 5 0.001853 0.005927 -0.000433 -0.000010 0.031864 0.000000
# 6 0.000000 0.000000 -0.000001 0.000854 0.000000 0.014886
#
#
# Mechanical properties :
#
#
# Convention : Reuss Voigt Hill
#
# Bulk Modulus (GPa) = 41.23461 56.80894 49.02178
# Shear Modulus (GPa) = 25.62488 41.08414 33.35451
#
# Velocity S-wave (km/s) = 3.22796 4.08728 3.68277
# Velocity P-wave (km/s) = 5.53715 6.73606 6.16581
#
# Compressibility (1/GPa) = 0.02425147
#
# Stress axis : x y z
#
# Youngs Moduli (GPa) = 147.08696 56.48341 89.60005
#
# Poissons Ratio (x) = 0.23702 0.09925
# Poissons Ratio (y) = 0.61721 0.03604
# Poissons Ratio (z) = 0.16292 0.02272
#
# Static dielectric constant tensor:
#      x y z
#    x 1.972020 0.000000 -0.033480 
#    y 0.000000 1.972800 0.000000 
#    z -0.033480 0.000000 1.930180 
# 
# From -- ./inp_files/26161.got.cif
#   From: 2010.05.17/outbox.cif.g08.bks.cpg/sg9_14_cif.got.tgz:26161.got - 2010.06.03 20:04:27.
