data_PCOD9137099
_publ_section_title
;
Structure prediction by ZEFSAII (Michael W. Deem and Ramdas Pophale) SiO2 
 PCOD9137099
Probable space group: C C
;
_chemical_formula_sum "Si O2"
_cell_formula_units_Z 20
_cell_length_a 6.660853
_cell_length_b 22.014633
_cell_length_c 5.978256
_cell_angle_alpha 90.000000
_cell_angle_beta 96.611448
_cell_angle_gamma 90.000000
_cell_volume 870.799173
_symmetry_space_group_name_H-M "C C"
_symmetry_group_IT_number 9
_symmetry_cell_setting 'monoclinic'
loop_
_space_group_symop_operation_xyz
x,y,z
x,-y,1/2+z
1/2+x,1/2+y,z
1/2+x,1/2-y,1/2+z
loop_
_atom_site_type_symbol
_atom_site_label
_atom_site_fract_x
_atom_site_fract_y
_atom_site_fract_z
Si Si1 0.640600 0.870688 0.691330
Si Si2 0.217115 0.870610 0.430157
Si Si3 0.349833 0.715405 0.946044
Si Si4 0.994370 0.656865 0.601783
Si Si5 0.910375 0.030821 0.031717
O O1 0.415296 0.853370 0.592779
O O2 0.792514 0.814542 0.678144
O O3 0.720963 0.923500 0.541143
O O4 0.620321 0.885071 0.948661
O O5 0.320924 0.881274 0.203522
O O6 0.054139 0.817065 0.391729
O O7 0.107573 0.926349 0.535488
O O8 0.162989 0.691857 0.772746
O O9 0.379988 0.786247 0.974029
O O10 0.908288 0.998723 0.279672
#
# Coordination Sequence:
#
# PCOD9137099 Si02
#       5
#     4   4   4   4   4
#     4  10  24  42  67  97 136 179 228 283 338 417
#     4  10  24  42  67 100 132 184 225 283 340 417
#     4  10  22  39  62 102 140 182 219 275 338 414
#     4  11  22  39  67  98 142 178 228 273 340 413
#     4  11  28  48  73 101 138 179 234 298 354 405
#
# _framework density 22.967407999999999
#
# number of rings (size 3 to 8) (size 9 to 14) (size 15 to 20)
#    0.000    1.600    0.000    2.400   11.200    8.000 
#    0.000    0.000    0.000    0.000    0.000    0.000 
#    0.000    0.000    0.000    0.000    0.000    0.000 
#
# Total GULP energy -55703.006146 kJ/mol
# GULP energy per Si atom -5570.300615 kJ/mol
# Density = 2.291513 g / cm^3
# Si number density = 22.967408 Si / 1000 Ang^3
#
#
#
# Elastic Constant Matrix: (Units=GPa)
#
#
# Indices 1 2 3 4 5 6 
#
# 1 136.3561 28.4875 50.1289 0.0000 -31.2590 0.0000
# 2 28.4875 60.4147 50.0779 0.0000 -26.8217 0.0000
# 3 50.1289 50.0779 130.0372 0.0000 -52.6545 0.0000
# 4 0.0000 0.0000 0.0000 29.3780 0.0000 -3.9070
# 5 -31.2590 -26.8217 -52.6545 0.0000 44.3578 0.0000
# 6 0.0000 0.0000 0.0000 -3.9070 0.0000 19.4722
#
#
#
# Elastic Compliance Matrix: (Units=1/GPa)
#
#
# Indices 1 2 3 4 5 6 
#
# 1 0.009019 -0.001394 -0.001363 0.000000 0.003895 0.000000
# 2 -0.001394 0.025680 -0.006667 0.000000 0.006632 0.000000
# 3 -0.001363 -0.006667 0.016871 0.000000 0.015035 0.000000
# 4 0.000000 0.000000 0.000000 0.034972 0.000000 0.007017
# 5 0.003895 0.006632 0.015035 0.000000 0.047146 0.000000
# 6 0.000000 0.000000 0.000000 0.007017 0.000000 0.052763
#
#
# Mechanical properties :
#
#
# Convention : Reuss Voigt Hill
#
# Bulk Modulus (GPa) = 30.55978 64.91074 47.73526
# Shear Modulus (GPa) = 23.12625 31.84920 27.48773
#
# Velocity S-wave (km/s) = 3.17664 3.72790 3.46325
# Velocity P-wave (km/s) = 5.17584 6.84493 6.06805
#
# Compressibility (1/GPa) = 0.03272274
#
# Stress axis : x y z
#
# Youngs Moduli (GPa) = 110.87855 38.94103 59.27457
#
# Poissons Ratio (x) = 0.05428 0.08078
# Poissons Ratio (y) = 0.15454 0.39517
# Poissons Ratio (z) = 0.15110 0.25961
#
# Static dielectric constant tensor:
#      x y z
#    x 1.800260 0.000000 -0.020280 
#    y 0.000000 1.886350 0.000000 
#    z -0.020280 0.000000 2.140540 
# 
# From -- ./inp_files/157.got.cif
#   From: 2010.05.17/outbox.cif.g08.bks.cpg/sg9_1_cif.got.tgz:157.got - 2010.06.03 20:04:27.
