data_PCOD9137876
_publ_section_title
;
Structure prediction by ZEFSAII (Michael W. Deem and Ramdas Pophale) SiO2 
 PCOD9137876
Probable space group: C C
;
_chemical_formula_sum "Si O2"
_cell_formula_units_Z 32
_cell_length_a 12.376583
_cell_length_b 7.546304
_cell_length_c 15.642560
_cell_angle_alpha 90.000000
_cell_angle_beta 116.587888
_cell_angle_gamma 90.000000
_cell_volume 1306.475545
_symmetry_space_group_name_H-M "C C"
_symmetry_group_IT_number 9
_symmetry_cell_setting 'monoclinic'
loop_
_space_group_symop_operation_xyz
x,y,z
x,-y,1/2+z
1/2+x,1/2+y,z
1/2+x,1/2-y,1/2+z
loop_
_atom_site_type_symbol
_atom_site_label
_atom_site_fract_x
_atom_site_fract_y
_atom_site_fract_z
Si Si1 0.045530 0.795770 0.177220
Si Si2 0.900885 0.372975 0.757952
Si Si3 0.790103 0.719777 0.875264
Si Si4 0.529963 0.677748 0.120985
Si Si5 0.823998 0.327449 0.923344
Si Si6 0.880338 0.249049 0.231554
Si Si7 0.157473 0.501718 0.613003
Si Si8 0.655837 0.025392 0.912447
O O1 0.165939 0.814621 0.277911
O O2 0.059556 0.615422 0.129349
O O3 0.930242 0.773219 0.197934
O O4 0.040634 0.967990 0.117008
O O5 0.854454 0.307864 0.833204
O O6 0.834000 0.548628 0.699939
O O7 0.034176 0.460562 0.823600
O O8 0.813992 0.538207 0.932616
O O9 0.891595 0.757720 0.838911
O O10 0.761302 0.888536 0.922129
O O11 0.486852 0.711483 0.203010
O O12 0.646552 0.797549 0.142135
O O13 0.428576 0.749945 0.020410
O O14 0.704231 0.218024 0.904161
O O15 0.779384 0.104084 0.174793
O O16 0.134819 0.492868 0.504999
#
# Coordination Sequence:
#
# PCOD9137876 Si02
#       8
#     4   4   4   4   4   4   4   4
#     4  10  24  43  68  98 132 182 231 287 352 412
#     4  10  22  47  70  99 140 179 237 291 347 425
#     4   9  24  44  65  98 132 175 231 284 344 415
#     4  12  24  43  68 101 137 183 232 288 356 415
#     4  11  24  43  67 101 137 179 232 288 352 412
#     4  10  22  45  67  97 136 176 226 289 347 413
#     4  11  23  46  65  98 144 175 230 291 347 423
#     4  11  23  43  70  98 138 183 227 292 351 415
#
# _framework density 24.493376999999999
#
# number of rings (size 3 to 8) (size 9 to 14) (size 15 to 20)
#    0.000    1.500    3.750    0.000    3.500    2.000 
#    4.500    0.000    0.000    0.000    0.000    0.000 
#    0.000    0.000    0.000    0.000    0.000    0.000 
#
# Total GULP energy -89581.118289 kJ/mol
# GULP energy per Si atom -5598.819893 kJ/mol
# Density = 2.443763 g / cm^3
# Si number density = 24.493377 Si / 1000 Ang^3
#
#
#
# Elastic Constant Matrix: (Units=GPa)
#
#
# Indices 1 2 3 4 5 6 
#
# 1 80.6065 -0.5206 11.6816 0.0000 -18.5249 0.0000
# 2 -0.5206 86.2536 20.8674 0.0000 3.9146 0.0000
# 3 11.6816 20.8674 55.1114 0.0000 4.5867 0.0000
# 4 0.0000 0.0000 0.0000 39.2749 0.0000 -6.9686
# 5 -18.5249 3.9146 4.5867 0.0000 36.9384 0.0000
# 6 0.0000 0.0000 0.0000 -6.9686 0.0000 54.8522
#
#
#
# Elastic Compliance Matrix: (Units=1/GPa)
#
#
# Indices 1 2 3 4 5 6 
#
# 1 0.014804 0.000716 -0.004063 0.000000 0.007853 0.000000
# 2 0.000716 0.012819 -0.004974 0.000000 -0.000382 0.000000
# 3 -0.004063 -0.004974 0.021234 0.000000 -0.004147 0.000000
# 4 0.000000 0.000000 0.000000 0.026049 0.000000 0.003309
# 5 0.007853 -0.000382 -0.004147 0.000000 0.031566 0.000000
# 6 0.000000 0.000000 0.000000 0.003309 0.000000 0.018651
#
#
# Mechanical properties :
#
#
# Convention : Reuss Voigt Hill
#
# Bulk Modulus (GPa) = 31.03991 31.78093 31.41042
# Shear Modulus (GPa) = 32.78636 38.87598 35.83117
#
# Velocity S-wave (km/s) = 3.66263 3.98829 3.82893
# Velocity P-wave (km/s) = 5.53053 5.84911 5.69205
#
# Compressibility (1/GPa) = 0.03221658
#
# Stress axis : x y z
#
# Youngs Moduli (GPa) = 67.54898 78.01150 47.09318
#
# Poissons Ratio (x) = -0.05584 0.19132
# Poissons Ratio (y) = -0.04835 0.23422
# Poissons Ratio (z) = 0.27442 0.38800
#
# Static dielectric constant tensor:
#      x y z
#    x 2.027090 0.000000 0.052650 
#    y 0.000000 1.959930 0.000000 
#    z 0.052650 0.000000 1.916020 
# 
# From -- ./inp_files/30425.got.cif
#   From: 2010.05.17/outbox.cif.g08.bks.cpg/sg9_16_cif.got.tgz:30425.got - 2010.06.03 20:04:27.
