data_PCOD9137090
_publ_section_title
;
Structure prediction by ZEFSAII (Michael W. Deem and Ramdas Pophale) SiO2 
 PCOD9137090
Probable space group: C C
;
_chemical_formula_sum "Si O2"
_cell_formula_units_Z 20
_cell_length_a 10.918761
_cell_length_b 15.372129
_cell_length_c 5.283591
_cell_angle_alpha 90.000000
_cell_angle_beta 56.754036
_cell_angle_gamma 90.000000
_cell_volume 741.671405
_symmetry_space_group_name_H-M "C C"
_symmetry_group_IT_number 9
_symmetry_cell_setting 'monoclinic'
loop_
_space_group_symop_operation_xyz
x,y,z
x,-y,1/2+z
1/2+x,1/2+y,z
1/2+x,1/2-y,1/2+z
loop_
_atom_site_type_symbol
_atom_site_label
_atom_site_fract_x
_atom_site_fract_y
_atom_site_fract_z
Si Si1 0.144250 0.738975 0.109360
Si Si2 0.669851 0.049963 0.973094
Si Si3 0.490100 0.618841 0.504364
Si Si4 0.313528 0.051061 0.046142
Si Si5 0.836274 0.259059 0.390190
O O1 0.245368 0.753504 0.236702
O O2 0.029097 0.814951 0.189325
O O3 0.096206 0.639049 0.154862
O O4 0.233623 0.744785 0.748280
O O5 0.847176 0.066056 0.755014
O O6 0.636803 0.021000 0.724944
O O7 0.636122 0.567058 0.261800
O O8 0.449795 0.681870 0.313680
O O9 0.385767 0.142172 0.879929
O O10 0.346927 0.018230 0.289858
#
# Coordination Sequence:
#
# PCOD9137090 Si02
#       5
#     4   4   4   4   4
#     4  10  22  39  58  86 121 156 193 238 293 355
#     4  11  22  38  60  91 119 148 195 253 292 334
#     4  10  22  40  64  86 116 164 200 232 292 362
#     4  11  22  38  60  91 119 148 195 253 292 334
#     4  10  22  39  58  86 121 156 193 238 293 355
#
# _framework density 26.966121000000001
#
# number of rings (size 3 to 8) (size 9 to 14) (size 15 to 20)
#    0.000    1.600    0.000    6.000    0.000   12.800 
#    0.000    2.000    0.000    0.000    0.000    0.000 
#    0.000    0.000    0.000    0.000    0.000    0.000 
#
# Total GULP energy -56048.719220 kJ/mol
# GULP energy per Si atom -5604.871922 kJ/mol
# Density = 2.690475 g / cm^3
# Si number density = 26.966121 Si / 1000 Ang^3
#
#
#
# Elastic Constant Matrix: (Units=GPa)
#
#
# Indices 1 2 3 4 5 6 
#
# 1 106.1267 14.8180 43.6751 0.0000 12.4774 0.0000
# 2 14.8180 109.7210 18.7296 0.0000 4.8669 0.0000
# 3 43.6751 18.7296 126.8354 0.0000 -6.6843 0.0000
# 4 0.0000 0.0000 0.0000 5.2162 0.0000 10.7231
# 5 12.4774 4.8669 -6.6843 0.0000 52.8394 0.0000
# 6 0.0000 0.0000 0.0000 10.7231 0.0000 71.5692
#
#
#
# Elastic Compliance Matrix: (Units=1/GPa)
#
#
# Indices 1 2 3 4 5 6 
#
# 1 0.011561 -0.000731 -0.004040 0.000000 -0.003174 0.000000
# 2 -0.000731 0.009453 -0.001189 0.000000 -0.000849 0.000000
# 3 -0.004040 -0.001189 0.009571 0.000000 0.002274 0.000000
# 4 0.000000 0.000000 0.000000 0.277044 0.000000 -0.041509
# 5 -0.003174 -0.000849 0.002274 0.000000 0.020041 0.000000
# 6 0.000000 0.000000 0.000000 -0.041509 0.000000 0.020192
#
#
# Mechanical properties :
#
#
# Convention : Reuss Voigt Hill
#
# Bulk Modulus (GPa) = 53.57693 55.23650 54.40672
# Shear Modulus (GPa) = 13.66111 43.62231 28.64171
#
# Velocity S-wave (km/s) = 2.25323 4.02639 3.26258
# Velocity P-wave (km/s) = 5.16534 6.49183 5.86620
#
# Compressibility (1/GPa) = 0.01866475
#
# Stress axis : x y z
#
# Youngs Moduli (GPa) = 86.50119 105.78281 104.48369
#
# Poissons Ratio (x) = 0.07731 0.42213
# Poissons Ratio (y) = 0.06322 0.12423
# Poissons Ratio (z) = 0.34948 0.12578
#
# Static dielectric constant tensor:
#      x y z
#    x 2.308060 0.000000 -0.092890 
#    y 0.000000 2.144380 0.000000 
#    z -0.092890 0.000000 2.415650 
# 
# From -- ./inp_files/1504.got.cif
#   From: 2010.05.17/outbox.cif.g08.bks.cpg/sg9_1_cif.got.tgz:1504.got - 2010.06.03 20:04:27.
