data_PCOD9137465
_publ_section_title
;
Structure prediction by ZEFSAII (Michael W. Deem and Ramdas Pophale) SiO2 
 PCOD9137465
Probable space group: C C
;
_chemical_formula_sum "Si O2"
_cell_formula_units_Z 24
_cell_length_a 16.662053
_cell_length_b 8.834651
_cell_length_c 9.739927
_cell_angle_alpha 90.000000
_cell_angle_beta 134.905109
_cell_angle_gamma 90.000000
_cell_volume 1015.492418
_symmetry_space_group_name_H-M "C C"
_symmetry_group_IT_number 9
_symmetry_cell_setting 'monoclinic'
loop_
_space_group_symop_operation_xyz
x,y,z
x,-y,1/2+z
1/2+x,1/2+y,z
1/2+x,1/2-y,1/2+z
loop_
_atom_site_type_symbol
_atom_site_label
_atom_site_fract_x
_atom_site_fract_y
_atom_site_fract_z
Si Si1 0.383380 0.286874 0.322290
Si Si2 0.047259 0.936439 0.745795
Si Si3 0.779798 0.320737 0.948975
Si Si4 0.495777 0.816160 0.385564
Si Si5 0.501905 0.210271 0.195978
Si Si6 0.699157 0.015427 0.998745
O O1 0.479711 0.344525 0.545271
O O2 0.300715 0.183492 0.312982
O O3 0.433705 0.195855 0.255284
O O4 0.309174 0.431361 0.188227
O O5 0.023092 0.852766 0.861380
O O6 0.015763 0.109530 0.709190
O O7 0.178603 0.925419 0.870972
O O8 0.895958 0.364656 0.163114
O O9 0.741157 0.150235 0.949507
O O10 0.451316 0.828422 0.486216
O O11 0.613220 0.905546 0.503087
O O12 0.618361 0.115523 0.340526
#
# Coordination Sequence:
#
# PCOD9137465 Si02
#       6
#     4   4   4   4   4   4
#     4  11  22  40  66  96 131 174 220 271 324 385
#     4  10  22  42  66  95 132 174 216 267 327 388
#     4  10  22  44  66  90 134 178 215 270 327 386
#     4  10  24  44  66  95 132 175 221 268 326 389
#     4  12  24  40  67 101 129 167 221 270 327 391
#     4  11  24  42  67  97 132 176 221 270 325 389
#
# _framework density 23.633853999999999
#
# number of rings (size 3 to 8) (size 9 to 14) (size 15 to 20)
#    0.000    1.333    0.000    6.000    0.000    6.667 
#    0.000    3.333    0.000    0.000    0.000    0.000 
#    0.000    0.000    0.000    0.000    0.000    0.000 
#
# Total GULP energy -67135.535088 kJ/mol
# GULP energy per Si atom -5594.627924 kJ/mol
# Density = 2.358006 g / cm^3
# Si number density = 23.633854 Si / 1000 Ang^3
#
#
#
# Elastic Constant Matrix: (Units=GPa)
#
#
# Indices 1 2 3 4 5 6 
#
# 1 140.2454 7.2104 49.7589 0.0000 -16.7261 0.0000
# 2 7.2104 63.7629 13.7678 0.0000 -5.6124 0.0000
# 3 49.7589 13.7678 70.0674 0.0000 -19.5753 0.0000
# 4 0.0000 0.0000 0.0000 17.9682 0.0000 19.9548
# 5 -16.7261 -5.6124 -19.5753 0.0000 44.1195 0.0000
# 6 0.0000 0.0000 0.0000 19.9548 0.0000 20.3393
#
#
#
# Elastic Compliance Matrix: (Units=1/GPa)
#
#
# Indices 1 2 3 4 5 6 
#
# 1 0.009562 0.000423 -0.006673 0.000000 0.000718 0.000000
# 2 0.000423 0.016418 -0.003308 0.000000 0.000781 0.000000
# 3 -0.006673 -0.003308 0.021502 0.000000 0.006590 0.000000
# 4 0.000000 0.000000 0.000000 -0.621411 0.000000 0.609662
# 5 0.000718 0.000781 0.006590 0.000000 0.025961 0.000000
# 6 0.000000 0.000000 0.000000 0.609662 0.000000 -0.548968
#
#
# Mechanical properties :
#
#
# Convention : Reuss Voigt Hill
#
# Bulk Modulus (GPa) = 35.25413 46.17220 40.71317
# Shear Modulus (GPa) = -4.68005 30.04132 12.68063
#
# Velocity S-wave (km/s) = -1.40873 3.56914 2.31886
# Velocity P-wave (km/s) = 3.50758 6.04681 4.94303
#
# Compressibility (1/GPa) = 0.02836547
#
# Stress axis : x y z
#
# Youngs Moduli (GPa) = 104.58318 60.90755 46.50796
#
# Poissons Ratio (x) = -0.02575 0.31034
# Poissons Ratio (y) = -0.04421 0.15385
# Poissons Ratio (z) = 0.69786 0.20149
#
# Static dielectric constant tensor:
#      x y z
#    x 1.881790 0.000000 -0.031340 
#    y 0.000000 1.914240 0.000000 
#    z -0.031340 0.000000 1.870650 
# 
# From -- ./inp_files/10467.got.cif
#   From: 2010.05.17/outbox.cif.g08.bks.cpg/sg9_6_cif.got.tgz:10467.got - 2010.06.03 20:04:27.
