data_PCOD9137115
_publ_section_title
;
Structure prediction by ZEFSAII (Michael W. Deem and Ramdas Pophale) SiO2 
 PCOD9137115
Probable space group: C C
;
_chemical_formula_sum "Si O2"
_cell_formula_units_Z 32
_cell_length_a 8.429485
_cell_length_b 19.624366
_cell_length_c 12.426777
_cell_angle_alpha 90.000000
_cell_angle_beta 129.357221
_cell_angle_gamma 90.000000
_cell_volume 1589.465518
_symmetry_space_group_name_H-M "C C"
_symmetry_group_IT_number 9
_symmetry_cell_setting 'monoclinic'
loop_
_space_group_symop_operation_xyz
x,y,z
x,-y,1/2+z
1/2+x,1/2+y,z
1/2+x,1/2-y,1/2+z
loop_
_atom_site_type_symbol
_atom_site_label
_atom_site_fract_x
_atom_site_fract_y
_atom_site_fract_z
Si Si1 0.516920 0.120345 0.650990
Si Si2 0.443064 0.668023 0.907997
Si Si3 0.603731 0.429579 0.910317
Si Si4 0.663475 0.426389 0.330820
Si Si5 0.464456 0.020205 0.810279
Si Si6 0.042345 0.677656 0.429855
Si Si7 0.334638 0.425080 0.998084
Si Si8 0.652197 0.603344 0.192737
O O1 0.698650 0.166674 0.778583
O O2 0.267503 0.121298 0.538845
O O3 0.536885 0.051472 0.728622
O O4 0.554519 0.129774 0.540855
O O5 0.576072 0.632231 0.870540
O O6 0.525547 0.744467 0.955290
O O7 0.490048 0.624347 0.034326
O O8 0.685570 0.504944 0.912263
O O9 0.430454 0.439831 0.923261
O O10 0.557058 0.400858 0.771363
O O11 0.874859 0.422739 0.353283
O O12 0.492431 0.431728 0.163604
O O13 0.653068 0.978765 0.938289
O O14 0.277157 0.965964 0.718410
O O15 0.239290 0.651027 0.451130
O O16 0.835650 0.658423 0.277891
#
# Coordination Sequence:
#
# PCOD9137115 Si02
#       8
#     4   4   4   4   4   4   4   4
#     4  11  21  39  68  90 128 167 208 270 319 381
#     4  12  23  40  67  94 128 178 222 256 319 391
#     4  10  22  41  64  97 131 162 208 271 340 380
#     4  11  23  38  68  97 130 168 212 268 326 392
#     4  10  22  39  64 100 128 156 214 267 340 373
#     4  10  23  43  62  93 128 180 220 259 315 382
#     4  11  22  42  67  94 133 171 208 274 324 386
#     4   9  22  40  62  95 134 164 212 271 319 391
#
# _framework density 20.132553999999999
#
# number of rings (size 3 to 8) (size 9 to 14) (size 15 to 20)
#    0.000    1.500    2.500    3.000    5.250    0.000 
#    2.250    3.750    0.000    0.000    0.000    0.000 
#    0.000    0.000    0.000    0.000    0.000    0.000 
#
# Total GULP energy -89068.520504 kJ/mol
# GULP energy per Si atom -5566.782532 kJ/mol
# Density = 2.008673 g / cm^3
# Si number density = 20.132554 Si / 1000 Ang^3
#
#
#
# Elastic Constant Matrix: (Units=GPa)
#
#
# Indices 1 2 3 4 5 6 
#
# 1 81.6244 41.8851 42.6434 0.0000 0.2397 0.0000
# 2 41.8851 68.5413 17.6737 0.0000 -10.4860 0.0000
# 3 42.6434 17.6737 99.2555 0.0000 -7.1513 0.0000
# 4 0.0000 0.0000 0.0000 16.7181 0.0000 2.9290
# 5 0.2397 -10.4860 -7.1513 0.0000 21.3668 0.0000
# 6 0.0000 0.0000 0.0000 2.9290 0.0000 13.8863
#
#
#
# Elastic Compliance Matrix: (Units=1/GPa)
#
#
# Indices 1 2 3 4 5 6 
#
# 1 0.023849 -0.013905 -0.008486 0.000000 -0.009932 0.000000
# 2 -0.013905 0.024415 0.002563 0.000000 0.012996 0.000000
# 3 -0.008486 0.002563 0.013692 0.000000 0.005936 0.000000
# 4 0.000000 0.000000 0.000000 0.062111 0.000000 -0.013101
# 5 -0.009932 0.012996 0.005936 0.000000 0.055277 0.000000
# 6 0.000000 0.000000 0.000000 -0.013101 0.000000 0.074777
#
#
# Mechanical properties :
#
#
# Convention : Reuss Voigt Hill
#
# Bulk Modulus (GPa) = 44.84405 50.42507 47.63456
# Shear Modulus (GPa) = 16.59969 20.20883 18.40426
#
# Velocity S-wave (km/s) = 2.87456 3.17170 3.02678
# Velocity P-wave (km/s) = 5.77410 6.20595 5.99391
#
# Compressibility (1/GPa) = 0.02229950
#
# Stress axis : x y z
#
# Youngs Moduli (GPa) = 41.92993 40.95926 73.03470
#
# Poissons Ratio (x) = 0.56956 0.61977
# Poissons Ratio (y) = 0.58306 -0.18721
# Poissons Ratio (z) = 0.35582 -0.10499
#
# Static dielectric constant tensor:
#      x y z
#    x 1.783140 0.000000 0.020690 
#    y 0.000000 1.724860 0.000000 
#    z 0.020690 0.000000 1.740170 
# 
# From -- ./inp_files/15404.got.cif
#   From: 2010.05.17/outbox.cif.g08.bks.cpg/sg9_8_cif.got.tgz:15404.got - 2010.06.03 20:04:27.
