data_PCOD9137261
_publ_section_title
;
Structure prediction by ZEFSAII (Michael W. Deem and Ramdas Pophale) SiO2 
 PCOD9137261
Probable space group: C C
;
_chemical_formula_sum "Si O2"
_cell_formula_units_Z 28
_cell_length_a 14.268060
_cell_length_b 11.559316
_cell_length_c 9.016486
_cell_angle_alpha 90.000000
_cell_angle_beta 119.504730
_cell_angle_gamma 90.000000
_cell_volume 1294.228221
_symmetry_space_group_name_H-M "C C"
_symmetry_group_IT_number 9
_symmetry_cell_setting 'monoclinic'
loop_
_space_group_symop_operation_xyz
x,y,z
x,-y,1/2+z
1/2+x,1/2+y,z
1/2+x,1/2-y,1/2+z
loop_
_atom_site_type_symbol
_atom_site_label
_atom_site_fract_x
_atom_site_fract_y
_atom_site_fract_z
Si Si1 0.973340 0.185874 0.663460
Si Si2 0.924930 0.618889 0.944621
Si Si3 0.017293 0.429985 0.201842
Si Si4 0.391620 0.757559 0.894635
Si Si5 0.020292 0.056789 0.135356
Si Si6 0.674394 0.260409 0.903193
Si Si7 0.686395 0.628791 0.724965
O O1 0.945011 0.244605 0.484165
O O2 0.906671 0.257311 0.730942
O O3 0.103941 0.190643 0.775063
O O4 0.953587 0.048817 0.654780
O O5 0.800281 0.593413 0.880935
O O6 0.945816 0.578999 0.793901
O O7 0.007624 0.555206 0.120318
O O8 0.126907 0.367899 0.338913
O O9 0.966885 0.350968 0.033079
O O10 0.274320 0.774493 0.870602
O O11 0.441281 0.633620 0.977587
O O12 0.081911 0.146897 0.288764
O O13 0.115732 0.984826 0.127526
O O14 0.705343 0.290899 0.096224
#
# Coordination Sequence:
#
# PCOD9137261 Si02
#       7
#     4   4   4   4   4   4   4
#     4  10  24  42  64  99 131 170 224 279 324 408
#     4  12  23  42  65  97 134 177 226 274 341 393
#     4  11  24  40  65  95 138 171 223 281 331 405
#     4  11  22  42  67  98 130 170 222 279 336 394
#     4   9  22  41  69  94 133 166 230 267 329 398
#     4  11  21  43  66  97 131 175 215 277 345 388
#     4  10  22  40  68  92 127 175 216 267 330 400
#
# _framework density 21.634513999999999
#
# number of rings (size 3 to 8) (size 9 to 14) (size 15 to 20)
#    0.857    0.571    2.857    2.571    0.000    2.286 
#    5.143    0.000    0.000    0.000    0.000    0.000 
#    0.000    0.000    0.000    0.000    0.000    0.000 
#
# Total GULP energy -78026.664485 kJ/mol
# GULP energy per Si atom -5573.333177 kJ/mol
# Density = 2.158527 g / cm^3
# Si number density = 21.634514 Si / 1000 Ang^3
#
#
#
# Elastic Constant Matrix: (Units=GPa)
#
#
# Indices 1 2 3 4 5 6 
#
# 1 51.6031 6.6792 -3.9965 0.0000 -16.4389 0.0000
# 2 6.6792 82.8418 20.6027 0.0000 3.6816 0.0000
# 3 -3.9965 20.6027 48.8645 0.0000 -5.7899 0.0000
# 4 0.0000 0.0000 0.0000 21.6213 0.0000 -2.6354
# 5 -16.4389 3.6816 -5.7899 0.0000 16.5494 0.0000
# 6 0.0000 0.0000 0.0000 -2.6354 0.0000 21.9320
#
#
#
# Elastic Compliance Matrix: (Units=1/GPa)
#
#
# Indices 1 2 3 4 5 6 
#
# 1 0.033160 -0.006879 0.010116 0.000000 0.038008 0.000000
# 2 -0.006879 0.015356 -0.008608 0.000000 -0.013260 0.000000
# 3 0.010116 -0.008608 0.027478 0.000000 0.021577 0.000000
# 4 0.000000 0.000000 0.000000 0.046938 0.000000 0.005640
# 5 0.038008 -0.013260 0.021577 0.000000 0.108678 0.000000
# 6 0.000000 0.000000 0.000000 0.005640 0.000000 0.046273
#
#
# Mechanical properties :
#
#
# Convention : Reuss Voigt Hill
#
# Bulk Modulus (GPa) = 15.32505 25.54225 20.43365
# Shear Modulus (GPa) = 16.10945 22.68883 19.39914
#
# Velocity S-wave (km/s) = 2.73173 3.24193 2.99770
# Velocity P-wave (km/s) = 4.12902 5.08383 4.63110
#
# Compressibility (1/GPa) = 0.06525266
#
# Stress axis : x y z
#
# Youngs Moduli (GPa) = 30.15639 65.12117 36.39242
#
# Poissons Ratio (x) = 0.44794 -0.36814
# Poissons Ratio (y) = 0.20743 0.31328
# Poissons Ratio (z) = -0.30506 0.56058
#
# Static dielectric constant tensor:
#      x y z
#    x 1.803560 0.000000 -0.037780 
#    y 0.000000 1.851280 0.000000 
#    z -0.037780 0.000000 1.790510 
# 
# From -- ./inp_files/9045.got.cif
#   From: 2010.05.17/outbox.cif.g08.bks.cpg/sg9_5_cif.got.tgz:9045.got - 2010.06.03 20:04:27.
