data_PCOD9137237
_publ_section_title
;
Structure prediction by ZEFSAII (Michael W. Deem and Ramdas Pophale) SiO2 
 PCOD9137237
Probable space group: C C
;
_chemical_formula_sum "Si O2"
_cell_formula_units_Z 32
_cell_length_a 15.897086
_cell_length_b 10.951291
_cell_length_c 13.736183
_cell_angle_alpha 90.000000
_cell_angle_beta 146.790280
_cell_angle_gamma 90.000000
_cell_volume 1309.772148
_symmetry_space_group_name_H-M "C C"
_symmetry_group_IT_number 9
_symmetry_cell_setting 'monoclinic'
loop_
_space_group_symop_operation_xyz
x,y,z
x,-y,1/2+z
1/2+x,1/2+y,z
1/2+x,1/2-y,1/2+z
loop_
_atom_site_type_symbol
_atom_site_label
_atom_site_fract_x
_atom_site_fract_y
_atom_site_fract_z
Si Si1 0.815110 0.319261 0.307130
Si Si2 0.092896 0.347424 0.253279
Si Si3 0.009784 0.705316 0.267887
Si Si4 0.776039 0.649851 0.544110
Si Si5 0.592459 0.447295 0.247998
Si Si6 0.637569 0.094607 0.195253
Si Si7 0.250385 0.763521 0.643108
Si Si8 0.496349 0.636981 0.015595
O O1 0.759128 0.344826 0.143656
O O2 0.719215 0.385248 0.300312
O O3 0.779431 0.175873 0.294053
O O4 0.990407 0.365117 0.487219
O O5 0.222544 0.279050 0.442923
O O6 0.147480 0.451872 0.230998
O O7 0.016162 0.248198 0.108600
O O8 0.951572 0.383151 0.186431
O O9 0.009192 0.846929 0.233469
O O10 0.084473 0.641080 0.249834
O O11 0.117984 0.684823 0.465161
O O12 0.841272 0.674762 0.141891
O O13 0.668096 0.550147 0.388640
O O14 0.481642 0.517344 0.065716
O O15 0.162601 0.862729 0.622686
O O16 0.367293 0.678530 0.814915
#
# Coordination Sequence:
#
# PCOD9137237 Si02
#       8
#     4   4   4   4   4   4   4   4
#     4  11  24  45  73 105 139 191 242 290 360 432
#     4  11  24  47  69 100 146 189 231 299 359 418
#     4  10  22  42  64 100 134 178 235 287 351 413
#     4  11  24  45  73 105 139 191 242 290 360 432
#     4  10  22  40  70 100 142 180 226 296 352 412
#     4  11  24  47  69 100 146 189 231 299 359 418
#     4  10  22  40  66  94 132 176 240 280 332 426
#     4  10  22  42  64 100 134 178 235 287 351 413
#
# _framework density 24.431730999999999
#
# number of rings (size 3 to 8) (size 9 to 14) (size 15 to 20)
#    0.000    1.500    1.250    3.750    3.500    0.000 
#   27.000    0.000    0.000    0.000    0.000    0.000 
#    0.000    0.000    0.000    0.000    0.000    0.000 
#
# Total GULP energy -89507.299145 kJ/mol
# GULP energy per Si atom -5594.206197 kJ/mol
# Density = 2.437612 g / cm^3
# Si number density = 24.431731 Si / 1000 Ang^3
#
#
#
# Elastic Constant Matrix: (Units=GPa)
#
#
# Indices 1 2 3 4 5 6 
#
# 1 129.1121 21.0557 29.4809 0.0000 -11.2119 0.0000
# 2 21.0557 102.4200 37.1220 0.0000 -12.7726 0.0000
# 3 29.4809 37.1220 111.9472 0.0000 -16.9600 0.0000
# 4 0.0000 0.0000 0.0000 31.9180 0.0000 0.6016
# 5 -11.2119 -12.7726 -16.9600 0.0000 46.0323 0.0000
# 6 0.0000 0.0000 0.0000 0.6016 0.0000 9.8740
#
#
#
# Elastic Compliance Matrix: (Units=1/GPa)
#
#
# Indices 1 2 3 4 5 6 
#
# 1 0.008394 -0.000960 -0.001719 0.000000 0.001145 0.000000
# 2 -0.000960 0.011354 -0.003252 0.000000 0.001718 0.000000
# 3 -0.001719 -0.003252 0.010870 0.000000 0.002684 0.000000
# 4 0.000000 0.000000 0.000000 0.031366 0.000000 -0.001911
# 5 0.001145 0.001718 0.002684 0.000000 0.023468 0.000000
# 6 0.000000 0.000000 0.000000 -0.001911 0.000000 0.101392
#
#
# Mechanical properties :
#
#
# Convention : Reuss Voigt Hill
#
# Bulk Modulus (GPa) = 53.31317 57.64405 55.47861
# Shear Modulus (GPa) = 24.39521 34.61956 29.50739
#
# Velocity S-wave (km/s) = 3.16334 3.76838 3.47904
# Velocity P-wave (km/s) = 5.93388 6.52529 6.23660
#
# Compressibility (1/GPa) = 0.01875709
#
# Stress axis : x y z
#
# Youngs Moduli (GPa) = 119.13839 88.07468 91.99320
#
# Poissons Ratio (x) = 0.08454 0.15811
# Poissons Ratio (y) = 0.11436 0.29915
# Poissons Ratio (z) = 0.20476 0.28641
#
# Static dielectric constant tensor:
#      x y z
#    x 1.965930 0.000000 0.043400 
#    y 0.000000 2.006500 0.000000 
#    z 0.043400 0.000000 1.964080 
# 
# From -- ./inp_files/26853.got.cif
#   From: 2010.05.17/outbox.cif.g08.bks.cpg/sg9_14_cif.got.tgz:26853.got - 2010.06.03 20:04:27.
