data_PCOD9137489
_publ_section_title
;
Structure prediction by ZEFSAII (Michael W. Deem and Ramdas Pophale) SiO2 
 PCOD9137489
Probable space group: C C
;
_chemical_formula_sum "Si O2"
_cell_formula_units_Z 32
_cell_length_a 13.888148
_cell_length_b 8.938420
_cell_length_c 12.379705
_cell_angle_alpha 90.000000
_cell_angle_beta 115.291882
_cell_angle_gamma 90.000000
_cell_volume 1389.480824
_symmetry_space_group_name_H-M "C C"
_symmetry_group_IT_number 9
_symmetry_cell_setting 'monoclinic'
loop_
_space_group_symop_operation_xyz
x,y,z
x,-y,1/2+z
1/2+x,1/2+y,z
1/2+x,1/2-y,1/2+z
loop_
_atom_site_type_symbol
_atom_site_label
_atom_site_fract_x
_atom_site_fract_y
_atom_site_fract_z
Si Si1 0.973950 0.013818 0.799320
Si Si2 0.209652 0.817217 0.062109
Si Si3 0.618249 0.943281 0.368422
Si Si4 0.269471 0.688485 0.755962
Si Si5 0.284407 0.035872 0.387276
Si Si6 0.617149 0.742743 0.992819
Si Si7 0.905670 0.694106 0.810499
Si Si8 0.071964 0.967240 0.639791
O O1 0.860735 0.072975 0.777889
O O2 0.976691 0.009670 0.670924
O O3 0.972199 0.847354 0.847549
O O4 0.069981 0.120593 0.886031
O O5 0.303348 0.775345 0.188362
O O6 0.119851 0.906456 0.085476
O O7 0.165766 0.673169 0.979163
O O8 0.262551 0.930411 0.000700
O O9 0.680905 0.896013 0.288768
O O10 0.492071 0.914480 0.296767
O O11 0.625164 0.107000 0.426102
O O12 0.331635 0.818147 0.852066
O O13 0.224138 0.750981 0.619550
O O14 0.354304 0.891802 0.389363
O O15 0.169348 0.050350 0.271652
O O16 0.546094 0.683942 0.061895
#
# Coordination Sequence:
#
# PCOD9137489 Si02
#       8
#     4   4   4   4   4   4   4   4
#     4  12  25  42  65 100 135 178 229 277 337 414
#     4  10  22  45  70  95 134 176 220 287 346 397
#     4  11  24  43  69 101 131 175 229 279 342 415
#     4  10  24  44  68  99 133 174 228 282 340 408
#     4   9  20  42  67  95 130 175 224 273 339 410
#     4  11  24  44  68  94 136 178 218 283 340 389
#     4  11  23  40  66  98 131 173 223 272 334 412
#     4  10  22  42  67  94 134 179 223 273 336 411
#
# _framework density 23.030184999999999
#
# number of rings (size 3 to 8) (size 9 to 14) (size 15 to 20)
#    0.000    1.500    0.000    5.250    0.000   11.000 
#    0.000   11.250    0.000    0.000    0.000    0.000 
#    0.000    0.000    0.000    0.000    0.000    0.000 
#
# Total GULP energy -89090.018808 kJ/mol
# GULP energy per Si atom -5568.126175 kJ/mol
# Density = 2.297777 g / cm^3
# Si number density = 23.030185 Si / 1000 Ang^3
#
#
#
# Elastic Constant Matrix: (Units=GPa)
#
#
# Indices 1 2 3 4 5 6 
#
# 1 70.8525 61.3112 25.0072 0.0000 -15.7707 0.0000
# 2 61.3112 145.4637 58.8883 0.0000 -20.9915 0.0000
# 3 25.0072 58.8883 80.9087 0.0000 -6.5812 0.0000
# 4 0.0000 0.0000 0.0000 40.2512 0.0000 0.5452
# 5 -15.7707 -20.9915 -6.5812 0.0000 36.7539 0.0000
# 6 0.0000 0.0000 0.0000 0.5452 0.0000 32.0434
#
#
#
# Elastic Compliance Matrix: (Units=1/GPa)
#
#
# Indices 1 2 3 4 5 6 
#
# 1 0.022944 -0.008895 -0.000234 0.000000 0.004723 0.000000
# 2 -0.008895 0.013935 -0.007161 0.000000 0.002860 0.000000
# 3 -0.000234 -0.007161 0.017559 0.000000 -0.001046 0.000000
# 4 0.000000 0.000000 0.000000 0.024850 0.000000 -0.000423
# 5 0.004723 0.002860 -0.001046 0.000000 0.030681 0.000000
# 6 0.000000 0.000000 0.000000 -0.000423 0.000000 0.031215
#
#
# Mechanical properties :
#
#
# Convention : Reuss Voigt Hill
#
# Bulk Modulus (GPa) = 45.74515 65.29314 55.51915
# Shear Modulus (GPa) = 27.61694 31.94427 29.78061
#
# Velocity S-wave (km/s) = 3.46665 3.72837 3.59989
# Velocity P-wave (km/s) = 5.99415 6.85179 6.43726
#
# Compressibility (1/GPa) = 0.02186024
#
# Stress axis : x y z
#
# Youngs Moduli (GPa) = 43.58352 71.76090 56.95223
#
# Poissons Ratio (x) = 0.63829 0.01331
# Poissons Ratio (y) = 0.38766 0.40782
# Poissons Ratio (z) = 0.01018 0.51386
#
# Static dielectric constant tensor:
#      x y z
#    x 1.904270 0.000000 -0.014440 
#    y 0.000000 1.931640 0.000000 
#    z -0.014440 0.000000 1.887130 
# 
# From -- ./inp_files/17923.got.cif
#   From: 2010.05.17/outbox.cif.g08.bks.cpg/sg9_9_cif.got.tgz:17923.got - 2010.06.03 20:04:27.
