data_PCOD9137958
_publ_section_title
;
Structure prediction by ZEFSAII (Michael W. Deem and Ramdas Pophale) SiO2 
 PCOD9137958
Probable space group: C C
;
_chemical_formula_sum "Si O2"
_cell_formula_units_Z 24
_cell_length_a 19.737684
_cell_length_b 7.340116
_cell_length_c 9.479634
_cell_angle_alpha 90.000000
_cell_angle_beta 43.825007
_cell_angle_gamma 90.000000
_cell_volume 951.008064
_symmetry_space_group_name_H-M "C C"
_symmetry_group_IT_number 9
_symmetry_cell_setting 'monoclinic'
loop_
_space_group_symop_operation_xyz
x,y,z
x,-y,1/2+z
1/2+x,1/2+y,z
1/2+x,1/2-y,1/2+z
loop_
_atom_site_type_symbol
_atom_site_label
_atom_site_fract_x
_atom_site_fract_y
_atom_site_fract_z
Si Si1 0.832850 0.137669 0.506660
Si Si2 0.674695 0.427314 0.711400
Si Si3 0.489965 0.750159 0.484872
Si Si4 0.630985 0.228227 0.524620
Si Si5 0.960826 0.639157 0.594996
Si Si6 0.811777 0.757940 0.599570
O O1 0.730837 0.242469 0.672447
O O2 0.891196 0.257371 0.307171
O O3 0.899700 0.154672 0.545353
O O4 0.829134 0.926534 0.471555
O O5 0.564874 0.397251 0.935622
O O6 0.658214 0.417411 0.565564
O O7 0.744976 0.592577 0.644880
O O8 0.558255 0.843910 0.256820
O O9 0.457315 0.922034 0.623419
O O10 0.568567 0.206858 0.475838
O O11 0.737444 0.151733 0.328404
O O12 0.911037 0.686170 0.520620
#
# Coordination Sequence:
#
# PCOD9137958 Si02
#       6
#     4   4   4   4   4   4
#     4  11  23  44  67 111 138 188 253 293 371 429
#     4  10  22  46  65 101 144 188 240 300 364 431
#     4   9  21  44  71  98 144 187 247 298 356 437
#     4   9  23  40  69 100 139 186 242 290 362 429
#     4  11  21  44  73 102 146 188 238 312 356 439
#     4  12  24  42  75 100 151 189 244 303 361 441
#
# _framework density 25.236376
#
# number of rings (size 3 to 8) (size 9 to 14) (size 15 to 20)
#    1.000    0.667    3.333    1.000    2.333    0.000 
#    6.000    0.000    7.333    0.000    0.000    0.000 
#    0.000    0.000    0.000    0.000    0.000    0.000 
#
# Total GULP energy -66914.343804 kJ/mol
# GULP energy per Si atom -5576.195317 kJ/mol
# Density = 2.517894 g / cm^3
# Si number density = 25.236376 Si / 1000 Ang^3
#
#
#
# Elastic Constant Matrix: (Units=GPa)
#
#
# Indices 1 2 3 4 5 6 
#
# 1 164.8023 80.6417 37.2975 0.0000 -53.4125 0.0000
# 2 80.6417 177.4519 -0.5271 0.0000 -19.1956 0.0000
# 3 37.2975 -0.5271 52.0528 0.0000 -20.5422 0.0000
# 4 0.0000 0.0000 0.0000 32.0974 0.0000 -8.4838
# 5 -53.4125 -19.1956 -20.5422 0.0000 52.6361 0.0000
# 6 0.0000 0.0000 0.0000 -8.4838 0.0000 44.8027
#
#
#
# Elastic Compliance Matrix: (Units=1/GPa)
#
#
# Indices 1 2 3 4 5 6 
#
# 1 0.012485 -0.004740 -0.005528 0.000000 0.008783 0.000000
# 2 -0.004740 0.007717 0.003176 0.000000 -0.000756 0.000000
# 3 -0.005528 0.003176 0.025352 0.000000 0.005443 0.000000
# 4 0.000000 0.000000 0.000000 0.032797 0.000000 0.006210
# 5 0.008783 -0.000756 0.005443 0.000000 0.029760 0.000000
# 6 0.000000 0.000000 0.000000 0.006210 0.000000 0.023496
#
#
# Mechanical properties :
#
#
# Convention : Reuss Voigt Hill
#
# Bulk Modulus (GPa) = 31.87631 69.90346 50.88988
# Shear Modulus (GPa) = 32.00067 44.36690 38.18379
#
# Velocity S-wave (km/s) = 3.56481 4.19746 3.89401
# Velocity P-wave (km/s) = 5.44081 7.15900 6.35821
#
# Compressibility (1/GPa) = 0.03137126
#
# Stress axis : x y z
#
# Youngs Moduli (GPa) = 80.09676 129.58361 39.44417
#
# Poissons Ratio (x) = 0.61422 0.21803
# Poissons Ratio (y) = 0.37966 -0.12528
# Poissons Ratio (z) = 0.44274 -0.41157
#
# Static dielectric constant tensor:
#      x y z
#    x 2.082670 0.000000 0.093730 
#    y 0.000000 2.009220 0.000000 
#    z 0.093730 0.000000 2.121490 
# 
# From -- ./inp_files/26985.got.cif
#   From: 2010.05.17/outbox.cif.g08.bks.cpg/sg9_14_cif.got.tgz:26985.got - 2010.06.03 20:04:27.
