data_PCOD9137821
_publ_section_title
;
Structure prediction by ZEFSAII (Michael W. Deem and Ramdas Pophale) SiO2 
 PCOD9137821
Probable space group: C C
;
_chemical_formula_sum "Si O2"
_cell_formula_units_Z 32
_cell_length_a 7.201083
_cell_length_b 12.498121
_cell_length_c 15.864796
_cell_angle_alpha 90.000000
_cell_angle_beta 119.304340
_cell_angle_gamma 90.000000
_cell_volume 1245.115259
_symmetry_space_group_name_H-M "C C"
_symmetry_group_IT_number 9
_symmetry_cell_setting 'monoclinic'
loop_
_space_group_symop_operation_xyz
x,y,z
x,-y,1/2+z
1/2+x,1/2+y,z
1/2+x,1/2-y,1/2+z
loop_
_atom_site_type_symbol
_atom_site_label
_atom_site_fract_x
_atom_site_fract_y
_atom_site_fract_z
Si Si1 0.869840 0.233165 0.165730
Si Si2 0.408587 0.208644 0.027893
Si Si3 0.153349 0.960753 0.681755
Si Si4 0.370002 0.852827 0.001742
Si Si5 0.923418 0.177204 0.351300
Si Si6 0.798745 0.116837 0.644049
Si Si7 0.491629 0.388758 0.474019
Si Si8 0.143339 0.524217 0.779171
O O1 0.650244 0.169036 0.095270
O O2 0.073903 0.157723 0.192248
O O3 0.831575 0.330570 0.092618
O O4 0.900945 0.262418 0.270470
O O5 0.365513 0.277513 0.104992
O O6 0.393776 0.276450 0.938094
O O7 0.216287 0.124961 0.975709
O O8 0.064104 0.961243 0.567244
O O9 0.006289 0.045406 0.695209
O O10 0.711113 0.108143 0.720463
O O11 0.586861 0.919575 0.044517
O O12 0.155020 0.879533 0.906404
O O13 0.428361 0.732644 0.983984
O O14 0.754001 0.089730 0.286314
O O15 0.398907 0.991721 0.739363
O O16 0.279747 0.436000 0.388217
#
# Coordination Sequence:
#
# PCOD9137821 Si02
#       8
#     4   4   4   4   4   4   4   4
#     4  10  22  44  71 103 143 186 236 297 357 425
#     4  10  24  45  74 105 144 187 241 309 352 424
#     4  11  25  47  69 102 147 184 237 298 355 428
#     4   9  24  44  70  99 142 187 233 298 349 420
#     4  11  23  43  71 108 138 189 240 285 368 429
#     4  11  25  46  68 104 141 189 232 300 358 421
#     4  10  24  46  67 103 141 188 237 293 354 426
#     4  12  27  43  72 108 142 194 232 288 367 441
#
# _framework density 25.700431999999999
#
# number of rings (size 3 to 8) (size 9 to 14) (size 15 to 20)
#    0.000    1.500    1.250    1.500    8.750    3.000 
#    4.500    0.000    0.000    0.000    0.000    0.000 
#    0.000    0.000    0.000    0.000    0.000    0.000 
#
# Total GULP energy -89302.271716 kJ/mol
# GULP energy per Si atom -5581.391982 kJ/mol
# Density = 2.564194 g / cm^3
# Si number density = 25.700432 Si / 1000 Ang^3
#
#
#
# Elastic Constant Matrix: (Units=GPa)
#
#
# Indices 1 2 3 4 5 6 
#
# 1 170.1046 31.3830 63.1640 0.0000 43.6280 0.0000
# 2 31.3830 56.7024 28.4755 0.0000 3.9879 0.0000
# 3 63.1640 28.4755 134.6154 0.0000 22.7346 0.0000
# 4 0.0000 0.0000 0.0000 32.9243 0.0000 11.5959
# 5 43.6280 3.9879 22.7346 0.0000 48.2695 0.0000
# 6 0.0000 0.0000 0.0000 11.5959 0.0000 33.8885
#
#
#
# Elastic Compliance Matrix: (Units=1/GPa)
#
#
# Indices 1 2 3 4 5 6 
#
# 1 0.009161 -0.003369 -0.002427 0.000000 -0.006858 0.000000
# 2 -0.003369 0.020977 -0.003344 0.000000 0.002887 0.000000
# 3 -0.002427 -0.003344 0.009623 0.000000 -0.002062 0.000000
# 4 0.000000 0.000000 0.000000 0.034535 0.000000 -0.011817
# 5 -0.006858 0.002887 -0.002062 0.000000 0.027648 0.000000
# 6 0.000000 0.000000 0.000000 -0.011817 0.000000 0.033552
#
#
# Mechanical properties :
#
#
# Convention : Reuss Voigt Hill
#
# Bulk Modulus (GPa) = 46.55509 67.49638 57.02573
# Shear Modulus (GPa) = 31.06819 38.90979 34.98899
#
# Velocity S-wave (km/s) = 3.48064 3.89520 3.69374
# Velocity P-wave (km/s) = 5.85721 6.82275 6.35834
#
# Compressibility (1/GPa) = 0.02147993
#
# Stress axis : x y z
#
# Youngs Moduli (GPa) = 109.16365 47.67174 103.91493
#
# Poissons Ratio (x) = 0.16059 0.25225
# Poissons Ratio (y) = 0.36774 0.34751
# Poissons Ratio (z) = 0.26499 0.15942
#
# Static dielectric constant tensor:
#      x y z
#    x 2.218590 0.000000 -0.116890 
#    y 0.000000 2.130250 0.000000 
#    z -0.116890 0.000000 2.035560 
# 
# From -- ./inp_files/14951.got.cif
#   From: 2010.05.17/outbox.cif.g08.bks.cpg/sg9_8_cif.got.tgz:14951.got - 2010.06.03 20:04:27.
