data_PCOD9137266
_publ_section_title
;
Structure prediction by ZEFSAII (Michael W. Deem and Ramdas Pophale) SiO2 
 PCOD9137266
Probable space group: C C
;
_chemical_formula_sum "Si O2"
_cell_formula_units_Z 28
_cell_length_a 14.385915
_cell_length_b 5.787561
_cell_length_c 23.410962
_cell_angle_alpha 90.000000
_cell_angle_beta 142.239405
_cell_angle_gamma 90.000000
_cell_volume 1193.607710
_symmetry_space_group_name_H-M "C C"
_symmetry_group_IT_number 9
_symmetry_cell_setting 'monoclinic'
loop_
_space_group_symop_operation_xyz
x,y,z
x,-y,1/2+z
1/2+x,1/2+y,z
1/2+x,1/2-y,1/2+z
loop_
_atom_site_type_symbol
_atom_site_label
_atom_site_fract_x
_atom_site_fract_y
_atom_site_fract_z
Si Si1 0.481020 0.632481 0.229460
Si Si2 0.409060 0.753716 0.785101
Si Si3 0.323983 0.418932 0.054564
Si Si4 0.915329 0.357170 0.500359
Si Si5 0.517752 0.780437 0.960926
Si Si6 0.203788 0.466479 0.386389
Si Si7 0.195829 0.926767 0.115985
O O1 0.444315 0.480000 0.267774
O O2 0.460001 0.475008 0.163362
O O3 0.637936 0.766573 0.314852
O O4 0.343476 0.815004 0.159537
O O5 0.415687 0.737093 0.856141
O O6 0.549867 0.919121 0.836265
O O7 0.258011 0.875146 0.688314
O O8 0.342985 0.177495 0.028528
O O9 0.168956 0.418856 0.014981
O O10 0.300559 0.596436 0.990411
O O11 0.938284 0.582569 0.473645
O O12 0.805209 0.177683 0.411742
O O13 0.085080 0.256509 0.591349
O O14 0.589341 0.545143 0.017954
#
# Coordination Sequence:
#
# PCOD9137266 Si02
#       7
#     4   4   4   4   4   4   4
#     4  11  20  41  71  95 142 179 251 291 363 447
#     4  10  22  40  68  98 130 192 238 292 372 426
#     4   9  20  43  66  93 137 189 222 302 354 421
#     4  10  22  44  61  99 145 178 246 293 355 437
#     4  11  22  43  69  96 139 187 233 301 359 432
#     4   8  22  39  63  98 135 185 237 288 365 425
#     4  11  22  40  66 101 134 184 239 289 370 416
#
# _framework density 23.458296000000001
#
# number of rings (size 3 to 8) (size 9 to 14) (size 15 to 20)
#    0.857    1.143    2.857    0.000    2.000    2.286 
#    7.714    0.000    0.000    0.000    0.000    0.000 
#    0.000    0.000    0.000    0.000    0.000    0.000 
#
# Total GULP energy -78074.699542 kJ/mol
# GULP energy per Si atom -5576.764253 kJ/mol
# Density = 2.340490 g / cm^3
# Si number density = 23.458296 Si / 1000 Ang^3
#
#
#
# Elastic Constant Matrix: (Units=GPa)
#
#
# Indices 1 2 3 4 5 6 
#
# 1 101.8077 34.1814 36.5092 0.0000 -3.1745 0.0001
# 2 34.1814 57.8300 17.0798 -0.0001 -14.6730 0.0002
# 3 36.5092 17.0798 50.8286 0.0000 -12.8795 0.0000
# 4 0.0000 -0.0001 0.0000 38.4924 0.0000 9.0972
# 5 -3.1745 -14.6730 -12.8795 0.0000 38.2823 0.0000
# 6 0.0001 0.0002 0.0000 9.0972 0.0000 36.5669
#
#
#
# Elastic Compliance Matrix: (Units=1/GPa)
#
#
# Indices 1 2 3 4 5 6 
#
# 1 0.015856 -0.007667 -0.010084 0.000000 -0.005016 0.000000
# 2 -0.007667 0.024101 -0.000451 0.000000 0.008450 0.000000
# 3 -0.010084 -0.000451 0.029312 0.000000 0.008853 0.000000
# 4 0.000000 0.000000 0.000000 0.027602 0.000000 -0.006867
# 5 -0.005016 0.008450 0.008853 0.000000 0.031923 0.000000
# 6 0.000000 0.000000 0.000000 -0.006867 0.000000 0.029056
#
#
# Mechanical properties :
#
#
# Convention : Reuss Voigt Hill
#
# Bulk Modulus (GPa) = 30.42649 42.88966 36.65808
# Shear Modulus (GPa) = 24.36563 30.84805 27.60684
#
# Velocity S-wave (km/s) = 3.22635 3.63025 3.43424
# Velocity P-wave (km/s) = 5.18437 5.99122 5.60234
#
# Compressibility (1/GPa) = 0.03286610
#
# Stress axis : x y z
#
# Youngs Moduli (GPa) = 63.06633 41.49273 34.11601
#
# Poissons Ratio (x) = 0.31811 0.34403
# Poissons Ratio (y) = 0.48350 0.01537
# Poissons Ratio (z) = 0.63597 0.01869
#
# Static dielectric constant tensor:
#      x y z
#    x 1.915510 0.000000 -0.003910 
#    y 0.000000 1.985340 0.000000 
#    z -0.003910 0.000000 1.880000 
# 
# From -- ./inp_files/36810.got.cif
#   From: 2010.05.17/outbox.cif.g08.bks.cpg/sg9_19_cif.got.tgz:36810.got - 2010.06.03 20:04:27.
