data_PCOD9137534
_publ_section_title
;
Structure prediction by ZEFSAII (Michael W. Deem and Ramdas Pophale) SiO2 
 PCOD9137534
Probable space group: C C
;
_chemical_formula_sum "Si O2"
_cell_formula_units_Z 28
_cell_length_a 8.464086
_cell_length_b 12.487781
_cell_length_c 13.343190
_cell_angle_alpha 90.000000
_cell_angle_beta 125.583707
_cell_angle_gamma 90.000000
_cell_volume 1146.985081
_symmetry_space_group_name_H-M "C C"
_symmetry_group_IT_number 9
_symmetry_cell_setting 'monoclinic'
loop_
_space_group_symop_operation_xyz
x,y,z
x,-y,1/2+z
1/2+x,1/2+y,z
1/2+x,1/2-y,1/2+z
loop_
_atom_site_type_symbol
_atom_site_label
_atom_site_fract_x
_atom_site_fract_y
_atom_site_fract_z
Si Si1 0.373010 0.124727 0.487560
Si Si2 0.038074 0.159151 0.977561
Si Si3 0.866486 0.020180 0.053957
Si Si4 0.450515 0.812201 0.666331
Si Si5 0.147337 0.159911 0.600866
Si Si6 0.939735 0.497180 0.322519
Si Si7 0.797087 0.094198 0.717303
O O1 0.447676 0.224726 0.449632
O O2 0.212837 0.159329 0.509238
O O3 0.337087 0.038128 0.387603
O O4 0.564892 0.095541 0.624095
O O5 0.900443 0.085824 0.860654
O O6 0.260947 0.156041 0.031063
O O7 0.017497 0.111594 0.080938
O O8 0.861746 0.999926 0.169245
O O9 0.949494 0.909453 0.038135
O O10 0.649728 0.043230 0.937128
O O11 0.611555 0.770359 0.647781
O O12 0.482593 0.907333 0.757500
O O13 0.379704 0.706598 0.702274
O O14 0.307536 0.091586 0.721162
#
# Coordination Sequence:
#
# PCOD9137534 Si02
#       7
#     4   4   4   4   4   4   4
#     4  10  23  43  68 105 138 184 246 292 360 443
#     4  11  20  44  71  94 144 196 229 304 365 422
#     4  10  23  41  67 104 136 188 243 285 369 435
#     4  10  22  42  69  98 137 192 238 294 369 424
#     4  11  24  45  67 111 141 179 254 296 362 448
#     4  11  22  49  70  97 152 191 235 309 365 434
#     4   9  20  40  68  95 138 188 237 286 358 434
#
# _framework density 24.411826999999999
#
# number of rings (size 3 to 8) (size 9 to 14) (size 15 to 20)
#    0.000    1.714    2.857    1.714    0.000    2.286 
#   12.857    0.000    0.000    0.000    0.000    0.000 
#    0.000    0.000    0.000    0.000    0.000    0.000 
#
# Total GULP energy -78268.962576 kJ/mol
# GULP energy per Si atom -5590.640184 kJ/mol
# Density = 2.435627 g / cm^3
# Si number density = 24.411827 Si / 1000 Ang^3
#
#
#
# Elastic Constant Matrix: (Units=GPa)
#
#
# Indices 1 2 3 4 5 6 
#
# 1 119.2744 26.8731 47.0386 0.0000 -19.2964 0.0000
# 2 26.8731 59.6248 29.0437 0.0000 -4.5295 0.0000
# 3 47.0386 29.0437 107.8849 0.0000 -5.9798 0.0000
# 4 0.0000 0.0000 0.0000 30.1683 0.0000 -7.5363
# 5 -19.2964 -4.5295 -5.9798 0.0000 33.1616 0.0000
# 6 0.0000 0.0000 0.0000 -7.5363 0.0000 45.3433
#
#
#
# Elastic Compliance Matrix: (Units=1/GPa)
#
#
# Indices 1 2 3 4 5 6 
#
# 1 0.011476 -0.002833 -0.003931 0.000000 0.005582 0.000000
# 2 -0.002833 0.020099 -0.004156 0.000000 0.000347 0.000000
# 3 -0.003931 -0.004156 0.012065 0.000000 -0.000680 0.000000
# 4 0.000000 0.000000 0.000000 0.034583 0.000000 0.005748
# 5 0.005582 0.000347 -0.000680 0.000000 0.033328 0.000000
# 6 0.000000 0.000000 0.000000 0.005748 0.000000 0.023009
#
#
# Mechanical properties :
#
#
# Convention : Reuss Voigt Hill
#
# Bulk Modulus (GPa) = 45.87624 54.74387 50.31006
# Shear Modulus (GPa) = 30.54955 33.98991 32.26973
#
# Velocity S-wave (km/s) = 3.54139 3.73547 3.63972
# Velocity P-wave (km/s) = 5.96283 6.40928 6.19008
#
# Compressibility (1/GPa) = 0.02179777
#
# Stress axis : x y z
#
# Youngs Moduli (GPa) = 87.13970 49.75252 82.88747
#
# Poissons Ratio (x) = 0.14096 0.32587
# Poissons Ratio (y) = 0.24688 0.34452
# Poissons Ratio (z) = 0.34259 0.20679
#
# Static dielectric constant tensor:
#      x y z
#    x 1.941110 0.000000 -0.004080 
#    y 0.000000 1.987570 0.000000 
#    z -0.004080 0.000000 1.959140 
# 
# From -- ./inp_files/14422.got.cif
#   From: 2010.05.17/outbox.cif.g08.bks.cpg/sg9_8_cif.got.tgz:14422.got - 2010.06.03 20:04:27.
