data_PCOD9137283
_publ_section_title
;
Structure prediction by ZEFSAII (Michael W. Deem and Ramdas Pophale) SiO2 
 PCOD9137283
Probable space group: C C
;
_chemical_formula_sum "Si O2"
_cell_formula_units_Z 32
_cell_length_a 20.556584
_cell_length_b 9.245776
_cell_length_c 27.324152
_cell_angle_alpha 90.000000
_cell_angle_beta 14.479338
_cell_angle_gamma 90.000000
_cell_volume 1298.478049
_symmetry_space_group_name_H-M "C C"
_symmetry_group_IT_number 9
_symmetry_cell_setting 'monoclinic'
loop_
_space_group_symop_operation_xyz
x,y,z
x,-y,1/2+z
1/2+x,1/2+y,z
1/2+x,1/2-y,1/2+z
loop_
_atom_site_type_symbol
_atom_site_label
_atom_site_fract_x
_atom_site_fract_y
_atom_site_fract_z
Si Si1 0.473420 0.335689 0.361840
Si Si2 0.826790 0.612224 0.860471
Si Si3 0.699770 0.062586 0.428721
Si Si4 0.876376 0.078443 0.715707
Si Si5 0.431294 0.901555 0.702225
Si Si6 0.709963 0.842165 0.229082
Si Si7 0.907878 0.919751 0.979249
Si Si8 0.251726 0.944031 0.065829
O O1 0.207166 0.382896 0.528816
O O2 0.473635 0.419682 0.413257
O O3 0.425227 0.169680 0.409229
O O4 0.690781 0.378997 0.164087
O O5 0.710748 0.773385 0.940034
O O6 0.814247 0.534971 0.817131
O O7 0.119749 0.618333 0.667433
O O8 0.659048 0.497826 0.014148
O O9 0.480858 0.965232 0.612836
O O10 0.693122 0.038273 0.375554
O O11 0.971881 0.986326 0.247223
O O12 0.833216 0.236298 0.771684
O O13 0.835227 0.107400 0.688628
O O14 0.873277 0.886370 0.062156
O O15 0.628031 0.675824 0.292158
O O16 0.427166 0.915568 0.436952
#
# Coordination Sequence:
#
# PCOD9137283 Si02
#       8
#     4   4   4   4   4   4   4   4
#     4  10  22  40  72 101 131 180 236 295 345 412
#     4  11  24  44  73 102 132 183 244 290 356 421
#     4  11  22  42  71  98 140 177 239 294 342 428
#     4  12  26  44  68 101 145 184 231 293 360 432
#     4  10  23  39  69 104 131 178 228 292 350 417
#     4  12  27  44  68 101 144 187 229 295 367 431
#     4  11  25  44  71 100 139 182 242 293 353 431
#     4  11  21  43  68 105 136 183 237 294 355 422
#
# _framework density 24.644237
#
# number of rings (size 3 to 8) (size 9 to 14) (size 15 to 20)
#    0.000    1.000    2.500    3.750   12.250    0.000 
#    4.500    0.000    0.000    0.000    0.000    0.000 
#    0.000    0.000    0.000    0.000    0.000    0.000 
#
# Total GULP energy -89419.355128 kJ/mol
# GULP energy per Si atom -5588.709696 kJ/mol
# Density = 2.458815 g / cm^3
# Si number density = 24.644237 Si / 1000 Ang^3
#
#
#
# Elastic Constant Matrix: (Units=GPa)
#
#
# Indices 1 2 3 4 5 6 
#
# 1 93.0465 32.8964 19.0977 -0.2313 20.9513 -0.0039
# 2 32.8964 126.3695 8.4004 -0.1970 0.6629 0.0191
# 3 19.0977 8.4004 54.6522 -0.7525 12.9743 0.1624
# 4 -0.2313 -0.1970 -0.7525 44.9756 0.2208 7.2736
# 5 20.9513 0.6629 12.9743 0.2208 35.5224 0.1304
# 6 -0.0039 0.0191 0.1624 7.2736 0.1304 28.6261
#
#
#
# Elastic Compliance Matrix: (Units=1/GPa)
#
#
# Indices 1 2 3 4 5 6 
#
# 1 0.014173 -0.003473 -0.002682 0.000042 -0.007315 0.000042
# 2 -0.003473 0.008849 -0.000650 0.000002 0.002121 -0.000013
# 3 -0.002682 -0.000650 0.020763 0.000391 -0.005991 -0.000190
# 4 0.000042 0.000002 0.000391 0.023196 -0.000290 -0.005895
# 5 -0.007315 0.002121 -0.005991 -0.000290 0.034617 -0.000052
# 6 0.000042 -0.000013 -0.000190 -0.005895 -0.000052 0.036432
#
#
# Mechanical properties :
#
#
# Convention : Reuss Voigt Hill
#
# Bulk Modulus (GPa) = 33.13881 43.87303 38.50592
# Shear Modulus (GPa) = 30.92198 36.06975 33.49586
#
# Velocity S-wave (km/s) = 3.54607 3.82988 3.69070
# Velocity P-wave (km/s) = 5.49929 6.11543 5.81552
#
# Compressibility (1/GPa) = 0.03017610
#
# Stress axis : x y z
#
# Youngs Moduli (GPa) = 70.55764 113.00181 48.16303
#
# Poissons Ratio (x) = 0.39243 0.12916
# Poissons Ratio (y) = 0.24503 0.03131
# Poissons Ratio (z) = 0.18921 0.07346
#
# Static dielectric constant tensor:
#      x y z
#    x 2.018770 0.000160 -0.013580 
#    y 0.000160 1.928370 0.000110 
#    z -0.013580 0.000110 2.017740 
# 
# From -- ./inp_files/12051.got.cif
#   From: 2010.05.17/outbox.cif.g08.bks.cpg/sg9_7_cif.got.tgz:12051.got - 2010.06.03 20:04:27.
