data_PCOD9137712
_publ_section_title
;
Structure prediction by ZEFSAII (Michael W. Deem and Ramdas Pophale) SiO2 
 PCOD9137712
Probable space group: C C
;
_chemical_formula_sum "Si O2"
_cell_formula_units_Z 32
_cell_length_a 6.675790
_cell_length_b 27.488014
_cell_length_c 7.633109
_cell_angle_alpha 90.000000
_cell_angle_beta 112.882884
_cell_angle_gamma 90.000000
_cell_volume 1290.474191
_symmetry_space_group_name_H-M "C C"
_symmetry_group_IT_number 9
_symmetry_cell_setting 'monoclinic'
loop_
_space_group_symop_operation_xyz
x,y,z
x,-y,1/2+z
1/2+x,1/2+y,z
1/2+x,1/2-y,1/2+z
loop_
_atom_site_type_symbol
_atom_site_label
_atom_site_fract_x
_atom_site_fract_y
_atom_site_fract_z
Si Si1 0.969880 0.323041 0.279870
Si Si2 0.877394 0.228222 0.094892
Si Si3 0.406276 0.357807 0.883239
Si Si4 0.320680 0.616448 0.745015
Si Si5 0.201098 0.829615 0.537996
Si Si6 0.777360 0.564427 0.502945
Si Si7 0.173349 0.961805 0.352276
Si Si8 0.483331 0.090966 0.241013
O O1 0.845243 0.284970 0.117172
O O2 0.815641 0.332901 0.390276
O O3 0.170544 0.290735 0.418489
O O4 0.081424 0.370271 0.233828
O O5 0.890628 0.192116 0.268941
O O6 0.105151 0.221017 0.068642
O O7 0.631531 0.386972 0.946478
O O8 0.220799 0.395834 0.753197
O O9 0.353180 0.354516 0.072969
O O10 0.482387 0.638944 0.946612
O O11 0.437792 0.564480 0.762325
O O12 0.370437 0.855955 0.719968
O O13 0.645102 0.518579 0.376764
O O14 0.795042 0.549092 0.711026
O O15 0.976056 0.567717 0.431559
O O16 0.329791 0.939158 0.556888
#
# Coordination Sequence:
#
# PCOD9137712 Si02
#       8
#     4   4   4   4   4   4   4   4
#     4  11  25  42  67  96 134 175 230 281 339 410
#     4  11  25  41  64  96 131 177 226 280 337 404
#     4  11  24  43  67  98 133 175 227 276 340 402
#     4   9  24  43  65 102 129 177 220 276 342 404
#     4  10  22  44  65  92 132 179 217 280 344 401
#     4  11  22  45  67 102 137 180 220 284 340 407
#     4  10  22  43  73  96 142 176 225 279 343 409
#     4  11  22  43  68  94 134 179 225 278 335 411
#
# _framework density 24.797087999999999
#
# number of rings (size 3 to 8) (size 9 to 14) (size 15 to 20)
#    0.000    1.500    3.750    0.000    3.500    5.000 
#    4.500    1.250    0.000    0.000    0.000    0.000 
#    0.000    0.000    0.000    0.000    0.000    0.000 
#
# Total GULP energy -89406.201256 kJ/mol
# GULP energy per Si atom -5587.887579 kJ/mol
# Density = 2.474065 g / cm^3
# Si number density = 24.797088 Si / 1000 Ang^3
#
#
#
# Elastic Constant Matrix: (Units=GPa)
#
#
# Indices 1 2 3 4 5 6 
#
# 1 124.3342 15.0624 19.6010 0.0000 -21.5384 0.0000
# 2 15.0624 84.5894 11.0663 0.0000 -17.9743 0.0000
# 3 19.6010 11.0663 89.2422 0.0000 -10.9736 0.0000
# 4 0.0000 0.0000 0.0000 42.5962 0.0000 -4.3769
# 5 -21.5384 -17.9743 -10.9736 0.0000 48.9387 0.0000
# 6 0.0000 0.0000 0.0000 -4.3769 0.0000 30.6081
#
#
#
# Elastic Compliance Matrix: (Units=1/GPa)
#
#
# Indices 1 2 3 4 5 6 
#
# 1 0.008938 -0.000687 -0.001466 0.000000 0.003353 0.000000
# 2 -0.000687 0.012970 -0.000935 0.000000 0.004252 0.000000
# 3 -0.001466 -0.000935 0.011848 0.000000 0.001669 0.000000
# 4 0.000000 0.000000 0.000000 0.023826 0.000000 0.003407
# 5 0.003353 0.004252 0.001669 0.000000 0.023845 0.000000
# 6 0.000000 0.000000 0.000000 0.003407 0.000000 0.033158
#
#
# Mechanical properties :
#
#
# Convention : Reuss Voigt Hill
#
# Bulk Modulus (GPa) = 36.25675 43.29170 39.77422
# Shear Modulus (GPa) = 38.47496 41.25767 39.86631
#
# Velocity S-wave (km/s) = 3.94330 4.08341 4.01397
# Velocity P-wave (km/s) = 5.94861 6.30306 6.12840
#
# Compressibility (1/GPa) = 0.02758107
#
# Stress axis : x y z
#
# Youngs Moduli (GPa) = 111.88271 77.10176 84.39945
#
# Poissons Ratio (x) = 0.05300 0.12370
# Poissons Ratio (y) = 0.07691 0.07887
# Poissons Ratio (z) = 0.16398 0.07205
#
# Static dielectric constant tensor:
#      x y z
#    x 1.996970 0.000000 0.013160 
#    y 0.000000 1.979200 0.000000 
#    z 0.013160 0.000000 2.027370 
# 
# From -- ./inp_files/4394.got.cif
#   From: 2010.05.17/outbox.cif.g08.bks.cpg/sg9_3_cif.got.tgz:4394.got - 2010.06.03 20:04:27.
