data_PCOD9137547
_publ_section_title
;
Structure prediction by ZEFSAII (Michael W. Deem and Ramdas Pophale) SiO2 
 PCOD9137547
Probable space group: C C
;
_chemical_formula_sum "Si O2"
_cell_formula_units_Z 32
_cell_length_a 8.695942
_cell_length_b 14.864609
_cell_length_c 11.074990
_cell_angle_alpha 90.000000
_cell_angle_beta 90.757459
_cell_angle_gamma 90.000000
_cell_volume 1431.447798
_symmetry_space_group_name_H-M "C C"
_symmetry_group_IT_number 9
_symmetry_cell_setting 'monoclinic'
loop_
_space_group_symop_operation_xyz
x,y,z
x,-y,1/2+z
1/2+x,1/2+y,z
1/2+x,1/2-y,1/2+z
loop_
_atom_site_type_symbol
_atom_site_label
_atom_site_fract_x
_atom_site_fract_y
_atom_site_fract_z
Si Si1 0.554110 0.845137 0.840240
Si Si2 0.408608 0.305829 0.484353
Si Si3 0.891870 0.721756 0.129281
Si Si4 0.580533 0.357740 0.728495
Si Si5 0.114584 0.531019 0.735050
Si Si6 0.954146 0.021837 0.856542
Si Si7 0.785494 0.096061 0.527185
Si Si8 0.059724 0.692739 0.897576
O O1 0.449390 0.794346 0.938405
O O2 0.535647 0.786087 0.720436
O O3 0.525589 0.945197 0.786759
O O4 0.714989 0.854324 0.909873
O O5 0.465172 0.329550 0.619005
O O6 0.494750 0.377634 0.397113
O O7 0.227977 0.319930 0.459692
O O8 0.750118 0.667758 0.184238
O O9 0.842752 0.825142 0.114394
O O10 0.936025 0.683052 0.000642
O O11 0.560597 0.459358 0.775122
O O12 0.551706 0.291425 0.840497
O O13 0.288884 0.523677 0.788073
O O14 0.147708 0.541901 0.592798
O O15 0.044466 0.620834 0.790755
O O16 0.916762 0.969872 0.981833
#
# Coordination Sequence:
#
# PCOD9137547 Si02
#       8
#     4   4   4   4   4   4   4   4
#     4  11  24  39  69  99 135 174 226 275 332 388
#     4  11  23  45  71  99 135 180 229 271 330 409
#     4  12  24  41  67  98 142 169 220 281 338 389
#     4  12  23  46  70  98 140 174 218 288 334 389
#     4  10  22  42  70  96 132 178 234 267 323 411
#     4  10  23  39  72  99 129 180 229 263 337 406
#     4  11  21  43  67 101 132 178 227 275 325 409
#     4  11  24  43  70  98 131 183 223 272 337 401
#
# _framework density 22.354987000000001
#
# number of rings (size 3 to 8) (size 9 to 14) (size 15 to 20)
#    0.000    1.000    5.000    1.500    8.750    0.000 
#    2.250    0.000    0.000    0.000    0.000    0.000 
#    0.000    0.000    0.000    0.000    0.000    0.000 
#
# Total GULP energy -89357.481205 kJ/mol
# GULP energy per Si atom -5584.842575 kJ/mol
# Density = 2.230411 g / cm^3
# Si number density = 22.354987 Si / 1000 Ang^3
#
#
#
# Elastic Constant Matrix: (Units=GPa)
#
#
# Indices 1 2 3 4 5 6 
#
# 1 37.8256 26.6215 26.1736 0.0000 -11.6166 0.0000
# 2 26.6215 90.4743 16.2114 0.0000 -4.7753 0.0000
# 3 26.1736 16.2114 101.2125 0.0000 -3.0698 0.0000
# 4 0.0000 0.0000 0.0000 35.9418 0.0000 -8.5230
# 5 -11.6166 -4.7753 -3.0698 0.0000 47.4435 0.0000
# 6 0.0000 0.0000 0.0000 -8.5230 0.0000 26.7696
#
#
#
# Elastic Compliance Matrix: (Units=1/GPa)
#
#
# Indices 1 2 3 4 5 6 
#
# 1 0.042874 -0.010511 -0.009135 0.000000 0.008849 0.000000
# 2 -0.010511 0.014007 0.000440 0.000000 -0.001135 0.000000
# 3 -0.009135 0.000440 0.012129 0.000000 -0.001408 0.000000
# 4 0.000000 0.000000 0.000000 0.030095 0.000000 0.009582
# 5 0.008849 -0.001135 -0.001408 0.000000 0.023039 0.000000
# 6 0.000000 0.000000 0.000000 0.009582 0.000000 0.040406
#
#
# Mechanical properties :
#
#
# Convention : Reuss Voigt Hill
#
# Bulk Modulus (GPa) = 32.68252 40.83618 36.75935
# Shear Modulus (GPa) = 23.67852 32.73137 28.20495
#
# Velocity S-wave (km/s) = 3.25807 3.83059 3.55587
# Velocity P-wave (km/s) = 5.36702 6.15397 5.77392
#
# Compressibility (1/GPa) = 0.03059740
#
# Stress axis : x y z
#
# Youngs Moduli (GPa) = 23.32439 71.39304 82.44476
#
# Poissons Ratio (x) = 0.75044 0.75314
# Poissons Ratio (y) = 0.24517 -0.03630
# Poissons Ratio (z) = 0.21307 -0.03143
#
# Static dielectric constant tensor:
#      x y z
#    x 1.825140 0.000000 -0.013000 
#    y 0.000000 1.859940 0.000000 
#    z -0.013000 0.000000 1.894930 
# 
# From -- ./inp_files/14617.got.cif
#   From: 2010.05.17/outbox.cif.g08.bks.cpg/sg9_8_cif.got.tgz:14617.got - 2010.06.03 20:04:27.
