data_PCOD9137944
_publ_section_title
;
Structure prediction by ZEFSAII (Michael W. Deem and Ramdas Pophale) SiO2 
 PCOD9137944
Probable space group: C C
;
_chemical_formula_sum "Si O2"
_cell_formula_units_Z 24
_cell_length_a 10.714736
_cell_length_b 11.154536
_cell_length_c 7.546636
_cell_angle_alpha 90.000000
_cell_angle_beta 103.964104
_cell_angle_gamma 90.000000
_cell_volume 875.302672
_symmetry_space_group_name_H-M "C C"
_symmetry_group_IT_number 9
_symmetry_cell_setting 'monoclinic'
loop_
_space_group_symop_operation_xyz
x,y,z
x,-y,1/2+z
1/2+x,1/2+y,z
1/2+x,1/2-y,1/2+z
loop_
_atom_site_type_symbol
_atom_site_label
_atom_site_fract_x
_atom_site_fract_y
_atom_site_fract_z
Si Si1 0.635800 0.404483 0.764310
Si Si2 0.294986 0.906675 0.488909
Si Si3 0.290968 0.313787 0.773231
Si Si4 0.125852 0.642100 0.744547
Si Si5 0.530630 0.103153 0.333585
Si Si6 0.872008 0.028946 0.629350
O O1 0.674429 0.376119 0.574740
O O2 0.756285 0.464058 0.903847
O O3 0.612956 0.271683 0.829911
O O4 0.520976 0.502119 0.726146
O O5 0.319842 0.822421 0.328308
O O6 0.410194 0.890375 0.664456
O O7 0.142453 0.326110 0.770730
O O8 0.321770 0.389947 0.609590
O O9 0.363948 0.396656 0.945555
O O10 0.033401 0.642655 0.538170
O O11 0.078162 0.534452 0.850294
O O12 0.267274 0.602818 0.713013
#
# Coordination Sequence:
#
# PCOD9137944 Si02
#       6
#     4   4   4   4   4   4
#     4  12  26  46  70 115 150 193 244 318 371 449
#     4  12  26  45  71 111 150 193 245 316 377 444
#     4  10  23  45  74 104 143 195 249 310 367 455
#     4  10  23  49  74 104 143 197 247 308 369 448
#     4  10  22  46  73 100 146 197 240 304 381 433
#     4  10  22  45  74 104 140 195 249 294 379 439
#
# _framework density 27.419087999999999
#
# number of rings (size 3 to 8) (size 9 to 14) (size 15 to 20)
#    0.000    1.333    3.333    2.000    2.333    4.000 
#   27.000    0.000    0.000    0.000    0.000    0.000 
#    0.000    0.000    0.000    0.000    0.000    0.000 
#
# Total GULP energy -67148.030426 kJ/mol
# GULP energy per Si atom -5595.669202 kJ/mol
# Density = 2.735668 g / cm^3
# Si number density = 27.419088 Si / 1000 Ang^3
#
#
#
# Elastic Constant Matrix: (Units=GPa)
#
#
# Indices 1 2 3 4 5 6 
#
# 1 107.0829 27.1313 35.3870 0.0000 32.2675 0.0000
# 2 27.1313 158.4327 56.2390 0.0000 26.5830 0.0000
# 3 35.3870 56.2390 108.0973 0.0000 21.0077 0.0000
# 4 0.0000 0.0000 0.0000 46.3073 0.0000 -2.7364
# 5 32.2675 26.5830 21.0077 0.0000 50.6876 0.0000
# 6 0.0000 0.0000 0.0000 -2.7364 0.0000 30.1050
#
#
#
# Elastic Compliance Matrix: (Units=1/GPa)
#
#
# Indices 1 2 3 4 5 6 
#
# 1 0.012245 -0.000019 -0.002703 0.000000 -0.006665 0.000000
# 2 -0.000019 0.008070 -0.003668 0.000000 -0.002700 0.000000
# 3 -0.002703 -0.003668 0.012329 0.000000 -0.001465 0.000000
# 4 0.000000 0.000000 0.000000 0.021711 0.000000 0.001973
# 5 -0.006665 -0.002700 -0.001465 0.000000 0.025995 0.000000
# 6 0.000000 0.000000 0.000000 0.001973 0.000000 0.033396
#
#
# Mechanical properties :
#
#
# Convention : Reuss Voigt Hill
#
# Bulk Modulus (GPa) = 50.34282 67.90305 59.12293
# Shear Modulus (GPa) = 37.55223 42.41037 39.98130
#
# Velocity S-wave (km/s) = 3.70478 3.93714 3.82272
# Velocity P-wave (km/s) = 6.05812 6.74438 6.41044
#
# Compressibility (1/GPa) = 0.01986381
#
# Stress axis : x y z
#
# Youngs Moduli (GPa) = 81.66556 123.91559 81.11105
#
# Poissons Ratio (x) = 0.00236 0.21928
# Poissons Ratio (y) = 0.00156 0.29748
# Poissons Ratio (z) = 0.22078 0.45447
#
# Static dielectric constant tensor:
#      x y z
#    x 2.268180 0.000000 0.001040 
#    y 0.000000 2.175330 0.000000 
#    z 0.001040 0.000000 2.216060 
# 
# From -- ./inp_files/6891.got.cif
#   From: 2010.05.17/outbox.cif.g08.bks.cpg/sg9_4_cif.got.tgz:6891.got - 2010.06.03 20:04:27.
