data_PCOD9137917
_publ_section_title
;
Structure prediction by ZEFSAII (Michael W. Deem and Ramdas Pophale) SiO2 
 PCOD9137917
Probable space group: C C
;
_chemical_formula_sum "Si O2"
_cell_formula_units_Z 32
_cell_length_a 16.036139
_cell_length_b 8.717829
_cell_length_c 16.560784
_cell_angle_alpha 90.000000
_cell_angle_beta 31.872843
_cell_angle_gamma 90.000000
_cell_volume 1222.510183
_symmetry_space_group_name_H-M "C C"
_symmetry_group_IT_number 9
_symmetry_cell_setting 'monoclinic'
loop_
_space_group_symop_operation_xyz
x,y,z
x,-y,1/2+z
1/2+x,1/2+y,z
1/2+x,1/2-y,1/2+z
loop_
_atom_site_type_symbol
_atom_site_label
_atom_site_fract_x
_atom_site_fract_y
_atom_site_fract_z
Si Si1 0.048810 0.965882 0.649150
Si Si2 0.954621 0.662223 0.476178
Si Si3 0.274329 0.773811 0.694650
Si Si4 0.550449 0.190855 0.090376
Si Si5 0.097768 0.043006 0.796013
Si Si6 0.060641 0.522687 0.728489
Si Si7 0.811924 0.245825 0.477857
Si Si8 0.233788 0.512181 0.329807
O O1 0.081305 0.132393 0.583979
O O2 0.042818 0.003595 0.750310
O O3 0.891347 0.907886 0.732809
O O4 0.189066 0.845368 0.526363
O O5 0.979595 0.840150 0.435440
O O6 0.082001 0.617042 0.439971
O O7 0.772729 0.622747 0.645749
O O8 0.014510 0.570823 0.346991
O O9 0.413701 0.826197 0.637236
O O10 0.318050 0.798725 0.566033
O O11 0.250014 0.597060 0.737883
O O12 0.124612 0.887595 0.825701
O O13 0.504799 0.091806 0.205068
O O14 0.701606 0.114015 0.925301
O O15 0.234411 0.578551 0.556100
O O16 0.974603 0.688066 0.808394
#
# Coordination Sequence:
#
# PCOD9137917 Si02
#       8
#     4   4   4   4   4   4   4   4
#     4  10  24  40  71 103 136 179 241 291 348 427
#     4  12  24  49  71 103 142 189 237 297 358 434
#     4  10  22  45  71 100 137 183 236 294 346 425
#     4  11  24  43  70 101 143 186 232 296 353 419
#     4  11  24  46  72 104 141 186 238 294 361 423
#     4  12  25  45  72  99 144 183 233 295 356 427
#     4  11  25  47  71 103 139 185 237 291 360 424
#     4  11  24  45  72 105 140 189 246 290 358 423
#
# _framework density 26.175650999999998
#
# number of rings (size 3 to 8) (size 9 to 14) (size 15 to 20)
#    0.000    1.000    6.250    0.000    7.000    1.000 
#    6.750    0.000    0.000    0.000    0.000    0.000 
#    0.000    0.000    0.000    0.000    0.000    0.000 
#
# Total GULP energy -89557.480245 kJ/mol
# GULP energy per Si atom -5597.342515 kJ/mol
# Density = 2.611607 g / cm^3
# Si number density = 26.175651 Si / 1000 Ang^3
#
#
#
# Elastic Constant Matrix: (Units=GPa)
#
#
# Indices 1 2 3 4 5 6 
#
# 1 117.6862 37.2521 23.0275 0.0000 -6.4503 0.0000
# 2 37.2521 88.4940 23.3235 0.0000 -13.3477 0.0000
# 3 23.0275 23.3235 90.9820 0.0000 -14.9255 0.0000
# 4 0.0000 0.0000 0.0000 43.4957 0.0000 -7.1254
# 5 -6.4503 -13.3477 -14.9255 0.0000 21.6632 0.0000
# 6 0.0000 0.0000 0.0000 -7.1254 0.0000 54.2354
#
#
#
# Elastic Compliance Matrix: (Units=1/GPa)
#
#
# Indices 1 2 3 4 5 6 
#
# 1 0.010010 -0.003863 -0.001629 0.000000 -0.000522 0.000000
# 2 -0.003863 0.014345 -0.001622 0.000000 0.006571 0.000000
# 3 -0.001629 -0.001622 0.013051 0.000000 0.007508 0.000000
# 4 0.000000 0.000000 0.000000 0.023496 0.000000 0.003087
# 5 -0.000522 0.006571 0.007508 0.000000 0.055227 0.000000
# 6 0.000000 0.000000 0.000000 0.003087 0.000000 0.018844
#
#
# Mechanical properties :
#
#
# Convention : Reuss Voigt Hill
#
# Bulk Modulus (GPa) = 43.14358 51.59649 47.37003
# Shear Modulus (GPa) = 31.86202 38.11613 34.98907
#
# Velocity S-wave (km/s) = 3.49268 3.82012 3.66006
# Velocity P-wave (km/s) = 5.72566 6.26196 5.99981
#
# Compressibility (1/GPa) = 0.02317842
#
# Stress axis : x y z
#
# Youngs Moduli (GPa) = 99.89864 69.71075 76.62394
#
# Poissons Ratio (x) = 0.26931 0.12481
# Poissons Ratio (y) = 0.38594 0.12425
# Poissons Ratio (z) = 0.16272 0.11304
#
# Static dielectric constant tensor:
#      x y z
#    x 2.026860 0.000000 -0.012010 
#    y 0.000000 2.135030 0.000000 
#    z -0.012010 0.000000 2.106480 
# 
# From -- ./inp_files/30616.got.cif
#   From: 2010.05.17/outbox.cif.g08.bks.cpg/sg9_16_cif.got.tgz:30616.got - 2010.06.03 20:04:27.
