data_PCOD9137327
_publ_section_title
;
Structure prediction by ZEFSAII (Michael W. Deem and Ramdas Pophale) SiO2 
 PCOD9137327
Probable space group: C C
;
_chemical_formula_sum "Si O2"
_cell_formula_units_Z 28
_cell_length_a 5.676290
_cell_length_b 8.991777
_cell_length_c 21.192041
_cell_angle_alpha 90.000000
_cell_angle_beta 105.824568
_cell_angle_gamma 90.000000
_cell_volume 1040.647449
_symmetry_space_group_name_H-M "C C"
_symmetry_group_IT_number 9
_symmetry_cell_setting 'monoclinic'
loop_
_space_group_symop_operation_xyz
x,y,z
x,-y,1/2+z
1/2+x,1/2+y,z
1/2+x,1/2-y,1/2+z
loop_
_atom_site_type_symbol
_atom_site_label
_atom_site_fract_x
_atom_site_fract_y
_atom_site_fract_z
Si Si1 0.468410 0.857988 0.125000
Si Si2 0.568724 0.457514 0.390985
Si Si3 0.529563 0.357988 0.007201
Si Si4 0.555607 0.123175 0.869837
Si Si5 0.929249 0.542486 0.241216
Si Si6 0.442366 0.376825 0.762364
Si Si7 0.748986 0.066646 0.066101
O O1 0.248987 0.925325 0.066101
O O2 0.415745 0.898660 0.193867
O O3 0.700542 0.952143 0.119377
O O4 0.456103 0.687849 0.100431
O O5 0.582228 0.601340 0.438334
O O6 0.343780 0.368183 0.405835
O O7 0.484146 0.478975 0.311644
O O8 0.835300 0.387040 0.403317
O O9 0.541870 0.187849 0.031770
O O10 0.297431 0.452143 0.012824
O O11 0.498986 0.250000 0.816101
O O12 0.513826 0.978975 0.820557
O O13 0.662673 0.612960 0.228885
O O14 0.154193 0.631817 0.226366
#
# Coordination Sequence:
#
# PCOD9137327 Si02
#       7
#     4   4   4   4   4   4   4
#     4  10  26  44  70 103 139 191 237 300 364 430
#     4  10  23  41  65  98 135 181 234 292 354 432
#     4  10  26  44  70 103 139 191 237 300 364 430
#     4  10  22  41  64  99 133 181 232 289 356 423
#     4  10  23  41  65  98 135 181 234 292 354 432
#     4  10  22  41  64  99 133 181 232 289 356 423
#     4  10  26  46  68 106 140 188 244 296 366 434
#
# _framework density 26.906330000000001
#
# number of rings (size 3 to 8) (size 9 to 14) (size 15 to 20)
#    0.857    1.143    0.000    0.857   10.000    0.000 
#    0.000    0.000    0.000    0.000    0.000    0.000 
#    0.000    0.000    0.000    0.000    0.000    0.000 
#
# Total GULP energy -78036.148657 kJ/mol
# GULP energy per Si atom -5574.010618 kJ/mol
# Density = 2.684509 g / cm^3
# Si number density = 26.906330 Si / 1000 Ang^3
#
#
#
# Elastic Constant Matrix: (Units=GPa)
#
#
# Indices 1 2 3 4 5 6 
#
# 1 188.9205 56.0396 18.0943 0.0000 -32.5444 0.0000
# 2 56.0396 108.0811 9.4068 0.0000 -15.8309 0.0000
# 3 18.0943 9.4068 119.3495 0.0000 -14.4650 0.0000
# 4 0.0000 0.0000 0.0000 34.1087 0.0000 1.0590
# 5 -32.5444 -15.8309 -14.4650 0.0000 35.6322 0.0000
# 6 0.0000 0.0000 0.0000 1.0590 0.0000 50.8198
#
#
#
# Elastic Compliance Matrix: (Units=1/GPa)
#
#
# Indices 1 2 3 4 5 6 
#
# 1 0.007044 -0.002892 -0.000227 0.000000 0.005056 0.000000
# 2 -0.002892 0.011091 -0.000167 0.000000 0.002219 0.000000
# 3 -0.000227 -0.000167 0.008826 0.000000 0.003302 0.000000
# 4 0.000000 0.000000 0.000000 0.029337 0.000000 -0.000611
# 5 0.005056 0.002219 0.003302 0.000000 0.035009 0.000000
# 6 0.000000 0.000000 0.000000 -0.000611 0.000000 0.019690
#
#
# Mechanical properties :
#
#
# Convention : Reuss Voigt Hill
#
# Bulk Modulus (GPa) = 49.04380 64.82582 56.93481
# Shear Modulus (GPa) = 40.20402 46.29950 43.25176
#
# Velocity S-wave (km/s) = 3.86971 4.15271 4.01371
# Velocity P-wave (km/s) = 6.18331 6.86577 6.53346
#
# Compressibility (1/GPa) = 0.02038994
#
# Stress axis : x y z
#
# Youngs Moduli (GPa) = 141.96820 90.16150 113.29540
#
# Poissons Ratio (x) = 0.26073 0.02573
# Poissons Ratio (y) = 0.41054 0.01890
# Poissons Ratio (z) = 0.03225 0.01504
#
# Static dielectric constant tensor:
#      x y z
#    x 2.306440 0.000000 -0.111000 
#    y 0.000000 2.147790 0.000000 
#    z -0.111000 0.000000 2.238110 
# 
# From -- ./inp_files/31990.got.cif
#   From: 2010.05.17/outbox.cif.g08.bks.cpg/sg9_16_cif.got.tgz:31990.got - 2010.06.03 20:04:27.
