data_PCOD9137811
_publ_section_title
;
Structure prediction by ZEFSAII (Michael W. Deem and Ramdas Pophale) SiO2 
 PCOD9137811
Probable space group: C C
;
_chemical_formula_sum "Si O2"
_cell_formula_units_Z 28
_cell_length_a 12.219722
_cell_length_b 7.367984
_cell_length_c 25.896882
_cell_angle_alpha 90.000000
_cell_angle_beta 32.795219
_cell_angle_gamma 90.000000
_cell_volume 1262.893297
_symmetry_space_group_name_H-M "C C"
_symmetry_group_IT_number 9
_symmetry_cell_setting 'monoclinic'
loop_
_space_group_symop_operation_xyz
x,y,z
x,-y,1/2+z
1/2+x,1/2+y,z
1/2+x,1/2-y,1/2+z
loop_
_atom_site_type_symbol
_atom_site_label
_atom_site_fract_x
_atom_site_fract_y
_atom_site_fract_z
Si Si1 0.060860 0.260540 0.352810
Si Si2 0.724322 0.911760 0.912871
Si Si3 0.355441 0.939444 0.003629
Si Si4 0.901144 0.412302 0.784230
Si Si5 0.678600 0.682894 0.471585
Si Si6 0.736033 0.170500 0.679362
Si Si7 0.565206 0.515018 0.707212
O O1 0.222155 0.120987 0.313975
O O2 0.188629 0.367669 0.258200
O O3 0.871522 0.177507 0.396437
O O4 0.967629 0.385545 0.434631
O O5 0.678186 0.113047 0.951357
O O6 0.506601 0.837525 0.982955
O O7 0.851703 0.929642 0.809101
O O8 0.156097 0.995081 0.114172
O O9 0.298773 0.821075 0.977181
O O10 0.789665 0.432163 0.883487
O O11 0.060780 0.573782 0.715596
O O12 0.032775 0.226211 0.733235
O O13 0.454304 0.615833 0.572964
O O14 0.716466 0.389206 0.680615
#
# Coordination Sequence:
#
# PCOD9137811 Si02
#       7
#     4   4   4   4   4   4   4
#     4  11  23  44  69  99 140 174 233 281 336 415
#     4  10  24  44  66  98 136 177 227 283 332 409
#     4  12  22  44  69  94 141 178 217 290 338 397
#     4  11  23  46  69 102 137 179 232 281 337 413
#     4  11  23  43  69  98 138 178 226 281 343 401
#     4  11  23  45  68 103 137 178 230 281 342 411
#     4  10  22  44  70  94 139 176 223 285 334 396
#
# _framework density 22.171309999999998
#
# number of rings (size 3 to 8) (size 9 to 14) (size 15 to 20)
#    0.000    1.143    5.714    0.857    0.000    3.429 
#   10.286    2.857    0.000    0.000    0.000    0.000 
#    0.000    0.000    0.000    0.000    0.000    0.000 
#
# Total GULP energy -78119.789101 kJ/mol
# GULP energy per Si atom -5579.984936 kJ/mol
# Density = 2.212085 g / cm^3
# Si number density = 22.171310 Si / 1000 Ang^3
#
#
#
# Elastic Constant Matrix: (Units=GPa)
#
#
# Indices 1 2 3 4 5 6 
#
# 1 144.0166 32.3754 61.4564 0.0001 -14.0649 0.0004
# 2 32.3754 61.5323 27.3718 0.0001 -11.0486 0.0007
# 3 61.4564 27.3718 125.4005 -0.0001 -12.1103 -0.0002
# 4 0.0001 0.0001 -0.0001 22.7281 -0.0001 -0.8824
# 5 -14.0649 -11.0486 -12.1103 -0.0001 34.9963 -0.0001
# 6 0.0004 0.0007 -0.0002 -0.8824 -0.0001 33.5167
#
#
#
# Elastic Compliance Matrix: (Units=1/GPa)
#
#
# Indices 1 2 3 4 5 6 
#
# 1 0.009383 -0.002973 -0.003803 0.000000 0.001516 0.000000
# 2 -0.002973 0.019644 -0.002429 0.000000 0.004167 0.000000
# 3 -0.003803 -0.002429 0.010498 0.000000 0.001337 0.000000
# 4 0.000000 0.000000 0.000000 0.044043 0.000000 0.001160
# 5 0.001516 0.004167 0.001337 0.000000 0.030962 0.000000
# 6 0.000000 0.000000 0.000000 0.001160 0.000000 0.029866
#
#
# Mechanical properties :
#
#
# Convention : Reuss Voigt Hill
#
# Bulk Modulus (GPa) = 47.35784 63.70631 55.53208
# Shear Modulus (GPa) = 29.43876 32.23127 30.83502
#
# Velocity S-wave (km/s) = 3.64783 3.81693 3.73334
# Velocity P-wave (km/s) = 6.25688 6.94416 6.60946
#
# Compressibility (1/GPa) = 0.02111583
#
# Stress axis : x y z
#
# Youngs Moduli (GPa) = 106.57659 50.90549 95.26076
#
# Poissons Ratio (x) = 0.15133 0.36228
# Poissons Ratio (y) = 0.31683 0.23134
# Poissons Ratio (z) = 0.40532 0.12363
#
# Static dielectric constant tensor:
#      x y z
#    x 1.854830 0.000000 -0.013860 
#    y 0.000000 1.843050 0.000000 
#    z -0.013860 0.000000 1.830340 
# 
# From -- ./inp_files/24058.got.cif
#   From: 2010.05.17/outbox.cif.g08.bks.cpg/sg9_13_cif.got.tgz:24058.got - 2010.06.03 20:04:27.
