data_PCOD9137198
_publ_section_title
;
Structure prediction by ZEFSAII (Michael W. Deem and Ramdas Pophale) SiO2 
 PCOD9137198
Probable space group: C C
;
_chemical_formula_sum "Si O2"
_cell_formula_units_Z 28
_cell_length_a 27.733073
_cell_length_b 4.559553
_cell_length_c 8.050733
_cell_angle_alpha 90.000000
_cell_angle_beta 71.878422
_cell_angle_gamma 90.000000
_cell_volume 967.523456
_symmetry_space_group_name_H-M "C C"
_symmetry_group_IT_number 9
_symmetry_cell_setting 'monoclinic'
loop_
_space_group_symop_operation_xyz
x,y,z
x,-y,1/2+z
1/2+x,1/2+y,z
1/2+x,1/2-y,1/2+z
loop_
_atom_site_type_symbol
_atom_site_label
_atom_site_fract_x
_atom_site_fract_y
_atom_site_fract_z
Si Si1 0.317710 0.326412 0.953880
Si Si2 0.032147 0.750436 0.536721
Si Si3 0.602569 0.845206 0.686159
Si Si4 0.172494 0.756497 0.833023
Si Si5 0.890417 0.206854 0.642061
Si Si6 0.962886 0.817675 0.332168
Si Si7 0.247779 0.259707 0.752704
O O1 0.356519 0.488153 0.789151
O O2 0.281206 0.146939 0.871562
O O3 0.350059 0.151105 0.058039
O O4 0.283958 0.568852 0.085648
O O5 0.060939 0.517881 0.620118
O O6 0.075675 0.845563 0.358307
O O7 0.991950 0.633487 0.442054
O O8 0.001950 0.984271 0.681092
O O9 0.637820 0.083536 0.739075
O O10 0.636585 0.659015 0.524887
O O11 0.210999 0.511998 0.860570
O O12 0.209219 0.012468 0.731730
O O13 0.926498 0.353156 0.742592
O O14 0.927587 0.027425 0.481199
#
# Coordination Sequence:
#
# PCOD9137198 Si02
#       7
#     4   4   4   4   4   4   4
#     4   9  19  38  66  96 140 190 242 298 363 431
#     4  10  22  40  63  99 132 183 236 295 358 431
#     4  10  25  44  65  98 148 188 241 304 371 432
#     4  11  26  46  70 104 142 190 244 305 365 431
#     4   8  16  35  66 103 136 183 234 297 361 432
#     4   9  18  36  71 100 134 186 239 290 362 437
#     4  11  24  43  69 100 142 192 246 299 360 434
#
# _framework density 28.939865999999999
#
# number of rings (size 3 to 8) (size 9 to 14) (size 15 to 20)
#    0.000    2.286    0.000    0.857    0.000   13.714 
#    0.000    4.286    0.000   96.000    0.000    0.000 
#    0.000    0.000    0.000    0.000    0.000    0.000 
#
# Total GULP energy -78442.618788 kJ/mol
# GULP energy per Si atom -5603.044199 kJ/mol
# Density = 2.887400 g / cm^3
# Si number density = 28.939866 Si / 1000 Ang^3
#
#
#
# Elastic Constant Matrix: (Units=GPa)
#
#
# Indices 1 2 3 4 5 6 
#
# 1 249.4210 57.4205 74.0206 0.0000 60.2403 0.0000
# 2 57.4205 60.1010 50.1402 0.0000 -11.3953 0.0000
# 3 74.0206 50.1402 240.6777 0.0000 -42.2559 0.0000
# 4 0.0000 0.0000 0.0000 -54.7982 0.0000 -18.4462
# 5 60.2403 -11.3953 -42.2559 0.0000 76.7917 0.0000
# 6 0.0000 0.0000 0.0000 -18.4462 0.0000 -3.2976
#
#
#
# Elastic Compliance Matrix: (Units=1/GPa)
#
#
# Indices 1 2 3 4 5 6 
#
# 1 0.009178 -0.008285 -0.002852 0.000000 -0.009999 0.000000
# 2 -0.008285 0.027657 -0.001497 0.000000 0.009780 0.000000
# 3 -0.002852 -0.001497 0.006307 0.000000 0.005486 0.000000
# 4 0.000000 0.000000 0.000000 0.020667 0.000000 -0.115606
# 5 -0.009999 0.009780 0.005486 0.000000 0.025336 0.000000
# 6 0.000000 0.000000 0.000000 -0.115606 0.000000 0.343430
#
#
# Mechanical properties :
#
#
# Convention : Reuss Voigt Hill
#
# Bulk Modulus (GPa) = 55.94573 101.48468 78.71521
# Shear Modulus (GPa) = 10.78051 28.31373 19.54712
#
# Velocity S-wave (km/s) = 1.93216 3.13127 2.60174
# Velocity P-wave (km/s) = 4.93471 6.94383 6.02362
#
# Compressibility (1/GPa) = 0.01787446
#
# Stress axis : x y z
#
# Youngs Moduli (GPa) = 108.95773 36.15732 158.55201
#
# Poissons Ratio (x) = 0.29956 0.45221
# Poissons Ratio (y) = 0.90270 0.23731
# Poissons Ratio (z) = 0.31076 0.05412
#
# Static dielectric constant tensor:
#      x y z
#    x 2.309780 0.000000 -0.036050 
#    y 0.000000 2.179840 0.000000 
#    z -0.036050 0.000000 2.166660 
# 
# From -- ./inp_files/12610.got.cif
#   From: 2010.05.17/outbox.cif.g08.bks.cpg/sg9_7_cif.got.tgz:12610.got - 2010.06.03 20:04:27.
