data_PCOD9137819
_publ_section_title
;
Structure prediction by ZEFSAII (Michael W. Deem and Ramdas Pophale) SiO2 
 PCOD9137819
Probable space group: C C
;
_chemical_formula_sum "Si O2"
_cell_formula_units_Z 28
_cell_length_a 6.478336
_cell_length_b 13.243748
_cell_length_c 16.291358
_cell_angle_alpha 90.000000
_cell_angle_beta 124.110421
_cell_angle_gamma 90.000000
_cell_volume 1157.284552
_symmetry_space_group_name_H-M "C C"
_symmetry_group_IT_number 9
_symmetry_cell_setting 'monoclinic'
loop_
_space_group_symop_operation_xyz
x,y,z
x,-y,1/2+z
1/2+x,1/2+y,z
1/2+x,1/2-y,1/2+z
loop_
_atom_site_type_symbol
_atom_site_label
_atom_site_fract_x
_atom_site_fract_y
_atom_site_fract_z
Si Si1 0.954300 0.711151 0.102020
Si Si2 0.217309 0.085032 0.172536
Si Si3 0.862774 0.655556 0.379286
Si Si4 0.175644 0.437202 0.239478
Si Si5 0.784895 0.933259 0.070758
Si Si6 0.172289 0.145350 0.893294
Si Si7 0.922889 0.729969 0.792261
O O1 0.745842 0.683833 0.123223
O O2 0.931929 0.830128 0.080634
O O3 0.221044 0.699411 0.203451
O O4 0.887924 0.641488 0.009826
O O5 0.229526 0.109740 0.270560
O O6 0.470015 0.021919 0.211254
O O7 0.970910 0.024387 0.094754
O O8 0.642874 0.705794 0.383222
O O9 0.032411 0.574604 0.462509
O O10 0.036845 0.747930 0.386513
O O11 0.222269 0.430404 0.153094
O O12 0.452792 0.437925 0.342587
O O13 0.049443 0.338136 0.250928
O O14 0.286097 0.160848 0.828702
#
# Coordination Sequence:
#
# PCOD9137819 Si02
#       7
#     4   4   4   4   4   4   4
#     4  11  23  45  71 101 141 187 236 287 363 421
#     4  12  25  45  69 104 143 184 236 296 349 430
#     4  10  25  42  71 101 137 183 232 288 359 419
#     4  11  23  44  66 102 140 182 229 293 347 416
#     4  11  25  48  69 103 144 186 239 295 351 429
#     4  10  22  44  71 101 136 186 233 285 353 425
#     4  11  21  46  71  98 141 182 229 294 350 424
#
# _framework density 24.194569000000001
#
# number of rings (size 3 to 8) (size 9 to 14) (size 15 to 20)
#    0.000    1.143    4.286    0.857    6.000    0.000 
#    7.714    0.000    0.000    0.000    0.000    0.000 
#    0.000    0.000    0.000    0.000    0.000    0.000 
#
# Total GULP energy -78347.990396 kJ/mol
# GULP energy per Si atom -5596.285028 kJ/mol
# Density = 2.413950 g / cm^3
# Si number density = 24.194569 Si / 1000 Ang^3
#
#
#
# Elastic Constant Matrix: (Units=GPa)
#
#
# Indices 1 2 3 4 5 6 
#
# 1 95.7688 4.6531 13.2566 0.0000 16.2761 0.0000
# 2 4.6531 44.0902 -11.2816 0.0000 14.6058 0.0000
# 3 13.2566 -11.2816 77.6420 0.0000 7.1724 0.0000
# 4 0.0000 0.0000 0.0000 22.9859 0.0000 0.8881
# 5 16.2761 14.6058 7.1724 0.0000 31.0871 0.0000
# 6 0.0000 0.0000 0.0000 0.8881 0.0000 43.1258
#
#
#
# Elastic Compliance Matrix: (Units=1/GPa)
#
#
# Indices 1 2 3 4 5 6 
#
# 1 0.011625 0.000393 -0.001378 0.000000 -0.005953 0.000000
# 2 0.000393 0.029081 0.005558 0.000000 -0.015151 0.000000
# 3 -0.001378 0.005558 0.014404 0.000000 -0.005213 0.000000
# 4 0.000000 0.000000 0.000000 0.043539 0.000000 -0.000897
# 5 -0.005953 -0.015151 -0.005213 0.000000 0.043606 0.000000
# 6 0.000000 0.000000 0.000000 -0.000897 0.000000 0.023206
#
#
# Mechanical properties :
#
#
# Convention : Reuss Voigt Hill
#
# Bulk Modulus (GPa) = 15.56288 25.63970 20.60129
# Shear Modulus (GPa) = 28.13187 33.49796 30.81492
#
# Velocity S-wave (km/s) = 3.41359 3.72496 3.57267
# Velocity P-wave (km/s) = 4.68862 5.39636 5.05489
#
# Compressibility (1/GPa) = 0.06425544
#
# Stress axis : x y z
#
# Youngs Moduli (GPa) = 86.01986 34.38725 69.42477
#
# Poissons Ratio (x) = -0.01350 0.09566
# Poissons Ratio (y) = -0.03377 -0.38587
# Poissons Ratio (z) = 0.11853 -0.19113
#
# Static dielectric constant tensor:
#      x y z
#    x 1.910750 0.000000 0.043470 
#    y 0.000000 1.948990 0.000000 
#    z 0.043470 0.000000 1.967640 
# 
# From -- ./inp_files/21730.got.cif
#   From: 2010.05.17/outbox.cif.g08.bks.cpg/sg9_11_cif.got.tgz:21730.got - 2010.06.03 20:04:27.
