data_PCOD9137472
_publ_section_title
;
Structure prediction by ZEFSAII (Michael W. Deem and Ramdas Pophale) SiO2 
 PCOD9137472
Probable space group: C C
;
_chemical_formula_sum "Si O2"
_cell_formula_units_Z 32
_cell_length_a 13.577784
_cell_length_b 11.627026
_cell_length_c 14.103404
_cell_angle_alpha 90.000000
_cell_angle_beta 37.877166
_cell_angle_gamma 90.000000
_cell_volume 1367.001896
_symmetry_space_group_name_H-M "C C"
_symmetry_group_IT_number 9
_symmetry_cell_setting 'monoclinic'
loop_
_space_group_symop_operation_xyz
x,y,z
x,-y,1/2+z
1/2+x,1/2+y,z
1/2+x,1/2-y,1/2+z
loop_
_atom_site_type_symbol
_atom_site_label
_atom_site_fract_x
_atom_site_fract_y
_atom_site_fract_z
Si Si1 0.310460 0.855495 0.623630
Si Si2 0.214612 0.019056 0.997863
Si Si3 0.471416 0.664212 0.392843
Si Si4 0.282880 0.818635 0.051736
Si Si5 0.451717 0.593356 0.901436
Si Si6 0.043562 0.446841 0.984484
Si Si7 0.392598 0.574182 0.163008
Si Si8 0.937519 0.309944 0.229802
O O1 0.256873 0.920398 0.566484
O O2 0.364407 0.729737 0.550325
O O3 0.146515 0.852045 0.805219
O O4 0.445770 0.934411 0.566638
O O5 0.296233 0.101671 0.860052
O O6 0.026489 0.011001 0.122971
O O7 0.289393 0.894490 0.951735
O O8 0.414100 0.538825 0.402366
O O9 0.490285 0.751480 0.288696
O O10 0.114115 0.853320 0.231385
O O11 0.310101 0.686980 0.003150
O O12 0.429689 0.863919 0.006449
O O13 0.466217 0.579421 0.003256
O O14 0.212830 0.471722 0.806585
O O15 0.062778 0.380650 0.070303
O O16 0.379370 0.703684 0.211845
#
# Coordination Sequence:
#
# PCOD9137472 Si02
#       8
#     4   4   4   4   4   4   4   4
#     4  10  23  43  68 100 141 184 233 287 359 423
#     4  10  22  42  66  96 142 178 236 297 353 407
#     4  11  24  44  72 102 141 190 234 291 355 423
#     4  11  23  45  64 103 140 193 236 298 355 426
#     4  12  24  42  72  97 147 189 242 290 359 422
#     4  11  23  40  68 106 140 177 247 293 352 423
#     4  12  23  36  68 108 136 184 236 300 352 424
#     4  11  22  42  72 104 137 183 240 302 343 430
#
# _framework density 23.408892000000002
#
# number of rings (size 3 to 8) (size 9 to 14) (size 15 to 20)
#    0.000    1.000    5.000    2.250    3.500    0.000 
#    2.250    0.000   11.000    0.000    0.000    0.000 
#    0.000    0.000    0.000    0.000    0.000    0.000 
#
# Total GULP energy -89388.300014 kJ/mol
# GULP energy per Si atom -5586.768751 kJ/mol
# Density = 2.335561 g / cm^3
# Si number density = 23.408892 Si / 1000 Ang^3
#
#
#
# Elastic Constant Matrix: (Units=GPa)
#
#
# Indices 1 2 3 4 5 6 
#
# 1 53.3730 26.7818 19.4997 0.0000 -11.2005 0.0000
# 2 26.7818 148.5664 39.0925 0.0000 -20.3884 0.0000
# 3 19.4997 39.0925 82.3923 0.0000 -19.0982 0.0000
# 4 0.0000 0.0000 0.0000 34.0221 0.0000 5.2802
# 5 -11.2005 -20.3884 -19.0982 0.0000 31.4916 0.0000
# 6 0.0000 0.0000 0.0000 5.2802 0.0000 23.4532
#
#
#
# Elastic Compliance Matrix: (Units=1/GPa)
#
#
# Indices 1 2 3 4 5 6 
#
# 1 0.022038 -0.002592 -0.002976 0.000000 0.004355 0.000000
# 2 -0.002592 0.008287 -0.002663 0.000000 0.002828 0.000000
# 3 -0.002976 -0.002663 0.015662 0.000000 0.006715 0.000000
# 4 0.000000 0.000000 0.000000 0.030457 0.000000 -0.006857
# 5 0.004355 0.002828 0.006715 0.000000 0.039207 0.000000
# 6 0.000000 0.000000 0.000000 -0.006857 0.000000 0.044182
#
#
# Mechanical properties :
#
#
# Convention : Reuss Voigt Hill
#
# Bulk Modulus (GPa) = 33.87058 50.56441 42.21750
# Shear Modulus (GPa) = 26.86201 31.05723 28.95962
#
# Velocity S-wave (km/s) = 3.39117 3.64638 3.52109
# Velocity P-wave (km/s) = 5.46204 6.27499 5.88258
#
# Compressibility (1/GPa) = 0.02952415
#
# Stress axis : x y z
#
# Youngs Moduli (GPa) = 45.37617 120.66967 63.85061
#
# Poissons Ratio (x) = 0.31276 0.19005
# Poissons Ratio (y) = 0.11761 0.17003
# Poissons Ratio (z) = 0.13506 0.32133
#
# Static dielectric constant tensor:
#      x y z
#    x 1.909510 0.000000 0.031840 
#    y 0.000000 1.915940 0.000000 
#    z 0.031840 0.000000 1.924730 
# 
# From -- ./inp_files/25848.got.cif
#   From: 2010.05.17/outbox.cif.g08.bks.cpg/sg9_13_cif.got.tgz:25848.got - 2010.06.03 20:04:27.
