data_PCOD9137056
_publ_section_title
;
Structure prediction by ZEFSAII (Michael W. Deem and Ramdas Pophale) SiO2 
 PCOD9137056
Probable space group: C C
;
_chemical_formula_sum "Si O2"
_cell_formula_units_Z 28
_cell_length_a 14.723572
_cell_length_b 18.097379
_cell_length_c 7.732167
_cell_angle_alpha 90.000000
_cell_angle_beta 38.462588
_cell_angle_gamma 90.000000
_cell_volume 1281.512696
_symmetry_space_group_name_H-M "C C"
_symmetry_group_IT_number 9
_symmetry_cell_setting 'monoclinic'
loop_
_space_group_symop_operation_xyz
x,y,z
x,-y,1/2+z
1/2+x,1/2+y,z
1/2+x,1/2-y,1/2+z
loop_
_atom_site_type_symbol
_atom_site_label
_atom_site_fract_x
_atom_site_fract_y
_atom_site_fract_z
Si Si1 0.930260 0.044761 0.586710
Si Si2 0.870575 0.594814 0.784883
Si Si3 0.229366 0.170075 0.677576
Si Si4 0.240871 0.582318 0.571912
Si Si5 0.193703 0.660064 0.305340
Si Si6 0.998030 0.094582 0.805755
Si Si7 0.904192 0.426245 0.638454
O O1 0.841471 0.094821 0.587102
O O2 0.038494 0.090676 0.545981
O O3 0.818860 0.985639 0.849780
O O4 0.023806 0.987163 0.337101
O O5 0.762506 0.639269 0.819419
O O6 0.854499 0.509219 0.755651
O O7 0.034927 0.626936 0.498913
O O8 0.863431 0.598300 0.004165
O O9 0.224973 0.258063 0.694146
O O10 0.074190 0.147349 0.826240
O O11 0.342159 0.130644 0.374772
O O12 0.219049 0.649949 0.473380
O O13 0.079641 0.565353 0.879052
O O14 0.326842 0.611219 0.037018
#
# Coordination Sequence:
#
# PCOD9137056 Si02
#       7
#     4   4   4   4   4   4   4
#     4   9  18  36  66  99 125 162 225 279 317 390
#     4  11  23  43  73  95 133 173 234 273 329 395
#     4  12  26  42  64  96 146 170 214 275 347 389
#     4   9  18  37  67  98 127 165 229 276 320 389
#     4  10  23  45  64  92 130 182 215 270 329 401
#     4  10  22  38  63  92 132 171 211 266 342 387
#     4  11  22  39  69 104 123 175 228 279 326 389
#
# _framework density 21.849178999999999
#
# number of rings (size 3 to 8) (size 9 to 14) (size 15 to 20)
#    0.000    1.714    1.429    4.286    4.000    0.000 
#    7.714    1.429    0.000    0.000    0.000    0.000 
#    0.000    0.000    0.000    0.000    0.000    0.000 
#
# Total GULP energy -78054.738602 kJ/mol
# GULP energy per Si atom -5575.338472 kJ/mol
# Density = 2.179945 g / cm^3
# Si number density = 21.849179 Si / 1000 Ang^3
#
#
#
# Elastic Constant Matrix: (Units=GPa)
#
#
# Indices 1 2 3 4 5 6 
#
# 1 150.9915 47.2489 14.0539 0.0001 8.4048 -0.0001
# 2 47.2489 106.1138 20.4938 0.0001 1.2578 -0.0001
# 3 14.0539 20.4938 61.3942 0.0002 -15.5913 -0.0003
# 4 0.0001 0.0001 0.0002 22.8593 -0.0002 0.7380
# 5 8.4048 1.2578 -15.5913 -0.0002 28.5998 0.0002
# 6 -0.0001 -0.0001 -0.0003 0.7380 0.0002 22.2478
#
#
#
# Elastic Compliance Matrix: (Units=1/GPa)
#
#
# Indices 1 2 3 4 5 6 
#
# 1 0.007934 -0.003205 -0.001512 0.000000 -0.003015 0.000000
# 2 -0.003205 0.011543 -0.003493 0.000000 -0.001470 0.000000
# 3 -0.001512 -0.003493 0.020837 0.000000 0.011957 0.000000
# 4 0.000000 0.000000 0.000000 0.043793 0.000000 -0.001453
# 5 -0.003015 -0.001470 0.011957 0.000000 0.042435 0.000000
# 6 0.000000 0.000000 0.000000 -0.001453 0.000000 0.044996
#
#
# Mechanical properties :
#
#
# Convention : Reuss Voigt Hill
#
# Bulk Modulus (GPa) = 41.85092 53.56584 47.70838
# Shear Modulus (GPa) = 25.52029 30.52157 28.02093
#
# Velocity S-wave (km/s) = 3.42134 3.74159 3.58504
# Velocity P-wave (km/s) = 5.89945 6.57537 6.24655
#
# Compressibility (1/GPa) = 0.02389434
#
# Stress axis : x y z
#
# Youngs Moduli (GPa) = 126.03282 86.63284 47.99207
#
# Poissons Ratio (x) = 0.27767 0.07257
# Poissons Ratio (y) = 0.40396 0.16762
# Poissons Ratio (z) = 0.19057 0.30258
#
# Static dielectric constant tensor:
#      x y z
#    x 1.850100 0.000000 0.034360 
#    y 0.000000 1.735420 0.000000 
#    z 0.034360 0.000000 1.950260 
# 
# From -- ./inp_files/9922.got.cif
#   From: 2010.05.17/outbox.cif.g08.bks.cpg/sg9_5_cif.got.tgz:9922.got - 2010.06.03 20:04:27.
