data_PCOD9137673
_publ_section_title
;
Structure prediction by ZEFSAII (Michael W. Deem and Ramdas Pophale) SiO2 
 PCOD9137673
Probable space group: C C
;
_chemical_formula_sum "Si O2"
_cell_formula_units_Z 28
_cell_length_a 28.232404
_cell_length_b 7.014563
_cell_length_c 16.748633
_cell_angle_alpha 90.000000
_cell_angle_beta 20.798480
_cell_angle_gamma 90.000000
_cell_volume 1177.759734
_symmetry_space_group_name_H-M "C C"
_symmetry_group_IT_number 9
_symmetry_cell_setting 'monoclinic'
loop_
_space_group_symop_operation_xyz
x,y,z
x,-y,1/2+z
1/2+x,1/2+y,z
1/2+x,1/2-y,1/2+z
loop_
_atom_site_type_symbol
_atom_site_label
_atom_site_fract_x
_atom_site_fract_y
_atom_site_fract_z
Si Si1 0.911580 0.738120 0.404470
Si Si2 0.960610 0.160692 0.368704
Si Si3 0.719793 0.452130 0.759703
Si Si4 0.995271 0.804190 0.994208
Si Si5 0.298394 0.825403 0.926764
Si Si6 0.243023 0.874926 0.387572
Si Si7 0.030049 0.629244 0.379004
O O1 0.769979 0.665426 0.662008
O O2 0.912775 0.656741 0.313382
O O3 0.010818 0.651526 0.313670
O O4 0.925429 0.964416 0.380138
O O5 0.975969 0.105117 0.437946
O O6 0.841848 0.309974 0.548681
O O7 0.104263 0.237162 0.112414
O O8 0.601919 0.393880 0.886738
O O9 0.709887 0.464807 0.871370
O O10 0.032723 0.584959 0.910344
O O11 0.859492 0.798044 0.258818
O O12 0.260709 0.023466 0.945167
O O13 0.170268 0.730946 0.169100
O O14 0.389065 0.791944 0.136912
#
# Coordination Sequence:
#
# PCOD9137673 Si02
#       7
#     4   4   4   4   4   4   4
#     4  11  23  41  74  98 136 181 234 277 345 412
#     4  12  22  45  71  97 143 187 221 295 351 399
#     4  11  24  46  65 107 141 174 238 292 332 427
#     4  11  24  43  72  99 143 185 224 288 357 396
#     4  11  21  43  72  97 139 189 221 290 346 407
#     4  10  22  43  69  99 145 174 235 287 339 410
#     4  10  22  45  63 105 137 174 239 279 332 431
#
# _framework density 23.773947
#
# number of rings (size 3 to 8) (size 9 to 14) (size 15 to 20)
#    0.000    1.143    5.714    2.571    0.000    0.000 
#    5.143   14.286    3.143    0.000    0.000    0.000 
#    0.000    0.000    0.000    0.000    0.000    0.000 
#
# Total GULP energy -78126.359604 kJ/mol
# GULP energy per Si atom -5580.454257 kJ/mol
# Density = 2.371984 g / cm^3
# Si number density = 23.773947 Si / 1000 Ang^3
#
#
#
# Elastic Constant Matrix: (Units=GPa)
#
#
# Indices 1 2 3 4 5 6 
#
# 1 122.3234 -5.6269 12.3527 0.0000 -5.2742 0.0000
# 2 -5.6269 47.2461 33.9614 -0.0001 3.9193 0.0000
# 3 12.3527 33.9614 140.5897 0.0000 -8.3760 0.0000
# 4 0.0000 -0.0001 0.0000 36.1593 0.0000 -5.6836
# 5 -5.2742 3.9193 -8.3760 0.0000 32.1186 0.0000
# 6 0.0000 0.0000 0.0000 -5.6836 0.0000 34.0069
#
#
#
# Elastic Compliance Matrix: (Units=1/GPa)
#
#
# Indices 1 2 3 4 5 6 
#
# 1 0.008403 0.001719 -0.001101 0.000000 0.000883 0.000000
# 2 0.001719 0.026719 -0.006890 0.000000 -0.004775 0.000000
# 3 -0.001101 -0.006890 0.009054 0.000000 0.003021 0.000000
# 4 0.000000 0.000000 0.000000 0.028401 0.000000 0.004747
# 5 0.000883 -0.004775 0.003021 0.000000 0.032650 0.000000
# 6 0.000000 0.000000 0.000000 0.004747 0.000000 0.030199
#
#
# Mechanical properties :
#
#
# Convention : Reuss Voigt Hill
#
# Bulk Modulus (GPa) = 31.61285 43.50375 37.55830
# Shear Modulus (GPa) = 31.54270 38.42177 34.98223
#
# Velocity S-wave (km/s) = 3.64644 4.02447 3.84011
# Velocity P-wave (km/s) = 5.57269 6.31932 5.95771
#
# Compressibility (1/GPa) = 0.03163271
#
# Stress axis : x y z
#
# Youngs Moduli (GPa) = 118.99973 37.42631 110.44877
#
# Poissons Ratio (x) = -0.06434 0.12160
# Poissons Ratio (y) = -0.20456 0.76098
# Poissons Ratio (z) = 0.13102 0.25786
#
# Static dielectric constant tensor:
#      x y z
#    x 1.941440 0.000000 0.027360 
#    y 0.000000 1.963610 0.000000 
#    z 0.027360 0.000000 1.945120 
# 
# From -- ./inp_files/31823.got.cif
#   From: 2010.05.17/outbox.cif.g08.bks.cpg/sg9_16_cif.got.tgz:31823.got - 2010.06.03 20:04:27.
