data_PCOD9137765
_publ_section_title
;
Structure prediction by ZEFSAII (Michael W. Deem and Ramdas Pophale) SiO2 
 PCOD9137765
Probable space group: C C
;
_chemical_formula_sum "Si O2"
_cell_formula_units_Z 32
_cell_length_a 13.454990
_cell_length_b 6.742853
_cell_length_c 16.520121
_cell_angle_alpha 90.000000
_cell_angle_beta 78.853537
_cell_angle_gamma 90.000000
_cell_volume 1470.515489
_symmetry_space_group_name_H-M "C C"
_symmetry_group_IT_number 9
_symmetry_cell_setting 'monoclinic'
loop_
_space_group_symop_operation_xyz
x,y,z
x,-y,1/2+z
1/2+x,1/2+y,z
1/2+x,1/2-y,1/2+z
loop_
_atom_site_type_symbol
_atom_site_label
_atom_site_fract_x
_atom_site_fract_y
_atom_site_fract_z
Si Si1 0.290210 0.565366 0.426000
Si Si2 0.070632 0.039333 0.517170
Si Si3 0.784287 0.689053 0.238576
Si Si4 0.912085 0.049551 0.163975
Si Si5 0.424147 0.858013 0.295437
Si Si6 0.905745 0.247417 0.003158
Si Si7 0.609572 0.847187 0.373636
Si Si8 0.279929 0.101068 0.051607
O O1 0.353301 0.715226 0.360495
O O2 0.351428 0.365309 0.438187
O O3 0.184528 0.505411 0.402511
O O4 0.279266 0.683241 0.511792
O O5 0.065002 0.206152 0.450404
O O6 0.184731 0.011430 0.527345
O O7 0.999186 0.079346 0.606017
O O8 0.020069 0.835596 0.490695
O O9 0.858585 0.537876 0.271775
O O10 0.681555 0.713997 0.304687
O O11 0.769041 0.616582 0.149201
O O12 0.836793 0.904520 0.221953
O O13 0.957123 0.216209 0.215741
O O14 0.861696 0.164833 0.096158
O O15 0.519532 0.928566 0.332554
O O16 0.879506 0.477386 0.010233
#
# Coordination Sequence:
#
# PCOD9137765 Si02
#       8
#     4   4   4   4   4   4   4   4
#     4  12  25  45  70 101 145 186 237 297 358 429
#     4  10  22  44  68 103 134 188 237 287 359 432
#     4  12  25  46  72 105 141 188 239 295 360 427
#     4  10  22  48  69  96 146 181 229 301 352 419
#     4  12  25  48  69 105 147 188 233 297 366 421
#     4  10  22  45  69  96 139 182 230 299 346 422
#     4  12  26  47  70 106 147 188 240 296 363 431
#     4  12  23  43  75 102 135 191 243 292 360 433
#
# _framework density 21.761078000000001
#
# number of rings (size 3 to 8) (size 9 to 14) (size 15 to 20)
#    0.750    0.000    6.250    1.500    0.000    1.000 
#   13.500    0.000    0.000    0.000    0.000    0.000 
#    0.000    0.000    0.000    0.000    0.000    0.000 
#
# Total GULP energy -89431.347625 kJ/mol
# GULP energy per Si atom -5589.459227 kJ/mol
# Density = 2.171155 g / cm^3
# Si number density = 21.761078 Si / 1000 Ang^3
#
#
#
# Elastic Constant Matrix: (Units=GPa)
#
#
# Indices 1 2 3 4 5 6 
#
# 1 99.1245 33.6746 46.5201 0.0000 21.8095 0.0000
# 2 33.6746 70.4213 41.4351 0.0000 12.5284 0.0000
# 3 46.5201 41.4351 108.1310 0.0000 13.6818 0.0000
# 4 0.0000 0.0000 0.0000 43.2501 0.0000 8.5453
# 5 21.8095 12.5284 13.6818 0.0000 44.0074 0.0000
# 6 0.0000 0.0000 0.0000 8.5453 0.0000 39.0221
#
#
#
# Elastic Compliance Matrix: (Units=1/GPa)
#
#
# Indices 1 2 3 4 5 6 
#
# 1 0.014308 -0.003519 -0.004202 0.000000 -0.004783 0.000000
# 2 -0.003519 0.019631 -0.005748 0.000000 -0.002058 0.000000
# 3 -0.004202 -0.005748 0.013312 0.000000 -0.000420 0.000000
# 4 0.000000 0.000000 0.000000 0.024167 0.000000 -0.005292
# 5 -0.004783 -0.002058 -0.000420 0.000000 0.025810 0.000000
# 6 0.000000 0.000000 0.000000 -0.005292 0.000000 0.026785
#
#
# Mechanical properties :
#
#
# Convention : Reuss Voigt Hill
#
# Bulk Modulus (GPa) = 49.23021 57.88182 53.55601
# Shear Modulus (GPa) = 31.70123 35.65905 33.68014
#
# Velocity S-wave (km/s) = 3.82093 4.05243 3.93838
# Velocity P-wave (km/s) = 6.49139 6.96798 6.73390
#
# Compressibility (1/GPa) = 0.02031273
#
# Stress axis : x y z
#
# Youngs Moduli (GPa) = 69.89065 50.93938 75.12167
#
# Poissons Ratio (x) = 0.17923 0.31567
# Poissons Ratio (y) = 0.24591 0.43183
# Poissons Ratio (z) = 0.29369 0.29282
#
# Static dielectric constant tensor:
#      x y z
#    x 1.775720 0.000000 -0.010910 
#    y 0.000000 1.800380 0.000000 
#    z -0.010910 0.000000 1.812010 
# 
# From -- ./inp_files/30382.got.cif
#   From: 2010.05.17/outbox.cif.g08.bks.cpg/sg9_16_cif.got.tgz:30382.got - 2010.06.03 20:04:27.
