data_PCOD9137230
_publ_section_title
;
Structure prediction by ZEFSAII (Michael W. Deem and Ramdas Pophale) SiO2 
 PCOD9137230
Probable space group: C C
;
_chemical_formula_sum "Si O2"
_cell_formula_units_Z 28
_cell_length_a 7.253610
_cell_length_b 6.907101
_cell_length_c 20.475889
_cell_angle_alpha 90.000000
_cell_angle_beta 72.704583
_cell_angle_gamma 90.000000
_cell_volume 979.485864
_symmetry_space_group_name_H-M "C C"
_symmetry_group_IT_number 9
_symmetry_cell_setting 'monoclinic'
loop_
_space_group_symop_operation_xyz
x,y,z
x,-y,1/2+z
1/2+x,1/2+y,z
1/2+x,1/2-y,1/2+z
loop_
_atom_site_type_symbol
_atom_site_label
_atom_site_fract_x
_atom_site_fract_y
_atom_site_fract_z
Si Si1 0.941140 0.150537 0.372500
Si Si2 0.911623 0.745044 0.437101
Si Si3 0.283102 0.576156 0.253490
Si Si4 0.865828 0.333987 0.789611
Si Si5 0.548330 0.754215 0.569821
Si Si6 0.896483 0.685220 0.620787
Si Si7 0.223789 0.256013 0.003412
O O1 0.795209 0.154370 0.326616
O O2 0.878589 0.318904 0.431274
O O3 0.139878 0.117930 0.311048
O O4 0.947449 0.975748 0.423967
O O5 0.882043 0.694583 0.365454
O O6 0.713017 0.733050 0.497038
O O7 0.080478 0.650264 0.463044
O O8 0.376427 0.365732 0.248853
O O9 0.380138 0.724688 0.193911
O O10 0.059811 0.549073 0.255392
O O11 0.679907 0.678751 0.615483
O O12 0.355259 0.688615 0.551918
O O13 0.988705 0.473075 0.599576
O O14 0.039042 0.826829 0.563865
#
# Coordination Sequence:
#
# PCOD9137230 Si02
#       7
#     4   4   4   4   4   4   4
#     4  11  23  41  73  99 141 181 240 299 369 421
#     4  10  22  40  66 106 135 173 235 298 361 436
#     4  11  28  47  68 103 144 189 244 292 364 449
#     4  11  25  43  70 100 140 183 235 299 363 434
#     4  11  25  43  71 101 140 185 237 301 367 435
#     4  11  28  47  69 101 146 186 247 289 368 443
#     4  11  23  41  73 100 140 181 240 300 368 422
#
# _framework density 28.586423
#
# number of rings (size 3 to 8) (size 9 to 14) (size 15 to 20)
#    0.000    1.143    4.286    0.000    8.000    1.143 
#    0.000    0.000    0.000    0.000    0.000    0.000 
#    0.000    0.000    0.000    0.000    0.000    0.000 
#
# Total GULP energy -78006.008786 kJ/mol
# GULP energy per Si atom -5571.857770 kJ/mol
# Density = 2.852136 g / cm^3
# Si number density = 28.586423 Si / 1000 Ang^3
#
#
#
# Elastic Constant Matrix: (Units=GPa)
#
#
# Indices 1 2 3 4 5 6 
#
# 1 213.4689 49.4940 35.9629 0.0000 4.0428 0.0000
# 2 49.4940 57.1191 1.1054 0.0000 2.4196 0.0000
# 3 35.9629 1.1054 134.6816 0.0000 -20.7994 0.0000
# 4 0.0000 0.0000 0.0000 27.5917 0.0000 -6.4319
# 5 4.0428 2.4196 -20.7994 0.0000 40.1294 0.0000
# 6 0.0000 0.0000 0.0000 -6.4319 0.0000 44.5357
#
#
#
# Elastic Compliance Matrix: (Units=1/GPa)
#
#
# Indices 1 2 3 4 5 6 
#
# 1 0.006250 -0.005327 -0.001818 0.000000 -0.001251 0.000000
# 2 -0.005327 0.022107 0.001215 0.000000 -0.000166 0.000000
# 3 -0.001818 0.001215 0.008606 0.000000 0.004571 0.000000
# 4 0.000000 0.000000 0.000000 0.037505 0.000000 0.005417
# 5 -0.001251 -0.000166 0.004571 0.000000 0.027424 0.000000
# 6 0.000000 0.000000 0.000000 0.005417 0.000000 0.023236
#
#
# Mechanical properties :
#
#
# Convention : Reuss Voigt Hill
#
# Bulk Modulus (GPa) = 39.83642 64.26601 52.05122
# Shear Modulus (GPa) = 34.39814 43.69851 39.04832
#
# Velocity S-wave (km/s) = 3.47263 3.91403 3.69992
# Velocity P-wave (km/s) = 5.48129 6.55411 6.04156
#
# Compressibility (1/GPa) = 0.02510266
#
# Stress axis : x y z
#
# Youngs Moduli (GPa) = 160.00834 45.23481 116.19377
#
# Poissons Ratio (x) = 0.24098 0.21127
# Poissons Ratio (y) = 0.85240 -0.14122
# Poissons Ratio (z) = 0.29093 -0.05498
#
# Static dielectric constant tensor:
#      x y z
#    x 2.216890 0.000000 -0.125400 
#    y 0.000000 2.543030 0.000000 
#    z -0.125400 0.000000 2.223130 
# 
# From -- ./inp_files/31962.got.cif
#   From: 2010.05.17/outbox.cif.g08.bks.cpg/sg9_16_cif.got.tgz:31962.got - 2010.06.03 20:04:27.
