data_PCOD9137662
_publ_section_title
;
Structure prediction by ZEFSAII (Michael W. Deem and Ramdas Pophale) SiO2 
 PCOD9137662
Probable space group: C C
;
_chemical_formula_sum "Si O2"
_cell_formula_units_Z 20
_cell_length_a 12.227445
_cell_length_b 5.215416
_cell_length_c 19.326268
_cell_angle_alpha 90.000000
_cell_angle_beta 36.471951
_cell_angle_gamma 90.000000
_cell_volume 732.609925
_symmetry_space_group_name_H-M "C C"
_symmetry_group_IT_number 9
_symmetry_cell_setting 'monoclinic'
loop_
_space_group_symop_operation_xyz
x,y,z
x,-y,1/2+z
1/2+x,1/2+y,z
1/2+x,1/2-y,1/2+z
loop_
_atom_site_type_symbol
_atom_site_label
_atom_site_fract_x
_atom_site_fract_y
_atom_site_fract_z
Si Si1 0.811440 0.208437 0.136290
Si Si2 0.441837 0.374523 0.338526
Si Si3 0.144947 0.405513 0.091631
Si Si4 0.815593 0.232926 0.749064
Si Si5 0.929957 0.468207 0.460621
O O1 0.660360 0.423411 0.235297
O O2 0.703553 0.052069 0.131170
O O3 0.857303 0.989802 0.170031
O O4 0.962114 0.349812 0.011252
O O5 0.287306 0.529710 0.458000
O O6 0.382338 0.367712 0.290049
O O7 0.438427 0.108658 0.382939
O O8 0.944354 0.512115 0.174214
O O9 0.218992 0.124092 0.070941
O O10 0.594404 0.237505 0.874844
#
# Coordination Sequence:
#
# PCOD9137662 Si02
#       5
#     4   4   4   4   4
#     4   9  21  44  72 105 150 196 259 320 380 459
#     4   9  21  44  64 105 150 190 259 318 379 452
#     4  10  22  43  69 108 156 191 257 319 377 461
#     4  10  22  44  77 109 149 208 256 313 392 467
#     4  10  22  45  74 107 155 203 251 324 382 465
#
# _framework density 27.299655000000001
#
# number of rings (size 3 to 8) (size 9 to 14) (size 15 to 20)
#    0.000    2.400    0.000    0.000    2.800    4.800 
#   10.800   16.000    0.000    0.000    0.000    0.000 
#    0.000    0.000    0.000    0.000    0.000    0.000 
#
# Total GULP energy -55785.840227 kJ/mol
# GULP energy per Si atom -5578.584023 kJ/mol
# Density = 2.723752 g / cm^3
# Si number density = 27.299655 Si / 1000 Ang^3
#
#
#
# Elastic Constant Matrix: (Units=GPa)
#
#
# Indices 1 2 3 4 5 6 
#
# 1 192.8199 23.2848 80.6558 0.0002 -16.4173 0.0005
# 2 23.2848 51.6328 53.4363 -0.0008 -7.2218 0.0027
# 3 80.6558 53.4363 151.1853 0.0002 -5.9039 -0.0003
# 4 0.0002 -0.0008 0.0002 45.8771 0.0003 -1.0913
# 5 -16.4173 -7.2218 -5.9039 0.0003 56.8550 -0.0006
# 6 0.0005 0.0027 -0.0003 -1.0913 -0.0006 30.7720
#
#
#
# Elastic Compliance Matrix: (Units=1/GPa)
#
#
# Indices 1 2 3 4 5 6 
#
# 1 0.006877 0.001369 -0.004085 0.000000 0.001736 0.000000
# 2 0.001369 0.031251 -0.011653 0.000000 0.003155 -0.000003
# 3 -0.004085 -0.011653 0.012861 0.000000 -0.001324 0.000001
# 4 0.000000 0.000000 0.000000 0.021816 0.000000 0.000774
# 5 0.001736 0.003155 -0.001324 0.000000 0.018353 0.000000
# 6 0.000000 -0.000003 0.000001 0.000774 0.000000 0.032524
#
#
# Mechanical properties :
#
#
# Convention : Reuss Voigt Hill
#
# Bulk Modulus (GPa) = 44.94068 78.93242 61.93655
# Shear Modulus (GPa) = 31.28163 42.58490 36.93327
#
# Velocity S-wave (km/s) = 3.38873 3.95385 3.68215
# Velocity P-wave (km/s) = 5.63995 7.05833 6.38863
#
# Compressibility (1/GPa) = 0.02225156
#
# Stress axis : x y z
#
# Youngs Moduli (GPa) = 145.40285 31.99857 77.75548
#
# Poissons Ratio (x) = -0.04381 0.31765
# Poissons Ratio (y) = -0.19907 0.90608
# Poissons Ratio (z) = 0.59400 0.37288
#
# Static dielectric constant tensor:
#      x y z
#    x 2.125290 0.000000 -0.011690 
#    y 0.000000 2.270720 0.000000 
#    z -0.011690 0.000000 2.194020 
# 
# From -- ./inp_files/15768.got.cif
#   From: 2010.05.17/outbox.cif.g08.bks.cpg/sg9_8_cif.got.tgz:15768.got - 2010.06.03 20:04:27.
