data_PCOD9137321
_publ_section_title
;
Structure prediction by ZEFSAII (Michael W. Deem and Ramdas Pophale) SiO2 
 PCOD9137321
Probable space group: C C
;
_chemical_formula_sum "Si O2"
_cell_formula_units_Z 32
_cell_length_a 14.653646
_cell_length_b 16.815818
_cell_length_c 9.428602
_cell_angle_alpha 90.000000
_cell_angle_beta 148.445842
_cell_angle_gamma 90.000000
_cell_volume 1215.808798
_symmetry_space_group_name_H-M "C C"
_symmetry_group_IT_number 9
_symmetry_cell_setting 'monoclinic'
loop_
_space_group_symop_operation_xyz
x,y,z
x,-y,1/2+z
1/2+x,1/2+y,z
1/2+x,1/2-y,1/2+z
loop_
_atom_site_type_symbol
_atom_site_label
_atom_site_fract_x
_atom_site_fract_y
_atom_site_fract_z
Si Si1 0.958480 0.726113 0.195060
Si Si2 0.364870 0.232686 0.620786
Si Si3 0.075112 0.024837 0.074296
Si Si4 0.700336 0.418363 0.026680
Si Si5 0.245354 0.330165 0.688840
Si Si6 0.752296 0.329263 0.684414
Si Si7 0.083158 0.517538 0.095872
Si Si8 0.190506 0.418479 0.009833
O O1 0.830545 0.679059 0.131155
O O2 0.062210 0.790025 0.424189
O O3 0.110716 0.664363 0.349727
O O4 0.860531 0.771963 0.940418
O O5 0.221307 0.170779 0.496505
O O6 0.318737 0.317570 0.626867
O O7 0.355557 0.221060 0.440000
O O8 0.549155 0.202826 0.922131
O O9 0.096988 0.031922 0.271074
O O10 0.225113 0.082302 0.206764
O O11 0.112074 0.937965 0.059890
O O12 0.892892 0.061626 0.782337
O O13 0.897484 0.449863 0.301565
O O14 0.227785 0.418922 0.728157
O O15 0.123078 0.433670 0.078722
O O16 0.100281 0.517829 0.286618
#
# Coordination Sequence:
#
# PCOD9137321 Si02
#       8
#     4   4   4   4   4   4   4   4
#     4  12  24  43  68  96 132 176 223 282 340 404
#     4  10  23  40  63  96 131 172 226 279 337 405
#     4  11  23  41  63  95 134 179 228 281 343 412
#     4  10  22  41  64  93 133 177 228 284 342 407
#     4  11  23  42  66  94 133 175 226 281 336 403
#     4  11  23  40  64  93 130 173 223 278 340 405
#     4  11  24  44  67  99 136 181 231 282 342 411
#     4  12  26  43  67 100 137 179 231 285 344 411
#
# _framework density 26.319928000000001
#
# number of rings (size 3 to 8) (size 9 to 14) (size 15 to 20)
#    0.000    1.000    0.000    7.500    0.000    6.000 
#    0.000    0.000    0.000    0.000    0.000    0.000 
#    0.000    0.000    0.000    0.000    0.000    0.000 
#
# Total GULP energy -89654.448485 kJ/mol
# GULP energy per Si atom -5603.403030 kJ/mol
# Density = 2.626002 g / cm^3
# Si number density = 26.319928 Si / 1000 Ang^3
#
#
#
# Elastic Constant Matrix: (Units=GPa)
#
#
# Indices 1 2 3 4 5 6 
#
# 1 43.5771 20.1856 15.5527 0.0000 -8.2805 0.0000
# 2 20.1856 49.2821 23.8230 0.0000 1.2144 0.0000
# 3 15.5527 23.8230 160.3969 0.0000 -14.5959 0.0000
# 4 0.0000 0.0000 0.0000 32.5245 0.0000 -13.1492
# 5 -8.2805 1.2144 -14.5959 0.0000 42.6983 0.0000
# 6 0.0000 0.0000 0.0000 -13.1492 0.0000 12.5697
#
#
#
# Elastic Compliance Matrix: (Units=1/GPa)
#
#
# Indices 1 2 3 4 5 6 
#
# 1 0.029892 -0.012121 -0.000557 0.000000 0.005951 0.000000
# 2 -0.012121 0.026909 -0.003205 0.000000 -0.004211 0.000000
# 3 -0.000557 -0.003205 0.006980 0.000000 0.002369 0.000000
# 4 0.000000 0.000000 0.000000 0.053279 0.000000 0.055736
# 5 0.005951 -0.004211 0.002369 0.000000 0.025504 0.000000
# 6 0.000000 0.000000 0.000000 0.055736 0.000000 0.137862
#
#
# Mechanical properties :
#
#
# Convention : Reuss Voigt Hill
#
# Bulk Modulus (GPa) = 31.23396 41.37541 36.30469
# Shear Modulus (GPa) = 15.48644 30.47149 22.97896
#
# Velocity S-wave (km/s) = 2.42831 3.40624 2.95797
# Velocity P-wave (km/s) = 4.44467 5.58787 5.04873
#
# Compressibility (1/GPa) = 0.03201643
#
# Stress axis : x y z
#
# Youngs Moduli (GPa) = 33.45365 37.16232 143.26519
#
# Poissons Ratio (x) = 0.45045 0.07974
# Poissons Ratio (y) = 0.40550 0.45911
# Poissons Ratio (z) = 0.01862 0.11909
#
# Static dielectric constant tensor:
#      x y z
#    x 2.053950 0.000000 0.026750 
#    y 0.000000 2.125810 0.000000 
#    z 0.026750 0.000000 1.973890 
# 
# From -- ./inp_files/10111.got.cif
#   From: 2010.05.17/outbox.cif.g08.bks.cpg/sg9_6_cif.got.tgz:10111.got - 2010.06.03 20:04:27.
