data_PCOD9137518
_publ_section_title
;
Structure prediction by ZEFSAII (Michael W. Deem and Ramdas Pophale) SiO2 
 PCOD9137518
Probable space group: C C
;
_chemical_formula_sum "Si O2"
_cell_formula_units_Z 32
_cell_length_a 14.040288
_cell_length_b 6.883477
_cell_length_c 15.611573
_cell_angle_alpha 90.000000
_cell_angle_beta 89.257569
_cell_angle_gamma 90.000000
_cell_volume 1508.669410
_symmetry_space_group_name_H-M "C C"
_symmetry_group_IT_number 9
_symmetry_cell_setting 'monoclinic'
loop_
_space_group_symop_operation_xyz
x,y,z
x,-y,1/2+z
1/2+x,1/2+y,z
1/2+x,1/2-y,1/2+z
loop_
_atom_site_type_symbol
_atom_site_label
_atom_site_fract_x
_atom_site_fract_y
_atom_site_fract_z
Si Si1 0.633270 0.682351 0.137600
Si Si2 0.298196 0.972076 0.739929
Si Si3 0.607881 0.358214 0.999637
Si Si4 0.689958 0.055317 0.488921
Si Si5 0.403794 0.459068 0.006797
Si Si6 0.925887 0.820463 0.687404
Si Si7 0.921103 0.850515 0.322737
Si Si8 0.634048 0.330508 0.347149
O O1 0.733400 0.672753 0.184414
O O2 0.626807 0.481019 0.085009
O O3 0.630607 0.848597 0.066094
O O4 0.539956 0.706325 0.196675
O O5 0.369886 0.118049 0.691554
O O6 0.220191 0.108004 0.786316
O O7 0.358730 0.836469 0.802053
O O8 0.494238 0.314600 0.001557
O O9 0.674837 0.173285 0.993483
O O10 0.625805 0.500479 0.919309
O O11 0.655099 0.135393 0.398870
O O12 0.798257 0.124629 0.501175
O O13 0.411671 0.578371 0.095093
O O14 0.413476 0.594096 0.922587
O O15 0.892680 0.967136 0.762907
O O16 0.032589 0.812708 0.302582
#
# Coordination Sequence:
#
# PCOD9137518 Si02
#       8
#     4   4   4   4   4   4   4   4
#     4  10  23  41  62  95 134 166 229 284 327 411
#     4  12  24  42  68  92 136 186 216 282 348 398
#     4   9  21  41  66  88 132 172 214 291 333 399
#     4  11  21  39  66  98 122 180 221 269 360 405
#     4  10  22  42  68  98 138 172 231 286 333 412
#     4  11  24  45  67  99 135 181 231 285 340 410
#     4  11  24  45  67  99 135 181 231 285 340 410
#     4  10  23  41  62  95 134 166 229 284 327 411
#
# _framework density 21.210744999999999
#
# number of rings (size 3 to 8) (size 9 to 14) (size 15 to 20)
#    0.000    1.500    1.250    3.750    0.000    7.000 
#    6.750    3.750    0.000    0.000    0.000    0.000 
#    0.000    0.000    0.000    0.000    0.000    0.000 
#
# Total GULP energy -89405.239048 kJ/mol
# GULP energy per Si atom -5587.827440 kJ/mol
# Density = 2.116247 g / cm^3
# Si number density = 21.210745 Si / 1000 Ang^3
#
#
#
# Elastic Constant Matrix: (Units=GPa)
#
#
# Indices 1 2 3 4 5 6 
#
# 1 90.2007 2.6502 4.4303 0.0000 8.8065 0.0000
# 2 2.6502 20.7492 -0.6349 0.0000 0.4465 0.0000
# 3 4.4303 -0.6349 53.6123 0.0000 16.7502 0.0000
# 4 0.0000 0.0000 0.0000 16.4970 0.0000 4.0319
# 5 8.8065 0.4465 16.7502 0.0000 24.5443 0.0000
# 6 0.0000 0.0000 0.0000 4.0319 0.0000 20.8372
#
#
#
# Elastic Compliance Matrix: (Units=1/GPa)
#
#
# Indices 1 2 3 4 5 6 
#
# 1 0.011535 -0.001367 0.000402 0.000000 -0.004388 0.000000
# 2 -0.001367 0.048424 0.001027 0.000000 -0.001092 0.000000
# 3 0.000402 0.001027 0.023745 0.000000 -0.016368 0.000000
# 4 0.000000 0.000000 0.000000 0.063626 0.000000 -0.012311
# 5 -0.004388 -0.001092 -0.016368 0.000000 0.053507 0.000000
# 6 0.000000 0.000000 0.000000 -0.012311 0.000000 0.050373
#
#
# Mechanical properties :
#
#
# Convention : Reuss Voigt Hill
#
# Bulk Modulus (GPa) = 11.92902 19.71706 15.82304
# Shear Modulus (GPa) = 17.91929 22.91680 20.41805
#
# Velocity S-wave (km/s) = 2.90973 3.29056 3.10599
# Velocity P-wave (km/s) = 4.11400 4.87371 4.50988
#
# Compressibility (1/GPa) = 0.08382919
#
# Stress axis : x y z
#
# Youngs Moduli (GPa) = 86.69088 20.65086 42.11385
#
# Poissons Ratio (x) = 0.02822 -0.01691
# Poissons Ratio (y) = 0.11848 -0.04327
# Poissons Ratio (z) = -0.03481 -0.02122
#
# Static dielectric constant tensor:
#      x y z
#    x 1.799320 0.000000 -0.001840 
#    y 0.000000 1.715290 0.000000 
#    z -0.001840 0.000000 1.794620 
# 
# From -- ./inp_files/30380.got.cif
#   From: 2010.05.17/outbox.cif.g08.bks.cpg/sg9_16_cif.got.tgz:30380.got - 2010.06.03 20:04:27.
