data_PCOD9137866
_publ_section_title
;
Structure prediction by ZEFSAII (Michael W. Deem and Ramdas Pophale) SiO2 
 PCOD9137866
Probable space group: C C
;
_chemical_formula_sum "Si O2"
_cell_formula_units_Z 28
_cell_length_a 11.596166
_cell_length_b 13.651617
_cell_length_c 8.084830
_cell_angle_alpha 90.000000
_cell_angle_beta 80.386032
_cell_angle_gamma 90.000000
_cell_volume 1261.904997
_symmetry_space_group_name_H-M "C C"
_symmetry_group_IT_number 9
_symmetry_cell_setting 'monoclinic'
loop_
_space_group_symop_operation_xyz
x,y,z
x,-y,1/2+z
1/2+x,1/2+y,z
1/2+x,1/2-y,1/2+z
loop_
_atom_site_type_symbol
_atom_site_label
_atom_site_fract_x
_atom_site_fract_y
_atom_site_fract_z
Si Si1 0.967240 0.527203 0.206790
Si Si2 0.521217 0.847126 0.364434
Si Si3 0.188156 0.777045 0.028256
Si Si4 0.353963 0.689525 0.239394
Si Si5 0.700982 0.531591 0.325080
Si Si6 0.596130 0.188762 0.367686
Si Si7 0.570253 0.382016 0.556267
O O1 0.833114 0.497353 0.268713
O O2 0.038146 0.426376 0.214227
O O3 0.010094 0.601863 0.340046
O O4 0.983410 0.586514 0.032457
O O5 0.637348 0.789175 0.392385
O O6 0.421879 0.767624 0.338780
O O7 0.196219 0.888151 0.971510
O O8 0.309089 0.740995 0.080081
O O9 0.099050 0.756057 0.199574
O O10 0.231619 0.654613 0.347632
O O11 0.442743 0.604257 0.166206
O O12 0.610054 0.446865 0.392338
O O13 0.663664 0.589106 0.171120
O O14 0.572492 0.267007 0.514713
#
# Coordination Sequence:
#
# PCOD9137866 Si02
#       7
#     4   4   4   4   4   4   4
#     4  11  24  39  71 101 137 171 231 280 332 410
#     4  11  23  43  66 104 133 178 224 283 336 402
#     4   9  22  43  64  94 138 171 227 271 336 409
#     4  10  22  45  66  91 146 174 226 278 340 405
#     4  12  23  39  65 102 125 179 228 272 345 396
#     4   9  22  42  64  96 132 179 218 276 345 393
#     4  12  24  41  68  98 137 176 222 290 336 403
#
# _framework density 22.188673000000001
#
# number of rings (size 3 to 8) (size 9 to 14) (size 15 to 20)
#    0.857    0.571    1.429    4.286    6.000    0.000 
#    2.571    0.000    0.000    0.000    0.000    0.000 
#    0.000    0.000    0.000    0.000    0.000    0.000 
#
# Total GULP energy -78130.632031 kJ/mol
# GULP energy per Si atom -5580.759431 kJ/mol
# Density = 2.213817 g / cm^3
# Si number density = 22.188673 Si / 1000 Ang^3
#
#
#
# Elastic Constant Matrix: (Units=GPa)
#
#
# Indices 1 2 3 4 5 6 
#
# 1 94.7287 31.0763 20.1848 0.0000 14.1091 0.0000
# 2 31.0763 85.2412 18.8084 0.0000 9.1313 0.0000
# 3 20.1848 18.8084 66.9767 0.0000 17.8424 0.0000
# 4 0.0000 0.0000 0.0000 43.5398 0.0000 -0.9830
# 5 14.1091 9.1313 17.8424 0.0000 42.1966 0.0000
# 6 0.0000 0.0000 0.0000 -0.9830 0.0000 30.8553
#
#
#
# Elastic Compliance Matrix: (Units=1/GPa)
#
#
# Indices 1 2 3 4 5 6 
#
# 1 0.012643 -0.003888 -0.002047 0.000000 -0.002521 0.000000
# 2 -0.003888 0.013773 -0.002534 0.000000 -0.000609 0.000000
# 3 -0.002047 -0.002534 0.017953 0.000000 -0.006358 0.000000
# 4 0.000000 0.000000 0.000000 0.022984 0.000000 0.000732
# 5 -0.002521 -0.000609 -0.006358 0.000000 0.027362 0.000000
# 6 0.000000 0.000000 0.000000 0.000732 0.000000 0.032433
#
#
# Mechanical properties :
#
#
# Convention : Reuss Voigt Hill
#
# Bulk Modulus (GPa) = 36.45357 43.00951 39.73154
# Shear Modulus (GPa) = 32.63080 35.11015 33.87047
#
# Velocity S-wave (km/s) = 3.83901 3.98219 3.91125
# Velocity P-wave (km/s) = 6.00959 6.36941 6.19212
#
# Compressibility (1/GPa) = 0.02743215
#
# Stress axis : x y z
#
# Youngs Moduli (GPa) = 79.09212 72.60531 55.70115
#
# Poissons Ratio (x) = 0.28227 0.11403
# Poissons Ratio (y) = 0.30749 0.14114
# Poissons Ratio (z) = 0.16191 0.18397
#
# Static dielectric constant tensor:
#      x y z
#    x 1.803160 0.000000 -0.019570 
#    y 0.000000 1.820950 0.000000 
#    z -0.019570 0.000000 1.939490 
# 
# From -- ./inp_files/7256.got.cif
#   From: 2010.05.17/outbox.cif.g08.bks.cpg/sg9_4_cif.got.tgz:7256.got - 2010.06.03 20:04:27.
