data_PCOD9137416
_publ_section_title
;
Structure prediction by ZEFSAII (Michael W. Deem and Ramdas Pophale) SiO2 
 PCOD9137416
Probable space group: C C
;
_chemical_formula_sum "Si O2"
_cell_formula_units_Z 24
_cell_length_a 10.774207
_cell_length_b 13.704843
_cell_length_c 8.795056
_cell_angle_alpha 90.000000
_cell_angle_beta 42.204766
_cell_angle_gamma 90.000000
_cell_volume 872.421755
_symmetry_space_group_name_H-M "C C"
_symmetry_group_IT_number 9
_symmetry_cell_setting 'monoclinic'
loop_
_space_group_symop_operation_xyz
x,y,z
x,-y,1/2+z
1/2+x,1/2+y,z
1/2+x,1/2-y,1/2+z
loop_
_atom_site_type_symbol
_atom_site_label
_atom_site_fract_x
_atom_site_fract_y
_atom_site_fract_z
Si Si1 0.909880 0.635730 0.789070
Si Si2 0.260958 0.611118 0.328409
Si Si3 0.611518 0.602013 0.807722
Si Si4 0.078717 0.115486 0.268363
Si Si5 0.602809 0.104083 0.931953
Si Si6 0.238272 0.807219 0.903081
O O1 0.680989 0.683561 0.629195
O O2 0.764709 0.588656 0.800822
O O3 0.070339 0.670385 0.526203
O O4 0.033539 0.594723 0.818773
O O5 0.612744 0.500765 0.219515
O O6 0.394844 0.637046 0.346138
O O7 0.925068 0.633608 0.196168
O O8 0.192162 0.498956 0.392870
O O9 0.747317 0.677269 0.045567
O O10 0.404880 0.620117 0.058414
O O11 0.086021 0.138249 0.437921
O O12 0.731456 0.196640 0.850734
#
# Coordination Sequence:
#
# PCOD9137416 Si02
#       6
#     4   4   4   4   4   4
#     4  10  22  44  70 103 138 195 252 305 355 458
#     4  11  23  42  77 106 139 194 255 294 369 456
#     4  11  23  42  73 107 145 190 251 305 368 443
#     4  10  22  41  73 102 142 193 248 297 368 446
#     4  11  26  46  76 110 155 196 252 312 388 438
#     4  11  26  47  73 112 157 194 246 323 382 439
#
# _framework density 27.509633999999998
#
# number of rings (size 3 to 8) (size 9 to 14) (size 15 to 20)
#    0.000    1.333    0.000    6.000    7.000    1.333 
#    0.000    5.000    3.667    0.000    0.000    0.000 
#    0.000    0.000    0.000    0.000    0.000    0.000 
#
# Total GULP energy -67054.309380 kJ/mol
# GULP energy per Si atom -5587.859115 kJ/mol
# Density = 2.744702 g / cm^3
# Si number density = 27.509634 Si / 1000 Ang^3
#
#
#
# Elastic Constant Matrix: (Units=GPa)
#
#
# Indices 1 2 3 4 5 6 
#
# 1 148.8225 52.2464 104.4831 -0.0010 -44.8761 0.0010
# 2 52.2464 135.1846 47.3596 -0.0003 5.7023 0.0002
# 3 104.4831 47.3596 191.0519 -0.0002 -33.0494 0.0003
# 4 -0.0010 -0.0003 -0.0002 12.7189 0.0005 8.1351
# 5 -44.8761 5.7023 -33.0494 0.0005 54.7986 -0.0005
# 6 0.0010 0.0002 0.0003 8.1351 -0.0005 28.6466
#
#
#
# Elastic Compliance Matrix: (Units=1/GPa)
#
#
# Indices 1 2 3 4 5 6 
#
# 1 0.014834 -0.004212 -0.005461 0.000001 0.009293 -0.000001
# 2 -0.004212 0.009563 -0.000933 0.000000 -0.005007 0.000000
# 3 -0.005461 -0.000933 0.008592 -0.000001 0.000807 0.000000
# 4 0.000001 0.000000 -0.000001 0.096074 -0.000001 -0.027283
# 5 0.009293 -0.005007 0.000807 -0.000001 0.026866 0.000000
# 6 -0.000001 0.000000 0.000000 -0.027283 0.000000 0.042656
#
#
# Mechanical properties :
#
#
# Convention : Reuss Voigt Hill
#
# Bulk Modulus (GPa) = 84.91457 98.13745 91.52601
# Shear Modulus (GPa) = 22.34902 37.29748 29.82325
#
# Velocity S-wave (km/s) = 2.85337 3.68611 3.29614
# Velocity P-wave (km/s) = 6.46451 7.33947 6.91584
#
# Compressibility (1/GPa) = 0.01177654
#
# Stress axis : x y z
#
# Youngs Moduli (GPa) = 67.41157 104.56558 116.39286
#
# Poissons Ratio (x) = 0.44043 0.63561
# Poissons Ratio (y) = 0.28394 0.10864
# Poissons Ratio (z) = 0.36813 0.09760
#
# Static dielectric constant tensor:
#      x y z
#    x 2.091240 0.000000 -0.023580 
#    y 0.000000 2.212320 0.000000 
#    z -0.023580 0.000000 2.152350 
# 
# From -- ./inp_files/4980.got.cif
#   From: 2010.05.17/outbox.cif.g08.bks.cpg/sg9_3_cif.got.tgz:4980.got - 2010.06.03 20:04:27.
