data_PCOD9137228
_publ_section_title
;
Structure prediction by ZEFSAII (Michael W. Deem and Ramdas Pophale) SiO2 
 PCOD9137228
Probable space group: C C
;
_chemical_formula_sum "Si O2"
_cell_formula_units_Z 24
_cell_length_a 11.837164
_cell_length_b 11.037129
_cell_length_c 17.495583
_cell_angle_alpha 90.000000
_cell_angle_beta 150.164642
_cell_angle_gamma 90.000000
_cell_volume 1137.191152
_symmetry_space_group_name_H-M "C C"
_symmetry_group_IT_number 9
_symmetry_cell_setting 'monoclinic'
loop_
_space_group_symop_operation_xyz
x,y,z
x,-y,1/2+z
1/2+x,1/2+y,z
1/2+x,1/2-y,1/2+z
loop_
_atom_site_type_symbol
_atom_site_label
_atom_site_fract_x
_atom_site_fract_y
_atom_site_fract_z
Si Si1 0.451980 0.134262 0.414720
Si Si2 0.175115 0.764528 0.253976
Si Si3 0.232935 0.612734 0.428362
Si Si4 0.624549 0.099557 0.077036
Si Si5 0.280660 0.639562 0.884738
Si Si6 0.947915 0.810279 0.640213
O O1 0.561730 0.097345 0.398610
O O2 0.461929 0.277892 0.443917
O O3 0.179575 0.119433 0.253885
O O4 0.563442 0.042861 0.541285
O O5 0.124798 0.709635 0.307609
O O6 0.411310 0.834404 0.408894
O O7 0.178854 0.661115 0.190195
O O8 0.968092 0.846273 0.104366
O O9 0.296624 0.500881 0.410582
O O10 0.835107 0.125744 0.145355
O O11 0.036375 0.675899 0.709083
O O12 0.286564 0.693560 0.973515
#
# Coordination Sequence:
#
# PCOD9137228 Si02
#       6
#     4   4   4   4   4   4
#     4  10  25  38  73  97 140 175 233 288 348 408
#     4  10  26  42  67  96 134 194 223 284 367 397
#     4  11  23  48  67 101 148 175 236 297 339 425
#     4  11  21  45  65  96 137 177 238 289 339 430
#     4  10  23  41  66 102 133 182 233 275 357 410
#     4  10  22  40  66 100 128 181 231 277 354 398
#
# _framework density 21.104631999999999
#
# number of rings (size 3 to 8) (size 9 to 14) (size 15 to 20)
#    1.000    0.667    1.667    2.000    4.667    0.000 
#    0.000    0.000    0.000    0.000    0.000    0.000 
#    0.000    0.000    0.000    0.000    0.000    0.000 
#
# Total GULP energy -66826.507123 kJ/mol
# GULP energy per Si atom -5568.875594 kJ/mol
# Density = 2.105660 g / cm^3
# Si number density = 21.104632 Si / 1000 Ang^3
#
#
#
# Elastic Constant Matrix: (Units=GPa)
#
#
# Indices 1 2 3 4 5 6 
#
# 1 91.1839 15.4689 24.3587 0.0001 9.6032 0.0000
# 2 15.4689 89.0667 20.7207 0.0017 5.5553 0.0003
# 3 24.3587 20.7207 60.8003 0.0041 -4.1689 0.0008
# 4 0.0001 0.0017 0.0041 38.7825 0.0012 -10.9886
# 5 9.6032 5.5553 -4.1689 0.0012 23.7631 0.0003
# 6 0.0000 0.0003 0.0008 -10.9886 0.0003 26.1411
#
#
#
# Elastic Compliance Matrix: (Units=1/GPa)
#
#
# Indices 1 2 3 4 5 6 
#
# 1 0.013188 -0.000630 -0.005490 0.000001 -0.006145 0.000001
# 2 -0.000630 0.012541 -0.004256 0.000000 -0.003424 0.000000
# 3 -0.005490 -0.004256 0.020565 -0.000003 0.006822 -0.000002
# 4 0.000001 0.000000 -0.000003 0.029271 -0.000002 0.012304
# 5 -0.006145 -0.003424 0.006822 -0.000002 0.046563 -0.000002
# 6 0.000001 0.000000 -0.000002 0.012304 -0.000002 0.043426
#
#
# Mechanical properties :
#
#
# Convention : Reuss Voigt Hill
#
# Bulk Modulus (GPa) = 39.15297 40.23859 39.69578
# Shear Modulus (GPa) = 25.66480 29.77084 27.71782
#
# Velocity S-wave (km/s) = 3.49101 3.75991 3.62795
# Velocity P-wave (km/s) = 5.90268 6.16091 6.03318
#
# Compressibility (1/GPa) = 0.02554084
#
# Stress axis : x y z
#
# Youngs Moduli (GPa) = 75.82932 79.74051 48.62614
#
# Poissons Ratio (x) = 0.05022 0.26696
# Poissons Ratio (y) = 0.04776 0.20697
# Poissons Ratio (z) = 0.41631 0.33940
#
# Static dielectric constant tensor:
#      x y z
#    x 1.739170 0.000000 -0.003150 
#    y 0.000000 1.879720 0.000000 
#    z -0.003150 0.000000 1.733570 
# 
# From -- ./inp_files/10704.got.cif
#   From: 2010.05.17/outbox.cif.g08.bks.cpg/sg9_6_cif.got.tgz:10704.got - 2010.06.03 20:04:27.
