data_PCOD9137590
_publ_section_title
;
Structure prediction by ZEFSAII (Michael W. Deem and Ramdas Pophale) SiO2 
 PCOD9137590
Probable space group: C C
;
_chemical_formula_sum "Si O2"
_cell_formula_units_Z 32
_cell_length_a 11.085113
_cell_length_b 7.930777
_cell_length_c 24.924452
_cell_angle_alpha 90.000000
_cell_angle_beta 42.319938
_cell_angle_gamma 90.000000
_cell_volume 1475.267074
_symmetry_space_group_name_H-M "C C"
_symmetry_group_IT_number 9
_symmetry_cell_setting 'monoclinic'
loop_
_space_group_symop_operation_xyz
x,y,z
x,-y,1/2+z
1/2+x,1/2+y,z
1/2+x,1/2-y,1/2+z
loop_
_atom_site_type_symbol
_atom_site_label
_atom_site_fract_x
_atom_site_fract_y
_atom_site_fract_z
Si Si1 0.899430 0.760398 0.419890
Si Si2 0.292810 0.387706 0.988261
Si Si3 0.984048 0.498241 0.169543
Si Si4 0.994916 0.171356 0.518867
Si Si5 0.303762 0.688535 0.689669
Si Si6 0.580157 0.303127 0.466464
Si Si7 0.761978 0.174968 0.246766
Si Si8 0.931106 0.690899 0.789056
O O1 0.698493 0.717116 0.467709
O O2 0.956363 0.710750 0.462620
O O3 0.051864 0.690143 0.330085
O O4 0.904076 0.963937 0.423158
O O5 0.423985 0.276672 0.983014
O O6 0.168046 0.302310 0.985065
O O7 0.153913 0.467369 0.076520
O O8 0.925025 0.689663 0.184924
O O9 0.836611 0.354907 0.200571
O O10 0.009028 0.449937 0.223271
O O11 0.864174 0.232379 0.609061
O O12 0.986678 0.968026 0.520161
O O13 0.318155 0.490470 0.696529
O O14 0.098808 0.739921 0.769120
O O15 0.755373 0.368550 0.376684
O O16 0.862686 0.164353 0.271482
#
# Coordination Sequence:
#
# PCOD9137590 Si02
#       8
#     4   4   4   4   4   4   4   4
#     4  10  22  43  61  98 132 167 225 274 328 401
#     4  11  22  42  65  95 134 177 214 282 337 388
#     4  10  22  43  65  95 132 171 227 275 326 395
#     4  11  22  38  65  98 131 167 225 272 329 402
#     4  12  21  40  68  91 133 177 217 277 339 386
#     4  10  23  40  68  90 135 174 213 280 337 386
#     4   9  22  43  62  94 133 166 224 276 324 399
#     4   9  22  43  60  95 130 167 229 274 318 407
#
# _framework density 21.690987
#
# number of rings (size 3 to 8) (size 9 to 14) (size 15 to 20)
#    0.750    1.000    2.500    1.500    1.750    1.000 
#    4.500    2.500    0.000    0.000    0.000    0.000 
#    0.000    0.000    0.000    0.000    0.000    0.000 
#
# Total GULP energy -89145.483966 kJ/mol
# GULP energy per Si atom -5571.592748 kJ/mol
# Density = 2.164162 g / cm^3
# Si number density = 21.690987 Si / 1000 Ang^3
#
#
#
# Elastic Constant Matrix: (Units=GPa)
#
#
# Indices 1 2 3 4 5 6 
#
# 1 112.7446 16.0805 18.7716 0.0000 -12.6141 0.0000
# 2 16.0805 45.4335 20.7618 0.0000 0.5336 0.0000
# 3 18.7716 20.7618 62.1723 0.0000 -12.9075 0.0000
# 4 0.0000 0.0000 0.0000 20.3936 0.0000 -6.7495
# 5 -12.6141 0.5336 -12.9075 0.0000 31.7455 0.0000
# 6 0.0000 0.0000 0.0000 -6.7495 0.0000 24.5582
#
#
#
# Elastic Compliance Matrix: (Units=1/GPa)
#
#
# Indices 1 2 3 4 5 6 
#
# 1 0.009892 -0.002956 -0.001281 0.000000 0.003459 0.000000
# 2 -0.002956 0.027414 -0.009394 0.000000 -0.005455 0.000000
# 3 -0.001281 -0.009394 0.021337 0.000000 0.008324 0.000000
# 4 0.000000 0.000000 0.000000 0.053941 0.000000 0.014825
# 5 0.003459 -0.005455 0.008324 0.000000 0.036351 0.000000
# 6 0.000000 0.000000 0.000000 0.014825 0.000000 0.044794
#
#
# Mechanical properties :
#
#
# Convention : Reuss Voigt Hill
#
# Bulk Modulus (GPa) = 31.86946 36.84201 34.35573
# Shear Modulus (GPa) = 21.60281 26.32190 23.96236
#
# Velocity S-wave (km/s) = 3.15927 3.48730 3.32733
# Velocity P-wave (km/s) = 5.29456 5.76514 5.53485
#
# Compressibility (1/GPa) = 0.03137800
#
# Stress axis : x y z
#
# Youngs Moduli (GPa) = 101.09623 36.47834 46.86797
#
# Poissons Ratio (x) = 0.10783 0.06005
# Poissons Ratio (y) = 0.29885 0.44030
# Poissons Ratio (z) = 0.12953 0.34270
#
# Static dielectric constant tensor:
#      x y z
#    x 1.863130 0.000000 0.015730 
#    y 0.000000 1.783290 0.000000 
#    z 0.015730 0.000000 1.770030 
# 
# From -- ./inp_files/36504.got.cif
#   From: 2010.05.17/outbox.cif.g08.bks.cpg/sg9_19_cif.got.tgz:36504.got - 2010.06.03 20:04:27.
