data_PCOD9137975
_publ_section_title
;
Structure prediction by ZEFSAII (Michael W. Deem and Ramdas Pophale) SiO2 
 PCOD9137975
Probable space group: C C
;
_chemical_formula_sum "Si O2"
_cell_formula_units_Z 28
_cell_length_a 18.305031
_cell_length_b 6.039150
_cell_length_c 13.260034
_cell_angle_alpha 90.000000
_cell_angle_beta 121.519880
_cell_angle_gamma 90.000000
_cell_volume 1249.580767
_symmetry_space_group_name_H-M "C C"
_symmetry_group_IT_number 9
_symmetry_cell_setting 'monoclinic'
loop_
_space_group_symop_operation_xyz
x,y,z
x,-y,1/2+z
1/2+x,1/2+y,z
1/2+x,1/2-y,1/2+z
loop_
_atom_site_type_symbol
_atom_site_label
_atom_site_fract_x
_atom_site_fract_y
_atom_site_fract_z
Si Si1 0.275180 0.188116 0.558460
Si Si2 0.544326 0.115581 0.656161
Si Si3 0.213041 0.131565 0.290990
Si Si4 0.446700 0.489520 0.012560
Si Si5 0.426089 0.163816 0.186890
Si Si6 0.835205 0.941667 0.257279
Si Si7 0.626253 0.712287 0.600615
O O1 0.264236 0.177544 0.430278
O O2 0.310386 0.402330 0.645688
O O3 0.180431 0.177295 0.538763
O O4 0.341598 0.989570 0.627089
O O5 0.617790 0.280785 0.741833
O O6 0.463165 0.254856 0.555883
O O7 0.509105 0.982291 0.726525
O O8 0.590165 0.950470 0.609815
O O9 0.259828 0.278335 0.238923
O O10 0.192782 0.886074 0.233277
O O11 0.370465 0.436603 0.880938
O O12 0.429874 0.337327 0.097559
O O13 0.538741 0.424942 0.033332
O O14 0.417540 0.299139 0.282566
#
# Coordination Sequence:
#
# PCOD9137975 Si02
#       7
#     4   4   4   4   4   4   4
#     4  12  26  41  71 104 139 193 235 292 363 422
#     4  10  22  46  68  97 141 185 235 294 357 421
#     4  11  24  43  67 100 141 182 238 296 354 429
#     4  10  25  44  69 100 141 188 237 297 350 431
#     4  11  24  42  67 100 138 180 239 285 352 419
#     4  12  24  43  66 103 141 184 239 296 356 424
#     4  10  23  45  68 100 141 184 241 292 356 422
#
# _framework density 22.407513999999999
#
# number of rings (size 3 to 8) (size 9 to 14) (size 15 to 20)
#    0.000    1.143    2.857    2.571    2.000    9.143 
#    0.000    0.000    0.000    0.000    0.000    0.000 
#    0.000    0.000    0.000    0.000    0.000    0.000 
#
# Total GULP energy -78075.837206 kJ/mol
# GULP energy per Si atom -5576.845515 kJ/mol
# Density = 2.235651 g / cm^3
# Si number density = 22.407514 Si / 1000 Ang^3
#
#
#
# Elastic Constant Matrix: (Units=GPa)
#
#
# Indices 1 2 3 4 5 6 
#
# 1 128.3497 23.2419 -9.7292 0.0000 2.3657 0.0000
# 2 23.2419 73.2515 14.8526 0.0000 -1.6045 0.0000
# 3 -9.7292 14.8526 62.8821 0.0000 6.7900 0.0000
# 4 0.0000 0.0000 0.0000 16.8296 0.0000 5.6638
# 5 2.3657 -1.6045 6.7900 0.0000 26.2842 0.0000
# 6 0.0000 0.0000 0.0000 5.6638 0.0000 32.9624
#
#
#
# Elastic Compliance Matrix: (Units=1/GPa)
#
#
# Indices 1 2 3 4 5 6 
#
# 1 0.008572 -0.003210 0.002252 0.000000 -0.001549 0.000000
# 2 -0.003210 0.015624 -0.004445 0.000000 0.002391 0.000000
# 3 0.002252 -0.004445 0.017850 0.000000 -0.005085 0.000000
# 4 0.000000 0.000000 0.000000 0.063066 0.000000 -0.010836
# 5 -0.001549 0.002391 -0.005085 0.000000 0.039645 0.000000
# 6 0.000000 0.000000 0.000000 -0.010836 0.000000 0.032200
#
#
# Mechanical properties :
#
#
# Convention : Reuss Voigt Hill
#
# Bulk Modulus (GPa) = 32.01175 35.69043 33.85109
# Shear Modulus (GPa) = 25.23008 30.95645 28.09327
#
# Velocity S-wave (km/s) = 3.35918 3.72091 3.54466
# Velocity P-wave (km/s) = 5.41873 5.86709 5.64736
#
# Compressibility (1/GPa) = 0.03123853
#
# Stress axis : x y z
#
# Youngs Moduli (GPa) = 116.66190 64.00463 56.02171
#
# Poissons Ratio (x) = 0.20547 -0.12615
# Poissons Ratio (y) = 0.37451 0.24903
# Poissons Ratio (z) = -0.26270 0.28451
#
# Static dielectric constant tensor:
#      x y z
#    x 1.820800 0.000000 -0.009230 
#    y 0.000000 1.922090 0.000000 
#    z -0.009230 0.000000 1.816390 
# 
# From -- ./inp_files/18804.got.cif
#   From: 2010.05.17/outbox.cif.g08.bks.cpg/sg9_10_cif.got.tgz:18804.got - 2010.06.03 20:04:27.
