data_PCOD9137174
_publ_section_title
;
Structure prediction by ZEFSAII (Michael W. Deem and Ramdas Pophale) SiO2 
 PCOD9137174
Probable space group: C C
;
_chemical_formula_sum "Si O2"
_cell_formula_units_Z 28
_cell_length_a 16.654078
_cell_length_b 8.047800
_cell_length_c 18.404605
_cell_angle_alpha 90.000000
_cell_angle_beta 155.826047
_cell_angle_gamma 90.000000
_cell_volume 1010.152673
_symmetry_space_group_name_H-M "C C"
_symmetry_group_IT_number 9
_symmetry_cell_setting 'monoclinic'
loop_
_space_group_symop_operation_xyz
x,y,z
x,-y,1/2+z
1/2+x,1/2+y,z
1/2+x,1/2-y,1/2+z
loop_
_atom_site_type_symbol
_atom_site_label
_atom_site_fract_x
_atom_site_fract_y
_atom_site_fract_z
Si Si1 0.540570 0.933617 0.802940
Si Si2 0.590538 0.683086 0.289615
Si Si3 0.600105 0.761568 0.581801
Si Si4 0.238807 0.298069 0.834716
Si Si5 0.621862 0.407780 0.527099
Si Si6 0.927154 0.145566 0.007281
Si Si7 0.323879 0.480988 0.171889
O O1 0.544299 0.122688 0.772310
O O2 0.323733 0.898475 0.651369
O O3 0.612211 0.800288 0.802539
O O4 0.692868 0.929993 0.995334
O O5 0.813538 0.697510 0.446227
O O6 0.501014 0.589626 0.283683
O O7 0.513117 0.584825 0.154628
O O8 0.465467 0.773765 0.545283
O O9 0.788496 0.722173 0.794958
O O10 0.606585 0.599690 0.538049
O O11 0.672478 0.915706 0.596066
O O12 0.287640 0.497264 0.863722
O O13 0.578889 0.317309 0.568772
O O14 0.442927 0.367464 0.326087
#
# Coordination Sequence:
#
# PCOD9137174 Si02
#       7
#     4   4   4   4   4   4   4
#     4  11  23  41  64  97 129 164 212 265 320 374
#     4  11  19  39  66  90 126 158 212 270 307 370
#     4  11  19  39  66  90 126 158 212 270 307 370
#     4  10  22  40  61  94 129 163 212 262 315 384
#     4  11  23  41  64  97 129 164 212 265 320 374
#     4  10  22  40  61  94 129 163 212 262 315 384
#     4  12  20  38  68 100 124 156 216 280 316 360
#
# _framework density 27.718581
#
# number of rings (size 3 to 8) (size 9 to 14) (size 15 to 20)
#    0.000    1.143    7.143    2.571    0.000    0.000 
#    5.143    5.714    0.000    0.000    0.000    0.000 
#    0.000    0.000    0.000    0.000    0.000    0.000 
#
# Total GULP energy -78019.182501 kJ/mol
# GULP energy per Si atom -5572.798750 kJ/mol
# Density = 2.765549 g / cm^3
# Si number density = 27.718581 Si / 1000 Ang^3
#
#
#
# Elastic Constant Matrix: (Units=GPa)
#
#
# Indices 1 2 3 4 5 6 
#
# 1 294.4384 45.8461 90.0843 0.0006 22.1371 -0.0001
# 2 45.8461 81.2154 40.8438 0.0005 -0.8089 0.0004
# 3 90.0843 40.8438 -22.3768 0.0020 -39.4417 0.0009
# 4 0.0006 0.0005 0.0020 43.6310 0.0013 -0.6493
# 5 22.1371 -0.8089 -39.4417 0.0013 67.3598 0.0002
# 6 -0.0001 0.0004 0.0009 -0.6493 0.0002 50.1114
#
#
#
# Elastic Compliance Matrix: (Units=1/GPa)
#
#
# Indices 1 2 3 4 5 6 
#
# 1 0.002786 -0.003275 0.003406 0.000000 0.001039 0.000000
# 2 -0.003275 0.012394 0.003581 0.000000 0.003322 0.000000
# 3 0.003406 0.003581 -0.011094 0.000001 -0.007572 0.000000
# 4 0.000000 0.000000 0.000001 0.022924 0.000000 0.000297
# 5 0.001039 0.003322 -0.007572 0.000000 0.010110 0.000000
# 6 0.000000 0.000000 0.000000 0.000297 0.000000 0.019959
#
#
# Mechanical properties :
#
#
# Convention : Reuss Voigt Hill
#
# Bulk Modulus (GPa) = 86.88318 78.53617 82.70968
# Shear Modulus (GPa) = 93.47137 43.98729 68.72933
#
# Velocity S-wave (km/s) = 5.81333 3.98794 4.98490
# Velocity P-wave (km/s) = 8.74485 7.04272 7.93953
#
# Compressibility (1/GPa) = 0.01150971
#
# Stress axis : x y z
#
# Youngs Moduli (GPa) = 358.92768 80.68485 -90.13909
#
# Poissons Ratio (x) = 0.26426 0.30701
# Poissons Ratio (y) = 1.17558 0.32280
# Poissons Ratio (z) = -1.22248 -0.28895
#
# Static dielectric constant tensor:
#      x y z
#    x 2.056720 0.000000 0.134950 
#    y 0.000000 2.159350 -0.000010 
#    z 0.134950 -0.000010 2.925100 
# 
# From -- ./inp_files/25939.got.cif
#   From: 2010.05.17/outbox.cif.g08.bks.cpg/sg9_13_cif.got.tgz:25939.got - 2010.06.03 20:04:27.
