data_PCOD9137878
_publ_section_title
;
Structure prediction by ZEFSAII (Michael W. Deem and Ramdas Pophale) SiO2 
 PCOD9137878
Probable space group: C C
;
_chemical_formula_sum "Si O2"
_cell_formula_units_Z 32
_cell_length_a 11.358839
_cell_length_b 18.909155
_cell_length_c 8.995375
_cell_angle_alpha 90.000000
_cell_angle_beta 42.775474
_cell_angle_gamma 90.000000
_cell_volume 1312.128713
_symmetry_space_group_name_H-M "C C"
_symmetry_group_IT_number 9
_symmetry_cell_setting 'monoclinic'
loop_
_space_group_symop_operation_xyz
x,y,z
x,-y,1/2+z
1/2+x,1/2+y,z
1/2+x,1/2-y,1/2+z
loop_
_atom_site_type_symbol
_atom_site_label
_atom_site_fract_x
_atom_site_fract_y
_atom_site_fract_z
Si Si1 0.872260 0.197462 0.622220
Si Si2 0.158053 0.295613 0.813904
Si Si3 0.068992 0.409557 0.419264
Si Si4 0.996556 0.942339 0.562421
Si Si5 0.849299 0.689375 0.414942
Si Si6 0.974572 0.806080 0.700497
Si Si7 0.250009 0.517493 0.028112
Si Si8 0.186476 0.086234 0.368564
O O1 0.879197 0.257284 0.744884
O O2 0.918521 0.220348 0.412755
O O3 0.014586 0.134193 0.503492
O O4 0.683006 0.161714 0.797520
O O5 0.243973 0.236836 0.628377
O O6 0.305635 0.333597 0.768505
O O7 0.026295 0.333869 0.828584
O O8 0.048740 0.258454 0.042363
O O9 0.132006 0.440211 0.520379
O O10 0.135792 0.465177 0.235053
O O11 0.861511 0.400246 0.610647
O O12 0.089950 0.874363 0.552670
O O13 0.881433 0.939990 0.516154
O O14 0.875556 0.972456 0.805953
O O15 0.746252 0.619350 0.469559
O O16 0.634419 0.505299 0.407559
#
# Coordination Sequence:
#
# PCOD9137878 Si02
#       8
#     4   4   4   4   4   4   4   4
#     4  12  25  49  75 106 159 198 249 325 385 454
#     4  10  25  45  71 111 147 201 251 305 390 448
#     4  11  25  45  70 110 143 200 259 303 391 452
#     4  11  23  44  74 102 150 202 242 312 391 445
#     4  11  24  46  72 111 146 199 258 306 371 473
#     4  11  26  46  74 110 155 200 247 323 395 442
#     4  10  22  45  67  98 154 196 236 318 378 448
#     4  12  26  44  81 110 140 204 264 302 379 462
#
# _framework density 24.387851000000001
#
# number of rings (size 3 to 8) (size 9 to 14) (size 15 to 20)
#    0.000    1.000    5.000    0.750    8.750    2.000 
#    2.250    1.250    0.000    0.000    0.000    0.000 
#    0.000    0.000    0.000    0.000    0.000    0.000 
#
# Total GULP energy -89379.335234 kJ/mol
# GULP energy per Si atom -5586.208452 kJ/mol
# Density = 2.433234 g / cm^3
# Si number density = 24.387851 Si / 1000 Ang^3
#
#
#
# Elastic Constant Matrix: (Units=GPa)
#
#
# Indices 1 2 3 4 5 6 
#
# 1 72.2195 7.5169 28.2448 0.0000 13.2137 0.0000
# 2 7.5169 33.7220 17.5019 0.0000 9.1125 0.0000
# 3 28.2448 17.5019 126.5233 0.0000 14.9203 0.0000
# 4 0.0000 0.0000 0.0000 36.7551 0.0000 1.7656
# 5 13.2137 9.1125 14.9203 0.0000 52.3058 0.0000
# 6 0.0000 0.0000 0.0000 1.7656 0.0000 2.1782
#
#
#
# Elastic Compliance Matrix: (Units=1/GPa)
#
#
# Indices 1 2 3 4 5 6 
#
# 1 0.015670 -0.001153 -0.002996 0.000000 -0.002903 0.000000
# 2 -0.001153 0.033069 -0.003800 0.000000 -0.004386 0.000000
# 3 -0.002996 -0.003800 0.009242 0.000000 -0.001217 0.000000
# 4 0.000000 0.000000 0.000000 0.028309 0.000000 -0.022947
# 5 -0.002903 -0.004386 -0.001217 0.000000 0.020963 0.000000
# 6 0.000000 0.000000 0.000000 -0.022947 0.000000 0.477702
#
#
# Mechanical properties :
#
#
# Convention : Reuss Voigt Hill
#
# Bulk Modulus (GPa) = 23.76346 37.66577 30.71462
# Shear Modulus (GPa) = 8.13167 30.19454 19.16311
#
# Velocity S-wave (km/s) = 1.82799 3.52248 2.80619
# Velocity P-wave (km/s) = 3.77101 5.65878 4.80845
#
# Compressibility (1/GPa) = 0.04208141
#
# Stress axis : x y z
#
# Youngs Moduli (GPa) = 63.81754 30.24020 108.20514
#
# Poissons Ratio (x) = 0.03488 0.32420
# Poissons Ratio (y) = 0.07361 0.41114
# Poissons Ratio (z) = 0.19121 0.11490
#
# Static dielectric constant tensor:
#      x y z
#    x 2.097010 0.000000 -0.047310 
#    y 0.000000 2.032730 0.000000 
#    z -0.047310 0.000000 1.926370 
# 
# From -- ./inp_files/8508.got.cif
#   From: 2010.05.17/outbox.cif.g08.bks.cpg/sg9_5_cif.got.tgz:8508.got - 2010.06.03 20:04:27.
