data_PCOD9137022
_publ_section_title
;
Structure prediction by ZEFSAII (Michael W. Deem and Ramdas Pophale) SiO2 
 PCOD9137022
Probable space group: C C
;
_chemical_formula_sum "Si O2"
_cell_formula_units_Z 28
_cell_length_a 9.542606
_cell_length_b 22.586509
_cell_length_c 9.215279
_cell_angle_alpha 90.000000
_cell_angle_beta 40.220745
_cell_angle_gamma 90.000000
_cell_volume 1282.562020
_symmetry_space_group_name_H-M "C C"
_symmetry_group_IT_number 9
_symmetry_cell_setting 'monoclinic'
loop_
_space_group_symop_operation_xyz
x,y,z
x,-y,1/2+z
1/2+x,1/2+y,z
1/2+x,1/2-y,1/2+z
loop_
_atom_site_type_symbol
_atom_site_label
_atom_site_fract_x
_atom_site_fract_y
_atom_site_fract_z
Si Si1 0.890900 0.941914 0.611280
Si Si2 0.555061 0.876090 0.690706
Si Si3 0.845979 0.594720 0.616517
Si Si4 0.429529 0.042056 0.041745
Si Si5 0.014899 0.273687 0.504459
Si Si6 0.051444 0.364222 0.229355
Si Si7 0.435545 0.436944 0.921132
O O1 0.725549 0.893601 0.679234
O O2 0.912703 0.947063 0.766817
O O3 0.115519 0.918774 0.367984
O O4 0.845490 0.006617 0.579939
O O5 0.568867 0.926052 0.555130
O O6 0.579283 0.815052 0.589395
O O7 0.337119 0.880751 0.960080
O O8 0.945951 0.528193 0.530013
O O9 0.972207 0.637399 0.628028
O O10 0.184217 0.062399 0.270400
O O11 0.465452 0.072752 0.858514
O O12 0.262581 0.247751 0.256270
O O13 0.965050 0.313786 0.402009
O O14 0.308904 0.375423 0.045835
#
# Coordination Sequence:
#
# PCOD9137022 Si02
#       7
#     4   4   4   4   4   4   4
#     4  11  24  36  62 104 153 189 228 271 343 432
#     4  11  25  41  71  95 140 184 230 291 361 418
#     4  11  21  38  64 106 144 181 224 276 346 434
#     4  10  22  37  61 102 149 188 220 269 337 437
#     4  11  30  54  78 100 131 182 251 317 372 427
#     4  11  23  41  71  92 139 184 233 289 352 420
#     4  11  23  37  61 103 150 192 226 273 337 434
#
# _framework density 21.831303999999999
#
# number of rings (size 3 to 8) (size 9 to 14) (size 15 to 20)
#    0.000    1.143    2.857    2.571   16.000    0.000 
#    0.000    1.429    0.000    0.000    0.000    0.000 
#    0.000    0.000    0.000    0.000    0.000    0.000 
#
# Total GULP energy -77934.927174 kJ/mol
# GULP energy per Si atom -5566.780512 kJ/mol
# Density = 2.178161 g / cm^3
# Si number density = 21.831304 Si / 1000 Ang^3
#
#
#
# Elastic Constant Matrix: (Units=GPa)
#
#
# Indices 1 2 3 4 5 6 
#
# 1 67.3951 24.5841 28.6551 0.0000 17.2723 0.0000
# 2 24.5841 54.7738 37.6953 0.0000 6.8660 0.0000
# 3 28.6551 37.6953 115.4033 0.0000 20.2265 0.0000
# 4 0.0000 0.0000 0.0000 43.5392 0.0000 7.5586
# 5 17.2723 6.8660 20.2265 0.0000 50.6201 0.0000
# 6 0.0000 0.0000 0.0000 7.5586 0.0000 10.6413
#
#
#
# Elastic Compliance Matrix: (Units=1/GPa)
#
#
# Indices 1 2 3 4 5 6 
#
# 1 0.019349 -0.006907 -0.001673 0.000000 -0.004997 0.000000
# 2 -0.006907 0.026017 -0.007073 0.000000 0.001654 0.000000
# 3 -0.001673 -0.007073 0.011960 0.000000 -0.003249 0.000000
# 4 0.000000 0.000000 0.000000 0.026198 0.000000 -0.018609
# 5 -0.004997 0.001654 -0.003249 0.000000 0.022534 0.000000
# 6 0.000000 0.000000 0.000000 -0.018609 0.000000 0.107191
#
#
# Mechanical properties :
#
#
# Convention : Reuss Voigt Hill
#
# Bulk Modulus (GPa) = 38.42987 46.60458 42.51722
# Shear Modulus (GPa) = 19.74492 30.73598 25.24045
#
# Velocity S-wave (km/s) = 3.01064 3.75625 3.40392
# Velocity P-wave (km/s) = 5.45221 6.34086 5.91325
#
# Compressibility (1/GPa) = 0.02602143
#
# Stress axis : x y z
#
# Youngs Moduli (GPa) = 51.68169 38.43580 83.60936
#
# Poissons Ratio (x) = 0.26548 0.13984
# Poissons Ratio (y) = 0.35697 0.59138
# Poissons Ratio (z) = 0.08644 0.27186
#
# Static dielectric constant tensor:
#      x y z
#    x 1.809560 0.000000 -0.162740 
#    y 0.000000 1.779410 0.000000 
#    z -0.162740 0.000000 2.067760 
# 
# From -- ./inp_files/5726.got.cif
#   From: 2010.05.17/outbox.cif.g08.bks.cpg/sg9_3_cif.got.tgz:5726.got - 2010.06.03 20:04:27.
