data_PCOD9137244
_publ_section_title
;
Structure prediction by ZEFSAII (Michael W. Deem and Ramdas Pophale) SiO2 
 PCOD9137244
Probable space group: C C
;
_chemical_formula_sum "Si O2"
_cell_formula_units_Z 32
_cell_length_a 5.261725
_cell_length_b 23.561471
_cell_length_c 12.166065
_cell_angle_alpha 90.000000
_cell_angle_beta 107.414731
_cell_angle_gamma 90.000000
_cell_volume 1439.141308
_symmetry_space_group_name_H-M "C C"
_symmetry_group_IT_number 9
_symmetry_cell_setting 'monoclinic'
loop_
_space_group_symop_operation_xyz
x,y,z
x,-y,1/2+z
1/2+x,1/2+y,z
1/2+x,1/2-y,1/2+z
loop_
_atom_site_type_symbol
_atom_site_label
_atom_site_fract_x
_atom_site_fract_y
_atom_site_fract_z
Si Si1 0.741390 0.050993 0.673600
Si Si2 0.106639 0.205737 0.746427
Si Si3 0.447879 0.305473 0.828699
Si Si4 0.340068 0.913455 0.311463
Si Si5 0.621966 0.644263 0.135410
Si Si6 0.890159 0.239676 0.949237
Si Si7 0.079864 0.573549 0.079250
Si Si8 0.244490 0.651211 0.513692
O O1 0.567968 0.072423 0.753554
O O2 0.677583 0.091681 0.561213
O O3 0.055768 0.058856 0.740870
O O4 0.651210 0.987366 0.637850
O O5 0.229069 0.267516 0.737371
O O6 0.301700 0.154487 0.805365
O O7 0.924249 0.216726 0.829537
O O8 0.959124 0.179626 0.623090
O O9 0.634517 0.332736 0.761273
O O10 0.581600 0.255864 0.920742
O O11 0.345190 0.351536 0.901531
O O12 0.430077 0.932366 0.443556
O O13 0.882957 0.611138 0.129491
O O14 0.361039 0.604585 0.097355
O O15 0.542409 0.696644 0.047017
O O16 0.016188 0.301743 0.982004
#
# Coordination Sequence:
#
# PCOD9137244 Si02
#       8
#     4   4   4   4   4   4   4   4
#     4  11  27  48  74 103 139 188 248 294 359 418
#     4  10  22  40  67 101 141 181 239 280 359 434
#     4  11  25  40  68 106 151 185 229 301 367 433
#     4  11  24  46  76 105 134 192 239 299 350 434
#     4  12  27  44  74 106 147 190 241 291 370 427
#     4  11  23  41  69 105 138 190 226 300 356 439
#     4  12  27  51  72 106 143 190 245 301 355 432
#     4  10  25  42  68 104 139 188 231 294 358 427
#
# _framework density 22.235479999999999
#
# number of rings (size 3 to 8) (size 9 to 14) (size 15 to 20)
#    0.000    1.000    1.250    3.750   17.500    1.000 
#    2.250    0.000    0.000    0.000    0.000    0.000 
#    0.000    0.000    0.000    0.000    0.000    0.000 
#
# Total GULP energy -89480.478672 kJ/mol
# GULP energy per Si atom -5592.529917 kJ/mol
# Density = 2.218487 g / cm^3
# Si number density = 22.235480 Si / 1000 Ang^3
#
#
#
# Elastic Constant Matrix: (Units=GPa)
#
#
# Indices 1 2 3 4 5 6 
#
# 1 72.1300 21.8087 13.9514 0.0000 -1.7670 0.0000
# 2 21.8087 88.6562 37.7888 0.0000 3.3200 0.0000
# 3 13.9514 37.7888 74.5846 0.0000 -3.7374 0.0000
# 4 0.0000 0.0000 0.0000 13.8697 0.0000 15.6525
# 5 -1.7670 3.3200 -3.7374 0.0000 24.4270 0.0000
# 6 0.0000 0.0000 0.0000 15.6525 0.0000 31.7760
#
#
#
# Elastic Compliance Matrix: (Units=1/GPa)
#
#
# Indices 1 2 3 4 5 6 
#
# 1 0.015107 -0.003307 -0.001081 0.000000 0.001377 0.000000
# 2 -0.003307 0.015346 -0.007329 0.000000 -0.003446 0.000000
# 3 -0.001081 -0.007329 0.017504 0.000000 0.003596 0.000000
# 4 0.000000 0.000000 0.000000 0.162354 0.000000 -0.079974
# 5 0.001377 -0.003446 0.003596 0.000000 0.042057 0.000000
# 6 0.000000 0.000000 0.000000 -0.079974 0.000000 0.070865
#
#
# Mechanical properties :
#
#
# Convention : Reuss Voigt Hill
#
# Bulk Modulus (GPa) = 40.78098 42.49650 41.63874
# Shear Modulus (GPa) = 14.09085 24.80265 19.44675
#
# Velocity S-wave (km/s) = 2.52009 3.34346 2.96054
# Velocity P-wave (km/s) = 5.18152 5.83597 5.51845
#
# Compressibility (1/GPa) = 0.02452124
#
# Stress axis : x y z
#
# Youngs Moduli (GPa) = 66.19645 65.16324 57.13130
#
# Poissons Ratio (x) = 0.21548 0.06178
# Poissons Ratio (y) = 0.21889 0.41874
# Poissons Ratio (z) = 0.07159 0.47760
#
# Static dielectric constant tensor:
#      x y z
#    x 1.897890 0.000000 0.068180 
#    y 0.000000 1.802030 0.000000 
#    z 0.068180 0.000000 1.878160 
# 
# From -- ./inp_files/13469.got.cif
#   From: 2010.05.17/outbox.cif.g08.bks.cpg/sg9_7_cif.got.tgz:13469.got - 2010.06.03 20:04:27.
