data_PCOD9137077
_publ_section_title
;
Structure prediction by ZEFSAII (Michael W. Deem and Ramdas Pophale) SiO2 
 PCOD9137077
Probable space group: C C
;
_chemical_formula_sum "Si O2"
_cell_formula_units_Z 28
_cell_length_a 8.968621
_cell_length_b 13.917063
_cell_length_c 11.517503
_cell_angle_alpha 90.000000
_cell_angle_beta 125.371049
_cell_angle_gamma 90.000000
_cell_volume 1172.230912
_symmetry_space_group_name_H-M "C C"
_symmetry_group_IT_number 9
_symmetry_cell_setting 'monoclinic'
loop_
_space_group_symop_operation_xyz
x,y,z
x,-y,1/2+z
1/2+x,1/2+y,z
1/2+x,1/2-y,1/2+z
loop_
_atom_site_type_symbol
_atom_site_label
_atom_site_fract_x
_atom_site_fract_y
_atom_site_fract_z
Si Si1 0.500000 0.484323 0.849850
Si Si2 0.931766 0.059127 0.080012
Si Si3 0.898973 0.468084 0.461565
Si Si4 0.549171 0.901964 0.320536
Si Si5 0.072485 0.331263 0.967522
Si Si6 0.147380 0.394262 0.749808
Si Si7 0.684974 0.736167 0.235189
O O1 0.439965 0.517345 0.690900
O O2 0.717936 0.488927 0.937080
O O3 0.355777 0.395908 0.798473
O O4 0.468005 0.531216 0.962342
O O5 0.088799 0.133983 0.183920
O O6 0.729375 0.103696 0.983340
O O7 0.026073 0.560598 0.488921
O O8 0.875675 0.420830 0.323446
O O9 0.993582 0.385606 0.582345
O O10 0.553488 0.809337 0.243152
O O11 0.590429 0.996466 0.263246
O O12 0.880129 0.274235 0.883389
O O13 0.132176 0.335036 0.860788
O O14 0.205940 0.279318 0.116258
#
# Coordination Sequence:
#
# PCOD9137077 Si02
#       7
#     4   4   4   4   4   4   4
#     4  11  24  41  69 101 138 177 239 299 348 420
#     4  11  23  42  67  98 136 185 231 295 356 420
#     4  11  21  41  70  96 128 182 236 283 340 429
#     4  10  22  38  67  95 131 177 235 279 347 419
#     4  11  24  39  70  96 134 184 230 279 360 423
#     4  10  22  42  66  96 131 178 237 283 335 431
#     4  12  22  43  69 100 140 187 224 294 366 420
#
# _framework density 23.88608
#
# number of rings (size 3 to 8) (size 9 to 14) (size 15 to 20)
#    0.000    1.143    5.714    0.857    2.000    0.000 
#    0.000    2.857    3.143    0.000    0.000    0.000 
#    0.000    0.000    0.000    0.000    0.000    0.000 
#
# Total GULP energy -78030.248993 kJ/mol
# GULP energy per Si atom -5573.589214 kJ/mol
# Density = 2.383171 g / cm^3
# Si number density = 23.886080 Si / 1000 Ang^3
#
#
#
# Elastic Constant Matrix: (Units=GPa)
#
#
# Indices 1 2 3 4 5 6 
#
# 1 138.3628 7.2275 20.5717 0.0000 -22.9612 0.0000
# 2 7.2275 39.5024 18.5353 0.0000 -16.6593 0.0000
# 3 20.5717 18.5353 97.0054 0.0000 -27.6365 0.0000
# 4 0.0000 0.0000 0.0000 36.6763 0.0000 -9.3324
# 5 -22.9612 -16.6593 -27.6365 0.0000 44.5484 0.0000
# 6 0.0000 0.0000 0.0000 -9.3324 0.0000 22.2300
#
#
#
# Elastic Compliance Matrix: (Units=1/GPa)
#
#
# Indices 1 2 3 4 5 6 
#
# 1 0.007943 0.000492 -0.000680 0.000000 0.003856 0.000000
# 2 0.000492 0.030866 -0.003208 0.000000 0.009806 0.000000
# 3 -0.000680 -0.003208 0.012905 0.000000 0.006456 0.000000
# 4 0.000000 0.000000 0.000000 0.030526 0.000000 0.012815
# 5 0.003856 0.009806 0.006456 0.000000 0.032107 0.000000
# 6 0.000000 0.000000 0.000000 0.012815 0.000000 0.050364
#
#
# Mechanical properties :
#
#
# Convention : Reuss Voigt Hill
#
# Bulk Modulus (GPa) = 22.26126 40.83772 31.54949
# Shear Modulus (GPa) = 26.81293 35.92668 31.36980
#
# Velocity S-wave (km/s) = 3.35406 3.88246 3.62789
# Velocity P-wave (km/s) = 4.93352 6.10180 5.54849
#
# Compressibility (1/GPa) = 0.04492109
#
# Stress axis : x y z
#
# Youngs Moduli (GPa) = 125.90236 32.39842 77.48851
#
# Poissons Ratio (x) = -0.01594 0.05268
# Poissons Ratio (y) = -0.06194 0.24861
# Poissons Ratio (z) = 0.08559 0.10395
#
# Static dielectric constant tensor:
#      x y z
#    x 1.962360 0.000000 -0.033590 
#    y 0.000000 1.944180 0.000000 
#    z -0.033590 0.000000 2.001610 
# 
# From -- ./inp_files/14527.got.cif
#   From: 2010.05.17/outbox.cif.g08.bks.cpg/sg9_8_cif.got.tgz:14527.got - 2010.06.03 20:04:27.
