data_PCOD9137571
_publ_section_title
;
Structure prediction by ZEFSAII (Michael W. Deem and Ramdas Pophale) SiO2 
 PCOD9137571
Probable space group: C C
;
_chemical_formula_sum "Si O2"
_cell_formula_units_Z 32
_cell_length_a 13.733471
_cell_length_b 9.679600
_cell_length_c 20.194410
_cell_angle_alpha 90.000000
_cell_angle_beta 150.355710
_cell_angle_gamma 90.000000
_cell_volume 1327.807639
_symmetry_space_group_name_H-M "C C"
_symmetry_group_IT_number 9
_symmetry_cell_setting 'monoclinic'
loop_
_space_group_symop_operation_xyz
x,y,z
x,-y,1/2+z
1/2+x,1/2+y,z
1/2+x,1/2-y,1/2+z
loop_
_atom_site_type_symbol
_atom_site_label
_atom_site_fract_x
_atom_site_fract_y
_atom_site_fract_z
Si Si1 0.029040 0.612151 0.006620
Si Si2 0.455754 0.562325 0.282820
Si Si3 0.160731 0.712659 0.287832
Si Si4 0.365911 0.074490 0.214722
Si Si5 0.427507 0.549495 0.906500
Si Si6 0.106131 0.658972 0.897460
Si Si7 0.352585 0.850839 0.853530
Si Si8 0.468475 0.472449 0.140813
O O1 0.240035 0.633174 0.164042
O O2 0.048900 0.662855 0.941710
O O3 0.834252 0.686698 0.918514
O O4 0.991801 0.446622 0.981087
O O5 0.484733 0.467100 0.363165
O O6 0.618236 0.684151 0.379944
O O7 0.442512 0.484912 0.205133
O O8 0.287121 0.579147 0.340333
O O9 0.990210 0.657447 0.234628
O O10 0.040068 0.817233 0.167770
O O11 0.425395 0.137650 0.321044
O O12 0.436091 0.916363 0.256478
O O13 0.133272 0.066747 0.066269
O O14 0.322471 0.694767 0.856138
O O15 0.285490 0.549964 0.999206
O O16 0.149920 0.930654 0.732291
#
# Coordination Sequence:
#
# PCOD9137571 Si02
#       8
#     4   4   4   4   4   4   4   4
#     4   9  21  46  69  98 140 185 237 291 368 416
#     4  11  23  44  73 104 142 184 243 299 353 434
#     4  11  24  47  70 107 139 188 240 296 361 430
#     4  11  27  43  72 102 146 183 243 296 358 428
#     4  12  27  44  71 108 145 183 248 295 355 433
#     4  10  22  42  73 101 139 186 234 303 351 430
#     4  10  25  46  67 100 145 193 232 301 352 424
#     4  10  25  46  75 100 144 192 239 289 376 417
#
# _framework density 24.099875999999998
#
# number of rings (size 3 to 8) (size 9 to 14) (size 15 to 20)
#    0.000    1.500    1.250    1.500   12.250    1.000 
#    6.750    0.000    0.000    0.000    0.000    0.000 
#    0.000    0.000    0.000    0.000    0.000    0.000 
#
# Total GULP energy -89419.655531 kJ/mol
# GULP energy per Si atom -5588.728471 kJ/mol
# Density = 2.404502 g / cm^3
# Si number density = 24.099876 Si / 1000 Ang^3
#
#
#
# Elastic Constant Matrix: (Units=GPa)
#
#
# Indices 1 2 3 4 5 6 
#
# 1 51.9400 31.4382 23.9771 0.0002 19.8584 0.0000
# 2 31.4382 179.3162 36.1525 0.0003 8.1403 0.0001
# 3 23.9771 36.1525 71.0166 0.0007 8.8215 0.0002
# 4 0.0002 0.0003 0.0007 15.5840 0.0001 10.1740
# 5 19.8584 8.1403 8.8215 0.0001 34.5591 0.0000
# 6 0.0000 0.0001 0.0002 10.1740 0.0000 28.7559
#
#
#
# Elastic Compliance Matrix: (Units=1/GPa)
#
#
# Indices 1 2 3 4 5 6 
#
# 1 0.029899 -0.003240 -0.006616 0.000000 -0.014729 0.000000
# 2 -0.003240 0.006581 -0.002370 0.000000 0.000916 0.000000
# 3 -0.006616 -0.002370 0.017536 -0.000001 -0.000116 0.000000
# 4 0.000000 0.000000 -0.000001 0.083442 0.000000 -0.029522
# 5 -0.014729 0.000916 -0.000116 0.000000 0.037213 0.000000
# 6 0.000000 0.000000 0.000000 -0.029522 0.000000 0.045221
#
#
# Mechanical properties :
#
#
# Convention : Reuss Voigt Hill
#
# Bulk Modulus (GPa) = 33.82422 53.93429 43.87925
# Shear Modulus (GPa) = 19.66965 29.82680 24.74823
#
# Velocity S-wave (km/s) = 2.85997 3.52182 3.20801
# Velocity P-wave (km/s) = 4.99714 6.24225 5.65407
#
# Compressibility (1/GPa) = 0.02956462
#
# Stress axis : x y z
#
# Youngs Moduli (GPa) = 33.44563 151.95301 57.02540
#
# Poissons Ratio (x) = 0.49225 0.37728
# Poissons Ratio (y) = 0.10835 0.13517
# Poissons Ratio (z) = 0.22128 0.36017
#
# Static dielectric constant tensor:
#      x y z
#    x 2.026370 0.000000 0.007360 
#    y 0.000000 1.926020 0.000000 
#    z 0.007360 0.000000 1.925140 
# 
# From -- ./inp_files/33730.got.cif
#   From: 2010.05.17/outbox.cif.g08.bks.cpg/sg9_17_cif.got.tgz:33730.got - 2010.06.03 20:04:27.
