data_PCOD9137557
_publ_section_title
;
Structure prediction by ZEFSAII (Michael W. Deem and Ramdas Pophale) SiO2 
 PCOD9137557
Probable space group: C C
;
_chemical_formula_sum "Si O2"
_cell_formula_units_Z 32
_cell_length_a 9.430088
_cell_length_b 27.707808
_cell_length_c 4.952764
_cell_angle_alpha 90.000000
_cell_angle_beta 95.403777
_cell_angle_gamma 90.000000
_cell_volume 1288.341920
_symmetry_space_group_name_H-M "C C"
_symmetry_group_IT_number 9
_symmetry_cell_setting 'monoclinic'
loop_
_space_group_symop_operation_xyz
x,y,z
x,-y,1/2+z
1/2+x,1/2+y,z
1/2+x,1/2-y,1/2+z
loop_
_atom_site_type_symbol
_atom_site_label
_atom_site_fract_x
_atom_site_fract_y
_atom_site_fract_z
Si Si1 0.054590 0.759638 0.019920
Si Si2 0.551843 0.840064 0.283915
Si Si3 0.749445 0.619471 0.689859
Si Si4 0.085509 0.847565 0.665380
Si Si5 0.214141 0.468744 0.008166
Si Si6 0.872058 0.526963 0.453821
Si Si7 0.756940 0.214812 0.422338
Si Si8 0.794448 0.883644 0.629080
O O1 0.194484 0.758949 0.233527
O O2 0.024376 0.702546 0.990225
O O3 0.075182 0.789729 0.741851
O O4 0.903628 0.777123 0.109760
O O5 0.402453 0.857475 0.148806
O O6 0.653003 0.882790 0.416918
O O7 0.641643 0.810115 0.086688
O O8 0.622334 0.636677 0.476318
O O9 0.778364 0.565545 0.593331
O O10 0.710154 0.636020 0.984857
O O11 0.952927 0.880750 0.536981
O O12 0.255159 0.513441 0.814386
O O13 0.275723 0.421611 0.868992
O O14 0.042308 0.463423 0.992063
O O15 0.844784 0.479603 0.632836
O O16 0.795371 0.171492 0.230120
#
# Coordination Sequence:
#
# PCOD9137557 Si02
#       8
#     4   4   4   4   4   4   4   4
#     4  10  24  43  65 100 136 184 237 284 356 411
#     4  11  26  41  74  97 139 182 242 294 338 426
#     4  12  27  46  71 108 139 190 239 292 357 423
#     4  11  28  46  72 100 149 190 230 294 358 428
#     4  10  23  40  72 107 139 183 236 297 348 422
#     4  10  22  42  71 105 142 182 234 296 352 421
#     4  10  23  42  69  98 137 185 232 295 346 419
#     4  10  25  46  66 105 139 186 234 292 357 418
#
# _framework density 24.838127
#
# number of rings (size 3 to 8) (size 9 to 14) (size 15 to 20)
#    0.000    1.500    0.000    2.250   19.250    2.000 
#    0.000    3.750    0.000    0.000    0.000    0.000 
#    0.000    0.000    0.000    0.000    0.000    0.000 
#
# Total GULP energy -89206.741592 kJ/mol
# GULP energy per Si atom -5575.421350 kJ/mol
# Density = 2.478159 g / cm^3
# Si number density = 24.838127 Si / 1000 Ang^3
#
#
#
# Elastic Constant Matrix: (Units=GPa)
#
#
# Indices 1 2 3 4 5 6 
#
# 1 81.8716 27.5008 12.9523 0.0000 -10.5607 0.0000
# 2 27.5008 59.0311 13.4343 0.0000 -0.4729 0.0000
# 3 12.9523 13.4343 83.8935 0.0000 -8.9224 0.0000
# 4 0.0000 0.0000 0.0000 29.2947 0.0000 -7.1325
# 5 -10.5607 -0.4729 -8.9224 0.0000 32.3039 0.0000
# 6 0.0000 0.0000 0.0000 -7.1325 0.0000 20.2791
#
#
#
# Elastic Compliance Matrix: (Units=1/GPa)
#
#
# Indices 1 2 3 4 5 6 
#
# 1 0.015254 -0.006897 -0.000753 0.000000 0.004678 0.000000
# 2 -0.006897 0.020709 -0.002533 0.000000 -0.002651 0.000000
# 3 -0.000753 -0.002533 0.012787 0.000000 0.003249 0.000000
# 4 0.000000 0.000000 0.000000 0.037333 0.000000 0.013130
# 5 0.004678 -0.002651 0.003249 0.000000 0.033344 0.000000
# 6 0.000000 0.000000 0.000000 0.013130 0.000000 0.053930
#
#
# Mechanical properties :
#
#
# Convention : Reuss Voigt Hill
#
# Bulk Modulus (GPa) = 35.23312 36.95232 36.09272
# Shear Modulus (GPa) = 24.60822 27.76948 26.18885
#
# Velocity S-wave (km/s) = 3.15102 3.34731 3.25065
# Velocity P-wave (km/s) = 5.23970 5.46341 5.35272
#
# Compressibility (1/GPa) = 0.02838239
#
# Stress axis : x y z
#
# Youngs Moduli (GPa) = 65.55840 48.28874 78.20251
#
# Poissons Ratio (x) = 0.33306 0.05889
# Poissons Ratio (y) = 0.45218 0.19811
# Poissons Ratio (z) = 0.04936 0.12233
#
# Static dielectric constant tensor:
#      x y z
#    x 2.142060 0.000000 -0.036110 
#    y 0.000000 2.120680 0.000000 
#    z -0.036110 0.000000 2.057020 
# 
# From -- ./inp_files/1397.got.cif
#   From: 2010.05.17/outbox.cif.g08.bks.cpg/sg9_1_cif.got.tgz:1397.got - 2010.06.03 20:04:27.
