data_PCOD9137656
_publ_section_title
;
Structure prediction by ZEFSAII (Michael W. Deem and Ramdas Pophale) SiO2 
 PCOD9137656
Probable space group: C C
;
_chemical_formula_sum "Si O2"
_cell_formula_units_Z 28
_cell_length_a 9.336790
_cell_length_b 19.800913
_cell_length_c 9.552013
_cell_angle_alpha 90.000000
_cell_angle_beta 134.254849
_cell_angle_gamma 90.000000
_cell_volume 1264.847110
_symmetry_space_group_name_H-M "C C"
_symmetry_group_IT_number 9
_symmetry_cell_setting 'monoclinic'
loop_
_space_group_symop_operation_xyz
x,y,z
x,-y,1/2+z
1/2+x,1/2+y,z
1/2+x,1/2-y,1/2+z
loop_
_atom_site_type_symbol
_atom_site_label
_atom_site_fract_x
_atom_site_fract_y
_atom_site_fract_z
Si Si1 0.842700 0.087214 0.780090
Si Si2 0.708904 0.874163 0.641255
Si Si3 0.789113 0.656339 0.379882
Si Si4 0.571214 0.123970 0.338059
Si Si5 0.597866 0.547145 0.414128
Si Si6 0.525895 0.968352 0.295982
Si Si7 0.171730 0.303010 0.326102
O O1 0.753549 0.111686 0.570871
O O2 0.679357 0.052684 0.775491
O O3 0.857768 0.158953 0.874055
O O4 0.008270 0.028993 0.861782
O O5 0.610987 0.845896 0.714057
O O6 0.618284 0.941153 0.503280
O O7 0.692843 0.822906 0.502105
O O8 0.924510 0.900958 0.836516
O O9 0.679467 0.583841 0.326368
O O10 0.659614 0.723079 0.305218
O O11 0.898098 0.659073 0.306222
O O12 0.968982 0.667780 0.616133
O O13 0.508035 0.047518 0.267580
O O14 0.796268 0.554210 0.639906
#
# Coordination Sequence:
#
# PCOD9137656 Si02
#       7
#     4   4   4   4   4   4   4
#     4  10  22  43  68  99 150 173 232 296 353 416
#     4  11  23  41  70  99 143 170 239 296 342 413
#     4  11  24  44  77  93 141 193 242 277 373 420
#     4  11  21  42  65 103 140 180 220 311 336 421
#     4  12  22  40  75 102 130 203 223 283 362 416
#     4  11  21  42  64 103 142 178 227 286 348 422
#     4  10  23  48  65 103 138 189 235 299 340 446
#
# _framework density 22.137063000000001
#
# number of rings (size 3 to 8) (size 9 to 14) (size 15 to 20)
#    0.000    1.143    7.143    0.857    0.000    4.571 
#    0.000    5.714    0.000    0.000    0.000    0.000 
#    0.000    0.000    0.000    0.000    0.000    0.000 
#
# Total GULP energy -77950.493817 kJ/mol
# GULP energy per Si atom -5567.892416 kJ/mol
# Density = 2.208668 g / cm^3
# Si number density = 22.137063 Si / 1000 Ang^3
#
#
#
# Elastic Constant Matrix: (Units=GPa)
#
#
# Indices 1 2 3 4 5 6 
#
# 1 103.1592 20.6759 62.2167 0.0000 -28.5772 0.0000
# 2 20.6759 61.8233 18.9986 0.0000 -4.3947 0.0000
# 3 62.2167 18.9986 71.3476 0.0000 -17.2501 0.0000
# 4 0.0000 0.0000 0.0000 19.2725 0.0000 8.0161
# 5 -28.5772 -4.3947 -17.2501 0.0000 42.6647 0.0000
# 6 0.0000 0.0000 0.0000 8.0161 0.0000 27.5448
#
#
#
# Elastic Compliance Matrix: (Units=1/GPa)
#
#
# Indices 1 2 3 4 5 6 
#
# 1 0.022811 -0.001679 -0.017503 0.000000 0.008029 0.000000
# 2 -0.001679 0.017741 -0.003425 0.000000 -0.000682 0.000000
# 3 -0.017503 -0.003425 0.030226 0.000000 0.000144 0.000000
# 4 0.000000 0.000000 0.000000 0.059033 0.000000 -0.017180
# 5 0.008029 -0.000682 0.000144 0.000000 0.028805 0.000000
# 6 0.000000 0.000000 0.000000 -0.017180 0.000000 0.041304
#
#
# Mechanical properties :
#
#
# Convention : Reuss Voigt Hill
#
# Bulk Modulus (GPa) = 39.11850 48.90140 44.00995
# Shear Modulus (GPa) = 19.71175 26.85897 23.28536
#
# Velocity S-wave (km/s) = 2.98726 3.48703 3.24678
# Velocity P-wave (km/s) = 5.44130 6.19280 5.82917
#
# Compressibility (1/GPa) = 0.02556335
#
# Stress axis : x y z
#
# Youngs Moduli (GPa) = 43.83824 56.36771 33.08404
#
# Poissons Ratio (x) = 0.09465 0.57908
# Poissons Ratio (y) = 0.07361 0.11330
# Poissons Ratio (z) = 0.76732 0.19304
#
# Static dielectric constant tensor:
#      x y z
#    x 1.862260 0.000000 0.026470 
#    y 0.000000 1.865320 0.000000 
#    z 0.026470 0.000000 1.882710 
# 
# From -- ./inp_files/6124.got.cif
#   From: 2010.05.17/outbox.cif.g08.bks.cpg/sg9_4_cif.got.tgz:6124.got - 2010.06.03 20:04:27.
