data_PCOD9137207
_publ_section_title
;
Structure prediction by ZEFSAII (Michael W. Deem and Ramdas Pophale) SiO2 
 PCOD9137207
Probable space group: C C
;
_chemical_formula_sum "Si O2"
_cell_formula_units_Z 32
_cell_length_a 13.174611
_cell_length_b 18.117784
_cell_length_c 9.020096
_cell_angle_alpha 90.000000
_cell_angle_beta 43.863031
_cell_angle_gamma 90.000000
_cell_volume 1491.927231
_symmetry_space_group_name_H-M "C C"
_symmetry_group_IT_number 9
_symmetry_cell_setting 'monoclinic'
loop_
_space_group_symop_operation_xyz
x,y,z
x,-y,1/2+z
1/2+x,1/2+y,z
1/2+x,1/2-y,1/2+z
loop_
_atom_site_type_symbol
_atom_site_label
_atom_site_fract_x
_atom_site_fract_y
_atom_site_fract_z
Si Si1 0.606220 0.100091 0.058360
Si Si2 0.691053 0.738390 0.361240
Si Si3 0.462580 0.261611 0.858968
Si Si4 0.401534 0.411104 0.790779
Si Si5 0.576812 0.499495 0.860109
Si Si6 0.076812 0.486376 0.860108
Si Si7 0.252090 0.911104 0.929439
Si Si8 0.047403 0.600091 0.661857
O O1 0.658497 0.068110 0.160554
O O2 0.429477 0.089563 0.242001
O O3 0.646521 0.183227 0.978264
O O4 0.663877 0.044067 0.872042
O O5 0.576822 0.711526 0.360093
O O6 0.712220 0.675346 0.459419
O O7 0.826820 0.750002 0.110105
O O8 0.441406 0.324654 0.760797
O O9 0.507104 0.183228 0.741951
O O10 0.475370 0.451202 0.855552
O O11 0.472891 0.450231 0.573614
O O12 0.224146 0.410437 0.978216
O O13 0.678254 0.451203 0.864665
O O14 0.680732 0.549769 0.646603
O O15 0.989747 0.544067 0.848175
O O16 0.995127 0.431890 0.059663
#
# Coordination Sequence:
#
# PCOD9137207 Si02
#       8
#     4   4   4   4   4   4   4   4
#     4  11  22  42  66  94 126 166 214 266 318 382
#     4  12  23  42  65  95 128 172 213 264 323 384
#     4  12  23  42  65  95 128 172 213 264 323 384
#     4  11  22  42  64  94 129 167 215 258 323 378
#     4  10  24  40  64  98 130 170 208 268 316 384
#     4  10  22  40  64  96 120 160 210 268 320 370
#     4  11  22  42  64  94 129 167 215 258 323 378
#     4  11  22  42  66  94 126 166 214 266 318 382
#
# _framework density 21.448768000000001
#
# number of rings (size 3 to 8) (size 9 to 14) (size 15 to 20)
#    0.000    1.000    5.000    1.500    0.000    3.000 
#    4.500    2.500    0.000    0.000    0.000    0.000 
#    0.000    0.000    0.000    0.000    0.000    0.000 
#
# Total GULP energy -89347.999295 kJ/mol
# GULP energy per Si atom -5584.249956 kJ/mol
# Density = 2.139995 g / cm^3
# Si number density = 21.448768 Si / 1000 Ang^3
#
#
#
# Elastic Constant Matrix: (Units=GPa)
#
#
# Indices 1 2 3 4 5 6 
#
# 1 75.2905 48.2144 54.5985 0.0000 -0.9412 0.0000
# 2 48.2144 208.1532 79.1496 0.0000 13.3101 0.0000
# 3 54.5985 79.1496 141.1704 0.0000 4.6696 0.0000
# 4 0.0000 0.0000 0.0000 42.2168 0.0000 6.5904
# 5 -0.9412 13.3101 4.6696 0.0000 52.3483 0.0000
# 6 0.0000 0.0000 0.0000 6.5904 0.0000 28.5394
#
#
#
# Elastic Compliance Matrix: (Units=1/GPa)
#
#
# Indices 1 2 3 4 5 6 
#
# 1 0.019235 -0.002162 -0.006275 0.000000 0.001455 0.000000
# 2 -0.002162 0.006432 -0.002722 0.000000 -0.001431 0.000000
# 3 -0.006275 -0.002722 0.011050 0.000000 -0.000406 0.000000
# 4 0.000000 0.000000 0.000000 0.024573 0.000000 -0.005675
# 5 0.001455 -0.001431 -0.000406 0.000000 0.019529 0.000000
# 6 0.000000 0.000000 0.000000 -0.005675 0.000000 0.036350
#
#
# Mechanical properties :
#
#
# Convention : Reuss Voigt Hill
#
# Bulk Modulus (GPa) = 69.45602 87.61546 78.53574
# Shear Modulus (GPa) = 34.65274 40.79765 37.72520
#
# Velocity S-wave (km/s) = 4.02382 4.36604 4.19842
# Velocity P-wave (km/s) = 7.35124 8.14578 7.75869
#
# Compressibility (1/GPa) = 0.01439760
#
# Stress axis : x y z
#
# Youngs Moduli (GPa) = 51.98737 155.47881 90.49460
#
# Poissons Ratio (x) = 0.33622 0.56787
# Poissons Ratio (y) = 0.11242 0.24636
# Poissons Ratio (z) = 0.32623 0.42327
#
# Static dielectric constant tensor:
#      x y z
#    x 1.820710 0.000000 -0.007030 
#    y 0.000000 1.674790 0.000000 
#    z -0.007030 0.000000 1.784860 
# 
# From -- ./inp_files/9938.got.cif
#   From: 2010.05.17/outbox.cif.g08.bks.cpg/sg9_5_cif.got.tgz:9938.got - 2010.06.03 20:04:27.
