data_PCOD9137688
_publ_section_title
;
Structure prediction by ZEFSAII (Michael W. Deem and Ramdas Pophale) SiO2 
 PCOD9137688
Probable space group: C C
;
_chemical_formula_sum "Si O2"
_cell_formula_units_Z 28
_cell_length_a 24.111387
_cell_length_b 9.814128
_cell_length_c 11.184755
_cell_angle_alpha 90.000000
_cell_angle_beta 26.936960
_cell_angle_gamma 90.000000
_cell_volume 1198.969322
_symmetry_space_group_name_H-M "C C"
_symmetry_group_IT_number 9
_symmetry_cell_setting 'monoclinic'
loop_
_space_group_symop_operation_xyz
x,y,z
x,-y,1/2+z
1/2+x,1/2+y,z
1/2+x,1/2-y,1/2+z
loop_
_atom_site_type_symbol
_atom_site_label
_atom_site_fract_x
_atom_site_fract_y
_atom_site_fract_z
Si Si1 0.523120 0.445697 0.126520
Si Si2 0.307336 0.406068 0.966203
Si Si3 0.416515 0.222843 0.164773
Si Si4 0.385766 0.836644 0.451532
Si Si5 0.258129 0.873067 0.172235
Si Si6 0.057059 0.440194 0.933382
Si Si7 0.436774 0.719349 0.997745
O O1 0.394676 0.521124 0.392724
O O2 0.496970 0.346469 0.063809
O O3 0.532413 0.348495 0.222884
O O4 0.623074 0.563726 0.925933
O O5 0.294163 0.254590 0.046072
O O6 0.386746 0.382409 0.694485
O O7 0.193772 0.503742 0.164824
O O8 0.293414 0.201321 0.480029
O O9 0.397538 0.225440 0.060104
O O10 0.484163 0.081717 0.064034
O O11 0.332185 0.987784 0.557138
O O12 0.515199 0.859474 0.133773
O O13 0.315058 0.773188 0.162770
O O14 0.007614 0.343813 0.923797
#
# Coordination Sequence:
#
# PCOD9137688 Si02
#       7
#     4   4   4   4   4   4   4
#     4  11  26  43  68 108 141 178 232 286 354 416
#     4  11  26  43  68 108 141 178 232 286 354 416
#     4  10  22  43  71 100 135 185 231 282 348 410
#     4  10  22  43  71 100 135 185 231 282 348 410
#     4  10  22  46  71 100 136 184 234 281 349 419
#     4  10  22  46  71 100 136 184 234 281 349 419
#     4  10  24  48  70 104 142 186 230 290 350 414
#
# _framework density 23.353390999999998
#
# number of rings (size 3 to 8) (size 9 to 14) (size 15 to 20)
#    0.000    1.714    1.429    0.857    2.000    9.143 
#    0.000    0.000    0.000    0.000    0.000    0.000 
#    0.000    0.000    0.000    0.000    0.000    0.000 
#
# Total GULP energy -78189.725480 kJ/mol
# GULP energy per Si atom -5584.980391 kJ/mol
# Density = 2.330024 g / cm^3
# Si number density = 23.353391 Si / 1000 Ang^3
#
#
#
# Elastic Constant Matrix: (Units=GPa)
#
#
# Indices 1 2 3 4 5 6 
#
# 1 102.2590 43.6634 44.3389 0.0000 15.5942 0.0000
# 2 43.6634 124.9777 44.8804 0.0000 1.4213 0.0000
# 3 44.3389 44.8804 90.0282 0.0000 -18.6199 0.0000
# 4 0.0000 0.0000 0.0000 318.8753 0.0000 -202.9577
# 5 15.5942 1.4213 -18.6199 0.0000 32.1467 0.0000
# 6 0.0000 0.0000 0.0000 -202.9577 0.0000 182.7022
#
#
#
# Elastic Compliance Matrix: (Units=1/GPa)
#
#
# Indices 1 2 3 4 5 6 
#
# 1 0.017470 -0.002161 -0.010520 0.000000 -0.014473 0.000000
# 2 -0.002161 0.010414 -0.004551 0.000000 -0.002048 0.000000
# 3 -0.010520 -0.004551 0.022329 0.000000 0.018238 0.000000
# 4 0.000000 0.000000 0.000000 0.010705 0.000000 0.011892
# 5 -0.014473 -0.002048 0.018238 0.000000 0.048782 0.000000
# 6 0.000000 0.000000 0.000000 0.011892 0.000000 0.018683
#
#
# Mechanical properties :
#
#
# Convention : Reuss Voigt Hill
#
# Bulk Modulus (GPa) = 63.49260 64.78113 64.13686
# Shear Modulus (GPa) = 29.74461 119.03698 74.39080
#
# Velocity S-wave (km/s) = 3.57273 7.14722 5.65009
# Velocity P-wave (km/s) = 6.65327 9.79336 8.37186
#
# Compressibility (1/GPa) = 0.01574987
#
# Stress axis : x y z
#
# Youngs Moduli (GPa) = 57.23984 96.02502 44.78406
#
# Poissons Ratio (x) = 0.20753 0.47113
# Poissons Ratio (y) = 0.12371 0.20380
# Poissons Ratio (z) = 0.60217 0.43698
#
# Static dielectric constant tensor:
#      x y z
#    x 1.857880 0.000000 -0.014180 
#    y 0.000000 1.842110 0.000000 
#    z -0.014180 0.000000 1.951350 
# 
# From -- ./inp_files/20792.got.cif
#   From: 2010.05.17/outbox.cif.g08.bks.cpg/sg9_11_cif.got.tgz:20792.got - 2010.06.03 20:04:27.
