data_PCOD9137447
_publ_section_title
;
Structure prediction by ZEFSAII (Michael W. Deem and Ramdas Pophale) SiO2 
 PCOD9137447
Probable space group: C C
;
_chemical_formula_sum "Si O2"
_cell_formula_units_Z 32
_cell_length_a 8.072470
_cell_length_b 19.048117
_cell_length_c 8.131763
_cell_angle_alpha 90.000000
_cell_angle_beta 90.394358
_cell_angle_gamma 90.000000
_cell_volume 1250.353791
_symmetry_space_group_name_H-M "C C"
_symmetry_group_IT_number 9
_symmetry_cell_setting 'monoclinic'
loop_
_space_group_symop_operation_xyz
x,y,z
x,-y,1/2+z
1/2+x,1/2+y,z
1/2+x,1/2-y,1/2+z
loop_
_atom_site_type_symbol
_atom_site_label
_atom_site_fract_x
_atom_site_fract_y
_atom_site_fract_z
Si Si1 0.009340 0.640988 0.371990
Si Si2 0.511610 0.899396 0.354109
Si Si3 0.144325 0.515269 0.551302
Si Si4 0.018452 0.268664 0.550587
Si Si5 0.118799 0.769472 0.546333
Si Si6 0.630898 0.600659 0.849000
Si Si7 0.622428 0.359367 0.867592
Si Si8 0.498513 0.476407 0.655047
O O1 0.119463 0.573004 0.407482
O O2 0.034094 0.695247 0.521869
O O3 0.058488 0.688867 0.217108
O O4 0.816259 0.620979 0.360930
O O5 0.609559 0.940095 0.214329
O O6 0.577505 0.824213 0.412128
O O7 0.321587 0.892337 0.302062
O O8 0.518423 0.952315 0.510740
O O9 0.319874 0.478103 0.570986
O O10 0.818385 0.262935 0.537788
O O11 0.089415 0.191106 0.522420
O O12 0.061965 0.824044 0.403933
O O13 0.080857 0.807021 0.716495
O O14 0.540972 0.554696 0.712197
O O15 0.620484 0.556328 0.020112
O O16 0.517103 0.427589 0.817686
#
# Coordination Sequence:
#
# PCOD9137447 Si02
#       8
#     4   4   4   4   4   4   4   4
#     4  11  24  43  68 100 136 178 227 277 337 406
#     4  11  23  42  65  94 131 177 226 277 338 402
#     4  12  25  41  66  99 135 175 228 285 336 401
#     4  10  23  41  66  96 132 176 222 278 336 398
#     4   9  22  41  62  95 132 170 223 277 332 400
#     4  10  22  42  65  91 130 178 226 277 337 406
#     4  10  23  44  67  95 135 179 223 276 338 405
#     4  11  24  42  65  96 133 177 229 283 340 400
#
# _framework density 25.592753999999999
#
# number of rings (size 3 to 8) (size 9 to 14) (size 15 to 20)
#    0.000    1.500    0.000    4.500    0.000   12.000 
#    0.000    0.000    0.000    0.000    0.000    0.000 
#    0.000    0.000    0.000    0.000    0.000    0.000 
#
# Total GULP energy -89641.124032 kJ/mol
# GULP energy per Si atom -5602.570252 kJ/mol
# Density = 2.553450 g / cm^3
# Si number density = 25.592754 Si / 1000 Ang^3
#
#
#
# Elastic Constant Matrix: (Units=GPa)
#
#
# Indices 1 2 3 4 5 6 
#
# 1 63.6941 33.9737 14.5610 0.0000 9.6394 0.0000
# 2 33.9737 168.3479 29.8517 0.0000 13.7628 0.0000
# 3 14.5610 29.8517 89.9416 0.0000 3.3492 0.0000
# 4 0.0000 0.0000 0.0000 57.0641 0.0000 9.1347
# 5 9.6394 13.7628 3.3492 0.0000 36.7656 0.0000
# 6 0.0000 0.0000 0.0000 9.1347 0.0000 31.2881
#
#
#
# Elastic Compliance Matrix: (Units=1/GPa)
#
#
# Indices 1 2 3 4 5 6 
#
# 1 0.018285 -0.003086 -0.001807 0.000000 -0.003474 0.000000
# 2 -0.003086 0.007011 -0.001766 0.000000 -0.001655 0.000000
# 3 -0.001807 -0.001766 0.011995 0.000000 0.000042 0.000000
# 4 0.000000 0.000000 0.000000 0.018383 0.000000 -0.005367
# 5 -0.003474 -0.001655 0.000042 0.000000 0.028726 0.000000
# 6 0.000000 0.000000 0.000000 -0.005367 0.000000 0.033528
#
#
# Mechanical properties :
#
#
# Convention : Reuss Voigt Hill
#
# Bulk Modulus (GPa) = 41.71021 53.19515 47.45268
# Shear Modulus (GPa) = 35.91019 41.26338 38.58679
#
# Velocity S-wave (km/s) = 3.74991 4.01971 3.88715
# Velocity P-wave (km/s) = 5.92302 6.50957 6.22321
#
# Compressibility (1/GPa) = 0.02397495
#
# Stress axis : x y z
#
# Youngs Moduli (GPa) = 54.69057 142.62953 83.36568
#
# Poissons Ratio (x) = 0.44009 0.15062
# Poissons Ratio (y) = 0.16875 0.14721
# Poissons Ratio (z) = 0.09881 0.25186
#
# Static dielectric constant tensor:
#      x y z
#    x 1.894350 0.000000 -0.049780 
#    y 0.000000 1.974500 0.000000 
#    z -0.049780 0.000000 2.147300 
# 
# From -- ./inp_files/5801.got.cif
#   From: 2010.05.17/outbox.cif.g08.bks.cpg/sg9_3_cif.got.tgz:5801.got - 2010.06.03 20:04:27.
