data_PCOD9137837
_publ_section_title
;
Structure prediction by ZEFSAII (Michael W. Deem and Ramdas Pophale) SiO2 
 PCOD9137837
Probable space group: C C
;
_chemical_formula_sum "Si O2"
_cell_formula_units_Z 28
_cell_length_a 9.111539
_cell_length_b 7.165264
_cell_length_c 27.057659
_cell_angle_alpha 90.000000
_cell_angle_beta 142.577256
_cell_angle_gamma 90.000000
_cell_volume 1073.487666
_symmetry_space_group_name_H-M "C C"
_symmetry_group_IT_number 9
_symmetry_cell_setting 'monoclinic'
loop_
_space_group_symop_operation_xyz
x,y,z
x,-y,1/2+z
1/2+x,1/2+y,z
1/2+x,1/2-y,1/2+z
loop_
_atom_site_type_symbol
_atom_site_label
_atom_site_fract_x
_atom_site_fract_y
_atom_site_fract_z
Si Si1 0.838620 0.636214 0.347670
Si Si2 0.885008 0.173546 0.488962
Si Si3 0.891634 0.731024 0.467390
Si Si4 0.626072 0.281762 0.264203
Si Si5 0.334486 0.202403 0.558381
Si Si6 0.701553 0.897765 0.231283
Si Si7 0.945374 0.888441 0.107862
O O1 0.755005 0.680639 0.380668
O O2 0.843070 0.416098 0.338890
O O3 0.105210 0.723632 0.412443
O O4 0.672964 0.726717 0.261595
O O5 0.061500 0.259691 0.496810
O O6 0.888325 0.952040 0.476929
O O7 0.023491 0.209275 0.577813
O O8 0.825762 0.630361 0.500672
O O9 0.165565 0.666597 0.532768
O O10 0.707977 0.071120 0.272448
O O11 0.419921 0.337434 0.250942
O O12 0.543803 0.345525 0.187609
O O13 0.481659 0.394113 0.604628
O O14 0.468574 0.070876 0.633561
#
# Coordination Sequence:
#
# PCOD9137837 Si02
#       7
#     4   4   4   4   4   4   4
#     4  11  28  51  74 113 162 204 262 338 416 486
#     4  10  25  44  76 106 154 204 260 329 406 493
#     4  10  23  46  71 108 148 203 254 326 397 498
#     4  12  28  49  80 117 156 213 269 344 415 498
#     4  11  23  45  80 111 148 204 273 329 400 495
#     4  12  29  47  84 117 157 210 281 337 417 497
#     4  10  22  44  73 108 147 198 265 323 401 477
#
# _framework density 26.083207999999999
#
# number of rings (size 3 to 8) (size 9 to 14) (size 15 to 20)
#    0.000    1.143    2.857    0.857    8.000    6.857 
#    0.000    0.000    0.000    0.000    0.000    0.000 
#    0.000    0.000    0.000    0.000    0.000    0.000 
#
# Total GULP energy -78198.665733 kJ/mol
# GULP energy per Si atom -5585.618981 kJ/mol
# Density = 2.602384 g / cm^3
# Si number density = 26.083208 Si / 1000 Ang^3
#
#
#
# Elastic Constant Matrix: (Units=GPa)
#
#
# Indices 1 2 3 4 5 6 
#
# 1 136.7457 5.8305 51.4428 0.0000 -26.9662 0.0000
# 2 5.8305 113.2928 16.7624 0.0000 -20.0914 0.0000
# 3 51.4428 16.7624 100.8460 0.0000 -37.9734 0.0000
# 4 0.0000 0.0000 0.0000 39.3453 0.0000 -2.5936
# 5 -26.9662 -20.0914 -37.9734 0.0000 60.6150 0.0000
# 6 0.0000 0.0000 0.0000 -2.5936 0.0000 26.2315
#
#
#
# Elastic Compliance Matrix: (Units=1/GPa)
#
#
# Indices 1 2 3 4 5 6 
#
# 1 0.009172 0.000429 -0.004136 0.000000 0.001632 0.000000
# 2 0.000429 0.009418 -0.000703 0.000000 0.002872 0.000000
# 3 -0.004136 -0.000703 0.014870 0.000000 0.007243 0.000000
# 4 0.000000 0.000000 0.000000 0.025583 0.000000 0.002529
# 5 0.001632 0.002872 0.007243 0.000000 0.022713 0.000000
# 6 0.000000 0.000000 0.000000 0.002529 0.000000 0.038372
#
#
# Mechanical properties :
#
#
# Convention : Reuss Voigt Hill
#
# Bulk Modulus (GPa) = 40.58208 55.43954 48.01081
# Shear Modulus (GPa) = 36.45376 43.69496 40.07436
#
# Velocity S-wave (km/s) = 3.74250 4.09738 3.92395
# Velocity P-wave (km/s) = 5.85385 6.60952 6.24313
#
# Compressibility (1/GPa) = 0.02464142
#
# Stress axis : x y z
#
# Youngs Moduli (GPa) = 109.02539 106.18006 67.25030
#
# Poissons Ratio (x) = -0.04558 0.27813
# Poissons Ratio (y) = -0.04680 0.04727
# Poissons Ratio (z) = 0.45090 0.07463
#
# Static dielectric constant tensor:
#      x y z
#    x 2.080190 0.000000 0.001160 
#    y 0.000000 2.128010 0.000000 
#    z 0.001160 0.000000 2.023240 
# 
# From -- ./inp_files/32292.got.cif
#   From: 2010.05.17/outbox.cif.g08.bks.cpg/sg9_17_cif.got.tgz:32292.got - 2010.06.03 20:04:27.
