data_PCOD9137043
_publ_section_title
;
Structure prediction by ZEFSAII (Michael W. Deem and Ramdas Pophale) SiO2 
 PCOD9137043
Probable space group: C C
;
_chemical_formula_sum "Si O2"
_cell_formula_units_Z 32
_cell_length_a 15.885719
_cell_length_b 20.199784
_cell_length_c 15.070063
_cell_angle_alpha 90.000000
_cell_angle_beta 161.718281
_cell_angle_gamma 90.000000
_cell_volume 1516.940929
_symmetry_space_group_name_H-M "C C"
_symmetry_group_IT_number 9
_symmetry_cell_setting 'monoclinic'
loop_
_space_group_symop_operation_xyz
x,y,z
x,-y,1/2+z
1/2+x,1/2+y,z
1/2+x,1/2-y,1/2+z
loop_
_atom_site_type_symbol
_atom_site_label
_atom_site_fract_x
_atom_site_fract_y
_atom_site_fract_z
Si Si1 0.034590 0.791065 0.224690
Si Si2 0.171650 0.462609 0.650576
Si Si3 0.168049 0.084850 0.751884
Si Si4 0.076715 0.704664 0.737392
Si Si5 0.153340 0.962747 0.843336
Si Si6 0.356775 0.394828 0.384595
Si Si7 0.120741 0.795061 0.514064
Si Si8 0.156882 0.411800 0.441630
O O1 0.222149 0.726240 0.404281
O O2 0.132189 0.841210 0.248227
O O3 0.089240 0.815341 0.379680
O O4 0.202587 0.542325 0.687655
O O5 0.090656 0.433391 0.474497
O O6 0.958055 0.437099 0.508441
O O7 0.458567 0.433258 0.965551
O O8 0.100200 0.038703 0.768356
O O9 0.162908 0.654560 0.745396
O O10 0.120820 0.663882 0.873030
O O11 0.777792 0.732948 0.432632
O O12 0.062436 0.924691 0.663280
O O13 0.959263 0.934151 0.724175
O O14 0.456924 0.950521 0.175238
O O15 0.522805 0.353055 0.479494
O O16 0.418445 0.767082 0.826248
#
# Coordination Sequence:
#
# PCOD9137043 Si02
#       8
#     4   4   4   4   4   4   4   4
#     4  10  22  41  62  89 123 163 212 256 311 381
#     4  11  25  41  65  95 128 158 217 273 311 376
#     4  11  22  42  64  90 123 165 210 266 315 371
#     4  11  22  38  64  89 126 170 205 255 310 387
#     4  10  22  39  65  89 126 164 209 247 318 382
#     4  10  22  40  64  96 129 164 208 254 326 376
#     4  10  22  38  59  94 131 162 203 254 307 389
#     4  11  23  43  61  94 126 166 212 263 312 380
#
# _framework density 21.095085999999998
#
# number of rings (size 3 to 8) (size 9 to 14) (size 15 to 20)
#    0.000    1.500    0.000    6.000    1.750    5.000 
#    4.500    3.750    0.000    0.000    0.000    0.000 
#    0.000    0.000    0.000    0.000    0.000    0.000 
#
# Total GULP energy -89473.495811 kJ/mol
# GULP energy per Si atom -5592.093488 kJ/mol
# Density = 2.104707 g / cm^3
# Si number density = 21.095086 Si / 1000 Ang^3
#
#
#
# Elastic Constant Matrix: (Units=GPa)
#
#
# Indices 1 2 3 4 5 6 
#
# 1 76.7900 43.5107 -1.0507 0.0020 2.7876 -0.0006
# 2 43.5107 62.3629 -2.9597 -0.0015 -10.1720 -0.0004
# 3 -1.0507 -2.9597 54.2388 -0.0007 3.7470 0.0043
# 4 0.0020 -0.0015 -0.0007 21.0958 0.0054 3.3228
# 5 2.7876 -10.1720 3.7470 0.0054 22.9660 0.0018
# 6 -0.0006 -0.0004 0.0043 3.3228 0.0018 20.1540
#
#
#
# Elastic Compliance Matrix: (Units=1/GPa)
#
#
# Indices 1 2 3 4 5 6 
#
# 1 0.023899 -0.018478 0.000223 -0.000001 -0.011122 0.000001
# 2 -0.018478 0.031580 0.000247 0.000000 0.016190 -0.000001
# 3 0.000223 0.000247 0.018659 0.000002 -0.002962 -0.000004
# 4 -0.000001 0.000000 0.000002 0.048667 -0.000011 -0.008024
# 5 -0.011122 0.016190 -0.002962 -0.000011 0.052547 -0.000002
# 6 0.000001 -0.000001 -0.000004 -0.008024 -0.000002 0.050941
#
#
# Mechanical properties :
#
#
# Convention : Reuss Voigt Hill
#
# Bulk Modulus (GPa) = 26.23153 30.26580 28.24867
# Shear Modulus (GPa) = 18.18075 23.10259 20.64167
#
# Velocity S-wave (km/s) = 2.93891 3.31292 3.13150
# Velocity P-wave (km/s) = 4.89675 5.38631 5.14735
#
# Compressibility (1/GPa) = 0.03812206
#
# Stress axis : x y z
#
# Youngs Moduli (GPa) = 41.84221 31.66587 53.59227
#
# Poissons Ratio (x) = 0.58512 -0.01195
# Poissons Ratio (y) = 0.77316 -0.01323
# Poissons Ratio (z) = -0.00933 -0.00782
#
# Static dielectric constant tensor:
#      x y z
#    x 1.749470 0.000000 0.002080 
#    y 0.000000 1.763960 0.000000 
#    z 0.002080 0.000000 1.739680 
# 
# From -- ./inp_files/2576.got.cif
#   From: 2010.05.17/outbox.cif.g08.bks.cpg/sg9_2_cif.got.tgz:2576.got - 2010.06.03 20:04:27.
