data_PCOD9137089
_publ_section_title
;
Structure prediction by ZEFSAII (Michael W. Deem and Ramdas Pophale) SiO2 
 PCOD9137089
Probable space group: C C
;
_chemical_formula_sum "Si O2"
_cell_formula_units_Z 32
_cell_length_a 12.747110
_cell_length_b 5.739384
_cell_length_c 20.873188
_cell_angle_alpha 90.000000
_cell_angle_beta 121.681859
_cell_angle_gamma 90.000000
_cell_volume 1299.522636
_symmetry_space_group_name_H-M "C C"
_symmetry_group_IT_number 9
_symmetry_cell_setting 'monoclinic'
loop_
_space_group_symop_operation_xyz
x,y,z
x,-y,1/2+z
1/2+x,1/2+y,z
1/2+x,1/2-y,1/2+z
loop_
_atom_site_type_symbol
_atom_site_label
_atom_site_fract_x
_atom_site_fract_y
_atom_site_fract_z
Si Si1 0.661610 0.107948 0.726240
Si Si2 0.490652 0.529452 0.503467
Si Si3 0.750244 0.800922 0.490170
Si Si4 0.746872 0.941724 0.632853
Si Si5 0.305335 0.914127 0.427166
Si Si6 0.742429 0.449417 0.660146
Si Si7 0.896921 0.216528 0.856271
Si Si8 0.590510 0.956034 0.835785
O O1 0.821837 0.386289 0.879483
O O2 0.685146 0.373999 0.710771
O O3 0.799461 0.039069 0.794489
O O4 0.580904 0.058686 0.761640
O O5 0.380245 0.415188 0.510050
O O6 0.435953 0.785061 0.474428
O O7 0.620134 0.490420 0.577988
O O8 0.490345 0.409271 0.433862
O O9 0.719069 0.895737 0.549890
O O10 0.773813 0.528616 0.485701
O O11 0.643780 0.866141 0.405615
O O12 0.808940 0.698342 0.675508
O O13 0.803655 0.203994 0.656584
O O14 0.638353 0.975201 0.651880
O O15 0.195902 0.743592 0.371595
O O16 0.965397 0.353075 0.822875
#
# Coordination Sequence:
#
# PCOD9137089 Si02
#       8
#     4   4   4   4   4   4   4   4
#     4  10  24  48  62 106 148 185 246 311 356 446
#     4  10  22  41  65 105 137 183 244 299 359 438
#     4  10  22  41  65 105 137 183 244 299 359 438
#     4  10  25  43  69  94 145 187 235 298 373 420
#     4  10  22  38  72  98 148 173 248 305 352 432
#     4  10  25  43  69  94 145 187 235 298 373 420
#     4  11  23  43  73 101 139 186 242 296 372 427
#     4  11  23  43  73 101 139 186 242 296 372 427
#
# _framework density 24.624427000000001
#
# number of rings (size 3 to 8) (size 9 to 14) (size 15 to 20)
#    0.750    1.000    3.750    0.750   12.250    0.000 
#    4.500    0.000    0.000    0.000    0.000    0.000 
#    0.000    0.000    0.000    0.000    0.000    0.000 
#
# Total GULP energy -89247.391536 kJ/mol
# GULP energy per Si atom -5577.961971 kJ/mol
# Density = 2.456838 g / cm^3
# Si number density = 24.624427 Si / 1000 Ang^3
#
#
#
# Elastic Constant Matrix: (Units=GPa)
#
#
# Indices 1 2 3 4 5 6 
#
# 1 108.1496 20.8059 40.5047 0.0000 -19.9659 0.0000
# 2 20.8059 128.0364 26.8832 0.0000 -16.8263 0.0000
# 3 40.5047 26.8832 104.6848 0.0000 -35.3550 0.0000
# 4 0.0000 0.0000 0.0000 31.8517 0.0000 -7.1673
# 5 -19.9659 -16.8263 -35.3550 0.0000 45.6576 0.0000
# 6 0.0000 0.0000 0.0000 -7.1673 0.0000 23.1692
#
#
#
# Elastic Compliance Matrix: (Units=1/GPa)
#
#
# Indices 1 2 3 4 5 6 
#
# 1 0.011034 -0.000828 -0.003426 0.000000 0.001867 0.000000
# 2 -0.000828 0.008441 -0.001244 0.000000 0.001785 0.000000
# 3 -0.003426 -0.001244 0.014268 0.000000 0.009092 0.000000
# 4 0.000000 0.000000 0.000000 0.033744 0.000000 0.010439
# 5 0.001867 0.001785 0.009092 0.000000 0.030417 0.000000
# 6 0.000000 0.000000 0.000000 0.010439 0.000000 0.046390
#
#
# Mechanical properties :
#
#
# Convention : Reuss Voigt Hill
#
# Bulk Modulus (GPa) = 43.96488 57.47314 50.71901
# Shear Modulus (GPa) = 30.69893 36.98083 33.83988
#
# Velocity S-wave (km/s) = 3.53467 3.87950 3.71110
# Velocity P-wave (km/s) = 5.87805 6.59226 6.24538
#
# Compressibility (1/GPa) = 0.02274543
#
# Stress axis : x y z
#
# Youngs Moduli (GPa) = 90.63284 118.47353 70.08625
#
# Poissons Ratio (x) = 0.09813 0.24011
# Poissons Ratio (y) = 0.07507 0.08721
# Poissons Ratio (z) = 0.31050 0.14741
#
# Static dielectric constant tensor:
#      x y z
#    x 1.937560 0.000000 -0.016400 
#    y 0.000000 2.058370 0.000000 
#    z -0.016400 0.000000 1.992450 
# 
# From -- ./inp_files/33550.got.cif
#   From: 2010.05.17/outbox.cif.g08.bks.cpg/sg9_17_cif.got.tgz:33550.got - 2010.06.03 20:04:27.
