data_PCOD9137401
_publ_section_title
;
Structure prediction by ZEFSAII (Michael W. Deem and Ramdas Pophale) SiO2 
 PCOD9137401
Probable space group: C C
;
_chemical_formula_sum "Si O2"
_cell_formula_units_Z 32
_cell_length_a 28.087403
_cell_length_b 7.907918
_cell_length_c 9.499517
_cell_angle_alpha 90.000000
_cell_angle_beta 142.301718
_cell_angle_gamma 90.000000
_cell_volume 1290.250640
_symmetry_space_group_name_H-M "C C"
_symmetry_group_IT_number 9
_symmetry_cell_setting 'monoclinic'
loop_
_space_group_symop_operation_xyz
x,y,z
x,-y,1/2+z
1/2+x,1/2+y,z
1/2+x,1/2-y,1/2+z
loop_
_atom_site_type_symbol
_atom_site_label
_atom_site_fract_x
_atom_site_fract_y
_atom_site_fract_z
Si Si1 0.831870 0.522541 0.483300
Si Si2 0.965745 0.773521 0.678627
Si Si3 0.670495 0.708485 0.163548
Si Si4 0.389515 0.153212 0.877563
Si Si5 0.341205 0.490975 0.252502
Si Si6 0.737814 0.924580 0.772870
Si Si7 0.101824 0.308102 0.286669
Si Si8 0.554300 0.807226 0.668081
O O1 0.895831 0.642829 0.554004
O O2 0.746230 0.595424 0.309019
O O3 0.867952 0.504041 0.721113
O O4 0.839143 0.362409 0.399728
O O5 0.022447 0.733654 0.681467
O O6 0.918578 0.934723 0.514181
O O7 0.018660 0.773835 0.943401
O O8 0.625301 0.693927 0.207071
O O9 0.698079 0.903768 0.236829
O O10 0.614826 0.697376 0.897843
O O11 0.361191 0.325478 0.736204
O O12 0.481715 0.161523 0.105006
O O13 0.278446 0.513850 0.226303
O O14 0.301192 0.377811 0.039381
O O15 0.670159 0.799597 0.564329
O O16 0.090596 0.507864 0.219567
#
# Coordination Sequence:
#
# PCOD9137401 Si02
#       8
#     4   4   4   4   4   4   4   4
#     4  11  23  46  68 103 141 186 251 300 363 443
#     4  11  24  42  70 109 143 189 248 303 375 438
#     4  11  22  42  70 104 143 183 244 306 355 440
#     4  11  24  44  69 102 145 196 240 309 372 440
#     4  12  24  45  71 106 151 188 251 308 370 444
#     4  11  21  41  70 102 142 191 243 298 362 444
#     4  11  22  39  73 113 141 192 249 302 372 444
#     4  10  22  41  71 105 146 187 242 300 371 447
#
# _framework density 24.801383000000001
#
# number of rings (size 3 to 8) (size 9 to 14) (size 15 to 20)
#    0.000    1.000    5.000    2.250    3.500    2.000 
#    0.000    5.000    0.000    0.000    0.000    0.000 
#    0.000    0.000    0.000    0.000    0.000    0.000 
#
# Total GULP energy -89445.059269 kJ/mol
# GULP energy per Si atom -5590.316204 kJ/mol
# Density = 2.474493 g / cm^3
# Si number density = 24.801383 Si / 1000 Ang^3
#
#
#
# Elastic Constant Matrix: (Units=GPa)
#
#
# Indices 1 2 3 4 5 6 
#
# 1 185.5106 24.1137 50.4028 0.0000 8.8576 0.0000
# 2 24.1137 26.7009 32.6887 0.0000 -2.1010 0.0000
# 3 50.4028 32.6887 153.9651 0.0000 6.7605 0.0000
# 4 0.0000 0.0000 0.0000 23.6810 0.0000 2.6468
# 5 8.8576 -2.1010 6.7605 0.0000 42.1124 0.0000
# 6 0.0000 0.0000 0.0000 2.6468 0.0000 19.6048
#
#
#
# Elastic Compliance Matrix: (Units=1/GPa)
#
#
# Indices 1 2 3 4 5 6 
#
# 1 0.006332 -0.004547 -0.001047 0.000000 -0.001391 0.000000
# 2 -0.004547 0.054648 -0.010349 0.000000 0.005344 0.000000
# 3 -0.001047 -0.010349 0.009112 0.000000 -0.001759 0.000000
# 4 0.000000 0.000000 0.000000 0.042875 0.000000 -0.005788
# 5 -0.001391 0.005344 -0.001759 0.000000 0.024587 0.000000
# 6 0.000000 0.000000 0.000000 -0.005788 0.000000 0.051789
#
#
# Mechanical properties :
#
#
# Convention : Reuss Voigt Hill
#
# Bulk Modulus (GPa) = 26.17236 64.50964 45.34100
# Shear Modulus (GPa) = 21.37077 34.34441 27.85759
#
# Velocity S-wave (km/s) = 2.93862 3.72530 3.35509
# Velocity P-wave (km/s) = 4.69996 6.67613 5.77323
#
# Compressibility (1/GPa) = 0.03820824
#
# Stress axis : x y z
#
# Youngs Moduli (GPa) = 157.92030 18.29887 109.74592
#
# Poissons Ratio (x) = 0.08320 0.11485
# Poissons Ratio (y) = 0.71805 1.13572
# Poissons Ratio (z) = 0.16527 0.18937
#
# Static dielectric constant tensor:
#      x y z
#    x 1.963410 0.000000 0.005360 
#    y 0.000000 2.057030 0.000000 
#    z 0.005360 0.000000 1.966680 
# 
# From -- ./inp_files/12444.got.cif
#   From: 2010.05.17/outbox.cif.g08.bks.cpg/sg9_7_cif.got.tgz:12444.got - 2010.06.03 20:04:27.
