data_PCOD9137063
_publ_section_title
;
Structure prediction by ZEFSAII (Michael W. Deem and Ramdas Pophale) SiO2 
 PCOD9137063
Probable space group: C C
;
_chemical_formula_sum "Si O2"
_cell_formula_units_Z 32
_cell_length_a 13.905466
_cell_length_b 6.410427
_cell_length_c 16.965172
_cell_angle_alpha 90.000000
_cell_angle_beta 112.722116
_cell_angle_gamma 90.000000
_cell_volume 1394.905922
_symmetry_space_group_name_H-M "C C"
_symmetry_group_IT_number 9
_symmetry_cell_setting 'monoclinic'
loop_
_space_group_symop_operation_xyz
x,y,z
x,-y,1/2+z
1/2+x,1/2+y,z
1/2+x,1/2-y,1/2+z
loop_
_atom_site_type_symbol
_atom_site_label
_atom_site_fract_x
_atom_site_fract_y
_atom_site_fract_z
Si Si1 0.266190 0.027229 0.448870
Si Si2 0.175023 0.658585 0.032114
Si Si3 0.038688 0.966842 0.088694
Si Si4 0.880570 0.141211 0.785611
Si Si5 0.487209 0.838857 0.961275
Si Si6 0.384749 0.143384 0.118861
Si Si7 0.705682 0.433718 0.765312
Si Si8 0.346273 0.761317 0.202367
O O1 0.227954 0.250350 0.470342
O O2 0.383439 0.032495 0.450770
O O3 0.282902 0.879857 0.530584
O O4 0.195645 0.980256 0.350854
O O5 0.114868 0.854876 0.051093
O O6 0.266517 0.623632 0.124465
O O7 0.091944 0.474596 0.997476
O O8 0.100590 0.064516 0.182145
O O9 0.967453 0.779002 0.097405
O O10 0.986952 0.151746 0.023897
O O11 0.965927 0.244626 0.868646
O O12 0.877624 0.239689 0.698725
O O13 0.768122 0.212564 0.786623
O O14 0.902636 0.898242 0.778269
O O15 0.405755 0.906690 0.157536
O O16 0.779947 0.588274 0.738364
#
# Coordination Sequence:
#
# PCOD9137063 Si02
#       8
#     4   4   4   4   4   4   4   4
#     4  10  22  44  67  95 135 187 224 290 351 416
#     4  10  22  42  62  96 137 174 228 285 345 412
#     4  11  23  40  65  98 133 176 223 294 341 412
#     4  10  22  40  64  95 130 184 225 276 355 419
#     4  11  24  42  66 101 133 179 236 285 351 420
#     4  10  22  38  64  97 131 173 235 276 343 422
#     4   9  21  42  62  97 132 173 235 277 346 418
#     4   9  20  40  66  91 133 184 220 283 350 411
#
# _framework density 22.940615000000001
#
# number of rings (size 3 to 8) (size 9 to 14) (size 15 to 20)
#    0.000    2.000    1.250    1.500    5.250    2.000 
#    2.250    2.500    0.000    0.000    0.000    0.000 
#    0.000    0.000    0.000    0.000    0.000    0.000 
#
# Total GULP energy -89270.446086 kJ/mol
# GULP energy per Si atom -5579.402880 kJ/mol
# Density = 2.288840 g / cm^3
# Si number density = 22.940615 Si / 1000 Ang^3
#
#
#
# Elastic Constant Matrix: (Units=GPa)
#
#
# Indices 1 2 3 4 5 6 
#
# 1 66.2014 27.5320 20.3707 0.0000 -6.2637 0.0000
# 2 27.5320 66.4477 35.6511 0.0000 8.3756 0.0000
# 3 20.3707 35.6511 138.4824 0.0000 -13.2589 0.0000
# 4 0.0000 0.0000 0.0000 -3.4064 0.0000 -9.0895
# 5 -6.2637 8.3756 -13.2589 0.0000 26.3122 0.0000
# 6 0.0000 0.0000 0.0000 -9.0895 0.0000 36.2492
#
#
#
# Elastic Compliance Matrix: (Units=1/GPa)
#
#
# Indices 1 2 3 4 5 6 
#
# 1 0.019597 -0.009214 0.000228 0.000000 0.007713 0.000000
# 2 -0.009214 0.023667 -0.005956 0.000000 -0.012729 0.000000
# 3 0.000228 -0.005956 0.009359 0.000000 0.006666 0.000000
# 4 0.000000 0.000000 0.000000 -0.175883 0.000000 -0.044103
# 5 0.007713 -0.012729 0.006666 0.000000 0.047252 0.000000
# 6 0.000000 0.000000 0.000000 -0.044103 0.000000 0.016528
#
#
# Mechanical properties :
#
#
# Convention : Reuss Voigt Hill
#
# Bulk Modulus (GPa) = 43.97841 48.69322 46.33582
# Shear Modulus (GPa) = -227.12680 24.33618 -101.39531
#
# Velocity S-wave (km/s) = -9.96099 3.26058 -6.65545
# Velocity P-wave (km/s) = 10.63405 5.95374 6.23041
#
# Compressibility (1/GPa) = 0.02273843
#
# Stress axis : x y z
#
# Youngs Moduli (GPa) = 51.02772 42.25215 106.84604
#
# Poissons Ratio (x) = 0.38933 -0.02435
# Poissons Ratio (y) = 0.47019 0.63640
# Poissons Ratio (z) = -0.01163 0.25166
#
# Static dielectric constant tensor:
#      x y z
#    x 1.905110 0.000000 -0.020350 
#    y 0.000000 1.948680 0.000000 
#    z -0.020350 0.000000 1.877230 
# 
# From -- ./inp_files/30428.got.cif
#   From: 2010.05.17/outbox.cif.g08.bks.cpg/sg9_16_cif.got.tgz:30428.got - 2010.06.03 20:04:27.
