data_PCOD9137573
_publ_section_title
;
Structure prediction by ZEFSAII (Michael W. Deem and Ramdas Pophale) SiO2 
 PCOD9137573
Probable space group: C C
;
_chemical_formula_sum "Si O2"
_cell_formula_units_Z 32
_cell_length_a 6.193531
_cell_length_b 28.759111
_cell_length_c 8.271824
_cell_angle_alpha 90.000000
_cell_angle_beta 110.228621
_cell_angle_gamma 90.000000
_cell_volume 1382.503454
_symmetry_space_group_name_H-M "C C"
_symmetry_group_IT_number 9
_symmetry_cell_setting 'monoclinic'
loop_
_space_group_symop_operation_xyz
x,y,z
x,-y,1/2+z
1/2+x,1/2+y,z
1/2+x,1/2-y,1/2+z
loop_
_atom_site_type_symbol
_atom_site_label
_atom_site_fract_x
_atom_site_fract_y
_atom_site_fract_z
Si Si1 0.413760 0.348675 0.649280
Si Si2 0.169624 0.814791 0.154491
Si Si3 0.760321 0.774506 0.840591
Si Si4 0.023699 0.422137 0.574852
Si Si5 0.926188 0.656678 0.425030
Si Si6 0.611301 0.944485 0.930727
Si Si7 0.051480 0.885196 0.360834
Si Si8 0.228152 0.470453 0.313626
O O1 0.312594 0.300122 0.684287
O O2 0.671054 0.353462 0.787900
O O3 0.422531 0.354220 0.459700
O O4 0.250260 0.390769 0.667110
O O5 0.234933 0.780164 0.314708
O O6 0.052177 0.861362 0.188597
O O7 0.382530 0.828154 0.097606
O O8 0.979781 0.787088 0.004681
O O9 0.543599 0.801045 0.860810
O O10 0.816097 0.388497 0.478944
O O11 0.953761 0.447786 0.725067
O O12 0.080216 0.450795 0.426667
O O13 0.080442 0.610381 0.455150
O O14 0.804802 0.978419 0.897727
O O15 0.594318 0.965391 0.107830
O O16 0.941869 0.936076 0.341048
#
# Coordination Sequence:
#
# PCOD9137573 Si02
#       8
#     4   4   4   4   4   4   4   4
#     4  10  22  42  73  98 140 186 238 299 370 434
#     4  11  28  43  73 106 143 199 247 309 376 446
#     4  11  25  44  67 105 144 187 249 298 369 448
#     4  11  23  47  71 103 142 196 243 308 372 449
#     4  11  24  46  72 102 144 193 241 306 377 445
#     4  12  22  47  71 101 148 190 246 311 372 449
#     4  11  24  47  70 104 144 190 244 310 373 442
#     4  11  26  44  69 107 141 189 254 305 375 453
#
# _framework density 23.146415999999999
#
# number of rings (size 3 to 8) (size 9 to 14) (size 15 to 20)
#    0.000    1.000    3.750    1.500    7.000    2.000 
#    4.500    0.000    0.000    0.000    0.000    0.000 
#    0.000    0.000    0.000    0.000    0.000    0.000 
#
# Total GULP energy -89179.468272 kJ/mol
# GULP energy per Si atom -5573.716767 kJ/mol
# Density = 2.309373 g / cm^3
# Si number density = 23.146416 Si / 1000 Ang^3
#
#
#
# Elastic Constant Matrix: (Units=GPa)
#
#
# Indices 1 2 3 4 5 6 
#
# 1 94.6771 56.9740 36.0178 0.0000 -17.2499 0.0000
# 2 56.9740 102.0310 35.2169 0.0000 -11.7006 0.0000
# 3 36.0178 35.2169 87.3521 0.0000 -7.2469 0.0000
# 4 0.0000 0.0000 0.0000 34.9996 0.0000 -9.1358
# 5 -17.2499 -11.7006 -7.2469 0.0000 24.8527 0.0000
# 6 0.0000 0.0000 0.0000 -9.1358 0.0000 29.8861
#
#
#
# Elastic Compliance Matrix: (Units=1/GPa)
#
#
# Indices 1 2 3 4 5 6 
#
# 1 0.018178 -0.008007 -0.003621 0.000000 0.007791 0.000000
# 2 -0.008007 0.015340 -0.002813 0.000000 0.000844 0.000000
# 3 -0.003621 -0.002813 0.014097 0.000000 0.000273 0.000000
# 4 0.000000 0.000000 0.000000 0.031049 0.000000 0.009491
# 5 0.007791 0.000844 0.000273 0.000000 0.046122 0.000000
# 6 0.000000 0.000000 0.000000 0.009491 0.000000 0.036362
#
#
# Mechanical properties :
#
#
# Convention : Reuss Voigt Hill
#
# Bulk Modulus (GPa) = 53.37948 60.05306 56.71627
# Shear Modulus (GPa) = 25.47461 28.33777 26.90619
#
# Velocity S-wave (km/s) = 3.32111 3.50277 3.41315
# Velocity P-wave (km/s) = 6.14964 6.50849 6.33161
#
# Compressibility (1/GPa) = 0.01873379
#
# Stress axis : x y z
#
# Youngs Moduli (GPa) = 55.01251 65.18980 70.93464
#
# Poissons Ratio (x) = 0.52199 0.25683
# Poissons Ratio (y) = 0.44050 0.19952
# Poissons Ratio (z) = 0.19918 0.18336
#
# Static dielectric constant tensor:
#      x y z
#    x 1.840080 0.000000 -0.015810 
#    y 0.000000 1.930120 0.000000 
#    z -0.015810 0.000000 1.925550 
# 
# From -- ./inp_files/4328.got.cif
#   From: 2010.05.17/outbox.cif.g08.bks.cpg/sg9_3_cif.got.tgz:4328.got - 2010.06.03 20:04:27.
