data_PCOD9137262
_publ_section_title
;
Structure prediction by ZEFSAII (Michael W. Deem and Ramdas Pophale) SiO2 
 PCOD9137262
Probable space group: C C
;
_chemical_formula_sum "Si O2"
_cell_formula_units_Z 20
_cell_length_a 4.967589
_cell_length_b 14.161500
_cell_length_c 11.539030
_cell_angle_alpha 90.000000
_cell_angle_beta 85.297711
_cell_angle_gamma 90.000000
_cell_volume 809.021315
_symmetry_space_group_name_H-M "C C"
_symmetry_group_IT_number 9
_symmetry_cell_setting 'monoclinic'
loop_
_space_group_symop_operation_xyz
x,y,z
x,-y,1/2+z
1/2+x,1/2+y,z
1/2+x,1/2-y,1/2+z
loop_
_atom_site_type_symbol
_atom_site_label
_atom_site_fract_x
_atom_site_fract_y
_atom_site_fract_z
Si Si1 0.594690 0.238373 0.622750
Si Si2 0.835185 0.646142 0.917036
Si Si3 0.622718 0.362820 0.182083
Si Si4 0.817712 0.973049 0.459415
Si Si5 0.397044 0.442721 0.713964
O O1 0.760673 0.272827 0.506345
O O2 0.339276 0.177932 0.585282
O O3 0.501912 0.337531 0.685329
O O4 0.823286 0.177040 0.679400
O O5 0.764675 0.677260 0.791410
O O6 0.631609 0.558353 0.950981
O O7 0.138376 0.613555 0.921833
O O8 0.620753 0.474531 0.199709
O O9 0.786167 0.045986 0.351083
O O10 0.738018 0.976287 0.600065
#
# Coordination Sequence:
#
# PCOD9137262 Si02
#       5
#     4   4   4   4   4
#     4  11  24  41  66  95 128 173 220 268 327 390
#     4  10  22  42  62  94 135 164 213 282 324 374
#     4  11  24  41  66  95 128 173 220 268 327 390
#     4  10  22  40  68  94 131 176 213 268 330 382
#     4  10  24  44  66  98 136 172 220 272 324 388
#
# _framework density 24.721228
#
# number of rings (size 3 to 8) (size 9 to 14) (size 15 to 20)
#    0.000    1.600    0.000    4.800    0.000   17.600 
#    0.000    0.000    0.000    2.400    0.000    0.000 
#    0.000    0.000    0.000    0.000    0.000    0.000 
#
# Total GULP energy -55684.657650 kJ/mol
# GULP energy per Si atom -5568.465765 kJ/mol
# Density = 2.466496 g / cm^3
# Si number density = 24.721228 Si / 1000 Ang^3
#
#
#
# Elastic Constant Matrix: (Units=GPa)
#
#
# Indices 1 2 3 4 5 6 
#
# 1 89.0571 34.9668 5.5763 0.0000 3.0811 0.0000
# 2 34.9668 120.9842 5.7479 0.0000 -3.8328 0.0000
# 3 5.5763 5.7479 99.9912 0.0000 27.4629 0.0000
# 4 0.0000 0.0000 0.0000 27.5863 0.0000 0.1905
# 5 3.0811 -3.8328 27.4629 0.0000 22.2451 0.0000
# 6 0.0000 0.0000 0.0000 0.1905 0.0000 36.4470
#
#
#
# Elastic Compliance Matrix: (Units=1/GPa)
#
#
# Indices 1 2 3 4 5 6 
#
# 1 0.012799 -0.003798 0.000259 0.000000 -0.002747 0.000000
# 2 -0.003798 0.009555 -0.001413 0.000000 0.003917 0.000000
# 3 0.000259 -0.001413 0.015349 0.000000 -0.019228 0.000000
# 4 0.000000 0.000000 0.000000 0.036251 0.000000 -0.000189
# 5 -0.002747 0.003917 -0.019228 0.000000 0.069748 0.000000
# 6 0.000000 0.000000 0.000000 -0.000189 0.000000 0.027438
#
#
# Mechanical properties :
#
#
# Convention : Reuss Voigt Hill
#
# Bulk Modulus (GPa) = 35.97500 44.73496 40.35498
# Shear Modulus (GPa) = 26.27284 34.83844 30.55564
#
# Velocity S-wave (km/s) = 3.26354 3.75807 3.51950
# Velocity P-wave (km/s) = 5.36515 6.07996 5.73370
#
# Compressibility (1/GPa) = 0.02779708
#
# Stress axis : x y z
#
# Youngs Moduli (GPa) = 78.13118 104.66141 65.15147
#
# Poissons Ratio (x) = 0.39756 -0.01688
# Poissons Ratio (y) = 0.29678 0.09208
# Poissons Ratio (z) = -0.02024 0.14791
#
# Static dielectric constant tensor:
#      x y z
#    x 1.948760 0.000000 -0.076540 
#    y 0.000000 2.078290 0.000000 
#    z -0.076540 0.000000 2.168970 
# 
# From -- ./inp_files/12823.got.cif
#   From: 2010.05.17/outbox.cif.g08.bks.cpg/sg9_7_cif.got.tgz:12823.got - 2010.06.03 20:04:27.
