data_PCOD9137168
_publ_section_title
;
Structure prediction by ZEFSAII (Michael W. Deem and Ramdas Pophale) SiO2 
 PCOD9137168
Probable space group: C C
;
_chemical_formula_sum "Si O2"
_cell_formula_units_Z 32
_cell_length_a 23.368745
_cell_length_b 11.283478
_cell_length_c 9.971391
_cell_angle_alpha 90.000000
_cell_angle_beta 149.645233
_cell_angle_gamma 90.000000
_cell_volume 1328.705392
_symmetry_space_group_name_H-M "C C"
_symmetry_group_IT_number 9
_symmetry_cell_setting 'monoclinic'
loop_
_space_group_symop_operation_xyz
x,y,z
x,-y,1/2+z
1/2+x,1/2+y,z
1/2+x,1/2-y,1/2+z
loop_
_atom_site_type_symbol
_atom_site_label
_atom_site_fract_x
_atom_site_fract_y
_atom_site_fract_z
Si Si1 0.743590 0.505212 0.079860
Si Si2 0.974062 0.234286 0.890992
Si Si3 0.125556 0.241690 0.945573
Si Si4 0.512698 0.754122 0.452623
Si Si5 0.482468 0.094639 0.652567
Si Si6 0.374891 0.517196 0.186554
Si Si7 0.240697 0.852782 0.315070
Si Si8 0.726695 0.981847 0.134794
O O1 0.874263 0.525246 0.381911
O O2 0.718015 0.388224 0.114775
O O3 0.670817 0.612144 0.999208
O O4 0.730675 0.531746 0.894955
O O5 0.861466 0.293617 0.595644
O O6 0.076829 0.251590 0.995534
O O7 0.954586 0.094975 0.873464
O O8 0.994157 0.296765 0.073019
O O9 0.222977 0.338761 0.117853
O O10 0.026097 0.270742 0.638065
O O11 0.462426 0.859118 0.262838
O O12 0.444673 0.633575 0.292358
O O13 0.640586 0.734304 0.658503
O O14 0.597567 0.021593 0.880211
O O15 0.294543 0.537328 0.150189
O O16 0.293107 0.483565 0.900743
#
# Coordination Sequence:
#
# PCOD9137168 Si02
#       8
#     4   4   4   4   4   4   4   4
#     4  10  22  40  61  90 124 162 208 258 313 379
#     4  11  23  41  64  94 128 166 213 266 323 392
#     4  11  23  41  64  94 128 166 213 266 323 392
#     4  11  24  41  63  90 123 164 208 261 320 383
#     4  11  24  41  63  90 123 164 208 261 320 383
#     4  12  24  42  65  94 128 168 215 269 327 392
#     4  10  22  40  61  90 124 162 208 258 313 379
#     4  12  24  42  65  94 128 168 215 269 327 392
#
# _framework density 24.083590999999998
#
# number of rings (size 3 to 8) (size 9 to 14) (size 15 to 20)
#    0.000    1.000    0.000    8.250    0.000    8.000 
#    0.000    1.250    0.000    0.000    0.000    0.000 
#    0.000    0.000    0.000    0.000    0.000    0.000 
#
# Total GULP energy -89644.537877 kJ/mol
# GULP energy per Si atom -5602.783617 kJ/mol
# Density = 2.402878 g / cm^3
# Si number density = 24.083591 Si / 1000 Ang^3
#
#
#
# Elastic Constant Matrix: (Units=GPa)
#
#
# Indices 1 2 3 4 5 6 
#
# 1 77.9777 -2.1784 11.9898 0.0000 0.3905 0.0000
# 2 -2.1784 54.7470 -0.0335 0.0000 5.4473 0.0000
# 3 11.9898 -0.0335 67.6166 0.0000 -4.3484 0.0000
# 4 0.0000 0.0000 0.0000 36.1247 0.0000 5.0068
# 5 0.3905 5.4473 -4.3484 0.0000 36.6396 0.0000
# 6 0.0000 0.0000 0.0000 5.0068 0.0000 35.8279
#
#
#
# Elastic Compliance Matrix: (Units=1/GPa)
#
#
# Indices 1 2 3 4 5 6 
#
# 1 0.013208 0.000575 -0.002374 0.000000 -0.000508 0.000000
# 2 0.000575 0.018567 -0.000273 0.000000 -0.002799 0.000000
# 3 -0.002374 -0.000273 0.015331 0.000000 0.001885 0.000000
# 4 0.000000 0.000000 0.000000 0.028229 0.000000 -0.003945
# 5 -0.000508 -0.002799 0.001885 0.000000 0.027938 0.000000
# 6 0.000000 0.000000 0.000000 -0.003945 0.000000 0.028463
#
#
# Mechanical properties :
#
#
# Convention : Reuss Voigt Hill
#
# Bulk Modulus (GPa) = 23.27674 24.43303 23.85488
# Shear Modulus (GPa) = 33.28872 34.42266 33.85569
#
# Velocity S-wave (km/s) = 3.72185 3.78471 3.75341
# Velocity P-wave (km/s) = 5.30618 5.40979 5.35823
#
# Compressibility (1/GPa) = 0.04296135
#
# Stress axis : x y z
#
# Youngs Moduli (GPa) = 75.71246 53.85890 65.22557
#
# Poissons Ratio (x) = -0.03095 0.15487
# Poissons Ratio (y) = -0.04351 0.01779
# Poissons Ratio (z) = 0.17977 0.01469
#
# Static dielectric constant tensor:
#      x y z
#    x 1.888380 0.000000 -0.005160 
#    y 0.000000 1.974730 0.000000 
#    z -0.005160 0.000000 1.882860 
# 
# From -- ./inp_files/16204.got.cif
#   From: 2010.05.17/outbox.cif.g08.bks.cpg/sg9_9_cif.got.tgz:16204.got - 2010.06.03 20:04:27.
