data_PCOD9137019
_publ_section_title
;
Structure prediction by ZEFSAII (Michael W. Deem and Ramdas Pophale) SiO2 
 PCOD9137019
Probable space group: C C
;
_chemical_formula_sum "Si O2"
_cell_formula_units_Z 32
_cell_length_a 12.916628
_cell_length_b 18.320960
_cell_length_c 12.891191
_cell_angle_alpha 90.000000
_cell_angle_beta 31.695394
_cell_angle_gamma 90.000000
_cell_volume 1602.814191
_symmetry_space_group_name_H-M "C C"
_symmetry_group_IT_number 9
_symmetry_cell_setting 'monoclinic'
loop_
_space_group_symop_operation_xyz
x,y,z
x,-y,1/2+z
1/2+x,1/2+y,z
1/2+x,1/2-y,1/2+z
loop_
_atom_site_type_symbol
_atom_site_label
_atom_site_fract_x
_atom_site_fract_y
_atom_site_fract_z
Si Si1 0.099900 0.685119 0.569180
Si Si2 0.317854 0.811879 0.120456
Si Si3 0.115758 0.331990 0.696385
Si Si4 0.877717 0.436853 0.379382
Si Si5 0.780118 0.406867 0.891169
Si Si6 0.650134 0.571958 0.268692
Si Si7 0.028401 0.158705 0.194775
Si Si8 0.005871 0.083918 0.826644
O O1 0.929962 0.702835 0.630819
O O2 0.131674 0.763265 0.595326
O O3 0.306560 0.660592 0.344517
O O4 0.030087 0.620843 0.704355
O O5 0.487489 0.850337 0.907623
O O6 0.226993 0.743335 0.133856
O O7 0.136535 0.865564 0.290955
O O8 0.286035 0.386941 0.518631
O O9 0.936706 0.340004 0.766298
O O10 0.895309 0.517945 0.321118
O O11 0.850136 0.435998 0.527748
O O12 0.663491 0.403691 0.528790
O O13 0.692770 0.414868 0.851488
O O14 0.610252 0.403859 0.125070
O O15 0.532701 0.636948 0.312385
O O16 0.532175 0.498219 0.342576
#
# Coordination Sequence:
#
# PCOD9137019 Si02
#       8
#     4   4   4   4   4   4   4   4
#     4  12  21  38  65  92 122 162 200 258 315 351
#     4  11  23  37  64  93 122 156 204 257 310 356
#     4  11  23  39  61  92 126 156 203 249 308 368
#     4   9  22  39  62  89 127 153 207 259 290 368
#     4  10  22  42  63  88 123 166 204 249 305 362
#     4   9  21  43  60  88 125 160 203 253 300 357
#     4  10  22  37  59  92 126 156 202 252 298 366
#     4  10  22  43  60  90 125 157 201 261 292 370
#
# _framework density 19.964884999999999
#
# number of rings (size 3 to 8) (size 9 to 14) (size 15 to 20)
#    0.750    1.000    2.500    1.500    1.750    3.000 
#    2.250    5.000    0.000    0.000    0.000    0.000 
#    0.000    0.000    0.000    0.000    0.000    0.000 
#
# Total GULP energy -89095.479104 kJ/mol
# GULP energy per Si atom -5568.467444 kJ/mol
# Density = 1.991944 g / cm^3
# Si number density = 19.964885 Si / 1000 Ang^3
#
#
#
# Elastic Constant Matrix: (Units=GPa)
#
#
# Indices 1 2 3 4 5 6 
#
# 1 87.4606 7.6101 9.5022 0.0219 12.6882 -0.0256
# 2 7.6101 60.0964 1.9005 0.0414 1.7160 -0.0372
# 3 9.5022 1.9005 72.9499 0.0321 -10.9504 -0.0323
# 4 0.0219 0.0414 0.0321 29.0514 -0.0212 -5.2063
# 5 12.6882 1.7160 -10.9504 -0.0212 20.1139 0.0216
# 6 -0.0256 -0.0372 -0.0323 -5.2063 0.0216 19.9563
#
#
#
# Elastic Compliance Matrix: (Units=1/GPa)
#
#
# Indices 1 2 3 4 5 6 
#
# 1 0.013357 -0.001302 -0.003217 -0.000009 -0.010066 0.000018
# 2 -0.001302 0.016841 -0.000394 -0.000019 -0.000830 0.000025
# 3 -0.003217 -0.000394 0.015733 -0.000005 0.010628 0.000008
# 4 -0.000009 -0.000019 -0.000005 0.036110 0.000032 0.009420
# 5 -0.010066 -0.000830 0.010628 0.000032 0.061924 -0.000056
# 6 0.000018 0.000025 0.000008 0.009420 -0.000056 0.052567
#
#
# Mechanical properties :
#
#
# Convention : Reuss Voigt Hill
#
# Bulk Modulus (GPa) = 27.69697 28.72584 28.21140
# Shear Modulus (GPa) = 22.89461 27.25726 25.07593
#
# Velocity S-wave (km/s) = 3.39003 3.69895 3.54786
# Velocity P-wave (km/s) = 5.40611 5.71510 5.56275
#
# Compressibility (1/GPa) = 0.03610504
#
# Stress axis : x y z
#
# Youngs Moduli (GPa) = 74.86799 59.37894 63.56204
#
# Poissons Ratio (x) = 0.07732 0.20447
# Poissons Ratio (y) = 0.09749 0.02502
# Poissons Ratio (z) = 0.24084 0.02337
#
# Static dielectric constant tensor:
#      x y z
#    x 1.737580 0.000000 0.006750 
#    y 0.000000 1.730880 0.000010 
#    z 0.006750 0.000010 1.728130 
# 
# From -- ./inp_files/26085.got.cif
#   From: 2010.05.17/outbox.cif.g08.bks.cpg/sg9_14_cif.got.tgz:26085.got - 2010.06.03 20:04:27.
