data_PCOD9137291
_publ_section_title
;
Structure prediction by ZEFSAII (Michael W. Deem and Ramdas Pophale) SiO2 
 PCOD9137291
Probable space group: C C
;
_chemical_formula_sum "Si O2"
_cell_formula_units_Z 28
_cell_length_a 16.295210
_cell_length_b 10.222932
_cell_length_c 7.625653
_cell_angle_alpha 90.000000
_cell_angle_beta 97.678003
_cell_angle_gamma 90.000000
_cell_volume 1258.929109
_symmetry_space_group_name_H-M "C C"
_symmetry_group_IT_number 9
_symmetry_cell_setting 'monoclinic'
loop_
_space_group_symop_operation_xyz
x,y,z
x,-y,1/2+z
1/2+x,1/2+y,z
1/2+x,1/2-y,1/2+z
loop_
_atom_site_type_symbol
_atom_site_label
_atom_site_fract_x
_atom_site_fract_y
_atom_site_fract_z
Si Si1 0.963630 0.819124 0.005390
Si Si2 0.769074 0.870358 0.342423
Si Si3 0.217922 0.659902 0.447750
Si Si4 0.000357 0.568805 0.174589
Si Si5 0.035282 0.686117 0.545117
Si Si6 0.645453 0.765302 0.586138
Si Si7 0.428943 0.592078 0.120471
O O1 0.944106 0.668953 0.048242
O O2 0.941097 0.937129 0.127864
O O3 0.918941 0.857297 0.814017
O O4 0.065186 0.825126 0.025944
O O5 0.775127 0.169315 0.639092
O O6 0.701098 0.787223 0.432192
O O7 0.854086 0.864320 0.475295
O O8 0.740039 0.021500 0.362073
O O9 0.130052 0.668308 0.523002
O O10 0.202615 0.756457 0.275807
O O11 0.990456 0.627437 0.362928
O O12 0.001692 0.413155 0.182363
O O13 0.092145 0.604957 0.125429
O O14 0.010082 0.833124 0.573857
#
# Coordination Sequence:
#
# PCOD9137291 Si02
#       7
#     4   4   4   4   4   4   4
#     4  10  22  41  57  92 129 169 207 255 318 383
#     4  12  21  37  62  97 131 158 211 267 323 364
#     4  11  19  35  61  89 123 163 211 258 300 377
#     4   9  19  35  64  86 116 159 218 253 293 368
#     4  11  19  37  62  95 118 163 218 256 305 371
#     4   9  21  38  60  90 114 169 209 257 297 376
#     4  12  25  37  62  99 133 161 200 274 330 367
#
# _framework density 22.241125
#
# number of rings (size 3 to 8) (size 9 to 14) (size 15 to 20)
#    0.857    0.571    2.857    4.286    0.000    0.000 
#    0.000    0.000    0.000    8.571    0.000    0.000 
#    0.000    0.000    0.000    0.000    0.000    0.000 
#
# Total GULP energy -77958.689812 kJ/mol
# GULP energy per Si atom -5568.477844 kJ/mol
# Density = 2.219050 g / cm^3
# Si number density = 22.241125 Si / 1000 Ang^3
#
#
#
# Elastic Constant Matrix: (Units=GPa)
#
#
# Indices 1 2 3 4 5 6 
#
# 1 59.4640 27.5853 3.4839 0.0000 14.2362 0.0000
# 2 27.5853 45.4674 2.6367 0.0000 5.2968 0.0000
# 3 3.4839 2.6367 124.6543 0.0000 25.2150 0.0000
# 4 0.0000 0.0000 0.0000 22.8311 0.0000 -1.0662
# 5 14.2362 5.2968 25.2150 0.0000 32.6916 0.0000
# 6 0.0000 0.0000 0.0000 -1.0662 0.0000 24.4040
#
#
#
# Elastic Compliance Matrix: (Units=1/GPa)
#
#
# Indices 1 2 3 4 5 6 
#
# 1 0.025963 -0.014659 0.001648 0.000000 -0.010202 0.000000
# 2 -0.014659 0.030704 -0.000622 0.000000 0.001888 0.000000
# 3 0.001648 -0.000622 0.009614 0.000000 -0.008032 0.000000
# 4 0.000000 0.000000 0.000000 0.043889 0.000000 0.001917
# 5 -0.010202 0.001888 -0.008032 0.000000 0.040921 0.000000
# 6 0.000000 0.000000 0.000000 0.001917 0.000000 0.041061
#
#
# Mechanical properties :
#
#
# Convention : Reuss Voigt Hill
#
# Bulk Modulus (GPa) = 25.63083 32.99973 29.31528
# Shear Modulus (GPa) = 21.51255 29.04399 25.27827
#
# Velocity S-wave (km/s) = 3.11343 3.61760 3.37494
# Velocity P-wave (km/s) = 4.94708 5.68497 5.32881
#
# Compressibility (1/GPa) = 0.03901552
#
# Stress axis : x y z
#
# Youngs Moduli (GPa) = 38.51607 32.56949 104.01443
#
# Poissons Ratio (x) = 0.47744 -0.17143
# Poissons Ratio (y) = 0.56461 0.06467
# Poissons Ratio (z) = -0.06348 0.02025
#
# Static dielectric constant tensor:
#      x y z
#    x 1.869050 0.000000 0.037870 
#    y 0.000000 1.858280 0.000000 
#    z 0.037870 0.000000 1.943350 
# 
# From -- ./inp_files/10556.got.cif
#   From: 2010.05.17/outbox.cif.g08.bks.cpg/sg9_6_cif.got.tgz:10556.got - 2010.06.03 20:04:27.
