data_PCOD9137787
_publ_section_title
;
Structure prediction by ZEFSAII (Michael W. Deem and Ramdas Pophale) SiO2 
 PCOD9137787
Probable space group: C C
;
_chemical_formula_sum "Si O2"
_cell_formula_units_Z 32
_cell_length_a 11.710813
_cell_length_b 8.855303
_cell_length_c 25.903274
_cell_angle_alpha 90.000000
_cell_angle_beta 151.763798
_cell_angle_gamma 90.000000
_cell_volume 1270.881272
_symmetry_space_group_name_H-M "C C"
_symmetry_group_IT_number 9
_symmetry_cell_setting 'monoclinic'
loop_
_space_group_symop_operation_xyz
x,y,z
x,-y,1/2+z
1/2+x,1/2+y,z
1/2+x,1/2-y,1/2+z
loop_
_atom_site_type_symbol
_atom_site_label
_atom_site_fract_x
_atom_site_fract_y
_atom_site_fract_z
Si Si1 0.375000 0.750998 0.005090
Si Si2 0.220279 0.004309 0.637338
Si Si3 0.992936 0.178526 0.895731
Si Si4 0.011927 0.262295 0.622757
Si Si5 0.888978 0.172733 0.356190
Si Si6 0.688027 0.002838 0.105871
Si Si7 0.061451 0.768127 0.303695
Si Si8 0.962693 0.253048 0.160600
O O1 0.494812 0.600321 0.031222
O O2 0.464705 0.891064 0.006864
O O3 0.476661 0.776096 0.104503
O O4 0.091992 0.750038 0.901866
O O5 0.325842 0.109494 0.634451
O O6 0.119079 0.107811 0.643134
O O7 0.425391 0.891122 0.739858
O O8 0.728108 0.252965 0.792183
O O9 0.070732 0.198077 0.867252
O O10 0.961155 0.000323 0.892970
O O11 0.225870 0.241987 0.017574
O O12 0.142505 0.313091 0.726491
O O13 0.091086 0.385339 0.611668
O O14 0.826262 0.253985 0.384547
O O15 0.900913 0.896861 0.213000
O O16 0.811600 0.102551 0.111335
#
# Coordination Sequence:
#
# PCOD9137787 Si02
#       8
#     4   4   4   4   4   4   4   4
#     4  11  24  47  73 103 148 185 235 299 359 420
#     4  10  24  44  70 109 138 182 241 296 349 433
#     4  12  24  47  75 102 151 190 233 306 355 417
#     4  11  25  46  69 103 149 185 240 298 354 423
#     4  12  26  44  75 106 144 194 238 292 363 425
#     4  10  22  44  69 104 140 182 239 288 348 426
#     4  11  24  43  73 105 142 190 243 289 354 428
#     4  11  23  45  76 104 144 188 235 296 364 412
#
# _framework density 25.179379000000001
#
# number of rings (size 3 to 8) (size 9 to 14) (size 15 to 20)
#    0.000    1.000    6.250    0.000    5.250    2.000 
#    0.000    6.250    0.000    0.000    0.000    0.000 
#    0.000    0.000    0.000    0.000    0.000    0.000 
#
# Total GULP energy -89738.755928 kJ/mol
# GULP energy per Si atom -5608.672245 kJ/mol
# Density = 2.512207 g / cm^3
# Si number density = 25.179379 Si / 1000 Ang^3
#
#
#
# Elastic Constant Matrix: (Units=GPa)
#
#
# Indices 1 2 3 4 5 6 
#
# 1 120.2185 42.9854 29.7497 -0.0002 42.8458 0.0000
# 2 42.9854 110.4193 26.8311 0.0000 25.7362 0.0001
# 3 29.7497 26.8311 154.5278 -0.0004 31.7166 -0.0009
# 4 -0.0002 0.0000 -0.0004 9.0546 0.0003 12.3259
# 5 42.8458 25.7362 31.7166 0.0003 36.8526 0.0003
# 6 0.0000 0.0001 -0.0009 12.3259 0.0003 36.8574
#
#
#
# Elastic Compliance Matrix: (Units=1/GPa)
#
#
# Indices 1 2 3 4 5 6 
#
# 1 0.014688 -0.002121 0.000901 0.000001 -0.016371 0.000000
# 2 -0.002121 0.011144 -0.000529 0.000000 -0.004861 0.000000
# 3 0.000901 -0.000529 0.007930 0.000000 -0.007502 0.000000
# 4 0.000001 0.000000 0.000000 0.202734 -0.000002 -0.067798
# 5 -0.016371 -0.004861 -0.007502 -0.000002 0.056019 0.000000
# 6 0.000000 0.000000 0.000000 -0.067798 0.000000 0.049805
#
#
# Mechanical properties :
#
#
# Convention : Reuss Voigt Hill
#
# Bulk Modulus (GPa) = 33.04415 64.92198 48.98306
# Shear Modulus (GPa) = 14.04866 35.59289 24.82077
#
# Velocity S-wave (km/s) = 2.36464 3.76383 3.14308
# Velocity P-wave (km/s) = 4.53953 6.68792 5.71558
#
# Compressibility (1/GPa) = 0.03026255
#
# Stress axis : x y z
#
# Youngs Moduli (GPa) = 68.08126 89.73742 126.10991
#
# Poissons Ratio (x) = 0.19036 -0.11357
# Poissons Ratio (y) = 0.14442 0.06669
# Poissons Ratio (z) = -0.06131 0.04746
#
# Static dielectric constant tensor:
#      x y z
#    x 2.005010 0.000000 -0.004880 
#    y 0.000000 1.955170 0.000000 
#    z -0.004880 0.000000 2.018830 
# 
# From -- ./inp_files/37283.got.cif
#   From: 2010.05.17/outbox.cif.g08.bks.cpg/sg9_19_cif.got.tgz:37283.got - 2010.06.03 20:04:27.
