data_PCOD9137598
_publ_section_title
;
Structure prediction by ZEFSAII (Michael W. Deem and Ramdas Pophale) SiO2 
 PCOD9137598
Probable space group: C C
;
_chemical_formula_sum "Si O2"
_cell_formula_units_Z 28
_cell_length_a 7.284236
_cell_length_b 11.946040
_cell_length_c 22.650039
_cell_angle_alpha 90.000000
_cell_angle_beta 144.906455
_cell_angle_gamma 90.000000
_cell_volume 1133.128368
_symmetry_space_group_name_H-M "C C"
_symmetry_group_IT_number 9
_symmetry_cell_setting 'monoclinic'
loop_
_space_group_symop_operation_xyz
x,y,z
x,-y,1/2+z
1/2+x,1/2+y,z
1/2+x,1/2-y,1/2+z
loop_
_atom_site_type_symbol
_atom_site_label
_atom_site_fract_x
_atom_site_fract_y
_atom_site_fract_z
Si Si1 0.934110 0.627041 0.397470
Si Si2 0.625088 0.709205 0.104433
Si Si3 0.350740 0.469794 0.352375
Si Si4 0.728597 0.086843 0.208435
Si Si5 0.589069 0.794321 0.821994
Si Si6 0.552921 0.958617 0.050279
Si Si7 0.032465 0.615599 0.879510
O O1 0.561609 0.646688 0.313469
O O2 0.066764 0.717510 0.386409
O O3 0.141296 0.594196 0.509277
O O4 0.919421 0.510106 0.359137
O O5 0.528522 0.839245 0.076888
O O6 0.927218 0.666852 0.143825
O O7 0.744415 0.685044 0.201864
O O8 0.325244 0.642660 0.000306
O O9 0.211139 0.481513 0.249810
O O10 0.288467 0.594174 0.362397
O O11 0.175789 0.386219 0.351030
O O12 0.732848 0.470343 0.452400
O O13 0.731866 0.039245 0.143127
O O14 0.750913 0.695839 0.827264
#
# Coordination Sequence:
#
# PCOD9137598 Si02
#       7
#     4   4   4   4   4   4   4
#     4  10  25  42  66  96 144 179 227 302 344 423
#     4  11  23  40  70  95 134 182 230 295 350 426
#     4   9  20  41  67  95 137 176 225 296 345 410
#     4  10  22  43  67  98 140 184 236 292 356 417
#     4  10  22  43  63  99 139 177 238 286 343 430
#     4  11  21  42  65 103 133 174 233 281 354 426
#     4  11  21  43  70  96 135 190 229 288 364 412
#
# _framework density 24.710350999999999
#
# number of rings (size 3 to 8) (size 9 to 14) (size 15 to 20)
#    0.000    1.714    2.857    0.857    2.000    1.143 
#    5.143    0.000    0.000    0.000    0.000    0.000 
#    0.000    0.000    0.000    0.000    0.000    0.000 
#
# Total GULP energy -78124.622873 kJ/mol
# GULP energy per Si atom -5580.330205 kJ/mol
# Density = 2.465411 g / cm^3
# Si number density = 24.710351 Si / 1000 Ang^3
#
#
#
# Elastic Constant Matrix: (Units=GPa)
#
#
# Indices 1 2 3 4 5 6 
#
# 1 122.3192 34.2620 44.1026 0.0000 -27.3413 0.0000
# 2 34.2620 92.3674 37.5289 -0.0001 2.5143 0.0000
# 3 44.1026 37.5289 74.3609 0.0002 -14.9055 0.0001
# 4 0.0000 -0.0001 0.0002 20.3065 0.0000 5.2576
# 5 -27.3413 2.5143 -14.9055 0.0000 41.2269 0.0000
# 6 0.0000 0.0000 0.0001 5.2576 0.0000 40.0363
#
#
#
# Elastic Compliance Matrix: (Units=1/GPa)
#
#
# Indices 1 2 3 4 5 6 
#
# 1 0.012020 -0.002863 -0.004368 0.000000 0.006567 0.000000
# 2 -0.002863 0.014808 -0.006832 0.000000 -0.005272 0.000000
# 3 -0.004368 -0.006832 0.020473 0.000000 0.004922 0.000000
# 4 0.000000 0.000000 0.000000 0.050979 0.000000 -0.006695
# 5 0.006567 -0.005272 0.004922 0.000000 0.030712 0.000000
# 6 0.000000 0.000000 0.000000 -0.006695 0.000000 0.025856
#
#
# Mechanical properties :
#
#
# Convention : Reuss Voigt Hill
#
# Bulk Modulus (GPa) = 52.14991 57.87047 55.01019
# Shear Modulus (GPa) = 26.40410 31.85754 29.13082
#
# Velocity S-wave (km/s) = 3.27241 3.59449 3.43722
# Velocity P-wave (km/s) = 5.95218 6.37946 6.16952
#
# Compressibility (1/GPa) = 0.01917549
#
# Stress axis : x y z
#
# Youngs Moduli (GPa) = 83.19579 67.53312 48.84469
#
# Poissons Ratio (x) = 0.19332 0.21334
# Poissons Ratio (y) = 0.23816 0.33371
# Poissons Ratio (z) = 0.36338 0.46139
#
# Static dielectric constant tensor:
#      x y z
#    x 2.080310 0.000000 -0.031950 
#    y 0.000000 1.981520 0.000000 
#    z -0.031950 0.000000 1.947540 
# 
# From -- ./inp_files/36383.got.cif
#   From: 2010.05.17/outbox.cif.g08.bks.cpg/sg9_19_cif.got.tgz:36383.got - 2010.06.03 20:04:27.
