data_PCOD9137021
_publ_section_title
;
Structure prediction by ZEFSAII (Michael W. Deem and Ramdas Pophale) SiO2 
 PCOD9137021
Probable space group: C C
;
_chemical_formula_sum "Si O2"
_cell_formula_units_Z 28
_cell_length_a 15.694940
_cell_length_b 19.381771
_cell_length_c 8.660494
_cell_angle_alpha 90.000000
_cell_angle_beta 30.540394
_cell_angle_gamma 90.000000
_cell_volume 1338.702367
_symmetry_space_group_name_H-M "C C"
_symmetry_group_IT_number 9
_symmetry_cell_setting 'monoclinic'
loop_
_space_group_symop_operation_xyz
x,y,z
x,-y,1/2+z
1/2+x,1/2+y,z
1/2+x,1/2-y,1/2+z
loop_
_atom_site_type_symbol
_atom_site_label
_atom_site_fract_x
_atom_site_fract_y
_atom_site_fract_z
Si Si1 0.658220 0.340763 0.787800
Si Si2 0.641419 0.153271 0.373375
Si Si3 0.444866 0.054313 0.889696
Si Si4 0.469687 0.092621 0.207758
Si Si5 0.169397 0.810028 0.127242
Si Si6 0.355024 0.749974 0.253307
Si Si7 0.289906 0.658482 0.845487
O O1 0.775946 0.407752 0.592831
O O2 0.755124 0.274190 0.563148
O O3 0.623536 0.332080 0.024321
O O4 0.477285 0.348345 0.991963
O O5 0.590400 0.096348 0.575838
O O6 0.472467 0.181473 0.550283
O O7 0.719840 0.218670 0.344615
O O8 0.758949 0.121281 0.058704
O O9 0.455082 0.974381 0.836255
O O10 0.459309 0.067954 0.047731
O O11 0.310928 0.142137 0.477984
O O12 0.643339 0.132656 0.963902
O O13 0.005066 0.805306 0.491097
O O14 0.257274 0.736714 0.952484
#
# Coordination Sequence:
#
# PCOD9137021 Si02
#       7
#     4   4   4   4   4   4   4
#     4  10  22  40  65  97 138 168 226 275 337 396
#     4  10  22  39  64  95 137 167 226 265 338 393
#     4  10  24  46  64  94 131 187 219 272 331 404
#     4  11  24  44  71  92 138 181 225 273 334 396
#     4  10  22  41  65  96 131 177 220 279 337 389
#     4  10  22  37  61 100 131 173 214 283 327 396
#     4  11  22  39  68 100 132 171 222 285 330 396
#
# _framework density 20.915776000000001
#
# number of rings (size 3 to 8) (size 9 to 14) (size 15 to 20)
#    0.000    1.714    1.429    1.714   14.000    0.000 
#    2.571    1.429    0.000    0.000    0.000    0.000 
#    0.000    0.000    0.000    0.000    0.000    0.000 
#
# Total GULP energy -78011.944015 kJ/mol
# GULP energy per Si atom -5572.281715 kJ/mol
# Density = 2.086817 g / cm^3
# Si number density = 20.915776 Si / 1000 Ang^3
#
#
#
# Elastic Constant Matrix: (Units=GPa)
#
#
# Indices 1 2 3 4 5 6 
#
# 1 87.0771 43.9453 46.2260 -0.0036 -22.0173 0.0011
# 2 43.9453 102.8144 39.4948 -0.0030 -15.9866 0.0006
# 3 46.2260 39.4948 131.1868 -0.0102 -18.0076 0.0027
# 4 -0.0036 -0.0030 -0.0102 20.1795 0.0023 6.9663
# 5 -22.0173 -15.9866 -18.0076 0.0023 27.1912 -0.0013
# 6 0.0011 0.0006 0.0027 6.9663 -0.0013 29.0808
#
#
#
# Elastic Compliance Matrix: (Units=1/GPa)
#
#
# Indices 1 2 3 4 5 6 
#
# 1 0.018331 -0.004949 -0.003664 0.000000 0.009506 0.000000
# 2 -0.004949 0.012909 -0.001816 0.000000 0.002380 0.000000
# 3 -0.003664 -0.001816 0.009797 0.000004 0.002454 -0.000002
# 4 0.000000 0.000000 0.000004 0.054023 -0.000003 -0.012941
# 5 0.009506 0.002380 0.002454 -0.000003 0.047498 0.000002
# 6 0.000000 0.000000 -0.000002 -0.012941 0.000002 0.037487
#
#
# Mechanical properties :
#
#
# Convention : Reuss Voigt Hill
#
# Bulk Modulus (GPa) = 49.55739 64.49005 57.02372
# Shear Modulus (GPa) = 24.08134 28.05113 26.06624
#
# Velocity S-wave (km/s) = 3.39683 3.66614 3.53405
# Velocity P-wave (km/s) = 6.25539 6.98720 6.63139
#
# Compressibility (1/GPa) = 0.02017863
#
# Stress axis : x y z
#
# Youngs Moduli (GPa) = 54.55341 77.46389 102.06832
#
# Poissons Ratio (x) = 0.38339 0.37400
# Poissons Ratio (y) = 0.27000 0.18534
# Poissons Ratio (z) = 0.19990 0.14066
#
# Static dielectric constant tensor:
#      x y z
#    x 1.803500 0.000000 0.023020 
#    y 0.000000 1.751930 0.000000 
#    z 0.023020 0.000000 1.808170 
# 
# From -- ./inp_files/5552.got.cif
#   From: 2010.05.17/outbox.cif.g08.bks.cpg/sg9_3_cif.got.tgz:5552.got - 2010.06.03 20:04:27.
