data_PCOD9137227
_publ_section_title
;
Structure prediction by ZEFSAII (Michael W. Deem and Ramdas Pophale) SiO2 
 PCOD9137227
Probable space group: C C
;
_chemical_formula_sum "Si O2"
_cell_formula_units_Z 20
_cell_length_a 6.943745
_cell_length_b 12.441877
_cell_length_c 9.645085
_cell_angle_alpha 90.000000
_cell_angle_beta 76.715219
_cell_angle_gamma 90.000000
_cell_volume 810.971612
_symmetry_space_group_name_H-M "C C"
_symmetry_group_IT_number 9
_symmetry_cell_setting 'monoclinic'
loop_
_space_group_symop_operation_xyz
x,y,z
x,-y,1/2+z
1/2+x,1/2+y,z
1/2+x,1/2-y,1/2+z
loop_
_atom_site_type_symbol
_atom_site_label
_atom_site_fract_x
_atom_site_fract_y
_atom_site_fract_z
Si Si1 0.563410 0.517325 0.343750
Si Si2 0.228829 0.652722 0.322371
Si Si3 0.335610 0.037879 0.054605
Si Si4 0.184631 0.586362 0.817011
Si Si5 0.986235 0.698589 0.603925
O O1 0.397383 0.607473 0.401096
O O2 0.690330 0.473528 0.447677
O O3 0.137409 0.539797 0.283344
O O4 0.703957 0.572706 0.206201
O O5 0.532136 0.900090 0.471010
O O6 0.092262 0.724231 0.442243
O O7 0.329084 0.716434 0.182837
O O8 0.917626 0.075615 0.808232
O O9 0.130515 0.670068 0.708048
O O10 0.890712 0.416679 0.087601
#
# Coordination Sequence:
#
# PCOD9137227 Si02
#       5
#     4   4   4   4   4
#     4  10  22  40  65  99 132 175 235 271 355 407
#     4   9  24  39  66 101 140 174 239 277 354 419
#     4  11  21  39  70  95 131 190 220 288 351 411
#     4   9  22  41  67  97 136 174 232 283 344 419
#     4  11  21  45  68 102 141 179 236 293 342 424
#
# _framework density 24.661773
#
# number of rings (size 3 to 8) (size 9 to 14) (size 15 to 20)
#    1.200    0.800    2.000    1.200    2.800    0.000 
#    0.000   14.000    0.000    0.000    0.000    0.000 
#    0.000    0.000    0.000    0.000    0.000    0.000 
#
# Total GULP energy -55820.335366 kJ/mol
# GULP energy per Si atom -5582.033537 kJ/mol
# Density = 2.460564 g / cm^3
# Si number density = 24.661773 Si / 1000 Ang^3
#
#
#
# Elastic Constant Matrix: (Units=GPa)
#
#
# Indices 1 2 3 4 5 6 
#
# 1 70.3024 11.6421 6.2364 0.0000 0.8132 0.0000
# 2 11.6421 72.3485 19.5860 0.0000 -3.6220 0.0000
# 3 6.2364 19.5860 44.4358 0.0000 -11.3302 0.0000
# 4 0.0000 0.0000 0.0000 31.5308 0.0000 -7.3276
# 5 0.8132 -3.6220 -11.3302 0.0000 45.3390 0.0000
# 6 0.0000 0.0000 0.0000 -7.3276 0.0000 18.7079
#
#
#
# Elastic Compliance Matrix: (Units=1/GPa)
#
#
# Indices 1 2 3 4 5 6 
#
# 1 0.014691 -0.002034 -0.001361 0.000000 -0.000766 0.000000
# 2 -0.002034 0.015987 -0.006864 0.000000 -0.000402 0.000000
# 3 -0.001361 -0.006864 0.027328 0.000000 0.006305 0.000000
# 4 0.000000 0.000000 0.000000 0.034891 0.000000 0.013666
# 5 -0.000766 -0.000402 0.006305 0.000000 0.023613 0.000000
# 6 0.000000 0.000000 0.000000 0.013666 0.000000 0.058806
#
#
# Mechanical properties :
#
#
# Convention : Reuss Voigt Hill
#
# Bulk Modulus (GPa) = 26.67381 29.11282 27.89332
# Shear Modulus (GPa) = 24.00035 29.09035 26.54535
#
# Velocity S-wave (km/s) = 3.12297 3.43822 3.28438
# Velocity P-wave (km/s) = 4.88295 5.25283 5.07127
#
# Compressibility (1/GPa) = 0.03748995
#
# Stress axis : x y z
#
# Youngs Moduli (GPa) = 68.07052 62.54966 36.59197
#
# Poissons Ratio (x) = 0.12723 0.04979
# Poissons Ratio (y) = 0.13845 0.25115
# Poissons Ratio (z) = 0.09261 0.42932
#
# Static dielectric constant tensor:
#      x y z
#    x 2.020590 0.000000 -0.042860 
#    y 0.000000 1.962740 0.000000 
#    z -0.042860 0.000000 1.955620 
# 
# From -- ./inp_files/4742.got.cif
#   From: 2010.05.17/outbox.cif.g08.bks.cpg/sg9_3_cif.got.tgz:4742.got - 2010.06.03 20:04:27.
