data_PCOD9137086
_publ_section_title
;
Structure prediction by ZEFSAII (Michael W. Deem and Ramdas Pophale) SiO2 
 PCOD9137086
Probable space group: C C
;
_chemical_formula_sum "Si O2"
_cell_formula_units_Z 20
_cell_length_a 8.895085
_cell_length_b 18.983511
_cell_length_c 4.841093
_cell_angle_alpha 90.000000
_cell_angle_beta 85.055178
_cell_angle_gamma 90.000000
_cell_volume 814.424221
_symmetry_space_group_name_H-M "C C"
_symmetry_group_IT_number 9
_symmetry_cell_setting 'monoclinic'
loop_
_space_group_symop_operation_xyz
x,y,z
x,-y,1/2+z
1/2+x,1/2+y,z
1/2+x,1/2-y,1/2+z
loop_
_atom_site_type_symbol
_atom_site_label
_atom_site_fract_x
_atom_site_fract_y
_atom_site_fract_z
Si Si1 0.250000 0.606758 0.822960
Si Si2 0.148675 0.233892 0.415749
Si Si3 0.224478 0.148921 0.944299
Si Si4 0.952077 0.457536 0.143016
Si Si5 0.946939 0.881277 0.789374
O O1 0.179418 0.685078 0.860657
O O2 0.396852 0.599963 0.603630
O O3 0.121417 0.560648 0.706245
O O4 0.309945 0.594993 0.120451
O O5 0.159542 0.203633 0.723923
O O6 0.992435 0.202386 0.309906
O O7 0.272468 0.194068 0.203415
O O8 0.347314 0.103870 0.771060
O O9 0.098801 0.096990 0.104559
O O10 0.922409 0.527616 0.328794
#
# Coordination Sequence:
#
# PCOD9137086 Si02
#       5
#     4   4   4   4   4
#     4  12  24  40  71  98 143 172 218 290 335 407
#     4  10  22  38  70 103 134 162 223 280 359 382
#     4  10  22  44  69  92 137 169 234 275 326 411
#     4  12  28  48  66  98 139 192 230 265 335 404
#     4  10  22  42  64 103 127 169 225 272 353 390
#
# _framework density 24.557229
#
# number of rings (size 3 to 8) (size 9 to 14) (size 15 to 20)
#    1.200    0.000    2.000    3.600    5.600    0.000 
#    0.000    6.000    0.000    0.000    0.000    0.000 
#    0.000    0.000    0.000    0.000    0.000    0.000 
#
# Total GULP energy -55764.542543 kJ/mol
# GULP energy per Si atom -5576.454254 kJ/mol
# Density = 2.450134 g / cm^3
# Si number density = 24.557229 Si / 1000 Ang^3
#
#
#
# Elastic Constant Matrix: (Units=GPa)
#
#
# Indices 1 2 3 4 5 6 
#
# 1 63.6170 11.0283 11.0190 0.0000 -12.6818 0.0000
# 2 11.0283 35.0727 8.4069 0.0000 -6.0032 0.0000
# 3 11.0190 8.4069 135.7558 0.0000 -11.0005 0.0000
# 4 0.0000 0.0000 0.0000 -6.3218 0.0000 -60.7013
# 5 -12.6818 -6.0032 -11.0005 0.0000 35.5274 0.0000
# 6 0.0000 0.0000 0.0000 -60.7013 0.0000 -108.7707
#
#
#
# Elastic Compliance Matrix: (Units=1/GPa)
#
#
# Indices 1 2 3 4 5 6 
#
# 1 0.017683 -0.004474 -0.000726 0.000000 0.005331 0.000000
# 2 -0.004474 0.030775 -0.001283 0.000000 0.003206 0.000000
# 3 -0.000726 -0.001283 0.007658 0.000000 0.001895 0.000000
# 4 0.000000 0.000000 0.000000 0.036293 0.000000 -0.020254
# 5 0.005331 0.003206 0.001895 0.000000 0.031179 0.000000
# 6 0.000000 0.000000 0.000000 -0.020254 0.000000 0.002109
#
#
# Mechanical properties :
#
#
# Convention : Reuss Voigt Hill
#
# Bulk Modulus (GPa) = 23.17453 32.81709 27.99581
# Shear Modulus (GPa) = 32.66974 -2.31359 15.17807
#
# Velocity S-wave (km/s) = 3.65136 -0.97168 2.48880
# Velocity P-wave (km/s) = 5.21862 3.48334 4.43664
#
# Compressibility (1/GPa) = 0.04315083
#
# Stress axis : x y z
#
# Youngs Moduli (GPa) = 56.55090 32.49375 130.58016
#
# Poissons Ratio (x) = 0.14537 0.09484
# Poissons Ratio (y) = 0.25299 0.16752
# Poissons Ratio (z) = 0.04107 0.04169
#
# Static dielectric constant tensor:
#      x y z
#    x 2.042490 0.000000 -0.046680 
#    y 0.000000 1.997560 0.000000 
#    z -0.046680 0.000000 1.886410 
# 
# From -- ./inp_files/489.got.cif
#   From: 2010.05.17/outbox.cif.g08.bks.cpg/sg9_1_cif.got.tgz:489.got - 2010.06.03 20:04:27.
