data_PCOD9137039
_publ_section_title
;
Structure prediction by ZEFSAII (Michael W. Deem and Ramdas Pophale) SiO2 
 PCOD9137039
Probable space group: C C
;
_chemical_formula_sum "Si O2"
_cell_formula_units_Z 24
_cell_length_a 7.616266
_cell_length_b 18.216884
_cell_length_c 8.060351
_cell_angle_alpha 90.000000
_cell_angle_beta 60.659415
_cell_angle_gamma 90.000000
_cell_volume 974.873709
_symmetry_space_group_name_H-M "C C"
_symmetry_group_IT_number 9
_symmetry_cell_setting 'monoclinic'
loop_
_space_group_symop_operation_xyz
x,y,z
x,-y,1/2+z
1/2+x,1/2+y,z
1/2+x,1/2-y,1/2+z
loop_
_atom_site_type_symbol
_atom_site_label
_atom_site_fract_x
_atom_site_fract_y
_atom_site_fract_z
Si Si1 0.278390 0.765999 0.341310
Si Si2 0.866513 0.571451 0.445980
Si Si3 0.181383 0.293641 0.218117
Si Si4 0.120314 0.199197 0.558721
Si Si5 0.834145 0.909087 0.772823
Si Si6 0.589396 0.524704 0.863068
O O1 0.203681 0.769861 0.565659
O O2 0.467612 0.822612 0.249390
O O3 0.149294 0.779394 0.237139
O O4 0.325809 0.678029 0.310501
O O5 0.807733 0.651247 0.405169
O O6 0.696146 0.568619 0.667883
O O7 0.782854 0.509207 0.365322
O O8 0.100824 0.565338 0.374349
O O9 0.132647 0.267193 0.425907
O O10 0.395591 0.332966 0.133622
O O11 0.954956 0.958903 0.849160
O O12 0.950723 0.926833 0.547324
#
# Coordination Sequence:
#
# PCOD9137039 Si02
#       6
#     4   4   4   4   4   4
#     4  11  23  40  64  95 131 173 216 270 333 399
#     4  11  23  43  66  97 130 171 226 274 329 399
#     4  10  22  38  58  90 130 166 208 260 328 386
#     4  11  23  40  64  95 131 173 216 270 333 399
#     4  11  23  43  66  97 130 171 226 274 329 399
#     4  10  24  42  68  94 130 176 220 276 330 384
#
# _framework density 24.618576000000001
#
# number of rings (size 3 to 8) (size 9 to 14) (size 15 to 20)
#    0.000    1.333    0.000    6.000    4.667    0.000 
#    0.000    0.000    0.000    0.000    0.000    0.000 
#    0.000    0.000    0.000    0.000    0.000    0.000 
#
# Total GULP energy -66903.570773 kJ/mol
# GULP energy per Si atom -5575.297564 kJ/mol
# Density = 2.456254 g / cm^3
# Si number density = 24.618576 Si / 1000 Ang^3
#
#
#
# Elastic Constant Matrix: (Units=GPa)
#
#
# Indices 1 2 3 4 5 6 
#
# 1 176.6050 36.7233 56.2760 0.0000 -18.0992 0.0000
# 2 36.7233 67.7516 -9.8615 0.0000 -2.2814 0.0000
# 3 56.2760 -9.8615 56.2844 0.0000 9.6863 0.0000
# 4 0.0000 0.0000 0.0000 24.0956 0.0000 -2.6024
# 5 -18.0992 -2.2814 9.6863 0.0000 49.2988 0.0000
# 6 0.0000 0.0000 0.0000 -2.6024 0.0000 15.6899
#
#
#
# Elastic Compliance Matrix: (Units=1/GPa)
#
#
# Indices 1 2 3 4 5 6 
#
# 1 0.013939 -0.009764 -0.017027 0.000000 0.008011 0.000000
# 2 -0.009764 0.021987 0.014549 0.000000 -0.005426 0.000000
# 3 -0.017027 0.014549 0.039641 0.000000 -0.013366 0.000000
# 4 0.000000 0.000000 0.000000 0.042258 0.000000 0.007009
# 5 0.008011 -0.005426 -0.013366 0.000000 0.025601 0.000000
# 6 0.000000 0.000000 0.000000 0.007009 0.000000 0.064898
#
#
# Mechanical properties :
#
#
# Convention : Reuss Voigt Hill
#
# Bulk Modulus (GPa) = 19.57607 51.87963 35.72785
# Shear Modulus (GPa) = 20.01315 32.31708 26.16511
#
# Velocity S-wave (km/s) = 2.85428 3.62707 3.26363
# Velocity P-wave (km/s) = 4.33954 6.21771 5.36151
#
# Compressibility (1/GPa) = 0.05108277
#
# Stress axis : x y z
#
# Youngs Moduli (GPa) = 71.73915 45.48115 25.22672
#
# Poissons Ratio (x) = 0.44408 0.42953
# Poissons Ratio (y) = 0.70047 -0.36702
# Poissons Ratio (z) = 1.22149 -0.66169
#
# Static dielectric constant tensor:
#      x y z
#    x 1.977610 0.000000 -0.035370 
#    y 0.000000 2.754850 0.000000 
#    z -0.035370 0.000000 2.053880 
# 
# From -- ./inp_files/5320.got.cif
#   From: 2010.05.17/outbox.cif.g08.bks.cpg/sg9_3_cif.got.tgz:5320.got - 2010.06.03 20:04:27.
