data_PCOD9137893
_publ_section_title
;
Structure prediction by ZEFSAII (Michael W. Deem and Ramdas Pophale) SiO2 
 PCOD9137893
Probable space group: C C
;
_chemical_formula_sum "Si O2"
_cell_formula_units_Z 24
_cell_length_a 11.439876
_cell_length_b 9.519379
_cell_length_c 9.160620
_cell_angle_alpha 90.000000
_cell_angle_beta 96.130039
_cell_angle_gamma 90.000000
_cell_volume 991.892079
_symmetry_space_group_name_H-M "C C"
_symmetry_group_IT_number 9
_symmetry_cell_setting 'monoclinic'
loop_
_space_group_symop_operation_xyz
x,y,z
x,-y,1/2+z
1/2+x,1/2+y,z
1/2+x,1/2-y,1/2+z
loop_
_atom_site_type_symbol
_atom_site_label
_atom_site_fract_x
_atom_site_fract_y
_atom_site_fract_z
Si Si1 0.097080 0.563594 0.662950
Si Si2 0.788231 0.733099 0.810910
Si Si3 0.572004 0.564037 0.644749
Si Si4 0.955144 0.209146 0.055755
Si Si5 0.831993 0.949359 0.295927
Si Si6 0.514159 0.173066 0.968424
O O1 0.232967 0.600587 0.672026
O O2 0.064934 0.610926 0.823948
O O3 0.067950 0.405548 0.615150
O O4 0.021976 0.647901 0.532529
O O5 0.681217 0.632885 0.746815
O O6 0.877835 0.751866 0.686107
O O7 0.872846 0.663309 0.942929
O O8 0.778508 0.900462 0.841584
O O9 0.562162 0.402387 0.591500
O O10 0.455803 0.558998 0.729934
O O11 0.548572 0.664407 0.501602
O O12 0.858544 0.148396 0.935423
#
# Coordination Sequence:
#
# PCOD9137893 Si02
#       6
#     4   4   4   4   4   4
#     4  11  26  44  73 104 143 185 243 303 357 433
#     4  10  22  45  68  99 141 187 235 297 352 429
#     4  11  23  43  71  98 139 193 234 288 361 430
#     4  10  24  44  66 103 139 181 240 294 360 425
#     4  11  23  41  72 103 138 185 238 293 363 424
#     4  11  24  45  72 101 142 195 238 295 365 425
#
# _framework density 24.196183999999999
#
# number of rings (size 3 to 8) (size 9 to 14) (size 15 to 20)
#    0.000    1.333    3.333    1.000    4.667    2.667 
#    9.000    0.000    0.000    0.000    0.000    0.000 
#    0.000    0.000    0.000    0.000    0.000    0.000 
#
# Total GULP energy -66907.503313 kJ/mol
# GULP energy per Si atom -5575.625276 kJ/mol
# Density = 2.414111 g / cm^3
# Si number density = 24.196184 Si / 1000 Ang^3
#
#
#
# Elastic Constant Matrix: (Units=GPa)
#
#
# Indices 1 2 3 4 5 6 
#
# 1 94.2450 37.0930 42.9179 0.0000 33.3995 0.0000
# 2 37.0930 70.6909 3.0426 0.0000 4.2948 0.0000
# 3 42.9179 3.0426 85.8036 0.0000 21.5201 0.0000
# 4 0.0000 0.0000 0.0000 44.0238 0.0000 10.5025
# 5 33.3995 4.2948 21.5201 0.0000 52.4433 0.0000
# 6 0.0000 0.0000 0.0000 10.5025 0.0000 31.6342
#
#
#
# Elastic Compliance Matrix: (Units=1/GPa)
#
#
# Indices 1 2 3 4 5 6 
#
# 1 0.021944 -0.010570 -0.008152 0.000000 -0.009764 0.000000
# 2 -0.010570 0.019313 0.003690 0.000000 0.003636 0.000000
# 3 -0.008152 0.003690 0.016024 0.000000 -0.001686 0.000000
# 4 0.000000 0.000000 0.000000 0.024669 0.000000 -0.008190
# 5 -0.009764 0.003636 -0.001686 0.000000 0.025681 0.000000
# 6 0.000000 0.000000 0.000000 -0.008190 0.000000 0.034330
#
#
# Mechanical properties :
#
#
# Convention : Reuss Voigt Hill
#
# Bulk Modulus (GPa) = 36.74242 46.31627 41.52935
# Shear Modulus (GPa) = 27.60955 36.79933 32.20444
#
# Velocity S-wave (km/s) = 3.38164 3.90407 3.65221
# Velocity P-wave (km/s) = 5.51955 6.28537 5.91487
#
# Compressibility (1/GPa) = 0.02721650
#
# Stress axis : x y z
#
# Youngs Moduli (GPa) = 45.57130 51.77923 62.40608
#
# Poissons Ratio (x) = 0.54732 0.50874
# Poissons Ratio (y) = 0.48170 -0.23030
# Poissons Ratio (z) = 0.37150 -0.19108
#
# Static dielectric constant tensor:
#      x y z
#    x 1.966820 0.000000 0.012170 
#    y 0.000000 1.999500 0.000000 
#    z 0.012170 0.000000 2.055620 
# 
# From -- ./inp_files/17492.got.cif
#   From: 2010.05.17/outbox.cif.g08.bks.cpg/sg9_9_cif.got.tgz:17492.got - 2010.06.03 20:04:27.
