data_PCOD9137886
_publ_section_title
;
Structure prediction by ZEFSAII (Michael W. Deem and Ramdas Pophale) SiO2 
 PCOD9137886
Probable space group: C C
;
_chemical_formula_sum "Si O2"
_cell_formula_units_Z 32
_cell_length_a 12.220155
_cell_length_b 7.868933
_cell_length_c 20.737784
_cell_angle_alpha 90.000000
_cell_angle_beta 34.605834
_cell_angle_gamma 90.000000
_cell_volume 1132.525136
_symmetry_space_group_name_H-M "C C"
_symmetry_group_IT_number 9
_symmetry_cell_setting 'monoclinic'
loop_
_space_group_symop_operation_xyz
x,y,z
x,-y,1/2+z
1/2+x,1/2+y,z
1/2+x,1/2-y,1/2+z
loop_
_atom_site_type_symbol
_atom_site_label
_atom_site_fract_x
_atom_site_fract_y
_atom_site_fract_z
Si Si1 0.680950 0.373829 0.102330
Si Si2 0.547455 0.694347 0.906212
Si Si3 0.152776 0.982025 0.745074
Si Si4 0.076128 0.645228 0.844916
Si Si5 0.474672 0.048737 0.266366
Si Si6 0.714458 0.030563 0.407898
Si Si7 0.786657 0.138068 0.554839
Si Si8 0.083570 0.813998 0.017137
O O1 0.575417 0.219371 0.190950
O O2 0.880243 0.326643 0.970946
O O3 0.862358 0.718215 0.969157
O O4 0.560166 0.409327 0.096715
O O5 0.673713 0.641767 0.783444
O O6 0.643449 0.778373 0.923289
O O7 0.411628 0.530156 0.979515
O O8 0.188588 0.817963 0.771023
O O9 0.933942 0.959245 0.824139
O O10 0.248902 0.012994 0.629487
O O11 0.058171 0.525341 0.792271
O O12 0.178688 0.562030 0.856688
O O13 0.254326 0.099036 0.390651
O O14 0.562050 0.906919 0.173537
O O15 0.629314 0.890256 0.499545
O O16 0.888433 0.179081 0.572542
#
# Coordination Sequence:
#
# PCOD9137886 Si02
#       8
#     4   4   4   4   4   4   4   4
#     4  11  21  42  66  95 139 188 230 293 372 420
#     4  10  22  45  68  94 139 177 237 300 352 433
#     4  11  23  43  67 100 136 183 235 295 363 427
#     4  10  24  42  69 100 140 181 244 296 353 437
#     4  11  23  43  72  99 150 191 232 314 360 426
#     4  11  22  43  71  96 137 186 230 302 364 420
#     4   9  24  43  71 103 140 190 238 299 373 429
#     4  11  23  41  68 105 141 186 250 291 365 450
#
# _framework density 28.255445999999999
#
# number of rings (size 3 to 8) (size 9 to 14) (size 15 to 20)
#    0.000    1.500    2.500    1.500    3.500    3.000 
#    0.000    1.250    0.000    0.000    0.000    0.000 
#    0.000    0.000    0.000    0.000    0.000    0.000 
#
# Total GULP energy -89383.983441 kJ/mol
# GULP energy per Si atom -5586.498965 kJ/mol
# Density = 2.819114 g / cm^3
# Si number density = 28.255446 Si / 1000 Ang^3
#
#
#
# Elastic Constant Matrix: (Units=GPa)
#
#
# Indices 1 2 3 4 5 6 
#
# 1 135.0701 51.3122 31.5850 0.0000 18.9231 0.0000
# 2 51.3122 115.7704 48.7441 0.0000 9.4558 0.0000
# 3 31.5850 48.7441 137.0857 0.0000 24.1647 0.0000
# 4 0.0000 0.0000 0.0000 48.1437 0.0000 3.9492
# 5 18.9231 9.4558 24.1647 0.0000 52.3281 0.0000
# 6 0.0000 0.0000 0.0000 3.9492 0.0000 41.1522
#
#
#
# Elastic Compliance Matrix: (Units=1/GPa)
#
#
# Indices 1 2 3 4 5 6 
#
# 1 0.009263 -0.003750 -0.000359 0.000000 -0.002506 0.000000
# 2 -0.003750 0.011678 -0.003435 0.000000 0.000832 0.000000
# 3 -0.000359 -0.003435 0.009217 0.000000 -0.003506 0.000000
# 4 0.000000 0.000000 0.000000 0.020936 0.000000 -0.002009
# 5 -0.002506 0.000832 -0.003506 0.000000 0.021485 0.000000
# 6 0.000000 0.000000 0.000000 -0.002009 0.000000 0.024493
#
#
# Mechanical properties :
#
#
# Convention : Reuss Voigt Hill
#
# Bulk Modulus (GPa) = 66.35661 72.35654 69.35657
# Shear Modulus (GPa) = 42.66812 45.41046 44.03929
#
# Velocity S-wave (km/s) = 3.89020 4.01326 3.95221
# Velocity P-wave (km/s) = 6.61163 6.86576 6.73989
#
# Compressibility (1/GPa) = 0.01507009
#
# Stress axis : x y z
#
# Youngs Moduli (GPa) = 107.95424 85.63007 108.49680
#
# Poissons Ratio (x) = 0.32109 0.03897
# Poissons Ratio (y) = 0.40480 0.37270
# Poissons Ratio (z) = 0.03877 0.29415
#
# Static dielectric constant tensor:
#      x y z
#    x 2.153950 0.000000 0.036420 
#    y 0.000000 2.462460 0.000000 
#    z 0.036420 0.000000 2.358090 
# 
# From -- ./inp_files/36715.got.cif
#   From: 2010.05.17/outbox.cif.g08.bks.cpg/sg9_19_cif.got.tgz:36715.got - 2010.06.03 20:04:27.
