data_PCOD9137151
_publ_section_title
;
Structure prediction by ZEFSAII (Michael W. Deem and Ramdas Pophale) SiO2 
 PCOD9137151
Probable space group: C C
;
_chemical_formula_sum "Si O2"
_cell_formula_units_Z 28
_cell_length_a 5.136547
_cell_length_b 19.759177
_cell_length_c 13.666697
_cell_angle_alpha 90.000000
_cell_angle_beta 75.162272
_cell_angle_gamma 90.000000
_cell_volume 1340.834493
_symmetry_space_group_name_H-M "C C"
_symmetry_group_IT_number 9
_symmetry_cell_setting 'monoclinic'
loop_
_space_group_symop_operation_xyz
x,y,z
x,-y,1/2+z
1/2+x,1/2+y,z
1/2+x,1/2-y,1/2+z
loop_
_atom_site_type_symbol
_atom_site_label
_atom_site_fract_x
_atom_site_fract_y
_atom_site_fract_z
Si Si1 0.225760 0.268978 0.783410
Si Si2 0.164575 0.303610 0.374593
Si Si3 0.099766 0.456500 0.339920
Si Si4 0.555620 0.480651 0.930439
Si Si5 0.595305 0.828819 0.607499
Si Si6 0.597067 0.385072 0.767192
Si Si7 0.838069 0.973397 0.641348
O O1 0.439247 0.225671 0.823927
O O2 0.246910 0.274606 0.662782
O O3 0.313549 0.345704 0.802548
O O4 0.934571 0.240754 0.840146
O O5 0.206619 0.380522 0.335880
O O6 0.075848 0.307319 0.497091
O O7 0.292364 0.498521 0.394012
O O8 0.124764 0.488675 0.229941
O O9 0.790537 0.463267 0.402226
O O10 0.670025 0.414083 0.865966
O O11 0.462033 0.476924 0.050175
O O12 0.314216 0.838628 0.692192
O O13 0.731605 0.903849 0.601235
O O14 0.560207 0.447213 0.696441
#
# Coordination Sequence:
#
# PCOD9137151 Si02
#       7
#     4   4   4   4   4   4   4
#     4  11  26  44  65  99 131 181 236 281 325 406
#     4  12  25  43  71  95 137 182 229 279 342 414
#     4  11  23  40  65 101 134 163 229 278 333 415
#     4  11  22  40  67 101 131 172 217 280 346 406
#     4  11  22  46  73  93 133 188 226 278 351 411
#     4  10  22  44  70  96 137 174 235 278 340 414
#     4  10  22  39  69 101 131 176 218 282 353 410
#
# _framework density 20.882518999999998
#
# number of rings (size 3 to 8) (size 9 to 14) (size 15 to 20)
#    0.000    1.143    4.286    1.714    4.000    0.000 
#    5.143    0.000    0.000    0.000    0.000    0.000 
#    0.000    0.000    0.000    0.000    0.000    0.000 
#
# Total GULP energy -78100.005406 kJ/mol
# GULP energy per Si atom -5578.571815 kJ/mol
# Density = 2.083499 g / cm^3
# Si number density = 20.882519 Si / 1000 Ang^3
#
#
#
# Elastic Constant Matrix: (Units=GPa)
#
#
# Indices 1 2 3 4 5 6 
#
# 1 86.8874 11.1914 9.1302 0.0000 -3.8321 0.0000
# 2 11.1914 48.2306 26.1227 0.0000 6.4241 0.0000
# 3 9.1302 26.1227 78.8841 0.0000 2.8651 0.0000
# 4 0.0000 0.0000 0.0000 32.3189 0.0000 -2.4336
# 5 -3.8321 6.4241 2.8651 0.0000 26.6828 0.0000
# 6 0.0000 0.0000 0.0000 -2.4336 0.0000 30.7350
#
#
#
# Elastic Compliance Matrix: (Units=1/GPa)
#
#
# Indices 1 2 3 4 5 6 
#
# 1 0.012040 -0.002826 -0.000547 0.000000 0.002468 0.000000
# 2 -0.002826 0.026670 -0.008289 0.000000 -0.005937 0.000000
# 3 -0.000547 -0.008289 0.015476 0.000000 0.000255 0.000000
# 4 0.000000 0.000000 0.000000 0.031127 0.000000 0.002465
# 5 0.002468 -0.005937 0.000255 0.000000 0.039234 0.000000
# 6 0.000000 0.000000 0.000000 0.002465 0.000000 0.032731
#
#
# Mechanical properties :
#
#
# Convention : Reuss Voigt Hill
#
# Bulk Modulus (GPa) = 32.40395 34.09899 33.25147
# Shear Modulus (GPa) = 26.19326 29.11786 27.65556
#
# Velocity S-wave (km/s) = 3.54547 3.73817 3.64310
# Velocity P-wave (km/s) = 5.68432 5.91577 5.80120
#
# Compressibility (1/GPa) = 0.03086044
#
# Stress axis : x y z
#
# Youngs Moduli (GPa) = 83.05985 37.49573 64.61687
#
# Poissons Ratio (x) = 0.10596 0.03537
# Poissons Ratio (y) = 0.23472 0.53561
# Poissons Ratio (z) = 0.04546 0.31080
#
# Static dielectric constant tensor:
#      x y z
#    x 1.811470 0.000000 0.011380 
#    y 0.000000 1.791000 0.000000 
#    z 0.011380 0.000000 1.739710 
# 
# From -- ./inp_files/13169.got.cif
#   From: 2010.05.17/outbox.cif.g08.bks.cpg/sg9_7_cif.got.tgz:13169.got - 2010.06.03 20:04:27.
