data_PCOD9137215
_publ_section_title
;
Structure prediction by ZEFSAII (Michael W. Deem and Ramdas Pophale) SiO2 
 PCOD9137215
Probable space group: C C
;
_chemical_formula_sum "Si O2"
_cell_formula_units_Z 32
_cell_length_a 29.031116
_cell_length_b 4.834110
_cell_length_c 8.070470
_cell_angle_alpha 90.000000
_cell_angle_beta 96.248518
_cell_angle_gamma 90.000000
_cell_volume 1125.877956
_symmetry_space_group_name_H-M "C C"
_symmetry_group_IT_number 9
_symmetry_cell_setting 'monoclinic'
loop_
_space_group_symop_operation_xyz
x,y,z
x,-y,1/2+z
1/2+x,1/2+y,z
1/2+x,1/2-y,1/2+z
loop_
_atom_site_type_symbol
_atom_site_label
_atom_site_fract_x
_atom_site_fract_y
_atom_site_fract_z
Si Si1 0.840130 0.311814 0.289980
Si Si2 0.535088 0.937138 0.363222
Si Si3 0.781900 0.872118 0.069716
Si Si4 0.157268 0.171074 0.999653
Si Si5 0.217830 0.275675 0.319350
Si Si6 0.904677 0.188782 0.819571
Si Si7 0.093926 0.788446 0.175771
Si Si8 0.465225 0.053298 0.602676
O O1 0.807245 0.147813 0.148174
O O2 0.859237 0.619841 0.280427
O O3 0.815444 0.281527 0.457187
O O4 0.886810 0.122290 0.309950
O O5 0.550974 0.224588 0.282715
O O6 0.510838 0.789681 0.195816
O O7 0.577304 0.851559 0.496941
O O8 0.490649 0.910723 0.460292
O O9 0.761779 0.695294 0.217158
O O10 0.739972 0.978352 0.933716
O O11 0.134888 0.289323 0.823052
O O12 0.191578 0.930680 0.936613
O O13 0.183365 0.338184 0.153500
O O14 0.115090 0.059834 0.099807
O O15 0.940597 0.317525 0.702050
O O16 0.927293 0.250981 0.006248
#
# Coordination Sequence:
#
# PCOD9137215 Si02
#       8
#     4   4   4   4   4   4   4   4
#     4  11  24  42  69 101 140 189 240 295 361 431
#     4   9  20  41  64  94 133 179 226 288 356 429
#     4  10  24  41  64  97 133 187 236 297 362 433
#     4  10  24  42  64  98 134 182 234 302 366 436
#     4  10  24  43  62  93 134 172 235 292 365 433
#     4  11  22  42  67 101 140 188 241 295 354 434
#     4  10  22  40  65  91 130 173 229 286 357 431
#     4   9  20  39  63  93 136 180 233 291 355 425
#
# _framework density 28.422263000000001
#
# number of rings (size 3 to 8) (size 9 to 14) (size 15 to 20)
#    0.000    2.000    0.000    1.500    0.000   15.000 
#    0.000   18.750    0.000    0.000    0.000    0.000 
#    0.000    0.000    0.000    0.000    0.000    0.000 
#
# Total GULP energy -89232.824398 kJ/mol
# GULP energy per Si atom -5577.051525 kJ/mol
# Density = 2.835757 g / cm^3
# Si number density = 28.422263 Si / 1000 Ang^3
#
#
#
# Elastic Constant Matrix: (Units=GPa)
#
#
# Indices 1 2 3 4 5 6 
#
# 1 128.5866 33.5964 50.8916 0.0000 -1.1060 0.0000
# 2 33.5964 56.7608 22.7576 0.0000 -7.6951 0.0000
# 3 50.8916 22.7576 129.1070 0.0000 17.1242 0.0000
# 4 0.0000 0.0000 0.0000 17.5770 0.0000 18.2148
# 5 -1.1060 -7.6951 17.1242 0.0000 97.9062 0.0000
# 6 0.0000 0.0000 0.0000 18.2148 0.0000 20.1983
#
#
#
# Elastic Compliance Matrix: (Units=1/GPa)
#
#
# Indices 1 2 3 4 5 6 
#
# 1 0.010315 -0.004752 -0.003270 0.000000 0.000315 0.000000
# 2 -0.004752 0.021588 -0.002201 0.000000 0.002028 0.000000
# 3 -0.003270 -0.002201 0.009675 0.000000 -0.001902 0.000000
# 4 0.000000 0.000000 0.000000 0.868903 0.000000 -0.783576
# 5 0.000315 0.002028 -0.001902 0.000000 0.010710 0.000000
# 6 0.000000 0.000000 0.000000 -0.783576 0.000000 0.756138
#
#
# Mechanical properties :
#
#
# Convention : Reuss Voigt Hill
#
# Bulk Modulus (GPa) = 47.32256 58.77174 53.04715
# Shear Modulus (GPa) = 2.93286 40.95022 21.94154
#
# Velocity S-wave (km/s) = 1.01692 3.79988 2.78147
# Velocity P-wave (km/s) = 4.25027 6.32258 5.38701
#
# Compressibility (1/GPa) = 0.02113157
#
# Stress axis : x y z
#
# Youngs Moduli (GPa) = 96.94249 46.32249 103.36003
#
# Poissons Ratio (x) = 0.22011 0.33802
# Poissons Ratio (y) = 0.46064 0.22752
# Poissons Ratio (z) = 0.31704 0.10197
#
# Static dielectric constant tensor:
#      x y z
#    x 2.338420 0.000000 0.039290 
#    y 0.000000 2.217960 0.000000 
#    z 0.039290 0.000000 2.173330 
# 
# From -- ./inp_files/12634.got.cif
#   From: 2010.05.17/outbox.cif.g08.bks.cpg/sg9_7_cif.got.tgz:12634.got - 2010.06.03 20:04:27.
