data_PCOD9137097
_publ_section_title
;
Structure prediction by ZEFSAII (Michael W. Deem and Ramdas Pophale) SiO2 
 PCOD9137097
Probable space group: C C
;
_chemical_formula_sum "Si O2"
_cell_formula_units_Z 32
_cell_length_a 5.118025
_cell_length_b 26.991955
_cell_length_c 9.061639
_cell_angle_alpha 90.000000
_cell_angle_beta 100.517276
_cell_angle_gamma 90.000000
_cell_volume 1230.793894
_symmetry_space_group_name_H-M "C C"
_symmetry_group_IT_number 9
_symmetry_cell_setting 'monoclinic'
loop_
_space_group_symop_operation_xyz
x,y,z
x,-y,1/2+z
1/2+x,1/2+y,z
1/2+x,1/2-y,1/2+z
loop_
_atom_site_type_symbol
_atom_site_label
_atom_site_fract_x
_atom_site_fract_y
_atom_site_fract_z
Si Si1 0.125000 0.718956 0.997450
Si Si2 0.265764 0.981292 0.003188
Si Si3 0.762969 0.889782 0.542610
Si Si4 0.054713 0.598708 0.703317
Si Si5 0.217053 0.851271 0.772016
Si Si6 0.998842 0.116745 0.541444
Si Si7 0.442923 0.948896 0.724690
Si Si8 0.701560 0.248361 0.676278
O O1 0.088611 0.661083 0.041686
O O2 0.151469 0.716179 0.820419
O O3 0.407515 0.738645 0.087245
O O4 0.898359 0.753254 0.053169
O O5 0.026501 0.941764 0.994682
O O6 0.374541 0.986020 0.850449
O O7 0.498659 0.954602 0.122145
O O8 0.231865 0.033525 0.077960
O O9 0.700909 0.906774 0.372115
O O10 0.691214 0.933449 0.649788
O O11 0.047745 0.867978 0.613148
O O12 0.245884 0.627818 0.612050
O O13 0.762687 0.622874 0.669621
O O14 0.029192 0.852928 0.895652
O O15 0.409600 0.897420 0.810889
O O16 0.325757 0.797312 0.767582
#
# Coordination Sequence:
#
# PCOD9137097 Si02
#       8
#     4   4   4   4   4   4   4   4
#     4  11  25  44  69 101 134 175 221 275 339 402
#     4   9  22  36  65  90 131 173 224 265 324 379
#     4  11  24  38  67  94 135 169 220 270 333 387
#     4  10  22  39  61  93 132 165 224 267 321 380
#     4  10  23  40  67  90 134 174 216 267 331 391
#     4   9  22  40  60  92 128 171 221 263 322 383
#     4  11  20  42  61  95 128 176 218 271 322 389
#     4  11  24  45  68 101 134 173 222 272 342 399
#
# _framework density 25.999479000000001
#
# number of rings (size 3 to 8) (size 9 to 14) (size 15 to 20)
#    0.750    1.000    1.250    2.250    1.750    3.000 
#    0.000    2.500    0.000    0.000    0.000    0.000 
#    0.000    0.000    0.000    0.000    0.000    0.000 
#
# Total GULP energy -89206.103504 kJ/mol
# GULP energy per Si atom -5575.381469 kJ/mol
# Density = 2.594030 g / cm^3
# Si number density = 25.999479 Si / 1000 Ang^3
#
#
#
# Elastic Constant Matrix: (Units=GPa)
#
#
# Indices 1 2 3 4 5 6 
#
# 1 93.3143 -8.7488 35.3441 0.0000 -19.8847 0.0000
# 2 -8.7488 53.7922 15.2305 0.0000 -11.8842 0.0000
# 3 35.3441 15.2305 147.5325 0.0000 -1.6772 0.0000
# 4 0.0000 0.0000 0.0000 37.1661 0.0000 -6.4208
# 5 -19.8847 -11.8842 -1.6772 0.0000 40.3369 0.0000
# 6 0.0000 0.0000 0.0000 -6.4208 0.0000 22.3515
#
#
#
# Elastic Compliance Matrix: (Units=1/GPa)
#
#
# Indices 1 2 3 4 5 6 
#
# 1 0.014545 0.005380 -0.003942 0.000000 0.008591 0.000000
# 2 0.005380 0.022474 -0.003505 0.000000 0.009128 0.000000
# 3 -0.003942 -0.003505 0.008054 0.000000 -0.002641 0.000000
# 4 0.000000 0.000000 0.000000 0.028311 0.000000 0.008133
# 5 0.008591 0.009128 -0.002641 0.000000 0.031606 0.000000
# 6 0.000000 0.000000 0.000000 0.008133 0.000000 0.047076
#
#
# Mechanical properties :
#
#
# Convention : Reuss Voigt Hill
#
# Bulk Modulus (GPa) = 24.42715 42.03226 33.22971
# Shear Modulus (GPa) = 29.43822 36.82512 33.13167
#
# Velocity S-wave (km/s) = 3.36856 3.76756 3.57364
# Velocity P-wave (km/s) = 4.95432 5.92687 5.46228
#
# Compressibility (1/GPa) = 0.04093806
#
# Stress axis : x y z
#
# Youngs Moduli (GPa) = 68.75345 44.49582 124.15561
#
# Poissons Ratio (x) = -0.23938 0.48944
# Poissons Ratio (y) = -0.36988 0.43518
# Poissons Ratio (z) = 0.27104 0.15596
#
# Static dielectric constant tensor:
#      x y z
#    x 2.099890 0.000000 -0.044960 
#    y 0.000000 2.279910 0.000000 
#    z -0.044960 0.000000 2.059520 
# 
# From -- ./inp_files/4513.got.cif
#   From: 2010.05.17/outbox.cif.g08.bks.cpg/sg9_3_cif.got.tgz:4513.got - 2010.06.03 20:04:27.
