data_PCOD9137628
_publ_section_title
;
Structure prediction by ZEFSAII (Michael W. Deem and Ramdas Pophale) SiO2 
 PCOD9137628
Probable space group: C C
;
_chemical_formula_sum "Si O2"
_cell_formula_units_Z 32
_cell_length_a 12.341913
_cell_length_b 8.164526
_cell_length_c 25.749509
_cell_angle_alpha 90.000000
_cell_angle_beta 29.572830
_cell_angle_gamma 90.000000
_cell_volume 1280.546987
_symmetry_space_group_name_H-M "C C"
_symmetry_group_IT_number 9
_symmetry_cell_setting 'monoclinic'
loop_
_space_group_symop_operation_xyz
x,y,z
x,-y,1/2+z
1/2+x,1/2+y,z
1/2+x,1/2-y,1/2+z
loop_
_atom_site_type_symbol
_atom_site_label
_atom_site_fract_x
_atom_site_fract_y
_atom_site_fract_z
Si Si1 0.713530 0.120359 0.743010
Si Si2 0.205524 0.434320 0.040306
Si Si3 0.485338 0.020357 0.027369
Si Si4 0.614017 0.329428 0.224758
Si Si5 0.156909 0.229791 0.371193
Si Si6 0.757877 0.301970 0.379884
Si Si7 0.861684 0.980152 0.581925
Si Si8 0.808712 0.244983 0.238176
O O1 0.848936 0.114219 0.632638
O O2 0.724666 0.939472 0.764571
O O3 0.771488 0.228456 0.767798
O O4 0.474225 0.173174 0.823094
O O5 0.103078 0.537035 0.035226
O O6 0.459407 0.384229 0.931627
O O7 0.201612 0.511067 0.099436
O O8 0.048232 0.276882 0.113633
O O9 0.621974 0.862049 0.949225
O O10 0.511432 0.152729 0.970904
O O11 0.226550 0.978218 0.146095
O O12 0.380867 0.249155 0.311380
O O13 0.783280 0.183991 0.142065
O O14 0.646900 0.360486 0.271983
O O15 0.603887 0.455651 0.458677
O O16 0.808022 0.293847 0.298292
#
# Coordination Sequence:
#
# PCOD9137628 Si02
#       8
#     4   4   4   4   4   4   4   4
#     4  11  23  41  68  95 129 178 224 280 341 409
#     4  11  24  43  65  99 141 174 228 281 344 407
#     4  10  23  44  63  95 136 178 213 288 339 399
#     4   9  24  45  61  98 136 170 229 278 347 405
#     4  12  25  40  70 102 133 177 232 276 342 420
#     4  11  21  43  68  92 127 180 228 270 348 403
#     4  10  24  43  66  92 131 178 224 285 340 409
#     4  10  22  43  67  91 133 179 218 282 339 400
#
# _framework density 24.989322000000001
#
# number of rings (size 3 to 8) (size 9 to 14) (size 15 to 20)
#    0.000    1.500    3.750    0.750    7.000    0.000 
#    4.500    0.000    0.000    0.000    0.000    0.000 
#    0.000    0.000    0.000    0.000    0.000    0.000 
#
# Total GULP energy -89153.731937 kJ/mol
# GULP energy per Si atom -5572.108246 kJ/mol
# Density = 2.493245 g / cm^3
# Si number density = 24.989322 Si / 1000 Ang^3
#
#
#
# Elastic Constant Matrix: (Units=GPa)
#
#
# Indices 1 2 3 4 5 6 
#
# 1 140.6851 21.1127 38.2175 0.0000 8.6948 -0.0001
# 2 21.1127 23.0136 19.2504 0.0000 -3.8700 -0.0001
# 3 38.2175 19.2504 74.3856 -0.0004 -5.8546 0.0003
# 4 0.0000 0.0000 -0.0004 18.3456 0.0002 9.1100
# 5 8.6948 -3.8700 -5.8546 0.0002 45.5111 -0.0001
# 6 -0.0001 -0.0001 0.0003 9.1100 -0.0001 39.4015
#
#
#
# Elastic Compliance Matrix: (Units=1/GPa)
#
#
# Indices 1 2 3 4 5 6 
#
# 1 0.009075 -0.005997 -0.003321 0.000000 -0.002671 0.000000
# 2 -0.005997 0.059802 -0.012026 0.000000 0.004684 0.000000
# 3 -0.003321 -0.012026 0.018418 0.000001 0.001981 0.000000
# 4 0.000000 0.000000 0.000001 0.061579 0.000000 -0.014238
# 5 -0.002671 0.004684 0.001981 0.000000 0.023136 0.000000
# 6 0.000000 0.000000 0.000000 -0.014238 0.000000 0.028672
#
#
# Mechanical properties :
#
#
# Convention : Reuss Voigt Hill
#
# Bulk Modulus (GPa) = 22.41842 43.91618 33.16730
# Shear Modulus (GPa) = 19.36191 31.28521 25.32356
#
# Velocity S-wave (km/s) = 2.78656 3.54212 3.18681
# Velocity P-wave (km/s) = 4.39817 5.86011 5.18097
#
# Compressibility (1/GPa) = 0.04460617
#
# Stress axis : x y z
#
# Youngs Moduli (GPa) = 110.18990 16.72196 54.29488
#
# Poissons Ratio (x) = 0.10028 0.18031
# Poissons Ratio (y) = 0.66080 0.65298
# Poissons Ratio (z) = 0.36593 0.20111
#
# Static dielectric constant tensor:
#      x y z
#    x 1.993630 0.000000 0.052140 
#    y 0.000000 2.144720 0.000000 
#    z 0.052140 0.000000 2.085000 
# 
# From -- ./inp_files/16168.got.cif
#   From: 2010.05.17/outbox.cif.g08.bks.cpg/sg9_9_cif.got.tgz:16168.got - 2010.06.03 20:04:27.
