data_PCOD9137533
_publ_section_title
;
Structure prediction by ZEFSAII (Michael W. Deem and Ramdas Pophale) SiO2 
 PCOD9137533
Probable space group: C C
;
_chemical_formula_sum "Si O2"
_cell_formula_units_Z 32
_cell_length_a 26.585227
_cell_length_b 11.169424
_cell_length_c 14.593157
_cell_angle_alpha 90.000000
_cell_angle_beta 161.053665
_cell_angle_gamma 90.000000
_cell_volume 1406.951626
_symmetry_space_group_name_H-M "C C"
_symmetry_group_IT_number 9
_symmetry_cell_setting 'monoclinic'
loop_
_space_group_symop_operation_xyz
x,y,z
x,-y,1/2+z
1/2+x,1/2+y,z
1/2+x,1/2-y,1/2+z
loop_
_atom_site_type_symbol
_atom_site_label
_atom_site_fract_x
_atom_site_fract_y
_atom_site_fract_z
Si Si1 0.625000 0.778091 0.735260
Si Si2 0.214733 0.819758 0.811797
Si Si3 0.429789 0.599078 0.694227
Si Si4 0.753754 0.477002 0.521796
Si Si5 0.153663 0.086303 0.535152
Si Si6 0.446706 0.176476 0.107021
Si Si7 0.564763 0.172440 0.927897
Si Si8 0.097236 0.421044 0.044123
O O1 0.673351 0.645192 0.849703
O O2 0.513699 0.831067 0.621023
O O3 0.549447 0.771425 0.504275
O O4 0.778189 0.862629 0.990739
O O5 0.082339 0.864418 0.514993
O O6 0.184472 0.676027 0.757211
O O7 0.197724 0.903612 0.871922
O O8 0.392910 0.845155 0.092612
O O9 0.419281 0.686373 0.588450
O O10 0.482930 0.464465 0.763085
O O11 0.716168 0.503869 0.562002
O O12 0.935482 0.454206 0.815414
O O13 0.141282 0.228627 0.494796
O O14 0.291277 0.096487 0.847400
O O15 0.562222 0.137053 0.385396
O O16 0.654376 0.050456 0.107514
#
# Coordination Sequence:
#
# PCOD9137533 Si02
#       8
#     4   4   4   4   4   4   4   4
#     4  12  23  46  73 105 139 193 255 300 367 449
#     4  10  22  42  69  98 137 192 226 304 363 419
#     4  11  23  44  73  96 143 187 243 298 366 436
#     4  11  22  44  70 104 141 188 248 293 365 444
#     4  12  24  44  71 104 145 192 237 303 373 436
#     4  11  22  44  75  99 136 199 236 299 370 437
#     4  11  24  42  68 100 145 183 238 307 361 430
#     4  10  22  46  67 100 146 182 243 296 361 439
#
# _framework density 22.744208
#
# number of rings (size 3 to 8) (size 9 to 14) (size 15 to 20)
#    0.000    1.000    5.000    3.750    1.750    0.000 
#   11.250    1.250    0.000    0.000    0.000    0.000 
#    0.000    0.000    0.000    0.000    0.000    0.000 
#
# Total GULP energy -89180.669153 kJ/mol
# GULP energy per Si atom -5573.791822 kJ/mol
# Density = 2.269244 g / cm^3
# Si number density = 22.744208 Si / 1000 Ang^3
#
#
#
# Elastic Constant Matrix: (Units=GPa)
#
#
# Indices 1 2 3 4 5 6 
#
# 1 69.6489 11.8869 19.1198 0.0000 13.5542 0.0000
# 2 11.8869 154.4535 41.9715 0.0000 4.9727 0.0000
# 3 19.1198 41.9715 87.8557 0.0000 0.8561 0.0000
# 4 0.0000 0.0000 0.0000 53.1852 0.0000 -1.7607
# 5 13.5542 4.9727 0.8561 0.0000 24.1861 0.0000
# 6 0.0000 0.0000 0.0000 -1.7607 0.0000 36.8558
#
#
#
# Elastic Compliance Matrix: (Units=1/GPa)
#
#
# Indices 1 2 3 4 5 6 
#
# 1 0.017213 -0.000030 -0.003639 0.000000 -0.009511 0.000000
# 2 -0.000030 0.007488 -0.003557 0.000000 -0.001397 0.000000
# 3 -0.003639 -0.003557 0.013852 0.000000 0.002281 0.000000
# 4 0.000000 0.000000 0.000000 0.018832 0.000000 0.000900
# 5 -0.009511 -0.001397 0.002281 0.000000 0.046883 0.000000
# 6 0.000000 0.000000 0.000000 0.000900 0.000000 0.027176
#
#
# Mechanical properties :
#
#
# Convention : Reuss Voigt Hill
#
# Bulk Modulus (GPa) = 41.49302 50.87938 46.18620
# Shear Modulus (GPa) = 32.48252 38.77741 35.62997
#
# Velocity S-wave (km/s) = 3.78321 4.13357 3.96226
# Velocity P-wave (km/s) = 6.11281 6.72314 6.42523
#
# Compressibility (1/GPa) = 0.02410044
#
# Stress axis : x y z
#
# Youngs Moduli (GPa) = 58.09651 133.54008 72.19417
#
# Poissons Ratio (x) = 0.00395 0.26272
# Poissons Ratio (y) = 0.00172 0.25682
# Poissons Ratio (z) = 0.21142 0.47505
#
# Static dielectric constant tensor:
#      x y z
#    x 1.822450 0.000000 0.029830 
#    y 0.000000 1.994430 0.000000 
#    z 0.029830 0.000000 1.932680 
# 
# From -- ./inp_files/28108.got.cif
#   From: 2010.05.17/outbox.cif.g08.bks.cpg/sg9_15_cif.got.tgz:28108.got - 2010.06.03 20:04:27.
