data_PCOD9137003
_publ_section_title
;
Structure prediction by ZEFSAII (Michael W. Deem and Ramdas Pophale) SiO2 
 PCOD9137003
Probable space group: C C
;
_chemical_formula_sum "Si O2"
_cell_formula_units_Z 28
_cell_length_a 11.598980
_cell_length_b 21.381601
_cell_length_c 9.376003
_cell_angle_alpha 90.000000
_cell_angle_beta 42.239146
_cell_angle_gamma 90.000000
_cell_volume 1563.124004
_symmetry_space_group_name_H-M "C C"
_symmetry_group_IT_number 9
_symmetry_cell_setting 'monoclinic'
loop_
_space_group_symop_operation_xyz
x,y,z
x,-y,1/2+z
1/2+x,1/2+y,z
1/2+x,1/2-y,1/2+z
loop_
_atom_site_type_symbol
_atom_site_label
_atom_site_fract_x
_atom_site_fract_y
_atom_site_fract_z
Si Si1 0.446790 0.685229 0.763490
Si Si2 0.315834 0.497280 0.302567
Si Si3 0.851946 0.325191 0.873060
Si Si4 0.538234 0.944070 0.224890
Si Si5 0.482699 0.436425 0.389413
Si Si6 0.376193 0.058568 0.559734
Si Si7 0.128483 0.370412 0.396780
O O1 0.646102 0.676931 0.533689
O O2 0.411314 0.754745 0.851540
O O3 0.428683 0.634627 0.906835
O O4 0.300069 0.669495 0.778826
O O5 0.230521 0.539266 0.501320
O O6 0.475020 0.466908 0.238635
O O7 0.186595 0.440090 0.391739
O O8 0.360474 0.534118 0.120150
O O9 0.969389 0.345698 0.633187
O O10 0.558156 0.882205 0.302380
O O11 0.452529 0.000825 0.395557
O O12 0.451336 0.938098 0.149786
O O13 0.673490 0.447657 0.265632
O O14 0.394530 0.123299 0.454803
#
# Coordination Sequence:
#
# PCOD9137003 Si02
#       7
#     4   4   4   4   4   4   4
#     4  10  23  39  69  90 119 170 218 257 299 385
#     4  11  19  36  57  88 124 158 197 251 319 373
#     4  11  21  42  68  88 123 166 223 251 310 371
#     4  12  21  36  60  90 127 158 202 248 330 369
#     4  10  22  36  58  92 123 159 207 259 316 366
#     4  11  22  37  60  93 123 166 203 265 310 384
#     4  11  22  38  64  93 121 165 202 261 310 374
#
# _framework density 17.912845000000001
#
# number of rings (size 3 to 8) (size 9 to 14) (size 15 to 20)
#    0.000    1.143    5.714    0.857    2.000    2.286 
#    2.571    0.000    9.429    0.000    0.000    0.000 
#    0.000    0.000    0.000    0.000    0.000    0.000 
#
# Total GULP energy -77957.610245 kJ/mol
# GULP energy per Si atom -5568.400732 kJ/mol
# Density = 1.787207 g / cm^3
# Si number density = 17.912845 Si / 1000 Ang^3
#
#
#
# Elastic Constant Matrix: (Units=GPa)
#
#
# Indices 1 2 3 4 5 6 
#
# 1 113.7969 32.7666 45.6430 0.0000 2.5548 0.0000
# 2 32.7666 96.0068 48.0342 0.0000 0.8783 0.0000
# 3 45.6430 48.0342 90.2859 0.0000 1.9938 0.0000
# 4 0.0000 0.0000 0.0000 26.6449 0.0000 -1.7362
# 5 2.5548 0.8783 1.9938 0.0000 26.3497 0.0000
# 6 0.0000 0.0000 0.0000 -1.7362 0.0000 22.0225
#
#
#
# Elastic Compliance Matrix: (Units=1/GPa)
#
#
# Indices 1 2 3 4 5 6 
#
# 1 0.011160 -0.001346 -0.004911 0.000000 -0.000666 0.000000
# 2 -0.001346 0.014357 -0.006962 0.000000 0.000179 0.000000
# 3 -0.004911 -0.006962 0.017276 0.000000 -0.000599 0.000000
# 4 0.000000 0.000000 0.000000 0.037724 0.000000 0.002974
# 5 -0.000666 0.000179 -0.000599 0.000000 0.038055 0.000000
# 6 0.000000 0.000000 0.000000 0.002974 0.000000 0.045643
#
#
# Mechanical properties :
#
#
# Convention : Reuss Voigt Hill
#
# Bulk Modulus (GPa) = 61.14250 61.44192 61.29221
# Shear Modulus (GPa) = 25.49681 26.57980 26.03831
#
# Velocity S-wave (km/s) = 3.77687 3.85624 3.81676
# Velocity P-wave (km/s) = 7.29569 7.36223 7.32903
#
# Compressibility (1/GPa) = 0.01635524
#
# Stress axis : x y z
#
# Youngs Moduli (GPa) = 89.60743 69.65410 57.88452
#
# Poissons Ratio (x) = 0.09372 0.28428
# Poissons Ratio (y) = 0.12057 0.40298
# Poissons Ratio (z) = 0.44008 0.48492
#
# Static dielectric constant tensor:
#      x y z
#    x 1.674090 0.000000 -0.028400 
#    y 0.000000 1.643140 0.000000 
#    z -0.028400 0.000000 1.611300 
# 
# From -- ./inp_files/8426.got.cif
#   From: 2010.05.17/outbox.cif.g08.bks.cpg/sg9_5_cif.got.tgz:8426.got - 2010.06.03 20:04:27.
