data_PCOD9137667
_publ_section_title
;
Structure prediction by ZEFSAII (Michael W. Deem and Ramdas Pophale) SiO2 
 PCOD9137667
Probable space group: C C
;
_chemical_formula_sum "Si O2"
_cell_formula_units_Z 32
_cell_length_a 11.911953
_cell_length_b 5.966906
_cell_length_c 17.237910
_cell_angle_alpha 90.000000
_cell_angle_beta 103.100432
_cell_angle_gamma 90.000000
_cell_volume 1193.340157
_symmetry_space_group_name_H-M "C C"
_symmetry_group_IT_number 9
_symmetry_cell_setting 'monoclinic'
loop_
_space_group_symop_operation_xyz
x,y,z
x,-y,1/2+z
1/2+x,1/2+y,z
1/2+x,1/2-y,1/2+z
loop_
_atom_site_type_symbol
_atom_site_label
_atom_site_fract_x
_atom_site_fract_y
_atom_site_fract_z
Si Si1 0.091450 0.365191 0.474290
Si Si2 0.704479 0.038406 0.752985
Si Si3 0.303855 0.051144 0.475399
Si Si4 0.137138 0.762398 0.355467
Si Si5 0.771552 0.674326 0.124688
Si Si6 0.444761 0.812072 0.211947
Si Si7 0.919327 0.946739 0.861604
Si Si8 0.018260 0.256113 0.061336
O O1 0.116125 0.554285 0.411955
O O2 0.072435 0.496322 0.551951
O O3 0.980090 0.211404 0.435644
O O4 0.203995 0.214162 0.490381
O O5 0.654194 0.795905 0.768034
O O6 0.795996 0.072037 0.837759
O O7 0.757889 0.111581 0.679700
O O8 0.583589 0.169008 0.743940
O O9 0.246320 0.910764 0.397736
O O10 0.321878 0.861301 0.545894
O O11 0.416036 0.210994 0.481845
O O12 0.021973 0.896304 0.350928
O O13 0.861544 0.524096 0.186804
O O14 0.635225 0.614833 0.086756
O O15 0.400104 0.704782 0.282463
O O16 0.444972 0.704707 0.126295
#
# Coordination Sequence:
#
# PCOD9137667 Si02
#       8
#     4   4   4   4   4   4   4   4
#     4  11  23  45  73 102 139 179 234 291 348 411
#     4  11  23  41  70 101 134 189 224 286 354 406
#     4  10  23  45  69 102 141 181 235 291 346 420
#     4  11  23  45  71 103 142 178 239 292 342 424
#     4  10  22  43  69  96 141 178 232 285 338 421
#     4  10  23  44  65 101 137 176 235 284 341 423
#     4  11  25  44  72 100 140 185 231 291 349 417
#     4  10  22  43  69  99 136 184 224 286 350 408
#
# _framework density 26.815487999999998
#
# number of rings (size 3 to 8) (size 9 to 14) (size 15 to 20)
#    0.000    1.500    2.500    1.500    0.000    7.000 
#    2.250    5.000    0.000    0.000    0.000    0.000 
#    0.000    0.000    0.000    0.000    0.000    0.000 
#
# Total GULP energy -89114.327926 kJ/mol
# GULP energy per Si atom -5569.645495 kJ/mol
# Density = 2.675445 g / cm^3
# Si number density = 26.815488 Si / 1000 Ang^3
#
#
#
# Elastic Constant Matrix: (Units=GPa)
#
#
# Indices 1 2 3 4 5 6 
#
# 1 169.9952 26.7468 35.3379 0.0000 17.3123 0.0000
# 2 26.7468 53.4347 28.3254 0.0000 0.1053 0.0000
# 3 35.3379 28.3254 95.4869 0.0000 12.7199 0.0000
# 4 0.0000 0.0000 0.0000 45.6140 0.0000 2.2321
# 5 17.3123 0.1053 12.7199 0.0000 66.1574 0.0000
# 6 0.0000 0.0000 0.0000 2.2321 0.0000 17.6885
#
#
#
# Elastic Compliance Matrix: (Units=1/GPa)
#
#
# Indices 1 2 3 4 5 6 
#
# 1 0.006756 -0.002559 -0.001546 0.000000 -0.001467 0.000000
# 2 -0.002559 0.023279 -0.006202 0.000000 0.001825 0.000000
# 3 -0.001546 -0.006202 0.013166 0.000000 -0.002117 0.000000
# 4 0.000000 0.000000 0.000000 0.022059 0.000000 -0.002784
# 5 -0.001467 0.001825 -0.002117 0.000000 0.015903 0.000000
# 6 0.000000 0.000000 0.000000 -0.002784 0.000000 0.056885
#
#
# Mechanical properties :
#
#
# Convention : Reuss Voigt Hill
#
# Bulk Modulus (GPa) = 44.27065 55.52634 49.89849
# Shear Modulus (GPa) = 30.08569 41.12578 35.60573
#
# Velocity S-wave (km/s) = 3.35319 3.92044 3.64786
# Velocity P-wave (km/s) = 5.61578 6.42222 6.03249
#
# Compressibility (1/GPa) = 0.02258833
#
# Stress axis : x y z
#
# Youngs Moduli (GPa) = 148.01929 42.95650 75.95146
#
# Poissons Ratio (x) = 0.10994 0.11739
# Poissons Ratio (y) = 0.37885 0.47102
# Poissons Ratio (z) = 0.22878 0.26640
#
# Static dielectric constant tensor:
#      x y z
#    x 2.196210 0.000000 0.022180 
#    y 0.000000 2.212730 0.000000 
#    z 0.022180 0.000000 2.117450 
# 
# From -- ./inp_files/33046.got.cif
#   From: 2010.05.17/outbox.cif.g08.bks.cpg/sg9_17_cif.got.tgz:33046.got - 2010.06.03 20:04:27.
