data_PCOD9137045
_publ_section_title
;
Structure prediction by ZEFSAII (Michael W. Deem and Ramdas Pophale) SiO2 
 PCOD9137045
Probable space group: C C
;
_chemical_formula_sum "Si O2"
_cell_formula_units_Z 32
_cell_length_a 22.996102
_cell_length_b 5.051354
_cell_length_c 9.500561
_cell_angle_alpha 90.000000
_cell_angle_beta 100.437507
_cell_angle_gamma 90.000000
_cell_volume 1085.337805
_symmetry_space_group_name_H-M "C C"
_symmetry_group_IT_number 9
_symmetry_cell_setting 'monoclinic'
loop_
_space_group_symop_operation_xyz
x,y,z
x,-y,1/2+z
1/2+x,1/2+y,z
1/2+x,1/2-y,1/2+z
loop_
_atom_site_type_symbol
_atom_site_label
_atom_site_fract_x
_atom_site_fract_y
_atom_site_fract_z
Si Si1 0.008090 0.842246 0.643190
Si Si2 0.633437 0.855384 0.455047
Si Si3 0.760705 0.071453 0.990184
Si Si4 0.133183 0.919138 0.231598
Si Si5 0.884787 0.045774 0.558490
Si Si6 0.504592 0.930222 0.416880
Si Si7 0.379842 0.038870 0.741706
Si Si8 0.758069 0.578210 0.172095
O O1 0.070497 0.975274 0.642451
O O2 0.007477 0.546746 0.577120
O O3 0.001674 0.824223 0.809306
O O4 0.953661 0.003577 0.548505
O O5 0.692586 0.990801 0.415796
O O6 0.629581 0.558687 0.386409
O O7 0.637707 0.837644 0.626828
O O8 0.572238 0.009374 0.395215
O O9 0.824528 0.017654 0.946625
O O10 0.758281 0.371293 0.043104
O O11 0.765073 0.875518 0.124800
O O12 0.196217 0.043595 0.217745
O O13 0.881559 0.834578 0.684002
O O14 0.879409 0.343364 0.608345
O O15 0.439063 0.036879 0.348219
O O16 0.316397 0.998860 0.783972
#
# Coordination Sequence:
#
# PCOD9137045 Si02
#       8
#     4   4   4   4   4   4   4   4
#     4  10  22  38  60  93 129 171 220 273 332 396
#     4  10  22  40  64  96 135 176 224 277 335 399
#     4   9  18  37  63  92 127 166 211 262 321 384
#     4  10  22  39  63  97 132 176 223 275 333 397
#     4   9  19  37  62  92 126 166 211 263 320 385
#     4  10  22  39  61  92 129 171 217 272 331 394
#     4   9  19  37  62  92 126 165 211 263 322 384
#     4   9  18  37  63  92 126 165 211 263 320 385
#
# _framework density 29.483908
#
# number of rings (size 3 to 8) (size 9 to 14) (size 15 to 20)
#    0.000    2.500    0.000    0.750    0.000    7.000 
#    0.000    8.750    0.000   24.000    0.000    0.000 
#    0.000    0.000    0.000    0.000    0.000    0.000 
#
# Total GULP energy -89118.970634 kJ/mol
# GULP energy per Si atom -5569.935665 kJ/mol
# Density = 2.941680 g / cm^3
# Si number density = 29.483908 Si / 1000 Ang^3
#
#
#
# Elastic Constant Matrix: (Units=GPa)
#
#
# Indices 1 2 3 4 5 6 
#
# 1 300.4203 24.9245 65.6438 0.0000 48.3924 0.0000
# 2 24.9245 90.4191 28.2096 0.0000 -9.5305 0.0000
# 3 65.6438 28.2096 125.1476 0.0000 -3.1703 0.0000
# 4 0.0000 0.0000 0.0000 44.7729 0.0000 3.1434
# 5 48.3924 -9.5305 -3.1703 0.0000 48.1626 0.0000
# 6 0.0000 0.0000 0.0000 3.1434 0.0000 37.6885
#
#
#
# Elastic Compliance Matrix: (Units=1/GPa)
#
#
# Indices 1 2 3 4 5 6 
#
# 1 0.004777 -0.001118 -0.002384 0.000000 -0.005178 0.000000
# 2 -0.001118 0.012391 -0.002119 0.000000 0.003436 0.000000
# 3 -0.002384 -0.002119 0.009785 0.000000 0.002621 0.000000
# 4 0.000000 0.000000 0.000000 0.022467 0.000000 -0.001874
# 5 -0.005178 0.003436 0.002621 0.000000 0.026818 0.000000
# 6 0.000000 0.000000 0.000000 -0.001874 0.000000 0.026690
#
#
# Mechanical properties :
#
#
# Convention : Reuss Voigt Hill
#
# Bulk Modulus (GPa) = 63.65960 83.72697 73.69329
# Shear Modulus (GPa) = 41.87322 52.60539 47.23930
#
# Velocity S-wave (km/s) = 3.77265 4.22857 4.00710
# Velocity P-wave (km/s) = 6.37302 7.23189 6.81600
#
# Compressibility (1/GPa) = 0.01570855
#
# Stress axis : x y z
#
# Youngs Moduli (GPa) = 209.35823 80.70140 102.19284
#
# Poissons Ratio (x) = 0.09026 0.24368
# Poissons Ratio (y) = 0.23416 0.21659
# Poissons Ratio (z) = 0.49921 0.17104
#
# Static dielectric constant tensor:
#      x y z
#    x 2.324470 0.000000 0.002530 
#    y 0.000000 2.348800 0.000000 
#    z 0.002530 0.000000 2.356070 
# 
# From -- ./inp_files/20491.got.cif
#   From: 2010.05.17/outbox.cif.g08.bks.cpg/sg9_11_cif.got.tgz:20491.got - 2010.06.03 20:04:27.
