data_PCOD9137277
_publ_section_title
;
Structure prediction by ZEFSAII (Michael W. Deem and Ramdas Pophale) SiO2 
 PCOD9137277
Probable space group: C C
;
_chemical_formula_sum "Si O2"
_cell_formula_units_Z 24
_cell_length_a 9.345973
_cell_length_b 17.392507
_cell_length_c 9.244668
_cell_angle_alpha 90.000000
_cell_angle_beta 144.199001
_cell_angle_gamma 90.000000
_cell_volume 879.048770
_symmetry_space_group_name_H-M "C C"
_symmetry_group_IT_number 9
_symmetry_cell_setting 'monoclinic'
loop_
_space_group_symop_operation_xyz
x,y,z
x,-y,1/2+z
1/2+x,1/2+y,z
1/2+x,1/2-y,1/2+z
loop_
_atom_site_type_symbol
_atom_site_label
_atom_site_fract_x
_atom_site_fract_y
_atom_site_fract_z
Si Si1 0.964880 0.722928 0.215470
Si Si2 0.158914 0.168215 0.624269
Si Si3 0.889634 0.042566 0.229068
Si Si4 0.001127 0.710335 0.650946
Si Si5 0.265944 0.933071 0.489015
Si Si6 0.129861 0.453132 0.221847
O O1 0.946014 0.631002 0.199734
O O2 0.180204 0.752158 0.495989
O O3 0.041581 0.762366 0.123459
O O4 0.399291 0.190728 0.730184
O O5 0.194707 0.103772 0.777669
O O6 0.987548 0.123267 0.369069
O O7 0.652359 0.022431 0.127620
O O8 0.015890 0.957952 0.363061
O O9 0.833296 0.047024 0.013971
O O10 0.758291 0.746160 0.381056
O O11 0.070294 0.631906 0.627477
O O12 0.379737 0.017475 0.590893
#
# Coordination Sequence:
#
# PCOD9137277 Si02
#       6
#     4   4   4   4   4   4
#     4  10  22  40  70 108 150 187 253 318 371 443
#     4  11  22  47  77 112 149 202 259 322 376 460
#     4  12  25  47  76 111 152 199 254 319 395 454
#     4  12  26  46  74 109 153 208 258 318 387 466
#     4  11  24  44  71 112 146 194 252 323 381 446
#     4  12  27  46  76 108 152 200 256 318 384 471
#
# _framework density 27.302237999999999
#
# number of rings (size 3 to 8) (size 9 to 14) (size 15 to 20)
#    0.000    0.667    3.333    5.000    2.333    1.333 
#    0.000    3.333    0.000    0.000    0.000    0.000 
#    0.000    0.000    0.000    0.000    0.000    0.000 
#
# Total GULP energy -67070.756626 kJ/mol
# GULP energy per Si atom -5589.229719 kJ/mol
# Density = 2.724010 g / cm^3
# Si number density = 27.302238 Si / 1000 Ang^3
#
#
#
# Elastic Constant Matrix: (Units=GPa)
#
#
# Indices 1 2 3 4 5 6 
#
# 1 56.8546 17.0655 36.6352 0.0000 -25.5472 0.0000
# 2 17.0655 147.0383 32.1587 0.0000 8.2824 0.0000
# 3 36.6352 32.1587 109.9779 0.0000 -8.6564 0.0000
# 4 0.0000 0.0000 0.0000 61.5349 0.0000 17.3759
# 5 -25.5472 8.2824 -8.6564 0.0000 52.4495 0.0000
# 6 0.0000 0.0000 0.0000 17.3759 0.0000 58.9363
#
#
#
# Elastic Compliance Matrix: (Units=1/GPa)
#
#
# Indices 1 2 3 4 5 6 
#
# 1 0.029567 -0.002422 -0.008083 0.000000 0.013450 0.000000
# 2 -0.002422 0.007585 -0.001619 0.000000 -0.002645 0.000000
# 3 -0.008083 -0.001619 0.012126 0.000000 -0.001680 0.000000
# 4 0.000000 0.000000 0.000000 0.017727 0.000000 -0.005226
# 5 0.013450 -0.002645 -0.001680 0.000000 0.025758 0.000000
# 6 0.000000 0.000000 0.000000 -0.005226 0.000000 0.018508
#
#
# Mechanical properties :
#
#
# Convention : Reuss Voigt Hill
#
# Bulk Modulus (GPa) = 39.94904 53.95441 46.95173
# Shear Modulus (GPa) = 34.75532 49.78492 42.27012
#
# Velocity S-wave (km/s) = 3.57176 4.27485 3.93902
# Velocity P-wave (km/s) = 5.62796 6.64609 6.15810
#
# Compressibility (1/GPa) = 0.02503189
#
# Stress axis : x y z
#
# Youngs Moduli (GPa) = 33.82101 131.83641 82.46410
#
# Poissons Ratio (x) = 0.31925 0.66652
# Poissons Ratio (y) = 0.08190 0.13355
# Poissons Ratio (z) = 0.27336 0.21351
#
# Static dielectric constant tensor:
#      x y z
#    x 2.123160 0.000000 0.015770 
#    y 0.000000 2.019910 0.000000 
#    z 0.015770 0.000000 2.237310 
# 
# From -- ./inp_files/533.got.cif
#   From: 2010.05.17/outbox.cif.g08.bks.cpg/sg9_1_cif.got.tgz:533.got - 2010.06.03 20:04:27.
