data_PCOD9137734
_publ_section_title
;
Structure prediction by ZEFSAII (Michael W. Deem and Ramdas Pophale) SiO2 
 PCOD9137734
Probable space group: C C
;
_chemical_formula_sum "Si O2"
_cell_formula_units_Z 28
_cell_length_a 16.818176
_cell_length_b 12.592213
_cell_length_c 8.969093
_cell_angle_alpha 90.000000
_cell_angle_beta 32.654571
_cell_angle_gamma 90.000000
_cell_volume 1024.895612
_symmetry_space_group_name_H-M "C C"
_symmetry_group_IT_number 9
_symmetry_cell_setting 'monoclinic'
loop_
_space_group_symop_operation_xyz
x,y,z
x,-y,1/2+z
1/2+x,1/2+y,z
1/2+x,1/2-y,1/2+z
loop_
_atom_site_type_symbol
_atom_site_label
_atom_site_fract_x
_atom_site_fract_y
_atom_site_fract_z
Si Si1 0.491930 0.358256 0.448440
Si Si2 0.500434 0.506106 0.199575
Si Si3 0.308361 0.780609 0.942767
Si Si4 0.927726 0.687285 0.800836
Si Si5 0.052336 0.404855 0.369459
Si Si6 0.326692 0.081678 0.690753
Si Si7 0.799398 0.141927 0.689771
O O1 0.443884 0.395535 0.358884
O O2 0.432328 0.451362 0.653057
O O3 0.480048 0.261227 0.582930
O O4 0.665635 0.353782 0.141160
O O5 0.456910 0.594147 0.393134
O O6 0.674520 0.521055 0.900316
O O7 0.446829 0.832053 0.638919
O O8 0.270561 0.674697 0.904614
O O9 0.332917 0.810417 0.079831
O O10 0.843393 0.597985 0.841719
O O11 0.064195 0.659145 0.694116
O O12 0.804882 0.745844 0.093052
O O13 0.185284 0.427052 0.272232
O O14 0.967603 0.507705 0.441793
#
# Coordination Sequence:
#
# PCOD9137734 Si02
#       7
#     4   4   4   4   4   4   4
#     4  10  22  44  65 103 132 187 232 292 349 427
#     4  10  23  45  70  99 137 187 242 293 355 428
#     4  10  23  41  70 106 136 190 242 290 360 429
#     4  10  25  43  69 101 145 189 234 298 361 434
#     4  11  23  46  71 105 145 191 234 303 365 433
#     4  11  23  44  76 101 143 188 248 295 363 436
#     4  10  25  45  69 105 146 186 238 305 361 425
#
# _framework density 27.319856000000001
#
# number of rings (size 3 to 8) (size 9 to 14) (size 15 to 20)
#    0.000    1.714    1.429    0.857   12.000    1.143 
#   10.286    0.000    0.000    0.000    0.000    0.000 
#    0.000    0.000    0.000    0.000    0.000    0.000 
#
# Total GULP energy -77989.098985 kJ/mol
# GULP energy per Si atom -5570.649928 kJ/mol
# Density = 2.725768 g / cm^3
# Si number density = 27.319856 Si / 1000 Ang^3
#
#
#
# Elastic Constant Matrix: (Units=GPa)
#
#
# Indices 1 2 3 4 5 6 
#
# 1 183.6830 30.0447 37.9139 0.0000 29.9083 0.0000
# 2 30.0447 38.6864 22.9234 0.0000 4.0387 0.0000
# 3 37.9139 22.9234 78.9388 0.0000 14.8965 0.0000
# 4 0.0000 0.0000 0.0000 55.6614 0.0000 63.1498
# 5 29.9083 4.0387 14.8965 0.0000 35.6303 0.0000
# 6 0.0000 0.0000 0.0000 63.1498 0.0000 149.7861
#
#
#
# Elastic Compliance Matrix: (Units=1/GPa)
#
#
# Indices 1 2 3 4 5 6 
#
# 1 0.007239 -0.004347 -0.001260 0.000000 -0.005057 0.000000
# 2 -0.004347 0.033834 -0.008362 0.000000 0.003310 0.000000
# 3 -0.001260 -0.008362 0.016636 0.000000 -0.004950 0.000000
# 4 0.000000 0.000000 0.000000 0.034438 0.000000 -0.014519
# 5 -0.005057 0.003310 -0.004950 0.000000 0.034005 0.000000
# 6 0.000000 0.000000 0.000000 -0.014519 0.000000 0.012797
#
#
# Mechanical properties :
#
#
# Convention : Reuss Voigt Hill
#
# Bulk Modulus (GPa) = 33.59081 53.67469 43.63275
# Shear Modulus (GPa) = 28.27883 62.24398 45.26141
#
# Velocity S-wave (km/s) = 3.22079 4.77838 4.07470
# Velocity P-wave (km/s) = 5.11404 7.08048 6.17603
#
# Compressibility (1/GPa) = 0.02977005
#
# Stress axis : x y z
#
# Youngs Moduli (GPa) = 138.14737 29.55581 60.11220
#
# Poissons Ratio (x) = 0.12848 0.07575
# Poissons Ratio (y) = 0.60055 0.50266
# Poissons Ratio (z) = 0.17407 0.24715
#
# Static dielectric constant tensor:
#      x y z
#    x 2.231250 0.000000 -0.049150 
#    y 0.000000 2.236690 0.000000 
#    z -0.049150 0.000000 2.080220 
# 
# From -- ./inp_files/9636.got.cif
#   From: 2010.05.17/outbox.cif.g08.bks.cpg/sg9_5_cif.got.tgz:9636.got - 2010.06.03 20:04:27.
