data_PCOD9137511
_publ_section_title
;
Structure prediction by ZEFSAII (Michael W. Deem and Ramdas Pophale) SiO2 
 PCOD9137511
Probable space group: C C
;
_chemical_formula_sum "Si O2"
_cell_formula_units_Z 32
_cell_length_a 9.875534
_cell_length_b 10.508678
_cell_length_c 14.670024
_cell_angle_alpha 90.000000
_cell_angle_beta 113.226697
_cell_angle_gamma 90.000000
_cell_volume 1399.046582
_symmetry_space_group_name_H-M "C C"
_symmetry_group_IT_number 9
_symmetry_cell_setting 'monoclinic'
loop_
_space_group_symop_operation_xyz
x,y,z
x,-y,1/2+z
1/2+x,1/2+y,z
1/2+x,1/2-y,1/2+z
loop_
_atom_site_type_symbol
_atom_site_label
_atom_site_fract_x
_atom_site_fract_y
_atom_site_fract_z
Si Si1 0.729250 0.444584 0.103590
Si Si2 0.512359 0.181250 0.468321
Si Si3 0.017981 0.616636 0.984384
Si Si4 0.698723 0.285962 0.919292
Si Si5 0.585926 0.540635 0.244742
Si Si6 0.082689 0.231745 0.787956
Si Si7 0.281180 0.324608 0.693194
Si Si8 0.831415 0.286905 0.582580
O O1 0.617216 0.502625 0.148642
O O2 0.807179 0.322716 0.170420
O O3 0.830225 0.564490 0.109318
O O4 0.667099 0.388930 0.991895
O O5 0.370680 0.250547 0.474372
O O6 0.525250 0.213004 0.365754
O O7 0.670540 0.225484 0.548979
O O8 0.481770 0.031275 0.469235
O O9 0.083515 0.674170 0.908798
O O10 0.153822 0.628659 0.091255
O O11 0.892202 0.705821 0.995354
O O12 0.680425 0.346192 0.814747
O O13 0.629796 0.414179 0.311912
O O14 0.420977 0.586699 0.219927
O O15 0.950043 0.222678 0.679286
O O16 0.208999 0.314888 0.773639
#
# Coordination Sequence:
#
# PCOD9137511 Si02
#       8
#     4   4   4   4   4   4   4   4
#     4  10  22  42  68  96 137 177 227 279 339 410
#     4  12  25  44  70 102 139 182 230 282 346 408
#     4  10  24  44  66  98 136 177 228 278 342 412
#     4  11  25  43  66 107 131 181 239 274 344 419
#     4  11  23  42  70  97 141 180 224 290 343 404
#     4  10  24  42  64 105 135 177 235 281 342 416
#     4   9  22  43  66 102 132 178 231 280 348 408
#     4  11  23  44  70  95 141 180 220 288 348 397
#
# _framework density 22.872719
#
# number of rings (size 3 to 8) (size 9 to 14) (size 15 to 20)
#    0.000    1.500    1.250    3.000    5.250    3.000 
#    0.000    1.250    0.000    0.000    0.000    0.000 
#    0.000    0.000    0.000    0.000    0.000    0.000 
#
# Total GULP energy -89412.320228 kJ/mol
# GULP energy per Si atom -5588.270014 kJ/mol
# Density = 2.282066 g / cm^3
# Si number density = 22.872719 Si / 1000 Ang^3
#
#
#
# Elastic Constant Matrix: (Units=GPa)
#
#
# Indices 1 2 3 4 5 6 
#
# 1 113.3050 0.6196 19.1349 0.0000 -14.8352 0.0000
# 2 0.6196 42.9062 -7.3487 0.0000 -14.7440 0.0000
# 3 19.1349 -7.3487 59.5980 0.0000 -12.0227 0.0000
# 4 0.0000 0.0000 0.0000 21.0964 0.0000 -1.7083
# 5 -14.8352 -14.7440 -12.0227 0.0000 37.4343 0.0000
# 6 0.0000 0.0000 0.0000 -1.7083 0.0000 45.6848
#
#
#
# Elastic Compliance Matrix: (Units=1/GPa)
#
#
# Indices 1 2 3 4 5 6 
#
# 1 0.009653 0.000590 -0.002361 0.000000 0.003300 0.000000
# 2 0.000590 0.029039 0.006144 0.000000 0.013644 0.000000
# 3 -0.002361 0.006144 0.019882 0.000000 0.007870 0.000000
# 4 0.000000 0.000000 0.000000 0.047545 0.000000 0.001778
# 5 0.003300 0.013644 0.007870 0.000000 0.035923 0.000000
# 6 0.000000 0.000000 0.000000 0.001778 0.000000 0.021956
#
#
# Mechanical properties :
#
#
# Convention : Reuss Voigt Hill
#
# Bulk Modulus (GPa) = 14.85435 26.73565 20.79500
# Shear Modulus (GPa) = 28.13850 34.40334 31.27092
#
# Velocity S-wave (km/s) = 3.51126 3.88251 3.70154
# Velocity P-wave (km/s) = 4.79030 5.64028 5.23258
#
# Compressibility (1/GPa) = 0.06732033
#
# Stress axis : x y z
#
# Youngs Moduli (GPa) = 103.59198 34.43636 50.29635
#
# Poissons Ratio (x) = -0.02032 0.11874
# Poissons Ratio (y) = -0.06114 -0.30900
# Poissons Ratio (z) = 0.24457 -0.21157
#
# Static dielectric constant tensor:
#      x y z
#    x 1.881670 0.000000 -0.003370 
#    y 0.000000 1.847960 0.000000 
#    z -0.003370 0.000000 1.889480 
# 
# From -- ./inp_files/22804.got.cif
#   From: 2010.05.17/outbox.cif.g08.bks.cpg/sg9_12_cif.got.tgz:22804.got - 2010.06.03 20:04:27.
