data_PCOD9137670
_publ_section_title
;
Structure prediction by ZEFSAII (Michael W. Deem and Ramdas Pophale) SiO2 
 PCOD9137670
Probable space group: C C
;
_chemical_formula_sum "Si O2"
_cell_formula_units_Z 28
_cell_length_a 8.137627
_cell_length_b 17.504318
_cell_length_c 9.309428
_cell_angle_alpha 90.000000
_cell_angle_beta 101.580355
_cell_angle_gamma 90.000000
_cell_volume 1299.075267
_symmetry_space_group_name_H-M "C C"
_symmetry_group_IT_number 9
_symmetry_cell_setting 'monoclinic'
loop_
_space_group_symop_operation_xyz
x,y,z
x,-y,1/2+z
1/2+x,1/2+y,z
1/2+x,1/2-y,1/2+z
loop_
_atom_site_type_symbol
_atom_site_label
_atom_site_fract_x
_atom_site_fract_y
_atom_site_fract_z
Si Si1 0.428440 0.631577 0.122590
Si Si2 0.388097 0.369767 0.292350
Si Si3 0.178599 0.046009 0.370946
Si Si4 0.538499 0.196347 0.680385
Si Si5 0.202604 0.896414 0.196734
Si Si6 0.530769 0.083602 0.442866
Si Si7 0.683643 0.978352 0.685155
O O1 0.528783 0.581246 0.254480
O O2 0.470744 0.718369 0.165723
O O3 0.243948 0.595817 0.109754
O O4 0.466880 0.619122 0.962930
O O5 0.539192 0.346166 0.212563
O O6 0.313121 0.450374 0.221262
O O7 0.222243 0.316588 0.282548
O O8 0.161098 0.062482 0.537152
O O9 0.344467 0.091654 0.353063
O O10 0.211219 0.960786 0.321117
O O11 0.380895 0.146779 0.713368
O O12 0.575014 0.162693 0.526919
O O13 0.643329 0.050661 0.336764
O O14 0.535544 0.019464 0.570324
#
# Coordination Sequence:
#
# PCOD9137670 Si02
#       7
#     4   4   4   4   4   4   4
#     4  12  26  43  70 100 138 175 227 277 344 396
#     4  11  24  46  70  98 136 179 225 282 329 403
#     4  11  23  41  70 101 132 173 230 282 325 404
#     4  10  27  45  66  99 144 172 219 286 337 403
#     4  11  24  44  71  99 134 177 228 278 337 398
#     4  10  22  43  69  99 134 172 226 279 339 393
#     4  11  22  42  72 100 126 180 225 278 327 407
#
# _framework density 21.553794
#
# number of rings (size 3 to 8) (size 9 to 14) (size 15 to 20)
#    0.000    1.143    2.857    3.429    8.000    1.143 
#    0.000    0.000    0.000    0.000    0.000    0.000 
#    0.000    0.000    0.000    0.000    0.000    0.000 
#
# Total GULP energy -78063.989212 kJ/mol
# GULP energy per Si atom -5575.999229 kJ/mol
# Density = 2.150474 g / cm^3
# Si number density = 21.553794 Si / 1000 Ang^3
#
#
#
# Elastic Constant Matrix: (Units=GPa)
#
#
# Indices 1 2 3 4 5 6 
#
# 1 88.7771 14.7208 26.4789 0.0000 -14.8869 0.0000
# 2 14.7208 81.9395 8.8258 0.0000 -15.5725 0.0000
# 3 26.4789 8.8258 67.3965 0.0000 -10.6896 0.0000
# 4 0.0000 0.0000 0.0000 8.3635 0.0000 2.6961
# 5 -14.8869 -15.5725 -10.6896 0.0000 31.1177 0.0000
# 6 0.0000 0.0000 0.0000 2.6961 0.0000 25.5383
#
#
#
# Elastic Compliance Matrix: (Units=1/GPa)
#
#
# Indices 1 2 3 4 5 6 
#
# 1 0.013516 -0.001116 -0.004471 0.000000 0.004372 0.000000
# 2 -0.001116 0.013614 -0.000369 0.000000 0.006152 0.000000
# 3 -0.004471 -0.000369 0.017212 0.000000 0.003589 0.000000
# 4 0.000000 0.000000 0.000000 0.123780 0.000000 -0.013067
# 5 0.004372 0.006152 0.003589 0.000000 0.038540 0.000000
# 6 0.000000 0.000000 0.000000 -0.013067 0.000000 0.040536
#
#
# Mechanical properties :
#
#
# Convention : Reuss Voigt Hill
#
# Bulk Modulus (GPa) = 30.83470 37.57380 34.20425
# Shear Modulus (GPa) = 18.52421 25.54306 22.03364
#
# Velocity S-wave (km/s) = 2.93480 3.44624 3.20075
# Velocity P-wave (km/s) = 5.08144 5.77112 5.43723
#
# Compressibility (1/GPa) = 0.03243099
#
# Stress axis : x y z
#
# Youngs Moduli (GPa) = 73.98804 73.45638 58.10061
#
# Poissons Ratio (x) = 0.08196 0.25974
# Poissons Ratio (y) = 0.08255 0.02141
# Poissons Ratio (z) = 0.33077 0.02707
#
# Static dielectric constant tensor:
#      x y z
#    x 1.858610 0.000000 0.027650 
#    y 0.000000 1.778250 0.000000 
#    z 0.027650 0.000000 1.801050 
# 
# From -- ./inp_files/5322.got.cif
#   From: 2010.05.17/outbox.cif.g08.bks.cpg/sg9_3_cif.got.tgz:5322.got - 2010.06.03 20:04:27.
