data_PCOD9137562
_publ_section_title
;
Structure prediction by ZEFSAII (Michael W. Deem and Ramdas Pophale) SiO2 
 PCOD9137562
Probable space group: C C
;
_chemical_formula_sum "Si O2"
_cell_formula_units_Z 24
_cell_length_a 14.681090
_cell_length_b 12.928582
_cell_length_c 8.800234
_cell_angle_alpha 90.000000
_cell_angle_beta 33.830976
_cell_angle_gamma 90.000000
_cell_volume 929.949957
_symmetry_space_group_name_H-M "C C"
_symmetry_group_IT_number 9
_symmetry_cell_setting 'monoclinic'
loop_
_space_group_symop_operation_xyz
x,y,z
x,-y,1/2+z
1/2+x,1/2+y,z
1/2+x,1/2-y,1/2+z
loop_
_atom_site_type_symbol
_atom_site_label
_atom_site_fract_x
_atom_site_fract_y
_atom_site_fract_z
Si Si1 0.096600 0.209211 0.643680
Si Si2 0.338342 0.300746 0.071393
Si Si3 0.376097 0.082862 0.851545
Si Si4 0.051937 0.050936 0.444352
Si Si5 0.232685 0.409785 0.926210
Si Si6 0.782368 0.694105 0.681122
O O1 0.237628 0.270589 0.359828
O O2 0.136984 0.184496 0.762092
O O3 0.067263 0.105606 0.587223
O O4 0.942157 0.284152 0.860025
O O5 0.501724 0.358032 0.896640
O O6 0.380177 0.194268 0.929873
O O7 0.241735 0.375152 0.089729
O O8 0.559278 0.039980 0.619621
O O9 0.323487 0.110347 0.753034
O O10 0.231252 0.020492 0.134811
O O11 0.893118 0.978286 0.670789
O O12 0.247144 0.303456 0.812813
#
# Coordination Sequence:
#
# PCOD9137562 Si02
#       6
#     4   4   4   4   4   4
#     4  11  22  41  73 114 141 192 251 301 359 455
#     4  10  22  42  72 103 145 195 247 300 368 449
#     4  10  22  46  74 105 141 203 247 300 364 459
#     4  11  25  43  72 110 153 193 239 318 380 430
#     4  11  25  44  72 110 151 192 245 314 379 431
#     4  11  22  42  77 112 141 193 261 297 360 456
#
# _framework density 25.807841
#
# number of rings (size 3 to 8) (size 9 to 14) (size 15 to 20)
#    0.000    1.333    3.333    3.000    7.000    0.000 
#    0.000    5.000    0.000    0.000    0.000    0.000 
#    0.000    0.000    0.000    0.000    0.000    0.000 
#
# Total GULP energy -67273.829699 kJ/mol
# GULP energy per Si atom -5606.152475 kJ/mol
# Density = 2.574910 g / cm^3
# Si number density = 25.807841 Si / 1000 Ang^3
#
#
#
# Elastic Constant Matrix: (Units=GPa)
#
#
# Indices 1 2 3 4 5 6 
#
# 1 188.1542 38.9850 54.3932 0.0000 -6.7908 0.0000
# 2 38.9850 76.5826 34.8937 0.0000 -9.6992 0.0000
# 3 54.3932 34.8937 172.8248 0.0000 -26.9504 0.0000
# 4 0.0000 0.0000 0.0000 25.4618 0.0000 -6.3246
# 5 -6.7908 -9.6992 -26.9504 0.0000 44.3131 0.0000
# 6 0.0000 0.0000 0.0000 -6.3246 0.0000 44.6195
#
#
#
# Elastic Compliance Matrix: (Units=1/GPa)
#
#
# Indices 1 2 3 4 5 6 
#
# 1 0.006271 -0.002558 -0.001541 0.000000 -0.000536 0.000000
# 2 -0.002558 0.015518 -0.002054 0.000000 0.001755 0.000000
# 3 -0.001541 -0.002054 0.007268 0.000000 0.003735 0.000000
# 4 0.000000 0.000000 0.000000 0.040708 0.000000 0.005770
# 5 -0.000536 0.001755 0.003735 0.000000 0.025140 0.000000
# 6 0.000000 0.000000 0.000000 0.005770 0.000000 0.023230
#
#
# Mechanical properties :
#
#
# Convention : Reuss Voigt Hill
#
# Bulk Modulus (GPa) = 59.69754 77.12282 68.41018
# Shear Modulus (GPa) = 36.75792 43.49820 40.12806
#
# Velocity S-wave (km/s) = 3.77807 4.10989 3.94747
# Velocity P-wave (km/s) = 6.49720 7.24362 6.88054
#
# Compressibility (1/GPa) = 0.01675111
#
# Stress axis : x y z
#
# Youngs Moduli (GPa) = 159.46708 64.43973 137.58396
#
# Poissons Ratio (x) = 0.16484 0.21198
# Poissons Ratio (y) = 0.40794 0.28265
# Poissons Ratio (z) = 0.24570 0.13238
#
# Static dielectric constant tensor:
#      x y z
#    x 1.999180 0.000000 -0.024420 
#    y 0.000000 2.074880 0.000000 
#    z -0.024420 0.000000 2.025170 
# 
# From -- ./inp_files/9912.got.cif
#   From: 2010.05.17/outbox.cif.g08.bks.cpg/sg9_5_cif.got.tgz:9912.got - 2010.06.03 20:04:27.
