data_PCOD9137032
_publ_section_title
;
Structure prediction by ZEFSAII (Michael W. Deem and Ramdas Pophale) SiO2 
 PCOD9137032
Probable space group: C C
;
_chemical_formula_sum "Si O2"
_cell_formula_units_Z 32
_cell_length_a 20.350378
_cell_length_b 9.028120
_cell_length_c 8.285874
_cell_angle_alpha 90.000000
_cell_angle_beta 112.264128
_cell_angle_gamma 90.000000
_cell_volume 1408.833699
_symmetry_space_group_name_H-M "C C"
_symmetry_group_IT_number 9
_symmetry_cell_setting 'monoclinic'
loop_
_space_group_symop_operation_xyz
x,y,z
x,-y,1/2+z
1/2+x,1/2+y,z
1/2+x,1/2-y,1/2+z
loop_
_atom_site_type_symbol
_atom_site_label
_atom_site_fract_x
_atom_site_fract_y
_atom_site_fract_z
Si Si1 0.518040 0.432323 0.118040
Si Si2 0.923272 0.204127 0.995519
Si Si3 0.151949 0.137522 0.172949
Si Si4 0.566681 0.107466 0.635768
Si Si5 0.222288 0.112246 0.564227
Si Si6 0.430140 0.813680 0.685656
Si Si7 0.385427 0.128194 0.772884
Si Si8 0.597217 0.198598 0.022388
O O1 0.585651 0.544372 0.191779
O O2 0.495245 0.307554 0.228228
O O3 0.541360 0.331677 0.989156
O O4 0.451406 0.537539 0.028063
O O5 0.884300 0.238963 0.789321
O O6 0.891647 0.247745 0.138795
O O7 0.991008 0.315627 0.043057
O O8 0.122286 0.294121 0.086842
O O9 0.211088 0.151721 0.366853
O O10 0.182934 0.041982 0.058926
O O11 0.572635 0.935493 0.609758
O O12 0.591526 0.137210 0.839218
O O13 0.302071 0.092928 0.693742
O O14 0.175288 0.232876 0.619122
O O15 0.405097 0.828147 0.475012
O O16 0.430462 0.986335 0.746730
#
# Coordination Sequence:
#
# PCOD9137032 Si02
#       8
#     4   4   4   4   4   4   4   4
#     4  10  24  41  67 103 133 171 227 281 360 401
#     4  11  26  42  67  98 141 176 219 287 337 418
#     4   9  21  39  67  94 124 169 218 285 340 397
#     4  10  22  37  64  97 132 164 216 284 352 402
#     4  10  22  43  65  90 130 175 227 276 323 415
#     4  12  26  41  71  99 136 183 223 284 341 406
#     4  12  25  47  65 101 136 190 235 270 340 411
#     4  10  22  40  66  98 132 172 221 287 345 406
#
# _framework density 22.713823000000001
#
# number of rings (size 3 to 8) (size 9 to 14) (size 15 to 20)
#    0.000    1.500    1.250    2.250   14.000    1.000 
#    0.000    3.750    0.000    0.000    0.000    0.000 
#    0.000    0.000    0.000    0.000    0.000    0.000 
#
# Total GULP energy -89215.907734 kJ/mol
# GULP energy per Si atom -5575.994233 kJ/mol
# Density = 2.266213 g / cm^3
# Si number density = 22.713823 Si / 1000 Ang^3
#
#
#
# Elastic Constant Matrix: (Units=GPa)
#
#
# Indices 1 2 3 4 5 6 
#
# 1 50.8440 29.7219 10.5922 0.0000 -9.1198 0.0000
# 2 29.7219 134.5389 20.5278 0.0000 -12.4742 0.0000
# 3 10.5922 20.5278 93.7980 0.0000 -24.2620 0.0000
# 4 0.0000 0.0000 0.0000 21.3964 0.0000 -7.8684
# 5 -9.1198 -12.4742 -24.2620 0.0000 29.6901 0.0000
# 6 0.0000 0.0000 0.0000 -7.8684 0.0000 22.0653
#
#
#
# Elastic Compliance Matrix: (Units=1/GPa)
#
#
# Indices 1 2 3 4 5 6 
#
# 1 0.023341 -0.004646 -0.000342 0.000000 0.004938 0.000000
# 2 -0.004646 0.008746 -0.001025 0.000000 0.001410 0.000000
# 3 -0.000342 -0.001025 0.013676 0.000000 0.010641 0.000000
# 4 0.000000 0.000000 0.000000 0.053791 0.000000 0.019181
# 5 0.004938 0.001410 0.010641 0.000000 0.044486 0.000000
# 6 0.000000 0.000000 0.000000 0.019181 0.000000 0.052160
#
#
# Mechanical properties :
#
#
# Convention : Reuss Voigt Hill
#
# Bulk Modulus (GPa) = 29.63985 44.54052 37.09018
# Shear Modulus (GPa) = 22.78196 29.18629 25.98413
#
# Velocity S-wave (km/s) = 3.17045 3.58852 3.38594
# Velocity P-wave (km/s) = 5.14587 6.06811 5.62592
#
# Compressibility (1/GPa) = 0.03373836
#
# Stress axis : x y z
#
# Youngs Moduli (GPa) = 42.84282 114.33312 73.11901
#
# Poissons Ratio (x) = 0.53124 0.02498
# Poissons Ratio (y) = 0.19907 0.07492
# Poissons Ratio (z) = 0.01463 0.11716
#
# Static dielectric constant tensor:
#      x y z
#    x 1.888370 0.000000 -0.040810 
#    y 0.000000 1.894340 0.000000 
#    z -0.040810 0.000000 1.899970 
# 
# From -- ./inp_files/12075.got.cif
#   From: 2010.05.17/outbox.cif.g08.bks.cpg/sg9_7_cif.got.tgz:12075.got - 2010.06.03 20:04:27.
