data_PCOD9137320
_publ_section_title
;
Structure prediction by ZEFSAII (Michael W. Deem and Ramdas Pophale) SiO2 
 PCOD9137320
Probable space group: C C
;
_chemical_formula_sum "Si O2"
_cell_formula_units_Z 32
_cell_length_a 16.035141
_cell_length_b 7.797293
_cell_length_c 10.520805
_cell_angle_alpha 90.000000
_cell_angle_beta 93.066185
_cell_angle_gamma 90.000000
_cell_volume 1313.540393
_symmetry_space_group_name_H-M "C C"
_symmetry_group_IT_number 9
_symmetry_cell_setting 'monoclinic'
loop_
_space_group_symop_operation_xyz
x,y,z
x,-y,1/2+z
1/2+x,1/2+y,z
1/2+x,1/2-y,1/2+z
loop_
_atom_site_type_symbol
_atom_site_label
_atom_site_fract_x
_atom_site_fract_y
_atom_site_fract_z
Si Si1 0.715250 0.220628 0.254420
Si Si2 0.653089 0.473920 0.073001
Si Si3 0.551751 0.587870 0.314709
Si Si4 0.094725 0.452902 0.222921
Si Si5 0.761065 0.779379 0.155615
Si Si6 0.881590 0.952896 0.687115
Si Si7 0.924564 0.412135 0.095325
Si Si8 0.823226 0.473914 0.837033
O O1 0.692621 0.289793 0.111017
O O2 0.798882 0.108589 0.254896
O O3 0.748288 0.389546 0.327512
O O4 0.633214 0.120138 0.295234
O O5 0.597093 0.520031 0.191253
O O6 0.728027 0.610462 0.082522
O O7 0.596114 0.472390 0.945595
O O8 0.562351 0.795098 0.306584
O O9 0.457298 0.522717 0.290873
O O10 0.177433 0.391418 0.155140
O O11 0.019017 0.477288 0.119163
O O12 0.783694 0.710214 0.299018
O O13 0.843101 0.879870 0.114801
O O14 0.913965 0.795093 0.603453
O O15 0.879221 0.479976 0.218780
O O16 0.880201 0.472389 0.964439
#
# Coordination Sequence:
#
# PCOD9137320 Si02
#       8
#     4   4   4   4   4   4   4   4
#     4   9  20  39  63  92 125 167 215 262 320 387
#     4  10  22  41  64  92 130 170 209 262 325 390
#     4  10  22  42  65  92 130 169 211 266 324 384
#     4   9  20  40  64  91 125 169 217 265 319 387
#     4   9  20  39  63  92 125 167 215 262 320 387
#     4   9  20  40  64  91 125 169 217 265 319 387
#     4  10  22  42  65  92 130 169 211 266 324 384
#     4  10  22  41  64  92 130 170 209 262 325 390
#
# _framework density 24.361642
#
# number of rings (size 3 to 8) (size 9 to 14) (size 15 to 20)
#    0.000    2.500    0.000    0.000    0.000   16.000 
#    0.000   17.500    0.000    0.000    0.000    0.000 
#    0.000    0.000    0.000    0.000    0.000    0.000 
#
# Total GULP energy -89356.094747 kJ/mol
# GULP energy per Si atom -5584.755922 kJ/mol
# Density = 2.430619 g / cm^3
# Si number density = 24.361642 Si / 1000 Ang^3
#
#
#
# Elastic Constant Matrix: (Units=GPa)
#
#
# Indices 1 2 3 4 5 6 
#
# 1 174.6035 56.4327 87.8431 0.0000 60.7680 0.0000
# 2 56.4327 97.4633 37.7547 0.0000 24.3893 0.0000
# 3 87.8431 37.7547 190.8173 0.0000 43.0988 0.0000
# 4 0.0000 0.0000 0.0000 1.9929 0.0000 14.3448
# 5 60.7680 24.3893 43.0988 0.0000 46.8926 0.0000
# 6 0.0000 0.0000 0.0000 14.3448 0.0000 37.0358
#
#
#
# Elastic Compliance Matrix: (Units=1/GPa)
#
#
# Indices 1 2 3 4 5 6 
#
# 1 0.011978 -0.003106 -0.002219 0.000000 -0.011867 0.000000
# 2 -0.003106 0.012821 -0.000643 0.000000 -0.002052 0.000000
# 3 -0.002219 -0.000643 0.007148 0.000000 -0.003360 0.000000
# 4 0.000000 0.000000 0.000000 -0.280654 0.000000 0.108703
# 5 -0.011867 -0.002052 -0.003360 0.000000 0.040858 0.000000
# 6 0.000000 0.000000 0.000000 0.108703 0.000000 -0.015102
#
#
# Mechanical properties :
#
#
# Convention : Reuss Voigt Hill
#
# Bulk Modulus (GPa) = 49.97461 91.88278 70.92869
# Shear Modulus (GPa) = -24.46869 35.90785 5.71958
#
# Velocity S-wave (km/s) = -3.17266 3.84337 1.53391
# Velocity P-wave (km/s) = 2.67155 7.58244 5.68465
#
# Compressibility (1/GPa) = 0.02001016
#
# Stress axis : x y z
#
# Youngs Moduli (GPa) = 83.48929 77.99407 139.89325
#
# Poissons Ratio (x) = 0.24225 0.31044
# Poissons Ratio (y) = 0.25932 0.09002
# Poissons Ratio (z) = 0.18527 0.05019
#
# Static dielectric constant tensor:
#      x y z
#    x 1.954910 0.000000 -0.024440 
#    y 0.000000 2.183390 0.000000 
#    z -0.024440 0.000000 1.934480 
# 
# From -- ./inp_files/19083.got.cif
#   From: 2010.05.17/outbox.cif.g08.bks.cpg/sg9_10_cif.got.tgz:19083.got - 2010.06.03 20:04:27.
