data_PCOD9137741
_publ_section_title
;
Structure prediction by ZEFSAII (Michael W. Deem and Ramdas Pophale) SiO2 
 PCOD9137741
Probable space group: C C
;
_chemical_formula_sum "Si O2"
_cell_formula_units_Z 32
_cell_length_a 12.693087
_cell_length_b 7.475021
_cell_length_c 13.745457
_cell_angle_alpha 90.000000
_cell_angle_beta 68.348346
_cell_angle_gamma 90.000000
_cell_volume 1212.166267
_symmetry_space_group_name_H-M "C C"
_symmetry_group_IT_number 9
_symmetry_cell_setting 'monoclinic'
loop_
_space_group_symop_operation_xyz
x,y,z
x,-y,1/2+z
1/2+x,1/2+y,z
1/2+x,1/2-y,1/2+z
loop_
_atom_site_type_symbol
_atom_site_label
_atom_site_fract_x
_atom_site_fract_y
_atom_site_fract_z
Si Si1 0.823850 0.733205 0.230610
Si Si2 0.428154 0.539772 0.838964
Si Si3 0.475531 0.373655 0.016571
Si Si4 0.212337 0.989978 0.501133
Si Si5 0.078479 0.591956 0.846522
Si Si6 0.346502 0.147990 0.620863
Si Si7 0.556047 0.732879 0.165926
Si Si8 0.725637 0.212960 0.336169
O O1 0.696157 0.791170 0.301376
O O2 0.840530 0.542197 0.177840
O O3 0.877969 0.862224 0.129373
O O4 0.898298 0.772916 0.300945
O O5 0.524783 0.437837 0.744356
O O6 0.319537 0.413586 0.853802
O O7 0.454939 0.524879 0.942606
O O8 0.595862 0.400883 0.027830
O O9 0.490573 0.194499 0.945755
O O10 0.234809 0.899760 0.389611
O O11 0.176186 0.816707 0.578763
O O12 0.303817 0.107234 0.526900
O O13 0.110233 0.399229 0.877091
O O14 0.045279 0.604036 0.744867
O O15 0.465992 0.234131 0.611200
O O16 0.254936 0.262574 0.712994
#
# Coordination Sequence:
#
# PCOD9137741 Si02
#       8
#     4   4   4   4   4   4   4   4
#     4  11  21  42  71  99 139 186 228 300 360 423
#     4   9  21  43  63  98 136 173 231 291 348 432
#     4  11  24  41  73 102 138 188 235 290 373 426
#     4  12  24  43  69 101 141 182 236 300 357 433
#     4  10  23  46  70  99 145 183 238 300 360 438
#     4  11  25  44  68  97 140 181 241 292 360 427
#     4  10  22  44  66  96 136 181 227 300 352 428
#     4  10  24  45  66 100 139 184 230 297 354 427
#
# _framework density 26.399018000000002
#
# number of rings (size 3 to 8) (size 9 to 14) (size 15 to 20)
#    0.000    1.500    2.500    1.500    3.500    2.000 
#    6.750    0.000    0.000    0.000    0.000    0.000 
#    0.000    0.000    0.000    0.000    0.000    0.000 
#
# Total GULP energy -89593.760966 kJ/mol
# GULP energy per Si atom -5599.610060 kJ/mol
# Density = 2.633893 g / cm^3
# Si number density = 26.399018 Si / 1000 Ang^3
#
#
#
# Elastic Constant Matrix: (Units=GPa)
#
#
# Indices 1 2 3 4 5 6 
#
# 1 93.8142 24.2564 36.5703 0.0000 26.2604 0.0000
# 2 24.2564 69.1118 23.8950 0.0000 12.3043 0.0000
# 3 36.5703 23.8950 157.7829 0.0000 12.9252 0.0000
# 4 0.0000 0.0000 0.0000 37.8624 0.0000 6.0480
# 5 26.2604 12.3043 12.9252 0.0000 45.3808 0.0000
# 6 0.0000 0.0000 0.0000 6.0480 0.0000 46.2626
#
#
#
# Elastic Compliance Matrix: (Units=1/GPa)
#
#
# Indices 1 2 3 4 5 6 
#
# 1 0.014219 -0.002995 -0.002288 0.000000 -0.006764 0.000000
# 2 -0.002995 0.016484 -0.001616 0.000000 -0.002276 0.000000
# 3 -0.002288 -0.001616 0.007135 0.000000 -0.000270 0.000000
# 4 0.000000 0.000000 0.000000 0.026975 0.000000 -0.003526
# 5 -0.006764 -0.002276 -0.000270 0.000000 0.026644 0.000000
# 6 0.000000 0.000000 0.000000 -0.003526 0.000000 0.022077
#
#
# Mechanical properties :
#
#
# Convention : Reuss Voigt Hill
#
# Bulk Modulus (GPa) = 41.59612 54.46137 48.02875
# Shear Modulus (GPa) = 36.94248 41.63364 39.28806
#
# Velocity S-wave (km/s) = 3.74490 3.97557 3.86196
# Velocity P-wave (km/s) = 5.87281 6.46130 6.17407
#
# Compressibility (1/GPa) = 0.02404070
#
# Stress axis : x y z
#
# Youngs Moduli (GPa) = 70.32762 60.66337 140.15543
#
# Poissons Ratio (x) = 0.18170 0.32067
# Poissons Ratio (y) = 0.21064 0.22646
# Poissons Ratio (z) = 0.16091 0.09802
#
# Static dielectric constant tensor:
#      x y z
#    x 2.080140 0.000000 0.001100 
#    y 0.000000 2.076390 0.000000 
#    z 0.001100 0.000000 2.096890 
# 
# From -- ./inp_files/17912.got.cif
#   From: 2010.05.17/outbox.cif.g08.bks.cpg/sg9_9_cif.got.tgz:17912.got - 2010.06.03 20:04:27.
