data_PCOD9137270
_publ_section_title
;
Structure prediction by ZEFSAII (Michael W. Deem and Ramdas Pophale) SiO2 
 PCOD9137270
Probable space group: C C
;
_chemical_formula_sum "Si O2"
_cell_formula_units_Z 28
_cell_length_a 11.518007
_cell_length_b 6.752109
_cell_length_c 14.210556
_cell_angle_alpha 90.000000
_cell_angle_beta 92.963895
_cell_angle_gamma 90.000000
_cell_volume 1103.688495
_symmetry_space_group_name_H-M "C C"
_symmetry_group_IT_number 9
_symmetry_cell_setting 'monoclinic'
loop_
_space_group_symop_operation_xyz
x,y,z
x,-y,1/2+z
1/2+x,1/2+y,z
1/2+x,1/2-y,1/2+z
loop_
_atom_site_type_symbol
_atom_site_label
_atom_site_fract_x
_atom_site_fract_y
_atom_site_fract_z
Si Si1 0.077640 0.061011 0.557990
Si Si2 0.821483 0.171875 0.478272
Si Si3 0.715189 0.043747 0.137806
Si Si4 0.649400 0.456665 0.851377
Si Si5 0.966066 0.795833 0.710180
Si Si6 0.889183 0.518322 0.339461
Si Si7 0.140735 0.601622 0.325088
O O1 0.147437 0.261537 0.593295
O O2 0.946585 0.107492 0.519882
O O3 0.138274 0.004320 0.462127
O O4 0.052854 0.888851 0.634491
O O5 0.853814 0.370172 0.422375
O O6 0.747118 0.051602 0.397275
O O7 0.738359 0.130453 0.564386
O O8 0.843471 0.098302 0.181557
O O9 0.643832 0.985113 0.227578
O O10 0.532862 0.354698 0.809469
O O11 0.771757 0.354467 0.830433
O O12 0.656216 0.667985 0.800173
O O13 0.913263 0.581023 0.738394
O O14 0.015592 0.600583 0.369512
#
# Coordination Sequence:
#
# PCOD9137270 Si02
#       7
#     4   4   4   4   4   4   4
#     4  11  22  40  73 102 134 181 236 284 352 409
#     4  10  22  40  69 100 140 176 225 290 337 409
#     4  11  22  42  73 104 134 184 236 282 351 412
#     4  11  23  45  67 100 139 181 227 289 345 412
#     4  11  21  44  68  97 142 177 227 291 342 409
#     4  11  23  42  65 100 138 182 232 276 347 414
#     4  11  23  45  69  99 141 181 229 282 350 415
#
# _framework density 25.369477
#
# number of rings (size 3 to 8) (size 9 to 14) (size 15 to 20)
#    0.000    1.143    5.714    0.857    0.000    4.571 
#    2.571    7.143    0.000    0.000    0.000    0.000 
#    0.000    0.000    0.000    0.000    0.000    0.000 
#
# Total GULP energy -77970.704205 kJ/mol
# GULP energy per Si atom -5569.336015 kJ/mol
# Density = 2.531174 g / cm^3
# Si number density = 25.369477 Si / 1000 Ang^3
#
#
#
# Elastic Constant Matrix: (Units=GPa)
#
#
# Indices 1 2 3 4 5 6 
#
# 1 219.3323 41.6061 63.4568 0.0000 -7.0079 0.0000
# 2 41.6061 52.9453 12.4202 0.0000 1.6053 0.0000
# 3 63.4568 12.4202 113.1448 0.0000 -7.5171 0.0000
# 4 0.0000 0.0000 0.0000 28.1937 0.0000 -5.4330
# 5 -7.0079 1.6053 -7.5171 0.0000 45.4657 0.0000
# 6 0.0000 0.0000 0.0000 -5.4330 0.0000 31.5846
#
#
#
# Elastic Compliance Matrix: (Units=1/GPa)
#
#
# Indices 1 2 3 4 5 6 
#
# 1 0.006248 -0.004225 -0.003000 0.000000 0.000616 0.000000
# 2 -0.004225 0.022293 -0.000175 0.000000 -0.001467 0.000000
# 3 -0.003000 -0.000175 0.010626 0.000000 0.001301 0.000000
# 4 0.000000 0.000000 0.000000 0.036685 0.000000 0.006310
# 5 0.000616 -0.001467 0.001301 0.000000 0.022356 0.000000
# 6 0.000000 0.000000 0.000000 0.006310 0.000000 0.032746
#
#
# Mechanical properties :
#
#
# Convention : Reuss Voigt Hill
#
# Bulk Modulus (GPa) = 41.03707 68.93206 54.98456
# Shear Modulus (GPa) = 32.49332 38.91141 35.70237
#
# Velocity S-wave (km/s) = 3.58271 3.92061 3.75546
# Velocity P-wave (km/s) = 5.77281 6.90834 6.36594
#
# Compressibility (1/GPa) = 0.02436821
#
# Stress axis : x y z
#
# Youngs Moduli (GPa) = 160.04331 44.85664 94.10732
#
# Poissons Ratio (x) = 0.18953 0.28228
# Poissons Ratio (y) = 0.67621 0.01647
# Poissons Ratio (z) = 0.48006 0.00785
#
# Static dielectric constant tensor:
#      x y z
#    x 2.074820 0.000000 -0.003280 
#    y 0.000000 2.085070 0.000000 
#    z -0.003280 0.000000 2.025690 
# 
# From -- ./inp_files/24105.got.cif
#   From: 2010.05.17/outbox.cif.g08.bks.cpg/sg9_13_cif.got.tgz:24105.got - 2010.06.03 20:04:27.
