data_PCOD9137443
_publ_section_title
;
Structure prediction by ZEFSAII (Michael W. Deem and Ramdas Pophale) SiO2 
 PCOD9137443
Probable space group: C C
;
_chemical_formula_sum "Si O2"
_cell_formula_units_Z 28
_cell_length_a 4.865564
_cell_length_b 27.067108
_cell_length_c 8.392252
_cell_angle_alpha 90.000000
_cell_angle_beta 111.236895
_cell_angle_gamma 90.000000
_cell_volume 1030.176780
_symmetry_space_group_name_H-M "C C"
_symmetry_group_IT_number 9
_symmetry_cell_setting 'monoclinic'
loop_
_space_group_symop_operation_xyz
x,y,z
x,-y,1/2+z
1/2+x,1/2+y,z
1/2+x,1/2-y,1/2+z
loop_
_atom_site_type_symbol
_atom_site_label
_atom_site_fract_x
_atom_site_fract_y
_atom_site_fract_z
Si Si1 0.286860 0.122720 0.286720
Si Si2 0.165852 0.320844 0.656399
Si Si3 0.109494 0.481587 0.576680
Si Si4 0.293578 0.781676 0.289274
Si Si5 0.385702 0.926805 0.239402
Si Si6 0.178315 0.663050 0.653572
Si Si7 0.993317 0.047087 0.433934
O O1 0.428223 0.137544 0.150146
O O2 0.530121 0.143120 0.461633
O O3 0.207442 0.068759 0.336545
O O4 0.982174 0.153360 0.222372
O O5 0.190839 0.274542 0.781903
O O6 0.032821 0.295785 0.471750
O O7 0.896492 0.451946 0.412981
O O8 0.956481 0.529435 0.625137
O O9 0.380093 0.499934 0.519933
O O10 0.216474 0.453257 0.754677
O O11 0.468996 0.791424 0.162973
O O12 0.008727 0.817064 0.231142
O O13 0.606597 0.881683 0.264437
O O14 0.067313 0.914807 0.095045
#
# Coordination Sequence:
#
# PCOD9137443 Si02
#       7
#     4   4   4   4   4   4   4
#     4  11  25  44  71 102 140 181 230 286 345 416
#     4  12  26  46  72 102 138 179 228 284 352 419
#     4  10  22  42  64  96 134 182 238 282 352 404
#     4  12  26  46  72 102 138 179 228 284 352 419
#     4  10  23  40  66  95 138 179 237 281 353 401
#     4  11  25  44  71 102 140 181 230 286 345 416
#     4  10  23  40  66  95 138 179 237 281 353 401
#
# _framework density 27.179801000000001
#
# number of rings (size 3 to 8) (size 9 to 14) (size 15 to 20)
#    0.000    1.143    0.000    5.143   12.000    0.000 
#    0.000    0.000    0.000    0.000    0.000    0.000 
#    0.000    0.000    0.000    0.000    0.000    0.000 
#
# Total GULP energy -78156.770265 kJ/mol
# GULP energy per Si atom -5582.626447 kJ/mol
# Density = 2.711794 g / cm^3
# Si number density = 27.179801 Si / 1000 Ang^3
#
#
#
# Elastic Constant Matrix: (Units=GPa)
#
#
# Indices 1 2 3 4 5 6 
#
# 1 132.9526 32.7316 36.7135 0.0000 25.8007 0.0000
# 2 32.7316 102.6846 40.4202 0.0000 4.4799 0.0000
# 3 36.7135 40.4202 139.9745 0.0000 27.3055 0.0000
# 4 0.0000 0.0000 0.0000 26.1971 0.0000 -43.3501
# 5 25.8007 4.4799 27.3055 0.0000 30.6865 0.0000
# 6 0.0000 0.0000 0.0000 -43.3501 0.0000 -47.8541
#
#
#
# Elastic Compliance Matrix: (Units=1/GPa)
#
#
# Indices 1 2 3 4 5 6 
#
# 1 0.009716 -0.002643 -0.000323 0.000000 -0.007496 0.000000
# 2 -0.002643 0.011762 -0.003390 0.000000 0.003522 0.000000
# 3 -0.000323 -0.003390 0.009751 0.000000 -0.007910 0.000000
# 4 0.000000 0.000000 0.000000 0.015275 0.000000 -0.013837
# 5 -0.007496 0.003522 -0.007910 0.000000 0.045414 0.000000
# 6 0.000000 0.000000 0.000000 -0.013837 0.000000 -0.008362
#
#
# Mechanical properties :
#
#
# Convention : Reuss Voigt Hill
#
# Bulk Modulus (GPa) = 54.00572 66.14913 60.07743
# Shear Modulus (GPa) = 48.80896 19.52234 34.16565
#
# Velocity S-wave (km/s) = 4.24226 2.68296 3.54930
# Velocity P-wave (km/s) = 6.62636 5.82993 6.24086
#
# Compressibility (1/GPa) = 0.01851656
#
# Stress axis : x y z
#
# Youngs Moduli (GPa) = 102.92376 85.02046 102.55445
#
# Poissons Ratio (x) = 0.22470 0.03312
# Poissons Ratio (y) = 0.27202 0.34769
# Poissons Ratio (z) = 0.03324 0.28824
#
# Static dielectric constant tensor:
#      x y z
#    x 2.920560 0.000000 0.668670 
#    y 0.000000 3.125900 0.000000 
#    z 0.668670 0.000000 2.729380 
# 
# From -- ./inp_files/4275.got.cif
#   From: 2010.05.17/outbox.cif.g08.bks.cpg/sg9_3_cif.got.tgz:4275.got - 2010.06.03 20:04:27.
