data_PCOD9137017
_publ_section_title
;
Structure prediction by ZEFSAII (Michael W. Deem and Ramdas Pophale) SiO2 
 PCOD9137017
Probable space group: C C
;
_chemical_formula_sum "Si O2"
_cell_formula_units_Z 32
_cell_length_a 17.001523
_cell_length_b 17.358601
_cell_length_c 5.543389
_cell_angle_alpha 90.000000
_cell_angle_beta 120.946193
_cell_angle_gamma 90.000000
_cell_volume 1403.098949
_symmetry_space_group_name_H-M "C C"
_symmetry_group_IT_number 9
_symmetry_cell_setting 'monoclinic'
loop_
_space_group_symop_operation_xyz
x,y,z
x,-y,1/2+z
1/2+x,1/2+y,z
1/2+x,1/2-y,1/2+z
loop_
_atom_site_type_symbol
_atom_site_label
_atom_site_fract_x
_atom_site_fract_y
_atom_site_fract_z
Si Si1 0.529700 0.674403 0.613220
Si Si2 0.464834 0.230316 0.631321
Si Si3 0.277039 0.219889 0.599088
Si Si4 0.230298 0.548668 0.602054
Si Si5 0.348754 0.323316 0.089106
Si Si6 0.728272 0.542352 0.561864
Si Si7 0.619675 0.191416 0.562768
Si Si8 0.030348 0.983314 0.229844
O O1 0.520300 0.695944 0.320931
O O2 0.385808 0.212038 0.700760
O O3 0.580269 0.599744 0.787182
O O4 0.569048 0.750172 0.800944
O O5 0.427202 0.352139 0.031667
O O6 0.401238 0.257567 0.315383
O O7 0.545358 0.176677 0.659846
O O8 0.250509 0.132640 0.610472
O O9 0.209315 0.261470 0.300185
O O10 0.271966 0.279685 0.814105
O O11 0.230667 0.499109 0.353840
O O12 0.313965 0.608955 0.702787
O O13 0.147188 0.610271 0.490933
O O14 0.759636 0.497154 0.856175
O O15 0.618135 0.538473 0.376312
O O16 0.980037 0.002165 0.901245
#
# Coordination Sequence:
#
# PCOD9137017 Si02
#       8
#     4   4   4   4   4   4   4   4
#     4  10  24  41  72 102 143 181 244 302 355 444
#     4  10  24  43  71 105 136 181 260 293 359 424
#     4  11  23  44  75 101 145 189 250 304 352 447
#     4  12  28  47  73 107 149 194 250 310 381 443
#     4  10  24  46  69 104 136 189 248 303 363 429
#     4  10  23  38  63 103 142 182 223 282 368 431
#     4  11  24  44  76 102 136 196 245 303 363 431
#     4  10  22  37  57  98 143 174 216 271 359 435
#
# _framework density 22.806661999999999
#
# number of rings (size 3 to 8) (size 9 to 14) (size 15 to 20)
#    0.000    1.500    1.250    2.250   14.000    1.000 
#    0.000    1.250    0.000    0.000    0.000    0.000 
#    0.000    0.000    0.000    0.000    0.000    0.000 
#
# Total GULP energy -89191.025156 kJ/mol
# GULP energy per Si atom -5574.439072 kJ/mol
# Density = 2.275475 g / cm^3
# Si number density = 22.806662 Si / 1000 Ang^3
#
#
#
# Elastic Constant Matrix: (Units=GPa)
#
#
# Indices 1 2 3 4 5 6 
#
# 1 108.0530 48.7888 25.0374 0.0000 -7.8417 0.0000
# 2 48.7888 96.3861 16.1998 0.0000 0.7872 0.0000
# 3 25.0374 16.1998 90.4522 0.0000 -17.3738 0.0000
# 4 0.0000 0.0000 0.0000 28.8035 0.0000 -9.1842
# 5 -7.8417 0.7872 -17.3738 0.0000 35.2775 0.0000
# 6 0.0000 0.0000 0.0000 -9.1842 0.0000 47.1139
#
#
#
# Elastic Compliance Matrix: (Units=1/GPa)
#
#
# Indices 1 2 3 4 5 6 
#
# 1 0.012598 -0.006051 -0.002032 0.000000 0.001935 0.000000
# 2 -0.006051 0.013658 -0.001202 0.000000 -0.002242 0.000000
# 3 -0.002032 -0.001202 0.012979 0.000000 0.005967 0.000000
# 4 0.000000 0.000000 0.000000 0.037019 0.000000 0.007216
# 5 0.001935 -0.002242 0.005967 0.000000 0.031766 0.000000
# 6 0.000000 0.000000 0.000000 0.007216 0.000000 0.022632
#
#
# Mechanical properties :
#
#
# Convention : Reuss Voigt Hill
#
# Bulk Modulus (GPa) = 48.38818 52.77147 50.57983
# Shear Modulus (GPa) = 32.02852 35.89669 33.96261
#
# Velocity S-wave (km/s) = 3.75153 3.97162 3.86314
# Velocity P-wave (km/s) = 6.32677 6.64985 6.49032
#
# Compressibility (1/GPa) = 0.02066620
#
# Stress axis : x y z
#
# Youngs Moduli (GPa) = 79.37603 73.21566 77.04516
#
# Poissons Ratio (x) = 0.44305 0.15654
# Poissons Ratio (y) = 0.48033 0.09259
# Poissons Ratio (z) = 0.16128 0.08799
#
# Static dielectric constant tensor:
#      x y z
#    x 1.990760 0.000000 -0.060940 
#    y 0.000000 1.882220 0.000000 
#    z -0.060940 0.000000 1.888970 
# 
# From -- ./inp_files/2979.got.cif
#   From: 2010.05.17/outbox.cif.g08.bks.cpg/sg9_2_cif.got.tgz:2979.got - 2010.06.03 20:04:27.
