data_PCOD9137797
_publ_section_title
;
Structure prediction by ZEFSAII (Michael W. Deem and Ramdas Pophale) SiO2 
 PCOD9137797
Probable space group: C C
;
_chemical_formula_sum "Si O2"
_cell_formula_units_Z 32
_cell_length_a 18.353396
_cell_length_b 5.163430
_cell_length_c 13.338350
_cell_angle_alpha 90.000000
_cell_angle_beta 103.100000
_cell_angle_gamma 90.000000
_cell_volume 1231.133302
_symmetry_space_group_name_H-M "C C"
_symmetry_group_IT_number 9
_symmetry_cell_setting 'monoclinic'
loop_
_space_group_symop_operation_xyz
x,y,z
x,-y,1/2+z
1/2+x,1/2+y,z
1/2+x,1/2-y,1/2+z
loop_
_atom_site_type_symbol
_atom_site_label
_atom_site_fract_x
_atom_site_fract_y
_atom_site_fract_z
Si Si1 0.495700 0.078539 0.730360
Si Si2 0.956003 0.203819 0.479413
Si Si3 0.779223 0.530315 0.419113
Si Si4 0.631582 0.695840 0.322106
Si Si5 0.361737 0.395437 0.605271
Si Si6 0.094548 0.791171 0.143848
Si Si7 0.745367 0.914600 0.746002
Si Si8 0.910576 0.722375 0.353774
O O1 0.559084 0.146888 0.833021
O O2 0.439383 0.287137 0.671427
O O3 0.440860 0.865183 0.757710
O O4 0.547380 0.964243 0.659523
O O5 0.890854 0.123718 0.540124
O O6 0.937305 0.006597 0.385104
O O7 0.942163 0.497691 0.439525
O O8 0.038635 0.117647 0.540486
O O9 0.691228 0.571531 0.414829
O O10 0.820605 0.665691 0.528051
O O11 0.774293 0.260623 0.350593
O O12 0.822760 0.698712 0.346967
O O13 0.594751 0.480981 0.239445
O O14 0.687785 0.875882 0.275152
O O15 0.308232 0.469152 0.681323
O O16 0.182443 0.745421 0.160015
#
# Coordination Sequence:
#
# PCOD9137797 Si02
#       8
#     4   4   4   4   4   4   4   4
#     4  11  23  45  75 102 138 197 244 301 371 443
#     4  11  25  45  72 108 147 182 246 308 355 444
#     4  10  23  43  65 103 142 182 239 305 356 442
#     4  10  23  44  67  98 143 187 239 302 363 438
#     4  11  23  44  72 104 137 197 246 300 373 434
#     4  10  22  44  69  98 142 186 241 300 363 444
#     4  10  23  44  68  98 146 190 241 302 373 435
#     4  11  26  43  74 105 147 185 242 306 368 428
#
# _framework density 25.99231
#
# number of rings (size 3 to 8) (size 9 to 14) (size 15 to 20)
#    0.000    1.500    2.500    1.500    7.000    2.000 
#   13.500    0.000    0.000    0.000    0.000    0.000 
#    0.000    0.000    0.000    0.000    0.000    0.000 
#
# Total GULP energy -89206.116749 kJ/mol
# GULP energy per Si atom -5575.382297 kJ/mol
# Density = 2.593315 g / cm^3
# Si number density = 25.992310 Si / 1000 Ang^3
#
#
#
# Elastic Constant Matrix: (Units=GPa)
#
#
# Indices 1 2 3 4 5 6 
#
# 1 153.5713 17.1149 47.2492 0.0000 18.3966 0.0000
# 2 17.1149 60.3096 30.4017 0.0000 1.2180 0.0000
# 3 47.2492 30.4017 103.0300 0.0000 14.4845 0.0000
# 4 0.0000 0.0000 0.0000 39.9511 0.0000 -6.7146
# 5 18.3966 1.2180 14.4845 0.0000 53.4774 0.0000
# 6 0.0000 0.0000 0.0000 -6.7146 0.0000 39.4384
#
#
#
# Elastic Compliance Matrix: (Units=1/GPa)
#
#
# Indices 1 2 3 4 5 6 
#
# 1 0.007756 -0.000587 -0.003130 0.000000 -0.001807 0.000000
# 2 -0.000587 0.019592 -0.005694 0.000000 0.001298 0.000000
# 3 -0.003130 -0.005694 0.013153 0.000000 -0.002356 0.000000
# 4 0.000000 0.000000 0.000000 0.025768 0.000000 0.004387
# 5 -0.001807 0.001298 -0.002356 0.000000 0.019930 0.000000
# 6 0.000000 0.000000 0.000000 0.004387 0.000000 0.026103
#
#
# Mechanical properties :
#
#
# Convention : Reuss Voigt Hill
#
# Bulk Modulus (GPa) = 46.12801 56.27140 51.19971
# Shear Modulus (GPa) = 36.14008 41.38306 38.76157
#
# Velocity S-wave (km/s) = 3.73287 3.99448 3.86589
# Velocity P-wave (km/s) = 6.03029 6.55520 6.29822
#
# Compressibility (1/GPa) = 0.02167880
#
# Stress axis : x y z
#
# Youngs Moduli (GPa) = 128.92431 51.04125 76.02962
#
# Poissons Ratio (x) = 0.02996 0.23796
# Poissons Ratio (y) = 0.07567 0.43295
# Poissons Ratio (z) = 0.40351 0.29065
#
# Static dielectric constant tensor:
#      x y z
#    x 2.020890 0.000000 0.060870 
#    y 0.000000 2.218780 0.000000 
#    z 0.060870 0.000000 2.233970 
# 
# From -- ./inp_files/26349.got.cif
#   From: 2010.05.17/outbox.cif.g08.bks.cpg/sg9_14_cif.got.tgz:26349.got - 2010.06.03 20:04:27.
