data_PCOD9137527
_publ_section_title
;
Structure prediction by ZEFSAII (Michael W. Deem and Ramdas Pophale) SiO2 
 PCOD9137527
Probable space group: C C
;
_chemical_formula_sum "Si O2"
_cell_formula_units_Z 32
_cell_length_a 10.728658
_cell_length_b 9.708193
_cell_length_c 25.984983
_cell_angle_alpha 90.000000
_cell_angle_beta 150.657220
_cell_angle_gamma 90.000000
_cell_volume 1326.270055
_symmetry_space_group_name_H-M "C C"
_symmetry_group_IT_number 9
_symmetry_cell_setting 'monoclinic'
loop_
_space_group_symop_operation_xyz
x,y,z
x,-y,1/2+z
1/2+x,1/2+y,z
1/2+x,1/2-y,1/2+z
loop_
_atom_site_type_symbol
_atom_site_label
_atom_site_fract_x
_atom_site_fract_y
_atom_site_fract_z
Si Si1 0.133040 0.868952 0.503490
Si Si2 0.362839 0.519991 0.279362
Si Si3 0.577549 0.821772 0.338296
Si Si4 0.927890 0.523400 0.205869
Si Si5 0.340786 0.592390 0.608746
Si Si6 0.649130 0.692445 0.817461
Si Si7 0.222598 0.343058 0.499972
Si Si8 0.943050 0.555892 0.550080
O O1 0.212071 0.943428 0.586004
O O2 0.306394 0.732259 0.564292
O O3 0.844250 0.821529 0.404257
O O4 0.195734 0.971649 0.479290
O O5 0.493045 0.669850 0.325610
O O6 0.550828 0.400324 0.328559
O O7 0.175604 0.495792 0.259523
O O8 0.162373 0.521330 0.160121
O O9 0.637677 0.898716 0.413411
O O10 0.387607 0.900766 0.231753
O O11 0.008026 0.660894 0.265476
O O12 0.550405 0.621368 0.728323
O O13 0.368816 0.457038 0.585110
O O14 0.067221 0.571283 0.539062
O O15 0.953411 0.702330 0.928028
O O16 0.397729 0.210100 0.554329
#
# Coordination Sequence:
#
# PCOD9137527 Si02
#       8
#     4   4   4   4   4   4   4   4
#     4  10  22  42  69  96 132 178 223 277 333 397
#     4  10  23  46  69  95 132 179 224 281 337 391
#     4  12  24  42  68  99 137 178 224 274 334 403
#     4  10  23  46  65  97 139 174 222 281 334 392
#     4  10  23  46  65  97 139 174 222 281 334 392
#     4  10  22  42  69  96 132 178 223 277 333 397
#     4  12  24  42  68  99 137 178 224 274 334 403
#     4  10  23  46  69  95 132 179 224 281 337 391
#
# _framework density 24.127815999999999
#
# number of rings (size 3 to 8) (size 9 to 14) (size 15 to 20)
#    0.000    1.500    2.500    1.500    0.000    5.000 
#    9.000    0.000    0.000    0.000    0.000    0.000 
#    0.000    0.000    0.000    0.000    0.000    0.000 
#
# Total GULP energy -89492.563815 kJ/mol
# GULP energy per Si atom -5593.285238 kJ/mol
# Density = 2.407290 g / cm^3
# Si number density = 24.127816 Si / 1000 Ang^3
#
#
#
# Elastic Constant Matrix: (Units=GPa)
#
#
# Indices 1 2 3 4 5 6 
#
# 1 72.1919 56.7137 -5.7265 0.0000 4.4845 0.0000
# 2 56.7137 93.8720 -4.6901 -0.0001 -26.9740 0.0000
# 3 -5.7265 -4.6901 50.1510 -0.0003 8.8949 -0.0002
# 4 0.0000 -0.0001 -0.0003 31.3469 -0.0001 -2.0239
# 5 4.4845 -26.9740 8.8949 -0.0001 42.8126 0.0000
# 6 0.0000 0.0000 -0.0002 -2.0239 0.0000 31.9162
#
#
#
# Elastic Compliance Matrix: (Units=1/GPa)
#
#
# Indices 1 2 3 4 5 6 
#
# 1 0.040838 -0.031702 0.006229 0.000000 -0.025545 0.000000
# 2 -0.031702 0.037620 -0.005082 0.000000 0.028079 0.000000
# 3 0.006229 -0.005082 0.021657 0.000000 -0.008354 0.000000
# 4 0.000000 0.000000 0.000000 0.032032 0.000000 0.002031
# 5 -0.025545 0.028079 -0.008354 0.000000 0.045460 0.000000
# 6 0.000000 0.000000 0.000000 0.002031 0.000000 0.031461
#
#
# Mechanical properties :
#
#
# Convention : Reuss Voigt Hill
#
# Bulk Modulus (GPa) = 25.63666 34.31214 29.97440
# Shear Modulus (GPa) = 17.65665 32.54299 25.09982
#
# Velocity S-wave (km/s) = 2.70811 3.67655 3.22884
# Velocity P-wave (km/s) = 4.51961 5.68107 5.13330
#
# Compressibility (1/GPa) = 0.03900664
#
# Stress axis : x y z
#
# Youngs Moduli (GPa) = 24.48724 26.58145 46.17345
#
# Poissons Ratio (x) = 0.84268 -0.28762
# Poissons Ratio (y) = 0.77629 0.23464
# Poissons Ratio (z) = -0.15253 0.13508
#
# Static dielectric constant tensor:
#      x y z
#    x 1.930260 0.000000 0.021750 
#    y 0.000000 1.879590 0.000000 
#    z 0.021750 0.000000 2.013000 
# 
# From -- ./inp_files/37271.got.cif
#   From: 2010.05.17/outbox.cif.g08.bks.cpg/sg9_19_cif.got.tgz:37271.got - 2010.06.03 20:04:27.
