data_PCOD9137777
_publ_section_title
;
Structure prediction by ZEFSAII (Michael W. Deem and Ramdas Pophale) SiO2 
 PCOD9137777
Probable space group: C C
;
_chemical_formula_sum "Si O2"
_cell_formula_units_Z 28
_cell_length_a 19.593051
_cell_length_b 8.623711
_cell_length_c 11.209753
_cell_angle_alpha 90.000000
_cell_angle_beta 39.041232
_cell_angle_gamma 90.000000
_cell_volume 1193.025626
_symmetry_space_group_name_H-M "C C"
_symmetry_group_IT_number 9
_symmetry_cell_setting 'monoclinic'
loop_
_space_group_symop_operation_xyz
x,y,z
x,-y,1/2+z
1/2+x,1/2+y,z
1/2+x,1/2-y,1/2+z
loop_
_atom_site_type_symbol
_atom_site_label
_atom_site_fract_x
_atom_site_fract_y
_atom_site_fract_z
Si Si1 0.199450 0.331925 0.688300
Si Si2 0.812601 0.980626 0.849812
Si Si3 0.911453 0.433786 0.445405
Si Si4 0.190202 0.990537 0.104060
Si Si5 0.001960 0.178659 0.482876
Si Si6 0.308879 0.842023 0.254017
Si Si7 0.590373 0.967401 0.509940
O O1 0.264710 0.473486 0.542529
O O2 0.273510 0.245959 0.683293
O O3 0.177707 0.195445 0.622487
O O4 0.098931 0.398046 0.897949
O O5 0.913575 0.086412 0.678871
O O6 0.841233 0.799914 0.795708
O O7 0.710820 0.024131 0.902639
O O8 0.800129 0.456275 0.523441
O O9 0.943897 0.266409 0.451299
O O10 0.891810 0.531072 0.593984
O O11 0.006100 0.495546 0.230181
O O12 0.089930 0.063670 0.308470
O O13 0.209109 0.065535 0.949093
O O14 0.060188 0.307835 0.485977
#
# Coordination Sequence:
#
# PCOD9137777 Si02
#       7
#     4   4   4   4   4   4   4
#     4  10  22  44  68  97 131 173 224 276 331 395
#     4  11  24  42  67  97 133 176 224 276 332 394
#     4  11  23  43  68  94 131 179 224 276 334 394
#     4  11  24  42  67  97 133 176 224 276 332 394
#     4  12  24  40  62  98 136 176 222 274 332 398
#     4  10  22  44  68  97 131 173 224 276 331 395
#     4  11  23  43  68  94 131 179 224 276 334 394
#
# _framework density 23.469740999999999
#
# number of rings (size 3 to 8) (size 9 to 14) (size 15 to 20)
#    0.000    1.143    0.000    7.714    0.000    5.714 
#    0.000    8.571    0.000    0.000    0.000    0.000 
#    0.000    0.000    0.000    0.000    0.000    0.000 
#
# Total GULP energy -78320.597300 kJ/mol
# GULP energy per Si atom -5594.328379 kJ/mol
# Density = 2.341632 g / cm^3
# Si number density = 23.469741 Si / 1000 Ang^3
#
#
#
# Elastic Constant Matrix: (Units=GPa)
#
#
# Indices 1 2 3 4 5 6 
#
# 1 32.7776 -8.4386 4.1515 0.0000 -10.3577 0.0000
# 2 -8.4386 104.4177 27.2224 0.0000 5.9430 0.0000
# 3 4.1515 27.2224 109.2711 0.0000 1.6168 0.0000
# 4 0.0000 0.0000 0.0000 60.4152 0.0000 11.9015
# 5 -10.3577 5.9430 1.6168 0.0000 44.6963 0.0000
# 6 0.0000 0.0000 0.0000 11.9015 0.0000 -5.9541
#
#
#
# Elastic Compliance Matrix: (Units=1/GPa)
#
#
# Indices 1 2 3 4 5 6 
#
# 1 0.033899 0.002860 -0.002112 0.000000 0.007552 0.000000
# 2 0.002860 0.010556 -0.002729 0.000000 -0.000642 0.000000
# 3 -0.002112 -0.002729 0.009919 0.000000 -0.000485 0.000000
# 4 0.000000 0.000000 0.000000 0.011876 0.000000 0.023738
# 5 0.007552 -0.000642 -0.000485 0.000000 0.024226 0.000000
# 6 0.000000 0.000000 0.000000 0.023738 0.000000 -0.120502
#
#
# Mechanical properties :
#
#
# Convention : Reuss Voigt Hill
#
# Bulk Modulus (GPa) = 19.83645 32.48188 26.15917
# Shear Modulus (GPa) = -539.92841 34.73356 -252.59743
#
# Velocity S-wave (km/s) = -15.18395 3.85116 -10.38559
# Velocity P-wave (km/s) = 17.28968 5.80045 11.51711
#
# Compressibility (1/GPa) = 0.05041224
#
# Stress axis : x y z
#
# Youngs Moduli (GPa) = 29.49948 94.73200 100.81816
#
# Poissons Ratio (x) = -0.27097 0.21295
# Poissons Ratio (y) = -0.08438 0.27513
# Poissons Ratio (z) = 0.06231 0.25852
#
# Static dielectric constant tensor:
#      x y z
#    x 1.987990 0.000000 0.066670 
#    y 0.000000 1.875230 0.000000 
#    z 0.066670 0.000000 1.841210 
# 
# From -- ./inp_files/20777.got.cif
#   From: 2010.05.17/outbox.cif.g08.bks.cpg/sg9_11_cif.got.tgz:20777.got - 2010.06.03 20:04:27.
