data_PCOD9137909
_publ_section_title
;
Structure prediction by ZEFSAII (Michael W. Deem and Ramdas Pophale) SiO2 
 PCOD9137909
Probable space group: C C
;
_chemical_formula_sum "Si O2"
_cell_formula_units_Z 28
_cell_length_a 17.508472
_cell_length_b 5.228616
_cell_length_c 19.265881
_cell_angle_alpha 90.000000
_cell_angle_beta 141.263972
_cell_angle_gamma 90.000000
_cell_volume 1103.603619
_symmetry_space_group_name_H-M "C C"
_symmetry_group_IT_number 9
_symmetry_cell_setting 'monoclinic'
loop_
_space_group_symop_operation_xyz
x,y,z
x,-y,1/2+z
1/2+x,1/2+y,z
1/2+x,1/2-y,1/2+z
loop_
_atom_site_type_symbol
_atom_site_label
_atom_site_fract_x
_atom_site_fract_y
_atom_site_fract_z
Si Si1 0.027120 0.998524 0.572680
Si Si2 0.322848 0.806321 0.982179
Si Si3 0.064443 0.982685 0.834541
Si Si4 0.300889 0.363985 0.695049
Si Si5 0.241993 0.336281 0.290295
Si Si6 0.654864 0.355208 0.539675
Si Si7 0.532607 0.854689 0.683538
O O1 0.140357 0.838195 0.682085
O O2 0.032578 0.910305 0.498334
O O3 0.904883 0.945119 0.529955
O O4 0.049474 0.283486 0.613189
O O5 0.313644 0.861326 0.892024
O O6 0.187107 0.816127 0.914199
O O7 0.409021 0.981443 0.092082
O O8 0.034701 0.135281 0.742832
O O9 0.106939 0.161737 0.927702
O O10 0.941073 0.844217 0.770311
O O11 0.297449 0.468405 0.772818
O O12 0.230566 0.599629 0.608321
O O13 0.235062 0.101259 0.623477
O O14 0.159769 0.500604 0.285258
#
# Coordination Sequence:
#
# PCOD9137909 Si02
#       7
#     4   4   4   4   4   4   4
#     4  10  22  45  70 104 143 194 259 311 372 458
#     4  11  25  41  73 106 149 194 254 313 390 447
#     4  12  27  46  72 113 151 204 247 323 398 456
#     4  11  26  49  77 109 157 196 262 315 386 471
#     4  10  22  46  74 106 142 200 255 320 377 456
#     4  11  26  50  76 109 151 208 253 323 385 463
#     4  11  24  45  70 107 147 196 258 321 370 473
#
# _framework density 25.37143
#
# number of rings (size 3 to 8) (size 9 to 14) (size 15 to 20)
#    0.000    1.143    2.857    1.714    4.000    3.429 
#    5.143    0.000    0.000    0.000    0.000    0.000 
#    0.000    0.000    0.000    0.000    0.000    0.000 
#
# Total GULP energy -77982.860901 kJ/mol
# GULP energy per Si atom -5570.204350 kJ/mol
# Density = 2.531368 g / cm^3
# Si number density = 25.371430 Si / 1000 Ang^3
#
#
#
# Elastic Constant Matrix: (Units=GPa)
#
#
# Indices 1 2 3 4 5 6 
#
# 1 123.8211 19.4367 52.5609 0.0000 19.5155 -0.0001
# 2 19.4367 74.0676 25.0967 0.0002 21.2369 0.0013
# 3 52.5609 25.0967 128.6253 -0.0003 12.3191 -0.0006
# 4 0.0000 0.0002 -0.0003 -8.2303 -0.0001 -14.5431
# 5 19.5155 21.2369 12.3191 -0.0001 49.2385 0.0000
# 6 -0.0001 0.0013 -0.0006 -14.5431 0.0000 10.1978
#
#
#
# Elastic Compliance Matrix: (Units=1/GPa)
#
#
# Indices 1 2 3 4 5 6 
#
# 1 0.010227 -0.000580 -0.003793 0.000000 -0.002854 0.000000
# 2 -0.000580 0.016217 -0.002335 0.000001 -0.006180 0.000000
# 3 -0.003793 -0.002335 0.009774 -0.000001 0.000065 0.000000
# 4 0.000000 0.000001 -0.000001 -0.034518 -0.000001 -0.049226
# 5 -0.002854 -0.006180 0.000065 -0.000001 0.024090 0.000000
# 6 0.000000 0.000000 0.000000 -0.049226 0.000000 0.027858
#
#
# Mechanical properties :
#
#
# Convention : Reuss Voigt Hill
#
# Bulk Modulus (GPa) = 43.85675 57.85584 50.85629
# Shear Modulus (GPa) = 66.96702 25.53586 46.25144
#
# Velocity S-wave (km/s) = 5.14315 3.17595 4.27426
# Velocity P-wave (km/s) = 7.25208 6.02511 6.66688
#
# Compressibility (1/GPa) = 0.02280151
#
# Stress axis : x y z
#
# Youngs Moduli (GPa) = 97.78013 61.66500 102.31576
#
# Poissons Ratio (x) = 0.03579 0.38804
# Poissons Ratio (y) = 0.05674 0.23891
# Poissons Ratio (z) = 0.37083 0.14399
#
# Static dielectric constant tensor:
#      x y z
#    x 2.103480 0.000000 0.020290 
#    y 0.000000 2.099010 0.000000 
#    z 0.020290 0.000000 2.144320 
# 
# From -- ./inp_files/18833.got.cif
#   From: 2010.05.17/outbox.cif.g08.bks.cpg/sg9_10_cif.got.tgz:18833.got - 2010.06.03 20:04:27.
