data_PCOD9137287
_publ_section_title
;
Structure prediction by ZEFSAII (Michael W. Deem and Ramdas Pophale) SiO2 
 PCOD9137287
Probable space group: C C
;
_chemical_formula_sum "Si O2"
_cell_formula_units_Z 32
_cell_length_a 6.181996
_cell_length_b 13.627165
_cell_length_c 14.567041
_cell_angle_alpha 90.000000
_cell_angle_beta 98.228289
_cell_angle_gamma 90.000000
_cell_volume 1214.539499
_symmetry_space_group_name_H-M "C C"
_symmetry_group_IT_number 9
_symmetry_cell_setting 'monoclinic'
loop_
_space_group_symop_operation_xyz
x,y,z
x,-y,1/2+z
1/2+x,1/2+y,z
1/2+x,1/2-y,1/2+z
loop_
_atom_site_type_symbol
_atom_site_label
_atom_site_fract_x
_atom_site_fract_y
_atom_site_fract_z
Si Si1 0.740040 0.442918 0.542890
Si Si2 0.079756 0.520500 0.417694
Si Si3 0.443933 0.810020 0.220069
Si Si4 0.099328 0.026756 0.719490
Si Si5 0.579799 0.192795 0.128083
Si Si6 0.761656 0.657958 0.325612
Si Si7 0.258103 0.626638 0.601103
Si Si8 0.829537 0.832304 0.458118
O O1 0.615817 0.506859 0.610257
O O2 0.580282 0.363380 0.486165
O O3 0.867190 0.491968 0.466831
O O4 0.912320 0.395161 0.625109
O O5 0.230194 0.572432 0.503024
O O6 0.203484 0.420408 0.396572
O O7 0.994879 0.600623 0.339724
O O8 0.305340 0.901509 0.254187
O O9 0.251303 0.729045 0.212153
O O10 0.660546 0.747846 0.260393
O O11 0.516732 0.842750 0.122321
O O12 0.858267 0.072494 0.697687
O O13 0.108675 0.933123 0.786013
O O14 0.424185 0.284203 0.096366
O O15 0.724796 0.161874 0.051348
O O16 0.783448 0.723358 0.418984
#
# Coordination Sequence:
#
# PCOD9137287 Si02
#       8
#     4   4   4   4   4   4   4   4
#     4  11  22  44  72  98 130 184 243 286 343 431
#     4  11  24  43  71 102 135 187 236 292 355 423
#     4  11  24  43  66 102 140 181 237 293 358 436
#     4  11  24  43  71 102 135 187 236 292 355 423
#     4  10  22  40  72  96 128 178 238 292 342 422
#     4  12  26  42  66 102 150 184 224 302 376 416
#     4  11  22  44  72  98 130 184 243 286 343 431
#     4  11  24  43  66 102 140 181 237 293 358 436
#
# _framework density 26.347432000000001
#
# number of rings (size 3 to 8) (size 9 to 14) (size 15 to 20)
#    0.000    1.000    2.500    4.500    3.500    1.000 
#    0.000   15.000    0.000    0.000    0.000    0.000 
#    0.000    0.000    0.000    0.000    0.000    0.000 
#
# Total GULP energy -89206.390423 kJ/mol
# GULP energy per Si atom -5575.399401 kJ/mol
# Density = 2.628746 g / cm^3
# Si number density = 26.347432 Si / 1000 Ang^3
#
#
#
# Elastic Constant Matrix: (Units=GPa)
#
#
# Indices 1 2 3 4 5 6 
#
# 1 75.7148 32.7878 27.2172 0.0000 18.6851 0.0000
# 2 32.7878 117.9870 46.3167 0.0000 12.3695 0.0000
# 3 27.2172 46.3167 80.3537 0.0000 23.9353 0.0000
# 4 0.0000 0.0000 0.0000 48.7299 0.0000 5.7697
# 5 18.6851 12.3695 23.9353 0.0000 31.2313 0.0000
# 6 0.0000 0.0000 0.0000 5.7697 0.0000 50.0721
#
#
#
# Elastic Compliance Matrix: (Units=1/GPa)
#
#
# Indices 1 2 3 4 5 6 
#
# 1 0.017121 -0.003327 -0.001584 0.000000 -0.007711 0.000000
# 2 -0.003327 0.011611 -0.006205 0.000000 0.002148 0.000000
# 3 -0.001584 -0.006205 0.020142 0.000000 -0.012031 0.000000
# 4 0.000000 0.000000 0.000000 0.020805 0.000000 -0.002397
# 5 -0.007711 0.002148 -0.012031 0.000000 0.045002 0.000000
# 6 0.000000 0.000000 0.000000 -0.002397 0.000000 0.020247
#
#
# Mechanical properties :
#
#
# Convention : Reuss Voigt Hill
#
# Bulk Modulus (GPa) = 37.53768 54.07764 45.80766
# Shear Modulus (GPa) = 30.11265 37.18892 33.65078
#
# Velocity S-wave (km/s) = 3.38436 3.76105 3.57766
# Velocity P-wave (km/s) = 5.43599 6.27933 5.87282
#
# Compressibility (1/GPa) = 0.02663990
#
# Stress axis : x y z
#
# Youngs Moduli (GPa) = 58.40843 86.12530 49.64689
#
# Poissons Ratio (x) = 0.28658 0.07865
# Poissons Ratio (y) = 0.19435 0.30808
# Poissons Ratio (z) = 0.09253 0.53444
#
# Static dielectric constant tensor:
#      x y z
#    x 2.039620 0.000000 0.027320 
#    y 0.000000 2.132010 0.000000 
#    z 0.027320 0.000000 2.121810 
# 
# From -- ./inp_files/28681.got.cif
#   From: 2010.05.17/outbox.cif.g08.bks.cpg/sg9_15_cif.got.tgz:28681.got - 2010.06.03 20:04:27.
