data_PCOD9137577
_publ_section_title
;
Structure prediction by ZEFSAII (Michael W. Deem and Ramdas Pophale) SiO2 
 PCOD9137577
Probable space group: C C
;
_chemical_formula_sum "Si O2"
_cell_formula_units_Z 28
_cell_length_a 6.858334
_cell_length_b 8.177987
_cell_length_c 20.543960
_cell_angle_alpha 90.000000
_cell_angle_beta 78.965450
_cell_angle_gamma 90.000000
_cell_volume 1130.953626
_symmetry_space_group_name_H-M "C C"
_symmetry_group_IT_number 9
_symmetry_cell_setting 'monoclinic'
loop_
_space_group_symop_operation_xyz
x,y,z
x,-y,1/2+z
1/2+x,1/2+y,z
1/2+x,1/2-y,1/2+z
loop_
_atom_site_type_symbol
_atom_site_label
_atom_site_fract_x
_atom_site_fract_y
_atom_site_fract_z
Si Si1 0.590890 0.582986 0.693540
Si Si2 0.879708 0.877773 0.324539
Si Si3 0.530381 0.286555 0.773787
Si Si4 0.183442 0.720699 0.076830
Si Si5 0.803335 0.254266 0.517324
Si Si6 0.485509 0.584393 0.962584
Si Si7 0.149298 0.594514 0.657787
O O1 0.548424 0.683833 0.762678
O O2 0.651997 0.407261 0.717343
O O3 0.705847 0.621045 0.620296
O O4 0.362864 0.584726 0.680507
O O5 0.671152 0.793920 0.319226
O O6 0.952689 0.850232 0.392606
O O7 0.882178 0.076678 0.312310
O O8 0.485566 0.150608 0.721343
O O9 0.128440 0.588802 0.134653
O O10 0.011654 0.699795 0.035626
O O11 0.377042 0.692630 0.023351
O O12 0.708949 0.391186 0.475927
O O13 0.677997 0.200475 0.590066
O O14 0.870927 0.088703 0.475085
#
# Coordination Sequence:
#
# PCOD9137577 Si02
#       7
#     4   4   4   4   4   4   4
#     4   8  19  41  63  99 136 177 232 295 347 427
#     4   9  21  42  69  94 139 188 235 289 358 430
#     4   9  19  40  67  95 138 177 231 292 345 430
#     4  10  22  42  74 106 133 191 231 300 361 427
#     4  10  25  43  69 100 143 177 233 295 356 431
#     4  11  25  47  67 102 143 186 239 292 359 434
#     4   9  19  39  63 100 132 172 229 289 350 421
#
# _framework density 24.757867000000001
#
# number of rings (size 3 to 8) (size 9 to 14) (size 15 to 20)
#    0.857    1.714    0.000    0.000    8.000    2.286 
#   15.429    0.000    9.429    0.000    0.000    0.000 
#    0.000    0.000    0.000    0.000    0.000    0.000 
#
# Total GULP energy -77974.691541 kJ/mol
# GULP energy per Si atom -5569.620824 kJ/mol
# Density = 2.470152 g / cm^3
# Si number density = 24.757867 Si / 1000 Ang^3
#
#
#
# Elastic Constant Matrix: (Units=GPa)
#
#
# Indices 1 2 3 4 5 6 
#
# 1 45.2711 22.8353 3.9900 0.0000 5.0732 0.0000
# 2 22.8353 14.5180 110.4921 0.0000 18.1130 0.0000
# 3 3.9900 110.4921 -38.8902 0.0000 16.2288 0.0000
# 4 0.0000 0.0000 0.0000 -11.1686 0.0000 42.9887
# 5 5.0732 18.1130 16.2288 0.0000 25.3472 0.0000
# 6 0.0000 0.0000 0.0000 42.9887 0.0000 -4.2799
#
#
#
# Elastic Compliance Matrix: (Units=1/GPa)
#
#
# Indices 1 2 3 4 5 6 
#
# 1 0.023739 -0.002456 -0.004572 0.000000 -0.000069 0.000000
# 2 -0.002456 0.005253 0.010505 0.000000 -0.009988 0.000000
# 3 -0.004572 0.010505 0.000721 0.000000 -0.007053 0.000000
# 4 0.000000 0.000000 0.000000 0.002377 0.000000 0.023880
# 5 -0.000069 -0.009988 -0.007053 0.000000 0.051119 0.000000
# 6 0.000000 0.000000 0.000000 0.023880 0.000000 0.006204
#
#
# Mechanical properties :
#
#
# Convention : Reuss Voigt Hill
#
# Bulk Modulus (GPa) = 27.27285 32.83709 30.05497
# Shear Modulus (GPa) = 52.80804 -5.78148 23.51328
#
# Velocity S-wave (km/s) = 4.62343 -1.52980 3.08511
# Velocity P-wave (km/s) = 6.28818 3.18931 4.98563
#
# Compressibility (1/GPa) = 0.03666650
#
# Stress axis : x y z
#
# Youngs Moduli (GPa) = 42.12503 190.35567 1387.23018
#
# Poissons Ratio (x) = 0.46759 6.34255
# Poissons Ratio (y) = 0.10348 -14.57318
# Poissons Ratio (z) = 0.19260 -1.99973
#
# Static dielectric constant tensor:
#      x y z
#    x 2.055830 0.000000 -0.036840 
#    y 0.000000 2.117540 0.000000 
#    z -0.036840 0.000000 2.020170 
# 
# From -- ./inp_files/32300.got.cif
#   From: 2010.05.17/outbox.cif.g08.bks.cpg/sg9_17_cif.got.tgz:32300.got - 2010.06.03 20:04:27.
