data_PCOD9137458
_publ_section_title
;
Structure prediction by ZEFSAII (Michael W. Deem and Ramdas Pophale) SiO2 
 PCOD9137458
Probable space group: C C
;
_chemical_formula_sum "Si O2"
_cell_formula_units_Z 24
_cell_length_a 9.159416
_cell_length_b 28.316757
_cell_length_c 5.270480
_cell_angle_alpha 90.000000
_cell_angle_beta 125.517184
_cell_angle_gamma 90.000000
_cell_volume 1112.639729
_symmetry_space_group_name_H-M "C C"
_symmetry_group_IT_number 9
_symmetry_cell_setting 'monoclinic'
loop_
_space_group_symop_operation_xyz
x,y,z
x,-y,1/2+z
1/2+x,1/2+y,z
1/2+x,1/2-y,1/2+z
loop_
_atom_site_type_symbol
_atom_site_label
_atom_site_fract_x
_atom_site_fract_y
_atom_site_fract_z
Si Si1 0.161980 0.073729 0.848360
Si Si2 0.869521 0.512949 0.734881
Si Si3 0.423924 0.313234 0.616668
Si Si4 0.342671 0.795529 0.125034
Si Si5 0.820157 0.130400 0.506435
Si Si6 0.936711 0.652367 0.230727
O O1 0.955314 0.086420 0.632291
O O2 0.270112 0.061824 0.695203
O O3 0.210738 0.026338 0.049108
O O4 0.265722 0.118380 0.064976
O O5 0.975124 0.505642 0.585008
O O6 0.354294 0.260074 0.584842
O O7 0.382853 0.334544 0.297895
O O8 0.637018 0.311443 0.883863
O O9 0.339548 0.344626 0.754302
O O10 0.409427 0.810823 0.471207
O O11 0.453687 0.821085 0.014445
O O12 0.612148 0.121421 0.350424
#
# Coordination Sequence:
#
# PCOD9137458 Si02
#       6
#     4   4   4   4   4   4
#     4  10  22  42  66  92 128 164 216 248 344 350
#     4   8  20  36  66  88 124 158 204 260 318 384
#     4  12  24  43  62  92 129 169 214 267 312 367
#     4  12  24  43  62  92 129 169 214 267 312 367
#     4  12  25  41  65  94 127 169 214 260 313 385
#     4  12  25  41  65  94 127 169 214 260 313 385
#
# _framework density 21.570326000000001
#
# number of rings (size 3 to 8) (size 9 to 14) (size 15 to 20)
#    1.000    0.000    3.333    4.000    4.667    0.000 
#    0.000    1.667    0.000    0.000    0.000    0.000 
#    0.000    0.000    0.000    0.000    0.000    0.000 
#
# Total GULP energy -66956.345724 kJ/mol
# GULP energy per Si atom -5579.695477 kJ/mol
# Density = 2.152123 g / cm^3
# Si number density = 21.570326 Si / 1000 Ang^3
#
#
#
# Elastic Constant Matrix: (Units=GPa)
#
#
# Indices 1 2 3 4 5 6 
#
# 1 65.2353 -15.3712 15.3034 0.0000 0.9139 0.0000
# 2 -15.3712 52.6078 -0.2006 0.0000 -14.3673 0.0000
# 3 15.3034 -0.2006 63.7631 0.0000 -17.2992 0.0000
# 4 0.0000 0.0000 0.0000 29.5557 0.0000 -12.7393
# 5 0.9139 -14.3673 -17.2992 0.0000 38.6935 0.0000
# 6 0.0000 0.0000 0.0000 -12.7393 0.0000 -0.5114
#
#
#
# Elastic Compliance Matrix: (Units=1/GPa)
#
#
# Indices 1 2 3 4 5 6 
#
# 1 0.017521 0.004965 -0.004326 0.000000 -0.000505 0.000000
# 2 0.004965 0.022917 0.001317 0.000000 0.008981 0.000000
# 3 -0.004326 0.001317 0.019217 0.000000 0.009183 0.000000
# 4 0.000000 0.000000 0.000000 0.002883 0.000000 -0.071809
# 5 -0.000505 0.008981 0.009183 0.000000 0.033296 0.000000
# 6 0.000000 0.000000 0.000000 -0.071809 0.000000 -0.166600
#
#
# Mechanical properties :
#
#
# Convention : Reuss Voigt Hill
#
# Bulk Modulus (GPa) = 15.73159 20.11882 17.92520
# Shear Modulus (GPa) = -93.47681 25.67253 -33.90214
#
# Velocity S-wave (km/s) = -6.59014 3.45364 -3.96877
# Velocity P-wave (km/s) = 7.11320 5.02502 3.55997
#
# Compressibility (1/GPa) = 0.06356635
#
# Stress axis : x y z
#
# Youngs Moduli (GPa) = 57.07435 43.63572 52.03765
#
# Poissons Ratio (x) = -0.21665 0.22513
# Poissons Ratio (y) = -0.28338 -0.06853
# Poissons Ratio (z) = 0.24692 -0.05747
#
# Static dielectric constant tensor:
#      x y z
#    x 1.801570 0.000000 -0.059300 
#    y 0.000000 1.755040 0.000000 
#    z -0.059300 0.000000 1.847590 
# 
# From -- ./inp_files/1119.got.cif
#   From: 2010.05.17/outbox.cif.g08.bks.cpg/sg9_1_cif.got.tgz:1119.got - 2010.06.03 20:04:27.
