data_PCOD9137108
_publ_section_title
;
Structure prediction by ZEFSAII (Michael W. Deem and Ramdas Pophale) SiO2 
 PCOD9137108
Probable space group: C C
;
_chemical_formula_sum "Si O2"
_cell_formula_units_Z 32
_cell_length_a 14.977247
_cell_length_b 6.475396
_cell_length_c 26.855826
_cell_angle_alpha 90.000000
_cell_angle_beta 145.900231
_cell_angle_gamma 90.000000
_cell_volume 1460.217518
_symmetry_space_group_name_H-M "C C"
_symmetry_group_IT_number 9
_symmetry_cell_setting 'monoclinic'
loop_
_space_group_symop_operation_xyz
x,y,z
x,-y,1/2+z
1/2+x,1/2+y,z
1/2+x,1/2-y,1/2+z
loop_
_atom_site_type_symbol
_atom_site_label
_atom_site_fract_x
_atom_site_fract_y
_atom_site_fract_z
Si Si1 0.118670 0.133636 0.812650
Si Si2 0.427693 0.343207 0.399436
Si Si3 0.540765 0.344413 0.868884
Si Si4 0.388675 0.289066 0.539094
Si Si5 0.057772 0.924924 0.055093
Si Si6 0.558530 0.716714 0.220162
Si Si7 0.404894 0.025989 0.736081
Si Si8 0.970020 0.486031 0.484163
O O1 0.026118 0.336056 0.786520
O O2 0.086951 0.961062 0.839545
O O3 0.059049 0.026966 0.734239
O O4 0.309189 0.144494 0.898582
O O5 0.469071 0.476904 0.370280
O O6 0.492777 0.483064 0.474069
O O7 0.238649 0.298257 0.312221
O O8 0.504393 0.120946 0.450683
O O9 0.432490 0.155510 0.799532
O O10 0.704615 0.252362 0.966238
O O11 0.427059 0.518899 0.536542
O O12 0.496842 0.245339 0.636514
O O13 0.433402 0.142229 0.512797
O O14 0.220965 0.034284 0.147002
O O15 0.090240 0.683953 0.060421
O O16 0.446448 0.834903 0.207274
#
# Coordination Sequence:
#
# PCOD9137108 Si02
#       8
#     4   4   4   4   4   4   4   4
#     4   9  20  40  61  87 126 171 215 263 336 383
#     4  10  22  39  63  92 129 168 224 273 327 395
#     4  10  22  40  63  94 129 171 217 279 328 393
#     4  10  22  40  63  91 131 169 220 274 328 394
#     4  11  23  39  62  92 131 176 218 269 332 396
#     4  10  22  39  63  89 129 170 218 278 324 392
#     4  11  23  39  63  92 132 171 220 272 327 398
#     4   9  20  40  62  89 127 172 212 270 334 389
#
# _framework density 21.914542999999998
#
# number of rings (size 3 to 8) (size 9 to 14) (size 15 to 20)
#    0.000    2.000    0.000    4.500    3.500    5.000 
#    2.250    3.750    0.000    0.000    0.000    0.000 
#    0.000    0.000    0.000    0.000    0.000    0.000 
#
# Total GULP energy -89274.957933 kJ/mol
# GULP energy per Si atom -5579.684871 kJ/mol
# Density = 2.186466 g / cm^3
# Si number density = 21.914543 Si / 1000 Ang^3
#
#
#
# Elastic Constant Matrix: (Units=GPa)
#
#
# Indices 1 2 3 4 5 6 
#
# 1 57.3289 27.2477 22.7365 0.0000 2.3299 0.0000
# 2 27.2477 97.5525 33.3314 0.0000 2.8564 0.0001
# 3 22.7365 33.3314 95.9340 0.0000 -10.4635 0.0000
# 4 0.0000 0.0000 0.0000 29.6391 0.0000 -3.1007
# 5 2.3299 2.8564 -10.4635 0.0000 24.5233 0.0000
# 6 0.0000 0.0001 0.0000 -3.1007 0.0000 38.1604
#
#
#
# Elastic Compliance Matrix: (Units=1/GPa)
#
#
# Indices 1 2 3 4 5 6 
#
# 1 0.021233 -0.004544 -0.003792 0.000000 -0.003106 0.000000
# 2 -0.004544 0.012853 -0.003676 0.000000 -0.002634 0.000000
# 3 -0.003792 -0.003676 0.013305 0.000000 0.006465 0.000000
# 4 0.000000 0.000000 0.000000 0.034028 0.000000 0.002765
# 5 -0.003106 -0.002634 0.006465 0.000000 0.044138 0.000000
# 6 0.000000 0.000000 0.000000 0.002765 0.000000 0.026430
#
#
# Mechanical properties :
#
#
# Convention : Reuss Voigt Hill
#
# Bulk Modulus (GPa) = 42.79605 46.38294 44.58949
# Shear Modulus (GPa) = 27.20325 29.63120 28.41722
#
# Velocity S-wave (km/s) = 3.52708 3.68111 3.60492
# Velocity P-wave (km/s) = 6.01316 6.26728 6.14153
#
# Compressibility (1/GPa) = 0.02336664
#
# Stress axis : x y z
#
# Youngs Moduli (GPa) = 47.09611 77.80135 75.15959
#
# Poissons Ratio (x) = 0.35353 0.28503
# Poissons Ratio (y) = 0.21401 0.27629
# Poissons Ratio (z) = 0.17860 0.28600
#
# Static dielectric constant tensor:
#      x y z
#    x 1.805780 0.000000 0.016140 
#    y 0.000000 1.886650 0.000000 
#    z 0.016140 0.000000 1.807170 
# 
# From -- ./inp_files/30416.got.cif
#   From: 2010.05.17/outbox.cif.g08.bks.cpg/sg9_16_cif.got.tgz:30416.got - 2010.06.03 20:04:27.
