data_PCOD9137729
_publ_section_title
;
Structure prediction by ZEFSAII (Michael W. Deem and Ramdas Pophale) SiO2 
 PCOD9137729
Probable space group: C C
;
_chemical_formula_sum "Si O2"
_cell_formula_units_Z 28
_cell_length_a 16.060913
_cell_length_b 7.074289
_cell_length_c 13.739482
_cell_angle_alpha 90.000000
_cell_angle_beta 122.556265
_cell_angle_gamma 90.000000
_cell_volume 1315.771834
_symmetry_space_group_name_H-M "C C"
_symmetry_group_IT_number 9
_symmetry_cell_setting 'monoclinic'
loop_
_space_group_symop_operation_xyz
x,y,z
x,-y,1/2+z
1/2+x,1/2+y,z
1/2+x,1/2-y,1/2+z
loop_
_atom_site_type_symbol
_atom_site_label
_atom_site_fract_x
_atom_site_fract_y
_atom_site_fract_z
Si Si1 0.570350 0.004549 0.684090
Si Si2 0.448373 0.780643 0.762998
Si Si3 0.732894 0.668539 0.040538
Si Si4 0.554329 0.433354 0.922848
Si Si5 0.448304 0.910975 0.416240
Si Si6 0.109806 0.109408 0.142692
Si Si7 0.231120 0.766884 0.316431
O O1 0.526734 0.895534 0.748624
O O2 0.500301 0.948154 0.550817
O O3 0.678806 0.914918 0.737282
O O4 0.570596 0.230903 0.689482
O O5 0.345418 0.805194 0.641845
O O6 0.493750 0.575133 0.815254
O O7 0.433579 0.889620 0.854793
O O8 0.671485 0.727273 0.098404
O O9 0.672896 0.468293 0.987511
O O10 0.723206 0.755743 0.928018
O O11 0.518969 0.221244 0.896121
O O12 0.534945 0.499530 0.023758
O O13 0.344428 0.804186 0.361402
O O14 0.172575 0.951254 0.238440
#
# Coordination Sequence:
#
# PCOD9137729 Si02
#       7
#     4   4   4   4   4   4   4
#     4  12  24  42  69  96 131 177 220 263 338 384
#     4  12  24  43  66  98 133 171 221 272 322 398
#     4  10  22  44  64  94 136 168 210 286 320 378
#     4  10  23  43  66  91 136 169 214 275 319 382
#     4  12  24  42  69  96 131 177 220 263 338 384
#     4  10  23  43  66  91 136 169 214 275 319 382
#     4  12  24  43  66  98 133 171 221 272 322 398
#
# _framework density 21.280283000000001
#
# number of rings (size 3 to 8) (size 9 to 14) (size 15 to 20)
#    0.857    0.000    7.143    0.000    4.000    0.000 
#    0.000    1.429    0.000    0.000    0.000    0.000 
#    0.000    0.000    0.000    0.000    0.000    0.000 
#
# Total GULP energy -78007.132249 kJ/mol
# GULP energy per Si atom -5571.938018 kJ/mol
# Density = 2.123185 g / cm^3
# Si number density = 21.280283 Si / 1000 Ang^3
#
#
#
# Elastic Constant Matrix: (Units=GPa)
#
#
# Indices 1 2 3 4 5 6 
#
# 1 30.4888 -11.3819 26.9808 0.0000 11.3908 0.0000
# 2 -11.3819 59.3550 27.7968 0.0000 11.5753 0.0000
# 3 26.9808 27.7968 123.1838 0.0000 12.1799 0.0000
# 4 0.0000 0.0000 0.0000 24.5746 0.0000 -0.5869
# 5 11.3908 11.5753 12.1799 0.0000 41.1503 0.0000
# 6 0.0000 0.0000 0.0000 -0.5869 0.0000 14.0535
#
#
#
# Elastic Compliance Matrix: (Units=1/GPa)
#
#
# Indices 1 2 3 4 5 6 
#
# 1 0.065293 0.024770 -0.017940 0.000000 -0.019732 0.000000
# 2 0.024770 0.028954 -0.010791 0.000000 -0.011807 0.000000
# 3 -0.017940 -0.010791 0.014104 0.000000 0.003827 0.000000
# 4 0.000000 0.000000 0.000000 0.040733 0.000000 0.001701
# 5 -0.019732 -0.011807 0.003827 0.000000 0.031952 0.000000
# 6 0.000000 0.000000 0.000000 0.001701 0.000000 0.071228
#
#
# Mechanical properties :
#
#
# Convention : Reuss Voigt Hill
#
# Bulk Modulus (GPa) = 9.95728 33.31322 21.63525
# Shear Modulus (GPa) = 17.02638 27.26446 22.14542
#
# Velocity S-wave (km/s) = 2.83167 3.58328 3.22942
# Velocity P-wave (km/s) = 3.92179 5.72786 4.90860
#
# Compressibility (1/GPa) = 0.10042899
#
# Stress axis : x y z
#
# Youngs Moduli (GPa) = 15.31554 34.53754 70.90201
#
# Poissons Ratio (x) = -0.85549 1.27195
# Poissons Ratio (y) = -0.37936 0.76514
# Poissons Ratio (z) = 0.27475 0.37271
#
# Static dielectric constant tensor:
#      x y z
#    x 1.861580 0.000000 -0.020350 
#    y 0.000000 1.758890 0.000000 
#    z -0.020350 0.000000 1.782970 
# 
# From -- ./inp_files/26436.got.cif
#   From: 2010.05.17/outbox.cif.g08.bks.cpg/sg9_14_cif.got.tgz:26436.got - 2010.06.03 20:04:27.
