data_PCOD9137182
_publ_section_title
;
Structure prediction by ZEFSAII (Michael W. Deem and Ramdas Pophale) SiO2 
 PCOD9137182
Probable space group: C C
;
_chemical_formula_sum "Si O2"
_cell_formula_units_Z 28
_cell_length_a 5.451062
_cell_length_b 17.633534
_cell_length_c 10.751177
_cell_angle_alpha 90.000000
_cell_angle_beta 110.917750
_cell_angle_gamma 90.000000
_cell_volume 965.310511
_symmetry_space_group_name_H-M "C C"
_symmetry_group_IT_number 9
_symmetry_cell_setting 'monoclinic'
loop_
_space_group_symop_operation_xyz
x,y,z
x,-y,1/2+z
1/2+x,1/2+y,z
1/2+x,1/2-y,1/2+z
loop_
_atom_site_type_symbol
_atom_site_label
_atom_site_fract_x
_atom_site_fract_y
_atom_site_fract_z
Si Si1 0.021180 0.753636 0.809070
Si Si2 0.738462 0.458883 0.338370
Si Si3 0.028281 0.208959 0.807693
Si Si4 0.112285 0.097699 0.486236
Si Si5 0.101013 0.349688 0.983403
Si Si6 0.179649 0.621203 0.026419
Si Si7 0.288497 0.911972 0.683592
O O1 0.227822 0.733793 0.739323
O O2 0.032281 0.836655 0.869472
O O3 0.718155 0.736288 0.731596
O O4 0.111342 0.696162 0.935194
O O5 0.589568 0.379353 0.332458
O O6 0.617687 0.518055 0.415345
O O7 0.385668 0.386427 0.044061
O O8 0.048722 0.444337 0.417719
O O9 0.108196 0.261782 0.941338
O O10 0.412796 0.123401 0.560698
O O11 0.231017 0.000788 0.702926
O O12 0.955875 0.386451 0.835207
O O13 0.490120 0.618003 0.108503
O O14 0.989314 0.608449 0.110534
#
# Coordination Sequence:
#
# PCOD9137182 Si02
#       7
#     4   4   4   4   4   4   4
#     4   9  18  35  55  82 111 150 199 240 287 360
#     4  10  22  40  62  90 126 160 198 258 312 362
#     4   9  18  33  59  83 111 152 192 237 299 352
#     4   9  18  33  59  83 111 152 192 237 299 352
#     4   9  18  35  55  82 111 150 199 240 287 360
#     4  11  23  38  59  87 121 163 206 251 308 366
#     4  11  23  38  59  87 121 163 206 251 308 366
#
# _framework density 29.006214
#
# number of rings (size 3 to 8) (size 9 to 14) (size 15 to 20)
#    0.000    2.286    0.000    3.429    0.000   10.286 
#    0.000    2.857    0.000    0.000    0.000    0.000 
#    0.000    0.000    0.000    0.000    0.000    0.000 
#
# Total GULP energy -78362.267507 kJ/mol
# GULP energy per Si atom -5597.304822 kJ/mol
# Density = 2.894019 g / cm^3
# Si number density = 29.006214 Si / 1000 Ang^3
#
#
#
# Elastic Constant Matrix: (Units=GPa)
#
#
# Indices 1 2 3 4 5 6 
#
# 1 290.4925 66.9707 34.3306 0.0000 8.6712 0.0000
# 2 66.9707 214.6710 25.5187 0.0000 21.2565 0.0000
# 3 34.3306 25.5187 107.1133 0.0000 12.3468 0.0000
# 4 0.0000 0.0000 0.0000 48.6465 0.0000 8.1850
# 5 8.6712 21.2565 12.3468 0.0000 42.4468 0.0000
# 6 0.0000 0.0000 0.0000 8.1850 0.0000 63.1084
#
#
#
# Elastic Compliance Matrix: (Units=1/GPa)
#
#
# Indices 1 2 3 4 5 6 
#
# 1 0.003804 -0.001076 -0.000968 0.000000 0.000043 0.000000
# 2 -0.001076 0.005294 -0.000658 0.000000 -0.002240 0.000000
# 3 -0.000968 -0.000658 0.010080 0.000000 -0.002405 0.000000
# 4 0.000000 0.000000 0.000000 0.021015 0.000000 -0.002726
# 5 0.000043 -0.002240 -0.002405 0.000000 0.025371 0.000000
# 6 0.000000 0.000000 0.000000 -0.002726 0.000000 0.016199
#
#
# Mechanical properties :
#
#
# Convention : Reuss Voigt Hill
#
# Bulk Modulus (GPa) = 72.60075 96.21298 84.40687
# Shear Modulus (GPa) = 54.49114 63.20412 58.84763
#
# Velocity S-wave (km/s) = 4.33899 4.67302 4.50910
# Velocity P-wave (km/s) = 7.08422 7.89671 7.50147
#
# Compressibility (1/GPa) = 0.01377396
#
# Stress axis : x y z
#
# Youngs Moduli (GPa) = 262.91368 188.89484 99.20551
#
# Poissons Ratio (x) = 0.20322 0.09600
# Poissons Ratio (y) = 0.28285 0.06530
# Poissons Ratio (z) = 0.25443 0.12434
#
# Static dielectric constant tensor:
#      x y z
#    x 2.372060 0.000000 -0.065190 
#    y 0.000000 2.342630 0.000000 
#    z -0.065190 0.000000 2.281950 
# 
# From -- ./inp_files/13392.got.cif
#   From: 2010.05.17/outbox.cif.g08.bks.cpg/sg9_7_cif.got.tgz:13392.got - 2010.06.03 20:04:27.
