data_PCOD9137139
_publ_section_title
;
Structure prediction by ZEFSAII (Michael W. Deem and Ramdas Pophale) SiO2 
 PCOD9137139
Probable space group: C C
;
_chemical_formula_sum "Si O2"
_cell_formula_units_Z 32
_cell_length_a 8.647897
_cell_length_b 10.687510
_cell_length_c 18.937986
_cell_angle_alpha 90.000000
_cell_angle_beta 62.845383
_cell_angle_gamma 90.000000
_cell_volume 1557.408613
_symmetry_space_group_name_H-M "C C"
_symmetry_group_IT_number 9
_symmetry_cell_setting 'monoclinic'
loop_
_space_group_symop_operation_xyz
x,y,z
x,-y,1/2+z
1/2+x,1/2+y,z
1/2+x,1/2-y,1/2+z
loop_
_atom_site_type_symbol
_atom_site_label
_atom_site_fract_x
_atom_site_fract_y
_atom_site_fract_z
Si Si1 0.438440 0.810944 0.481340
Si Si2 0.999694 0.600274 0.733891
Si Si3 0.490696 0.154882 0.297652
Si Si4 0.098626 0.906738 0.320201
Si Si5 0.675235 0.899579 0.058541
Si Si6 0.446810 0.093430 0.472217
Si Si7 0.108431 0.810772 0.811207
Si Si8 0.293722 0.654724 0.994810
O O1 0.305474 0.714599 0.543816
O O2 0.484275 0.750074 0.396279
O O3 0.620697 0.823807 0.484477
O O4 0.370434 0.953398 0.491280
O O5 0.017287 0.608697 0.646189
O O6 0.100422 0.714383 0.748737
O O7 0.070789 0.464907 0.742646
O O8 0.799690 0.600017 0.801115
O O9 0.578628 0.289745 0.272059
O O10 0.489005 0.118866 0.381201
O O11 0.296942 0.176316 0.308080
O O12 0.958947 0.881267 0.411223
O O13 0.060308 0.046797 0.301201
O O14 0.609801 0.899843 0.991249
O O15 0.763960 0.034899 0.049781
O O16 0.330630 0.210432 0.520371
#
# Coordination Sequence:
#
# PCOD9137139 Si02
#       8
#     4   4   4   4   4   4   4   4
#     4  11  21  37  66  97 125 165 216 263 316 381
#     4  11  26  42  62  95 135 168 208 272 330 374
#     4  10  22  41  67  95 123 165 219 264 314 379
#     4  10  22  39  67  94 123 164 220 261 313 383
#     4  11  26  42  62  95 135 168 208 272 330 374
#     4  10  22  39  67  94 123 164 220 261 313 383
#     4  11  21  37  66  97 125 165 216 263 316 381
#     4  10  22  41  67  95 123 165 219 264 314 379
#
# _framework density 20.546951
#
# number of rings (size 3 to 8) (size 9 to 14) (size 15 to 20)
#    0.000    1.500    5.000    0.000    3.500    7.000 
#    0.000    0.000    0.000    0.000    0.000    0.000 
#    0.000    0.000    0.000    0.000    0.000    0.000 
#
# Total GULP energy -89204.317826 kJ/mol
# GULP energy per Si atom -5575.269864 kJ/mol
# Density = 2.050019 g / cm^3
# Si number density = 20.546951 Si / 1000 Ang^3
#
#
#
# Elastic Constant Matrix: (Units=GPa)
#
#
# Indices 1 2 3 4 5 6 
#
# 1 57.1533 47.9141 32.0320 0.0000 0.1561 0.0000
# 2 47.9141 228.6442 29.1569 0.0000 -0.7139 0.0000
# 3 32.0320 29.1569 47.6939 0.0000 -0.4484 0.0000
# 4 0.0000 0.0000 0.0000 7.4303 0.0000 -1.1584
# 5 0.1561 -0.7139 -0.4484 0.0000 14.3006 0.0000
# 6 0.0000 0.0000 0.0000 -1.1584 0.0000 34.4711
#
#
#
# Elastic Compliance Matrix: (Units=1/GPa)
#
#
# Indices 1 2 3 4 5 6 
#
# 1 0.031433 -0.004227 -0.018538 0.000000 -0.001135 0.000000
# 2 -0.004227 0.005312 -0.000406 0.000000 0.000299 0.000000
# 3 -0.018538 -0.000406 0.033677 0.000000 0.001238 0.000000
# 4 0.000000 0.000000 0.000000 0.135292 0.000000 0.004546
# 5 -0.001135 0.000299 0.001238 0.000000 0.069993 0.000000
# 6 0.000000 0.000000 0.000000 0.004546 0.000000 0.029163
#
#
# Mechanical properties :
#
#
# Convention : Reuss Voigt Hill
#
# Bulk Modulus (GPa) = 41.52560 61.29971 51.41265
# Shear Modulus (GPa) = 13.91838 26.19964 20.05901
#
# Velocity S-wave (km/s) = 2.60550 3.57474 3.12789
# Velocity P-wave (km/s) = 5.41346 6.85107 6.17425
#
# Compressibility (1/GPa) = 0.02408153
#
# Stress axis : x y z
#
# Youngs Moduli (GPa) = 31.81394 188.25221 29.69386
#
# Poissons Ratio (x) = 0.79567 0.55045
# Poissons Ratio (y) = 0.13446 0.01205
# Poissons Ratio (z) = 0.58975 0.07642
#
# Static dielectric constant tensor:
#      x y z
#    x 1.751080 0.000000 -0.001550 
#    y 0.000000 1.786950 0.000000 
#    z -0.001550 0.000000 1.716110 
# 
# From -- ./inp_files/32568.got.cif
#   From: 2010.05.17/outbox.cif.g08.bks.cpg/sg9_17_cif.got.tgz:32568.got - 2010.06.03 20:04:27.
