data_PCOD9137341
_publ_section_title
;
Structure prediction by ZEFSAII (Michael W. Deem and Ramdas Pophale) SiO2 
 PCOD9137341
Probable space group: C C
;
_chemical_formula_sum "Si O2"
_cell_formula_units_Z 28
_cell_length_a 19.125938
_cell_length_b 4.913762
_cell_length_c 18.431894
_cell_angle_alpha 90.000000
_cell_angle_beta 32.225806
_cell_angle_gamma 90.000000
_cell_volume 923.727074
_symmetry_space_group_name_H-M "C C"
_symmetry_group_IT_number 9
_symmetry_cell_setting 'monoclinic'
loop_
_space_group_symop_operation_xyz
x,y,z
x,-y,1/2+z
1/2+x,1/2+y,z
1/2+x,1/2-y,1/2+z
loop_
_atom_site_type_symbol
_atom_site_label
_atom_site_fract_x
_atom_site_fract_y
_atom_site_fract_z
Si Si1 0.210330 0.103170 0.354620
Si Si2 0.119550 0.627531 0.358484
Si Si3 0.904952 0.812938 0.755008
Si Si4 0.887019 0.217309 0.437253
Si Si5 0.379177 0.808452 0.035044
Si Si6 0.139316 0.908378 0.212673
Si Si7 0.573384 0.812721 0.611184
O O1 0.207636 0.364384 0.302991
O O2 0.179771 0.243334 0.458421
O O3 0.094058 0.900392 0.430959
O O4 0.313866 0.862353 0.282735
O O5 0.232178 0.812020 0.206121
O O6 0.968195 0.502649 0.510108
O O7 0.850620 0.810103 0.885570
O O8 0.034989 0.626071 0.644877
O O9 0.949646 0.118415 0.699558
O O10 0.803756 0.474406 0.542930
O O11 0.841161 0.982774 0.530830
O O12 0.046530 0.178735 0.298494
O O13 0.530952 0.790875 0.857519
O O14 0.111685 0.776719 0.158258
#
# Coordination Sequence:
#
# PCOD9137341 Si02
#       7
#     4   4   4   4   4   4   4
#     4  12  26  45  66  97 140 180 220 278 340 399
#     4  11  25  43  65  98 138 177 226 274 332 411
#     4  11  23  43  68  96 135 174 220 280 337 397
#     4  10  22  41  66 102 132 166 226 283 333 401
#     4  11  23  41  67  97 136 177 219 278 340 395
#     4  10  24  44  71 100 133 176 226 283 338 395
#     4  11  25  43  71 102 128 174 233 274 334 412
#
# _framework density 30.311985
#
# number of rings (size 3 to 8) (size 9 to 14) (size 15 to 20)
#    0.000    1.143    0.000    6.857    0.000   12.571 
#    0.000    1.429    0.000    0.000    0.000    0.000 
#    0.000    0.000    0.000    0.000    0.000    0.000 
#
# Total GULP energy -78108.281577 kJ/mol
# GULP energy per Si atom -5579.162970 kJ/mol
# Density = 3.024299 g / cm^3
# Si number density = 30.311985 Si / 1000 Ang^3
#
#
#
# Elastic Constant Matrix: (Units=GPa)
#
#
# Indices 1 2 3 4 5 6 
#
# 1 144.9098 48.3958 69.3630 0.0488 -3.6721 -0.0284
# 2 48.3958 186.3794 20.1899 0.0097 -4.8150 0.0030
# 3 69.3630 20.1899 160.3153 0.0096 -13.2215 -0.0115
# 4 0.0488 0.0097 0.0096 60.3819 -0.0249 9.3209
# 5 -3.6721 -4.8150 -13.2215 -0.0249 70.2548 0.0168
# 6 -0.0284 0.0030 -0.0115 9.3209 0.0168 54.8237
#
#
#
# Elastic Compliance Matrix: (Units=1/GPa)
#
#
# Indices 1 2 3 4 5 6 
#
# 1 0.009413 -0.002037 -0.003847 -0.000008 -0.000372 0.000006
# 2 -0.002037 0.005885 0.000167 0.000001 0.000328 -0.000002
# 3 -0.003847 0.000167 0.007989 0.000003 0.001314 -0.000001
# 4 -0.000008 0.000001 0.000003 0.017008 0.000007 -0.002892
# 5 -0.000372 0.000328 0.001314 0.000007 0.014484 -0.000006
# 6 0.000006 -0.000002 -0.000001 -0.002892 -0.000006 0.018732
#
#
# Mechanical properties :
#
#
# Convention : Reuss Voigt Hill
#
# Bulk Modulus (GPa) = 84.35942 85.27799 84.81870
# Shear Modulus (GPa) = 56.24579 60.66912 58.45745
#
# Velocity S-wave (km/s) = 4.31230 4.47865 4.39626
# Velocity P-wave (km/s) = 7.25847 7.41208 7.33568
#
# Compressibility (1/GPa) = 0.01185404
#
# Stress axis : x y z
#
# Youngs Moduli (GPa) = 106.23482 169.93165 125.16602
#
# Poissons Ratio (x) = 0.34617 0.48149
# Poissons Ratio (y) = 0.21641 -0.02095
# Poissons Ratio (z) = 0.40867 -0.02844
#
# Static dielectric constant tensor:
#      x y z
#    x 2.477660 -0.000040 -0.105830 
#    y -0.000040 2.200850 0.000020 
#    z -0.105830 0.000020 2.406790 
# 
# From -- ./inp_files/31143.got.cif
#   From: 2010.05.17/outbox.cif.g08.bks.cpg/sg9_16_cif.got.tgz:31143.got - 2010.06.03 20:04:27.
