data_PCOD9137330
_publ_section_title
;
Structure prediction by ZEFSAII (Michael W. Deem and Ramdas Pophale) SiO2 
 PCOD9137330
Probable space group: C C
;
_chemical_formula_sum "Si O2"
_cell_formula_units_Z 28
_cell_length_a 7.275933
_cell_length_b 31.361529
_cell_length_c 4.961788
_cell_angle_alpha 90.000000
_cell_angle_beta 106.837905
_cell_angle_gamma 90.000000
_cell_volume 1083.662834
_symmetry_space_group_name_H-M "C C"
_symmetry_group_IT_number 9
_symmetry_cell_setting 'monoclinic'
loop_
_space_group_symop_operation_xyz
x,y,z
x,-y,1/2+z
1/2+x,1/2+y,z
1/2+x,1/2-y,1/2+z
loop_
_atom_site_type_symbol
_atom_site_label
_atom_site_fract_x
_atom_site_fract_y
_atom_site_fract_z
Si Si1 0.834820 0.344781 0.322340
Si Si2 0.601839 0.088179 0.225663
Si Si3 0.375782 0.295181 0.629960
Si Si4 0.394928 0.470994 0.562953
Si Si5 0.308749 0.029006 0.388372
Si Si6 0.368858 0.344782 0.128985
Si Si7 0.327895 0.204819 0.321364
O O1 0.899439 0.332182 0.050700
O O2 0.947412 0.383778 0.497332
O O3 0.886560 0.304268 0.539958
O O4 0.601839 0.351099 0.225662
O O5 0.804239 0.167818 0.900625
O O6 0.480223 0.059100 0.376966
O O7 0.756266 0.116222 0.453993
O O8 0.317118 0.304268 0.911367
O O9 0.351839 0.250000 0.475662
O O10 0.601839 0.301389 0.725662
O O11 0.387199 0.512574 0.755155
O O12 0.601838 0.450820 0.725663
O O13 0.223453 0.440901 0.574360
O O14 0.316478 0.012574 0.696170
#
# Coordination Sequence:
#
# PCOD9137330 Si02
#       7
#     4   4   4   4   4   4   4
#     4  10  25  42  61 101 137 177 231 294 352 415
#     4  12  26  44  78 104 148 190 242 290 368 426
#     4  10  22  41  65  90 132 180 231 292 354 414
#     4  10  24  46  72 106 144 187 236 288 351 427
#     4  10  24  46  72 106 144 187 236 288 351 427
#     4  10  25  42  61 101 137 177 231 294 352 415
#     4  10  22  41  65  90 132 180 231 292 354 414
#
# _framework density 25.838293
#
# number of rings (size 3 to 8) (size 9 to 14) (size 15 to 20)
#    0.000    1.714    0.000    1.714    4.000   11.429 
#    0.000    0.000    0.000    0.000    0.000    0.000 
#    0.000    0.000    0.000    0.000    0.000    0.000 
#
# Total GULP energy -78490.449827 kJ/mol
# GULP energy per Si atom -5606.460702 kJ/mol
# Density = 2.577948 g / cm^3
# Si number density = 25.838293 Si / 1000 Ang^3
#
#
#
# Elastic Constant Matrix: (Units=GPa)
#
#
# Indices 1 2 3 4 5 6 
#
# 1 104.6904 36.4991 46.0837 0.0000 22.4947 0.0000
# 2 36.4991 68.7949 30.4846 0.0000 16.4329 0.0000
# 3 46.0837 30.4846 127.4729 0.0000 6.6855 0.0000
# 4 0.0000 0.0000 0.0000 20.6675 0.0000 22.1698
# 5 22.4947 16.4329 6.6855 0.0000 60.7550 0.0000
# 6 0.0000 0.0000 0.0000 22.1698 0.0000 -1.1726
#
#
#
# Elastic Compliance Matrix: (Units=1/GPa)
#
#
# Indices 1 2 3 4 5 6 
#
# 1 0.013503 -0.004795 -0.003561 0.000000 -0.003311 0.000000
# 2 -0.004795 0.018985 -0.002646 0.000000 -0.003069 0.000000
# 3 -0.003561 -0.002646 0.009714 0.000000 0.000965 0.000000
# 4 0.000000 0.000000 0.000000 0.002274 0.000000 0.042987
# 5 -0.003311 -0.003069 0.000965 0.000000 0.018409 0.000000
# 6 0.000000 0.000000 0.000000 0.042987 0.000000 -0.040074
#
#
# Mechanical properties :
#
#
# Convention : Reuss Voigt Hill
#
# Bulk Modulus (GPa) = 49.50888 58.56589 54.03738
# Shear Modulus (GPa) = 96.99746 28.57604 62.78675
#
# Velocity S-wave (km/s) = 6.13365 3.32920 4.93484
# Velocity P-wave (km/s) = 8.32856 6.12320 7.30953
#
# Compressibility (1/GPa) = 0.02019840
#
# Stress axis : x y z
#
# Youngs Moduli (GPa) = 74.05986 52.67205 102.94073
#
# Poissons Ratio (x) = 0.25256 0.36658
# Poissons Ratio (y) = 0.35512 0.27237
# Poissons Ratio (z) = 0.26373 0.13936
#
# Static dielectric constant tensor:
#      x y z
#    x 1.996110 0.000000 0.020010 
#    y 0.000000 2.152230 0.000000 
#    z 0.020010 0.000000 2.054120 
# 
# From -- ./inp_files/1333.got.cif
#   From: 2010.05.17/outbox.cif.g08.bks.cpg/sg9_1_cif.got.tgz:1333.got - 2010.06.03 20:04:27.
