data_PCOD9137940
_publ_section_title
;
Structure prediction by ZEFSAII (Michael W. Deem and Ramdas Pophale) SiO2 
 PCOD9137940
Probable space group: C C
;
_chemical_formula_sum "Si O2"
_cell_formula_units_Z 28
_cell_length_a 15.943213
_cell_length_b 7.002128
_cell_length_c 18.088926
_cell_angle_alpha 90.000000
_cell_angle_beta 33.241646
_cell_angle_gamma 90.000000
_cell_volume 1106.967731
_symmetry_space_group_name_H-M "C C"
_symmetry_group_IT_number 9
_symmetry_cell_setting 'monoclinic'
loop_
_space_group_symop_operation_xyz
x,y,z
x,-y,1/2+z
1/2+x,1/2+y,z
1/2+x,1/2-y,1/2+z
loop_
_atom_site_type_symbol
_atom_site_label
_atom_site_fract_x
_atom_site_fract_y
_atom_site_fract_z
Si Si1 0.503190 0.076533 0.203930
Si Si2 0.396476 0.297784 0.709575
Si Si3 0.577310 0.000263 0.311280
Si Si4 0.867594 0.518037 0.595134
Si Si5 0.934203 0.915872 0.070993
Si Si6 0.787374 0.100322 0.896036
Si Si7 0.524759 0.564874 0.339102
O O1 0.354593 0.210829 0.307774
O O2 0.474576 0.853599 0.206913
O O3 0.564863 0.098884 0.241642
O O4 0.632938 0.141118 0.052260
O O5 0.496734 0.460553 0.593538
O O6 0.278862 0.425309 0.844131
O O7 0.348621 0.159538 0.677736
O O8 0.479357 0.092887 0.448814
O O9 0.502459 0.792588 0.354514
O O10 0.698709 0.521150 0.188431
O O11 0.936840 0.314071 0.570270
O O12 0.752906 0.033631 0.702863
O O13 0.003565 0.978934 0.941636
O O14 0.905880 0.030729 0.871700
#
# Coordination Sequence:
#
# PCOD9137940 Si02
#       7
#     4   4   4   4   4   4   4
#     4  12  29  50  76 112 156 203 256 317 383 457
#     4  12  28  48  76 112 150 198 249 319 389 439
#     4  10  22  45  73 111 150 194 255 306 379 457
#     4  10  25  43  75 113 152 196 249 320 378 461
#     4  10  23  45  71 109 152 194 254 312 377 455
#     4  12  29  50  76 112 157 203 257 316 380 459
#     4  10  22  45  75 111 147 198 256 310 374 458
#
# _framework density 25.294322000000001
#
# number of rings (size 3 to 8) (size 9 to 14) (size 15 to 20)
#    0.000    1.143    2.857    0.857   10.000    1.143 
#    5.143    0.000    0.000    0.000    0.000    0.000 
#    0.000    0.000    0.000    0.000    0.000    0.000 
#
# Total GULP energy -78420.936683 kJ/mol
# GULP energy per Si atom -5601.495477 kJ/mol
# Density = 2.523675 g / cm^3
# Si number density = 25.294322 Si / 1000 Ang^3
#
#
#
# Elastic Constant Matrix: (Units=GPa)
#
#
# Indices 1 2 3 4 5 6 
#
# 1 80.1855 24.8906 40.2462 0.0000 20.2181 0.0000
# 2 24.8906 171.1633 49.6077 -0.0001 15.1129 0.0002
# 3 40.2462 49.6077 203.8228 0.0000 14.4644 0.0000
# 4 0.0000 -0.0001 0.0000 28.0915 0.0000 8.0157
# 5 20.2181 15.1129 14.4644 0.0000 33.2996 0.0000
# 6 0.0000 0.0002 0.0000 8.0157 0.0000 30.1321
#
#
#
# Elastic Compliance Matrix: (Units=1/GPa)
#
#
# Indices 1 2 3 4 5 6 
#
# 1 0.016028 -0.000916 -0.002353 0.000000 -0.008293 0.000000
# 2 -0.000916 0.006507 -0.001272 0.000000 -0.001844 0.000000
# 3 -0.002353 -0.001272 0.005714 0.000000 -0.000476 0.000000
# 4 0.000000 0.000000 0.000000 0.038522 0.000000 -0.010248
# 5 -0.008293 -0.001844 -0.000476 0.000000 0.036109 0.000000
# 6 0.000000 0.000000 0.000000 -0.010248 0.000000 0.035913
#
#
# Mechanical properties :
#
#
# Convention : Reuss Voigt Hill
#
# Bulk Modulus (GPa) = 52.17590 76.07339 64.12465
# Shear Modulus (GPa) = 32.41163 40.99979 36.70571
#
# Velocity S-wave (km/s) = 3.58352 4.03042 3.81352
# Velocity P-wave (km/s) = 6.14772 7.19719 6.69306
#
# Compressibility (1/GPa) = 0.01916594
#
# Stress axis : x y z
#
# Youngs Moduli (GPa) = 62.39186 153.67779 175.00186
#
# Poissons Ratio (x) = 0.14084 0.41181
# Poissons Ratio (y) = 0.05718 0.22258
# Poissons Ratio (z) = 0.14682 0.19546
#
# Static dielectric constant tensor:
#      x y z
#    x 2.014660 0.000000 0.036070 
#    y 0.000000 2.034210 0.000000 
#    z 0.036070 0.000000 1.943040 
# 
# From -- ./inp_files/19836.got.cif
#   From: 2010.05.17/outbox.cif.g08.bks.cpg/sg9_10_cif.got.tgz:19836.got - 2010.06.03 20:04:27.
