data_PCOD9137637
_publ_section_title
;
Structure prediction by ZEFSAII (Michael W. Deem and Ramdas Pophale) SiO2 
 PCOD9137637
Probable space group: C C
;
_chemical_formula_sum "Si O2"
_cell_formula_units_Z 24
_cell_length_a 10.777639
_cell_length_b 8.648947
_cell_length_c 9.645328
_cell_angle_alpha 90.000000
_cell_angle_beta 95.210957
_cell_angle_gamma 90.000000
_cell_volume 895.375552
_symmetry_space_group_name_H-M "C C"
_symmetry_group_IT_number 9
_symmetry_cell_setting 'monoclinic'
loop_
_space_group_symop_operation_xyz
x,y,z
x,-y,1/2+z
1/2+x,1/2+y,z
1/2+x,1/2-y,1/2+z
loop_
_atom_site_type_symbol
_atom_site_label
_atom_site_fract_x
_atom_site_fract_y
_atom_site_fract_z
Si Si1 0.671780 0.691568 0.783340
Si Si2 0.964152 0.335521 0.616655
Si Si3 0.948562 0.191569 0.218395
Si Si4 0.656189 0.164478 0.885082
Si Si5 0.233060 0.026048 0.531103
Si Si6 0.387282 0.526047 0.470632
O O1 0.553960 0.805221 0.756242
O O2 0.810170 0.750000 0.750867
O O3 0.650010 0.568939 0.655267
O O4 0.688364 0.614429 0.932212
O O5 0.865711 0.472545 0.605315
O O6 0.060171 0.362620 0.500869
O O7 0.889620 0.177518 0.569404
O O8 0.066381 0.305223 0.245496
O O9 0.970330 0.068938 0.346466
O O10 0.931980 0.114432 0.069522
O O11 0.754629 0.027453 0.896422
O O12 0.730722 0.322481 0.932332
#
# Coordination Sequence:
#
# PCOD9137637 Si02
#       6
#     4   4   4   4   4   4
#     4  11  23  45  69  97 138 172 220 280 327 390
#     4  10  22  43  67  98 137 169 220 277 323 394
#     4  11  23  45  69  97 138 172 220 280 327 390
#     4  10  22  43  67  98 137 169 220 277 323 394
#     4  11  22  44  71  96 134 180 214 276 337 382
#     4  11  22  44  71  96 134 180 214 276 337 382
#
# _framework density 26.804397999999999
#
# number of rings (size 3 to 8) (size 9 to 14) (size 15 to 20)
#    0.000    1.333    6.667    1.000    0.000    2.667 
#    0.000    5.000    0.000    0.000    0.000    0.000 
#    0.000    0.000    0.000    0.000    0.000    0.000 
#
# Total GULP energy -67212.784355 kJ/mol
# GULP energy per Si atom -5601.065363 kJ/mol
# Density = 2.674339 g / cm^3
# Si number density = 26.804398 Si / 1000 Ang^3
#
#
#
# Elastic Constant Matrix: (Units=GPa)
#
#
# Indices 1 2 3 4 5 6 
#
# 1 140.0698 82.0302 26.2850 0.0000 51.3677 0.0000
# 2 82.0302 91.0746 31.4825 0.0000 30.0768 0.0000
# 3 26.2850 31.4825 122.4361 0.0000 31.7960 0.0000
# 4 0.0000 0.0000 0.0000 54.0540 0.0000 21.2744
# 5 51.3677 30.0768 31.7960 0.0000 55.6432 0.0000
# 6 0.0000 0.0000 0.0000 21.2744 0.0000 67.5485
#
#
#
# Elastic Compliance Matrix: (Units=1/GPa)
#
#
# Indices 1 2 3 4 5 6 
#
# 1 0.019412 -0.014571 0.002569 0.000000 -0.011513 0.000000
# 2 -0.014571 0.024662 -0.003810 0.000000 0.002298 0.000000
# 3 0.002569 -0.003810 0.010189 0.000000 -0.006134 0.000000
# 4 0.000000 0.000000 0.000000 0.021118 0.000000 -0.006651
# 5 -0.011513 0.002298 -0.006134 0.000000 0.030863 0.000000
# 6 0.000000 0.000000 0.000000 -0.006651 0.000000 0.016899
#
#
# Mechanical properties :
#
#
# Convention : Reuss Voigt Hill
#
# Bulk Modulus (GPa) = 44.17034 70.35287 57.26161
# Shear Modulus (GPa) = 30.80469 49.70132 40.25300
#
# Velocity S-wave (km/s) = 3.39372 4.31074 3.87942
# Velocity P-wave (km/s) = 5.64544 7.14705 6.44016
#
# Compressibility (1/GPa) = 0.02263963
#
# Stress axis : x y z
#
# Youngs Moduli (GPa) = 51.51326 40.54842 98.14769
#
# Poissons Ratio (x) = 0.59081 -0.25213
# Poissons Ratio (y) = 0.75058 0.37395
# Poissons Ratio (z) = -0.13233 0.15449
#
# Static dielectric constant tensor:
#      x y z
#    x 2.108510 0.000000 0.116140 
#    y 0.000000 2.204400 0.000000 
#    z 0.116140 0.000000 2.097930 
# 
# From -- ./inp_files/15966.got.cif
#   From: 2010.05.17/outbox.cif.g08.bks.cpg/sg9_8_cif.got.tgz:15966.got - 2010.06.03 20:04:27.
