data_PCOD9137950
_publ_section_title
;
Structure prediction by ZEFSAII (Michael W. Deem and Ramdas Pophale) SiO2 
 PCOD9137950
Probable space group: C C
;
_chemical_formula_sum "Si O2"
_cell_formula_units_Z 24
_cell_length_a 8.353872
_cell_length_b 13.266895
_cell_length_c 9.470097
_cell_angle_alpha 90.000000
_cell_angle_beta 84.357922
_cell_angle_gamma 90.000000
_cell_volume 1044.485629
_symmetry_space_group_name_H-M "C C"
_symmetry_group_IT_number 9
_symmetry_cell_setting 'monoclinic'
loop_
_space_group_symop_operation_xyz
x,y,z
x,-y,1/2+z
1/2+x,1/2+y,z
1/2+x,1/2-y,1/2+z
loop_
_atom_site_type_symbol
_atom_site_label
_atom_site_fract_x
_atom_site_fract_y
_atom_site_fract_z
Si Si1 0.824540 0.161634 0.259600
Si Si2 0.742518 0.404893 0.975164
Si Si3 0.564109 0.529996 0.772177
Si Si4 0.109419 0.613440 0.525390
Si Si5 0.106294 0.720203 0.804161
Si Si6 0.774577 0.090265 0.980260
O O1 0.671066 0.141154 0.365540
O O2 0.920327 0.252105 0.320096
O O3 0.779005 0.172135 0.102557
O O4 0.954413 0.069645 0.249700
O O5 0.705857 0.493832 0.864709
O O6 0.702260 0.306351 0.881872
O O7 0.622989 0.421036 0.120621
O O8 0.920376 0.406443 0.025709
O O9 0.440635 0.592650 0.879965
O O10 0.146506 0.699863 0.637030
O O11 0.220837 0.516154 0.551562
O O12 0.138828 0.616680 0.880072
#
# Coordination Sequence:
#
# PCOD9137950 Si02
#       6
#     4   4   4   4   4   4
#     4  10  23  46  68 104 137 190 236 290 360 419
#     4  11  25  46  71 111 141 188 242 294 364 429
#     4  10  22  45  75 101 145 185 233 296 364 431
#     4  11  25  46  72 103 143 189 241 294 359 427
#     4  11  26  45  67 105 142 186 243 293 359 419
#     4  11  23  46  73 102 140 194 237 297 362 427
#
# _framework density 22.977817999999999
#
# number of rings (size 3 to 8) (size 9 to 14) (size 15 to 20)
#    0.000    1.333    1.667    3.000    9.333    1.333 
#   12.000    0.000    0.000    0.000    0.000    0.000 
#    0.000    0.000    0.000    0.000    0.000    0.000 
#
# Total GULP energy -67002.249047 kJ/mol
# GULP energy per Si atom -5583.520754 kJ/mol
# Density = 2.292552 g / cm^3
# Si number density = 22.977818 Si / 1000 Ang^3
#
#
#
# Elastic Constant Matrix: (Units=GPa)
#
#
# Indices 1 2 3 4 5 6 
#
# 1 94.3688 24.7686 58.5848 0.0000 -8.6444 0.0000
# 2 24.7686 45.2478 38.5433 0.0000 -7.7977 0.0000
# 3 58.5848 38.5433 142.4100 0.0000 5.7457 0.0000
# 4 0.0000 0.0000 0.0000 49.3240 0.0000 11.0629
# 5 -8.6444 -7.7977 5.7457 0.0000 34.4916 0.0000
# 6 0.0000 0.0000 0.0000 11.0629 0.0000 22.8797
#
#
#
# Elastic Compliance Matrix: (Units=1/GPa)
#
#
# Indices 1 2 3 4 5 6 
#
# 1 0.015232 -0.002789 -0.005678 0.000000 0.004133 0.000000
# 2 -0.002789 0.031506 -0.007691 0.000000 0.007705 0.000000
# 3 -0.005678 -0.007691 0.011645 0.000000 -0.005102 0.000000
# 4 0.000000 0.000000 0.000000 0.022740 0.000000 -0.010995
# 5 0.004133 0.007705 -0.005102 0.000000 0.032620 0.000000
# 6 0.000000 0.000000 0.000000 -0.010995 0.000000 0.049023
#
#
# Mechanical properties :
#
#
# Convention : Reuss Voigt Hill
#
# Bulk Modulus (GPa) = 38.36137 58.42444 48.39290
# Shear Modulus (GPa) = 24.53713 32.01438 28.27575
#
# Velocity S-wave (km/s) = 3.27136 3.73671 3.51175
# Velocity P-wave (km/s) = 5.56779 6.64070 6.12777
#
# Compressibility (1/GPa) = 0.02606789
#
# Stress axis : x y z
#
# Youngs Moduli (GPa) = 65.64940 31.73979 85.87248
#
# Poissons Ratio (x) = 0.08853 0.48760
# Poissons Ratio (y) = 0.18311 0.66041
# Poissons Ratio (z) = 0.37277 0.24410
#
# Static dielectric constant tensor:
#      x y z
#    x 1.809730 0.000000 0.024180 
#    y 0.000000 2.004050 0.000000 
#    z 0.024180 0.000000 1.823510 
# 
# From -- ./inp_files/4901.got.cif
#   From: 2010.05.17/outbox.cif.g08.bks.cpg/sg9_3_cif.got.tgz:4901.got - 2010.06.03 20:04:27.
