data_PCOD9137806
_publ_section_title
;
Structure prediction by ZEFSAII (Michael W. Deem and Ramdas Pophale) SiO2 
 PCOD9137806
Probable space group: C C
;
_chemical_formula_sum "Si O2"
_cell_formula_units_Z 16
_cell_length_a 5.209448
_cell_length_b 12.409006
_cell_length_c 13.009991
_cell_angle_alpha 90.000000
_cell_angle_beta 41.218008
_cell_angle_gamma 90.000000
_cell_volume 554.169071
_symmetry_space_group_name_H-M "C C"
_symmetry_group_IT_number 9
_symmetry_cell_setting 'monoclinic'
loop_
_space_group_symop_operation_xyz
x,y,z
x,-y,1/2+z
1/2+x,1/2+y,z
1/2+x,1/2-y,1/2+z
loop_
_atom_site_type_symbol
_atom_site_label
_atom_site_fract_x
_atom_site_fract_y
_atom_site_fract_z
Si Si1 0.531890 0.093965 0.893270
Si Si2 0.106104 0.622281 0.290351
Si Si3 0.609495 0.793919 0.011235
Si Si4 0.673258 0.970984 0.575984
O O1 0.494538 0.219417 0.874909
O O2 0.608760 0.091467 0.990445
O O3 0.108928 0.051141 0.985345
O O4 0.791015 0.995205 0.771255
O O5 0.954114 0.671010 0.444575
O O6 0.357363 0.717895 0.162972
O O7 0.902200 0.577301 0.247296
O O8 0.633564 0.903249 0.068167
#
# Coordination Sequence:
#
# PCOD9137806 Si02
#       4
#     4   4   4   4
#     4  10  23  42  65  98 135 175 225 272 327 402
#     4  10  22  44  70 102 136 176 226 276 336 406
#     4  10  22  44  72  98 138 180 218 282 342 390
#     4  10  23  42  65  98 135 175 225 272 327 402
#
# _framework density 28.872055
#
# number of rings (size 3 to 8) (size 9 to 14) (size 15 to 20)
#    0.000    2.000    0.000    1.500    0.000   16.000 
#    0.000   30.000    0.000    0.000    0.000    0.000 
#    0.000    0.000    0.000    0.000    0.000    0.000 
#
# Total GULP energy -44642.273563 kJ/mol
# GULP energy per Si atom -5580.284195 kJ/mol
# Density = 2.880634 g / cm^3
# Si number density = 28.872055 Si / 1000 Ang^3
#
#
#
# Elastic Constant Matrix: (Units=GPa)
#
#
# Indices 1 2 3 4 5 6 
#
# 1 143.2657 61.2889 68.7637 -0.0075 44.7634 0.0145
# 2 61.2889 293.6733 84.6047 -0.0019 28.1299 0.0009
# 3 68.7637 84.6047 145.3165 -0.0144 46.4355 0.0090
# 4 -0.0075 -0.0019 -0.0144 76.5741 0.0072 7.1845
# 5 44.7634 28.1299 46.4355 0.0072 65.6035 -0.0048
# 6 0.0145 0.0009 0.0090 7.1845 -0.0048 55.2416
#
#
#
# Elastic Compliance Matrix: (Units=1/GPa)
#
#
# Indices 1 2 3 4 5 6 
#
# 1 0.010128 -0.000860 -0.002845 0.000001 -0.004528 -0.000003
# 2 -0.000860 0.004165 -0.002112 0.000000 0.000296 0.000001
# 3 -0.002845 -0.002112 0.011046 0.000002 -0.004972 -0.000002
# 4 0.000001 0.000000 0.000002 0.013221 -0.000004 -0.001719
# 5 -0.004528 0.000296 -0.004972 -0.000004 0.021725 0.000004
# 6 -0.000003 0.000001 -0.000002 -0.001719 0.000004 0.018326
#
#
# Mechanical properties :
#
#
# Convention : Reuss Voigt Hill
#
# Bulk Modulus (GPa) = 72.96929 112.39668 92.68298
# Shear Modulus (GPa) = 52.73445 63.99039 58.36242
#
# Velocity S-wave (km/s) = 4.27838 4.71291 4.50089
# Velocity P-wave (km/s) = 7.05225 8.28427 7.69296
#
# Compressibility (1/GPa) = 0.01370440
#
# Stress axis : x y z
#
# Youngs Moduli (GPa) = 98.73158 240.10237 90.52798
#
# Poissons Ratio (x) = 0.20660 0.25753
# Poissons Ratio (y) = 0.08496 0.19123
# Poissons Ratio (z) = 0.28087 0.50719
#
# Static dielectric constant tensor:
#      x y z
#    x 2.391960 0.000000 -0.270550 
#    y 0.000000 2.337520 0.000000 
#    z -0.270550 0.000000 2.464620 
# 
# From -- ./inp_files/3550.got.cif
#   From: 2010.05.17/outbox.cif.g08.bks.cpg/sg9_2_cif.got.tgz:3550.got - 2010.06.03 20:04:27.
