data_PCOD9137383
_publ_section_title
;
Structure prediction by ZEFSAII (Michael W. Deem and Ramdas Pophale) SiO2 
 PCOD9137383
Probable space group: C C
;
_chemical_formula_sum "Si O2"
_cell_formula_units_Z 32
_cell_length_a 8.354255
_cell_length_b 17.883193
_cell_length_c 11.523195
_cell_angle_alpha 90.000000
_cell_angle_beta 52.607641
_cell_angle_gamma 90.000000
_cell_volume 1367.783013
_symmetry_space_group_name_H-M "C C"
_symmetry_group_IT_number 9
_symmetry_cell_setting 'monoclinic'
loop_
_space_group_symop_operation_xyz
x,y,z
x,-y,1/2+z
1/2+x,1/2+y,z
1/2+x,1/2-y,1/2+z
loop_
_atom_site_type_symbol
_atom_site_label
_atom_site_fract_x
_atom_site_fract_y
_atom_site_fract_z
Si Si1 0.972370 0.745084 0.037780
Si Si2 0.819152 0.358658 0.841331
Si Si3 0.726768 0.767369 0.725209
Si Si4 0.664888 0.675534 0.991921
Si Si5 0.444628 0.979708 0.629582
Si Si6 0.982178 0.550482 0.847338
Si Si7 0.277734 0.655430 0.801202
Si Si8 0.704927 0.392042 0.130232
O O1 0.804468 0.718616 0.023128
O O2 0.866664 0.770967 0.200561
O O3 0.106660 0.814794 0.937825
O O4 0.146245 0.682003 0.967483
O O5 0.833215 0.403487 0.714915
O O6 0.029115 0.317411 0.784777
O O7 0.778622 0.414348 0.969348
O O8 0.757088 0.695682 0.625597
O O9 0.930389 0.816448 0.630577
O O10 0.692491 0.721949 0.860235
O O11 0.762144 0.591767 0.943286
O O12 0.533391 0.971839 0.460061
O O13 0.305926 0.052311 0.674224
O O14 0.544388 0.998443 0.711123
O O15 0.134111 0.620738 0.768562
O O16 0.465539 0.604813 0.748508
#
# Coordination Sequence:
#
# PCOD9137383 Si02
#       8
#     4   4   4   4   4   4   4   4
#     4  10  22  41  69 106 142 181 243 309 376 442
#     4  11  25  44  72 103 145 194 244 304 377 449
#     4  12  23  42  74 108 141 183 247 311 369 439
#     4  11  24  40  72 109 142 180 242 314 370 433
#     4  12  26  49  68 103 151 200 248 300 374 455
#     4  11  26  48  73 100 153 196 245 308 372 456
#     4  10  23  43  73 106 141 190 242 310 378 438
#     4  11  23  47  71 103 143 190 245 310 364 444
#
# _framework density 23.395523000000001
#
# number of rings (size 3 to 8) (size 9 to 14) (size 15 to 20)
#    0.000    1.000    5.000    1.500    5.250    1.000 
#    6.750    0.000    0.000    0.000    0.000    0.000 
#    0.000    0.000    0.000    0.000    0.000    0.000 
#
# Total GULP energy -89162.515457 kJ/mol
# GULP energy per Si atom -5572.657216 kJ/mol
# Density = 2.334227 g / cm^3
# Si number density = 23.395523 Si / 1000 Ang^3
#
#
#
# Elastic Constant Matrix: (Units=GPa)
#
#
# Indices 1 2 3 4 5 6 
#
# 1 76.1020 20.0055 39.9084 0.0000 -3.0520 0.0000
# 2 20.0055 38.6261 14.8723 0.0000 6.3047 0.0000
# 3 39.9084 14.8723 128.5896 0.0000 13.0235 0.0000
# 4 0.0000 0.0000 0.0000 30.1952 0.0000 20.2109
# 5 -3.0520 6.3047 13.0235 0.0000 44.8336 0.0000
# 6 0.0000 0.0000 0.0000 20.2109 0.0000 32.6914
#
#
#
# Elastic Compliance Matrix: (Units=1/GPa)
#
#
# Indices 1 2 3 4 5 6 
#
# 1 0.018060 -0.008029 -0.005064 0.000000 0.003830 0.000000
# 2 -0.008029 0.031060 -0.000621 0.000000 -0.004734 0.000000
# 3 -0.005064 -0.000621 0.009733 0.000000 -0.003085 0.000000
# 4 0.000000 0.000000 0.000000 0.056497 0.000000 -0.034928
# 5 0.003830 -0.004734 -0.003085 0.000000 0.024127 0.000000
# 6 0.000000 0.000000 0.000000 -0.034928 0.000000 0.052183
#
#
# Mechanical properties :
#
#
# Convention : Reuss Voigt Hill
#
# Bulk Modulus (GPa) = 31.82309 43.65446 37.73877
# Shear Modulus (GPa) = 21.78054 32.77946 27.28000
#
# Velocity S-wave (km/s) = 3.05449 3.74719 3.41843
# Velocity P-wave (km/s) = 5.10604 6.11733 5.63442
#
# Compressibility (1/GPa) = 0.03142372
#
# Stress axis : x y z
#
# Youngs Moduli (GPa) = 55.37011 32.19625 102.74700
#
# Poissons Ratio (x) = 0.25851 0.52035
# Poissons Ratio (y) = 0.44457 0.06380
# Poissons Ratio (z) = 0.28041 0.01999
#
# Static dielectric constant tensor:
#      x y z
#    x 1.878420 0.000000 0.036390 
#    y 0.000000 2.017150 0.000000 
#    z 0.036390 0.000000 1.945180 
# 
# From -- ./inp_files/5766.got.cif
#   From: 2010.05.17/outbox.cif.g08.bks.cpg/sg9_3_cif.got.tgz:5766.got - 2010.06.03 20:04:27.
