data_PCOD9137229
_publ_section_title
;
Structure prediction by ZEFSAII (Michael W. Deem and Ramdas Pophale) SiO2 
 PCOD9137229
Probable space group: C C
;
_chemical_formula_sum "Si O2"
_cell_formula_units_Z 32
_cell_length_a 22.091038
_cell_length_b 6.367713
_cell_length_c 21.283082
_cell_angle_alpha 90.000000
_cell_angle_beta 152.882056
_cell_angle_gamma 90.000000
_cell_volume 1364.680570
_symmetry_space_group_name_H-M "C C"
_symmetry_group_IT_number 9
_symmetry_cell_setting 'monoclinic'
loop_
_space_group_symop_operation_xyz
x,y,z
x,-y,1/2+z
1/2+x,1/2+y,z
1/2+x,1/2-y,1/2+z
loop_
_atom_site_type_symbol
_atom_site_label
_atom_site_fract_x
_atom_site_fract_y
_atom_site_fract_z
Si Si1 0.130440 0.439800 0.931550
Si Si2 0.049439 0.574573 0.226657
Si Si3 0.871677 0.199541 0.391517
Si Si4 0.276821 0.080411 0.923131
Si Si5 0.196051 0.310598 0.261538
Si Si6 0.237565 0.934903 0.685810
Si Si7 0.049300 0.804389 0.947218
Si Si8 0.394790 0.356921 0.241741
O O1 0.109825 0.539995 0.844055
O O2 0.091308 0.596129 0.951597
O O3 0.025081 0.251188 0.834612
O O4 0.278864 0.372591 0.083942
O O5 0.138497 0.791793 0.307001
O O6 0.090595 0.447844 0.202023
O O7 0.888419 0.566820 0.080705
O O8 0.861537 0.279861 0.452365
O O9 0.793647 0.368564 0.276514
O O10 0.011284 0.211319 0.485410
O O11 0.807936 0.970150 0.338796
O O12 0.247368 0.863986 0.858755
O O13 0.150225 0.194238 0.155564
O O14 0.347374 0.782627 0.757177
O O15 0.164156 0.024062 0.557180
O O16 0.928594 0.912673 0.799142
#
# Coordination Sequence:
#
# PCOD9137229 Si02
#       8
#     4   4   4   4   4   4   4   4
#     4  12  28  46  71 102 143 193 240 294 354 425
#     4  11  26  48  69 102 139 187 239 286 351 427
#     4  10  22  40  66 105 140 173 232 290 357 421
#     4  10  25  44  73 101 140 182 233 296 351 420
#     4  10  24  41  70 105 138 182 224 294 359 422
#     4  11  23  41  67 106 139 180 229 293 360 424
#     4  12  25  40  73 103 143 183 237 292 359 430
#     4  12  25  46  69 104 140 188 240 293 361 423
#
# _framework density 23.448709999999998
#
# number of rings (size 3 to 8) (size 9 to 14) (size 15 to 20)
#    0.000    1.000    3.750    1.500    7.000    3.000 
#    0.000    0.000    0.000    0.000    0.000    0.000 
#    0.000    0.000    0.000    0.000    0.000    0.000 
#
# Total GULP energy -89322.017853 kJ/mol
# GULP energy per Si atom -5582.626116 kJ/mol
# Density = 2.339534 g / cm^3
# Si number density = 23.448710 Si / 1000 Ang^3
#
#
#
# Elastic Constant Matrix: (Units=GPa)
#
#
# Indices 1 2 3 4 5 6 
#
# 1 49.5786 3.1847 -21.2922 -0.0001 -3.7783 0.0000
# 2 3.1847 66.1429 11.9305 0.0001 4.5182 0.0001
# 3 -21.2922 11.9305 102.5489 -0.0001 0.8439 0.0000
# 4 -0.0001 0.0001 -0.0001 25.4634 0.0000 -2.2825
# 5 -3.7783 4.5182 0.8439 0.0000 27.6696 0.0000
# 6 0.0000 0.0001 0.0000 -2.2825 0.0000 28.4367
#
#
#
# Elastic Compliance Matrix: (Units=1/GPa)
#
#
# Indices 1 2 3 4 5 6 
#
# 1 0.022686 -0.002209 0.004940 0.000000 0.003308 0.000000
# 2 -0.002209 0.015828 -0.002277 0.000000 -0.002817 0.000000
# 3 0.004940 -0.002277 0.011036 0.000000 0.000710 0.000000
# 4 0.000000 0.000000 0.000000 0.039557 0.000000 0.003175
# 5 0.003308 -0.002817 0.000710 0.000000 0.037031 0.000000
# 6 0.000000 0.000000 0.000000 0.003175 0.000000 0.035421
#
#
# Mechanical properties :
#
#
# Convention : Reuss Voigt Hill
#
# Bulk Modulus (GPa) = 19.81869 22.87961 21.34915
# Shear Modulus (GPa) = 28.17383 31.27711 29.72547
#
# Velocity S-wave (km/s) = 3.47004 3.65616 3.56431
# Velocity P-wave (km/s) = 4.95229 5.25374 5.10524
#
# Compressibility (1/GPa) = 0.05045743
#
# Stress axis : x y z
#
# Youngs Moduli (GPa) = 44.08100 63.17804 90.61095
#
# Poissons Ratio (x) = 0.13958 -0.44762
# Poissons Ratio (y) = 0.09739 0.20632
# Poissons Ratio (z) = -0.21776 0.14386
#
# Static dielectric constant tensor:
#      x y z
#    x 1.936590 0.000000 -0.012370 
#    y 0.000000 1.913500 0.000000 
#    z -0.012370 0.000000 1.967490 
# 
# From -- ./inp_files/21062.got.cif
#   From: 2010.05.17/outbox.cif.g08.bks.cpg/sg9_11_cif.got.tgz:21062.got - 2010.06.03 20:04:27.
