data_PCOD9137680
_publ_section_title
;
Structure prediction by ZEFSAII (Michael W. Deem and Ramdas Pophale) SiO2 
 PCOD9137680
Probable space group: C C
;
_chemical_formula_sum "Si O2"
_cell_formula_units_Z 24
_cell_length_a 9.166538
_cell_length_b 15.623585
_cell_length_c 9.864270
_cell_angle_alpha 90.000000
_cell_angle_beta 132.690789
_cell_angle_gamma 90.000000
_cell_volume 1038.370346
_symmetry_space_group_name_H-M "C C"
_symmetry_group_IT_number 9
_symmetry_cell_setting 'monoclinic'
loop_
_space_group_symop_operation_xyz
x,y,z
x,-y,1/2+z
1/2+x,1/2+y,z
1/2+x,1/2-y,1/2+z
loop_
_atom_site_type_symbol
_atom_site_label
_atom_site_fract_x
_atom_site_fract_y
_atom_site_fract_z
Si Si1 0.219280 0.031042 0.225300
Si Si2 0.580366 0.126823 0.561113
Si Si3 0.969457 0.638113 0.804385
Si Si4 0.218101 0.310750 0.699565
Si Si5 0.385411 0.700026 0.581268
Si Si6 0.986826 0.049916 0.808026
O O1 0.339690 0.944893 0.260350
O O2 0.094369 0.019842 0.284364
O O3 0.384489 0.101794 0.358141
O O4 0.072791 0.050865 0.010946
O O5 0.536048 0.137974 0.690421
O O6 0.692008 0.203805 0.553852
O O7 0.747881 0.051859 0.656392
O O8 0.837388 0.724063 0.739124
O O9 0.159473 0.642343 0.024782
O O10 0.332716 0.346164 0.903970
O O11 0.001962 0.285244 0.622437
O O12 0.530768 0.638711 0.757131
#
# Coordination Sequence:
#
# PCOD9137680 Si02
#       6
#     4   4   4   4   4   4
#     4  12  23  43  71  97 137 166 218 276 336 388
#     4  10  25  42  65 104 127 171 217 277 329 384
#     4  11  23  43  63  99 127 175 223 268 329 386
#     4  10  22  43  70  87 134 180 219 270 316 400
#     4   9  22  42  64  97 125 180 218 261 332 379
#     4  10  25  43  63 102 132 170 215 272 332 387
#
# _framework density 23.113140999999999
#
# number of rings (size 3 to 8) (size 9 to 14) (size 15 to 20)
#    1.000    0.667    3.333    0.000    4.667    2.667 
#    6.000    0.000    0.000    0.000    0.000    0.000 
#    0.000    0.000    0.000    0.000    0.000    0.000 
#
# Total GULP energy -66999.361219 kJ/mol
# GULP energy per Si atom -5583.280102 kJ/mol
# Density = 2.306053 g / cm^3
# Si number density = 23.113141 Si / 1000 Ang^3
#
#
#
# Elastic Constant Matrix: (Units=GPa)
#
#
# Indices 1 2 3 4 5 6 
#
# 1 122.0048 6.3020 9.5671 0.0000 -10.5244 0.0000
# 2 6.3020 30.6346 6.4697 0.0000 -0.3059 0.0000
# 3 9.5671 6.4697 126.8094 0.0000 -7.0905 0.0000
# 4 0.0000 0.0000 0.0000 37.6178 0.0000 2.0668
# 5 -10.5244 -0.3059 -7.0905 0.0000 36.2480 0.0000
# 6 0.0000 0.0000 0.0000 2.0668 0.0000 11.3194
#
#
#
# Elastic Compliance Matrix: (Units=1/GPa)
#
#
# Indices 1 2 3 4 5 6 
#
# 1 0.008519 -0.001639 -0.000426 0.000000 0.002376 0.000000
# 2 -0.001639 0.033314 -0.001604 0.000000 -0.000509 0.000000
# 3 -0.000426 -0.001604 0.008081 0.000000 0.001443 0.000000
# 4 0.000000 0.000000 0.000000 0.026853 0.000000 -0.004903
# 5 0.002376 -0.000509 0.001443 0.000000 0.028556 0.000000
# 6 0.000000 0.000000 0.000000 -0.004903 0.000000 0.089239
#
#
# Mechanical properties :
#
#
# Convention : Reuss Voigt Hill
#
# Bulk Modulus (GPa) = 23.48814 36.01405 29.75109
# Shear Modulus (GPa) = 23.13834 34.17771 28.65803
#
# Velocity S-wave (km/s) = 3.16743 3.84958 3.52504
# Velocity P-wave (km/s) = 4.85398 5.94764 5.42842
#
# Compressibility (1/GPa) = 0.04257468
#
# Stress axis : x y z
#
# Youngs Moduli (GPa) = 117.37828 30.01769 123.75359
#
# Poissons Ratio (x) = 0.04919 0.05275
# Poissons Ratio (y) = 0.19236 0.19856
# Poissons Ratio (z) = 0.05003 0.04816
#
# Static dielectric constant tensor:
#      x y z
#    x 1.859270 0.000000 0.012580 
#    y 0.000000 1.961610 0.000000 
#    z 0.012580 0.000000 1.850840 
# 
# From -- ./inp_files/5188.got.cif
#   From: 2010.05.17/outbox.cif.g08.bks.cpg/sg9_3_cif.got.tgz:5188.got - 2010.06.03 20:04:27.
