data_PCOD9137631
_publ_section_title
;
Structure prediction by ZEFSAII (Michael W. Deem and Ramdas Pophale) SiO2 
 PCOD9137631
Probable space group: C C
;
_chemical_formula_sum "Si O2"
_cell_formula_units_Z 32
_cell_length_a 11.247713
_cell_length_b 9.068662
_cell_length_c 15.189410
_cell_angle_alpha 90.000000
_cell_angle_beta 60.430105
_cell_angle_gamma 90.000000
_cell_volume 1347.550198
_symmetry_space_group_name_H-M "C C"
_symmetry_group_IT_number 9
_symmetry_cell_setting 'monoclinic'
loop_
_space_group_symop_operation_xyz
x,y,z
x,-y,1/2+z
1/2+x,1/2+y,z
1/2+x,1/2-y,1/2+z
loop_
_atom_site_type_symbol
_atom_site_label
_atom_site_fract_x
_atom_site_fract_y
_atom_site_fract_z
Si Si1 0.917860 0.845832 0.379850
Si Si2 0.631931 0.715535 0.074895
Si Si3 0.518375 0.290625 0.968334
Si Si4 0.684712 0.191691 0.272543
Si Si5 0.446698 0.797934 0.294714
Si Si6 0.163826 0.505201 0.434992
Si Si7 0.284858 0.041397 0.427998
Si Si8 0.381472 0.463452 0.582378
O O1 0.812179 0.933226 0.356942
O O2 0.847193 0.694056 0.436491
O O3 0.908494 0.940417 0.470387
O O4 0.071687 0.815360 0.292585
O O5 0.582058 0.763621 0.189319
O O6 0.497396 0.634417 0.085976
O O7 0.742432 0.585855 0.014159
O O8 0.662975 0.864725 0.007981
O O9 0.473130 0.266284 0.883312
O O10 0.568591 0.134161 0.988858
O O11 0.648409 0.402430 0.927714
O O12 0.407146 0.361744 0.075842
O O13 0.813281 0.241498 0.287333
O O14 0.742047 0.104095 0.168549
O O15 0.612199 0.079635 0.365320
O O16 0.397298 0.965674 0.324882
#
# Coordination Sequence:
#
# PCOD9137631 Si02
#       8
#     4   4   4   4   4   4   4   4
#     4  11  23  42  68  94 136 178 216 280 336 404
#     4  10  22  44  67  97 132 176 229 279 339 395
#     4  10  23  44  67  96 133 177 227 278 335 403
#     4  11  22  43  68  98 135 177 222 273 346 402
#     4  11  22  42  73  95 133 181 219 282 340 398
#     4  11  22  43  69  97 136 178 220 285 336 395
#     4  10  22  45  63  96 135 170 229 277 332 408
#     4  10  22  43  67  95 134 177 222 282 334 403
#
# _framework density 23.746796
#
# number of rings (size 3 to 8) (size 9 to 14) (size 15 to 20)
#    0.000    1.500    2.500    2.250    0.000    2.000 
#   20.250    0.000    0.000    0.000    0.000    0.000 
#    0.000    0.000    0.000    0.000    0.000    0.000 
#
# Total GULP energy -89210.702956 kJ/mol
# GULP energy per Si atom -5575.668935 kJ/mol
# Density = 2.369275 g / cm^3
# Si number density = 23.746796 Si / 1000 Ang^3
#
#
#
# Elastic Constant Matrix: (Units=GPa)
#
#
# Indices 1 2 3 4 5 6 
#
# 1 94.9086 12.7332 13.4920 0.0000 -21.6089 0.0000
# 2 12.7332 107.7083 11.3123 0.0000 -14.0746 0.0000
# 3 13.4920 11.3123 52.0422 0.0000 -13.8582 0.0000
# 4 0.0000 0.0000 0.0000 -11.2104 0.0000 -2.5079
# 5 -21.6089 -14.0746 -13.8582 0.0000 16.7696 0.0000
# 6 0.0000 0.0000 0.0000 -2.5079 0.0000 31.3596
#
#
#
# Elastic Compliance Matrix: (Units=1/GPa)
#
#
# Indices 1 2 3 4 5 6 
#
# 1 0.015086 0.000855 0.001629 0.000000 0.021504 0.000000
# 2 0.000855 0.010477 0.000174 0.000000 0.010039 0.000000
# 3 0.001629 0.000174 0.024813 0.000000 0.022751 0.000000
# 4 0.000000 0.000000 0.000000 -0.087635 0.000000 -0.007008
# 5 0.021504 0.010039 0.022751 0.000000 0.114568 0.000000
# 6 0.000000 0.000000 0.000000 -0.007008 0.000000 0.031328
#
#
# Mechanical properties :
#
#
# Convention : Reuss Voigt Hill
#
# Bulk Modulus (GPa) = 17.95533 36.63712 27.29623
# Shear Modulus (GPa) = 41.02266 21.85852 31.44059
#
# Velocity S-wave (km/s) = 4.16083 3.03724 3.64262
# Velocity P-wave (km/s) = 5.53723 5.26892 5.40474
#
# Compressibility (1/GPa) = 0.05569376
#
# Stress axis : x y z
#
# Youngs Moduli (GPa) = 66.28615 95.44915 40.30111
#
# Poissons Ratio (x) = -0.08165 -0.06566
# Poissons Ratio (y) = -0.05670 -0.00702
# Poissons Ratio (z) = -0.10799 -0.01663
#
# Static dielectric constant tensor:
#      x y z
#    x 2.032500 0.000000 -0.052010 
#    y 0.000000 2.128750 0.000000 
#    z -0.052010 0.000000 1.900940 
# 
# From -- ./inp_files/29888.got.cif
#   From: 2010.05.17/outbox.cif.g08.bks.cpg/sg9_15_cif.got.tgz:29888.got - 2010.06.03 20:04:27.
