data_PCOD9137826
_publ_section_title
;
Structure prediction by ZEFSAII (Michael W. Deem and Ramdas Pophale) SiO2 
 PCOD9137826
Probable space group: C C
;
_chemical_formula_sum "Si O2"
_cell_formula_units_Z 32
_cell_length_a 29.305767
_cell_length_b 7.933966
_cell_length_c 11.910689
_cell_angle_alpha 90.000000
_cell_angle_beta 30.124476
_cell_angle_gamma 90.000000
_cell_volume 1389.890023
_symmetry_space_group_name_H-M "C C"
_symmetry_group_IT_number 9
_symmetry_cell_setting 'monoclinic'
loop_
_space_group_symop_operation_xyz
x,y,z
x,-y,1/2+z
1/2+x,1/2+y,z
1/2+x,1/2-y,1/2+z
loop_
_atom_site_type_symbol
_atom_site_label
_atom_site_fract_x
_atom_site_fract_y
_atom_site_fract_z
Si Si1 0.953430 0.947512 0.495050
Si Si2 0.983291 0.295151 0.350919
Si Si3 0.832857 0.492033 0.155411
Si Si4 0.079906 0.205058 0.914937
Si Si5 0.095817 0.440347 0.287901
Si Si6 0.496370 0.781650 0.712312
Si Si7 0.678728 0.398186 0.831187
Si Si8 0.781632 0.210856 0.430745
O O1 0.945347 0.875383 0.384547
O O2 0.854631 0.936648 0.762558
O O3 0.015782 0.844260 0.448132
O O4 0.000303 0.126331 0.383665
O O5 0.876156 0.328031 0.590081
O O6 0.019708 0.259942 0.149992
O O7 0.038112 0.444926 0.296194
O O8 0.735681 0.507656 0.305060
O O9 0.826084 0.371652 0.276011
O O10 0.915692 0.417618 0.904120
O O11 0.124630 0.379917 0.778757
O O12 0.138795 0.043600 0.831933
O O13 0.032726 0.340462 0.512455
O O14 0.187987 0.339430 0.070534
O O15 0.596553 0.721784 0.545489
O O16 0.750649 0.275472 0.617443
#
# Coordination Sequence:
#
# PCOD9137826 Si02
#       8
#     4   4   4   4   4   4   4   4
#     4  11  24  46  71 102 148 181 249 292 367 443
#     4  12  25  45  74 105 137 198 235 300 370 431
#     4  11  24  44  70 101 146 183 247 300 368 445
#     4  12  25  45  74 105 137 198 235 300 370 431
#     4  11  24  46  71 102 148 181 249 292 367 443
#     4  10  22  44  72 102 140 196 230 306 362 436
#     4  11  24  44  70 101 146 183 247 300 368 445
#     4  10  24  44  62 106 136 186 232 300 354 438
#
# _framework density 23.023403999999999
#
# number of rings (size 3 to 8) (size 9 to 14) (size 15 to 20)
#    0.000    1.000    2.500    4.500    3.500    1.000 
#    4.500    3.750    0.000    0.000    0.000    0.000 
#    0.000    0.000    0.000    0.000    0.000    0.000 
#
# Total GULP energy -89111.191309 kJ/mol
# GULP energy per Si atom -5569.449457 kJ/mol
# Density = 2.297100 g / cm^3
# Si number density = 23.023404 Si / 1000 Ang^3
#
#
#
# Elastic Constant Matrix: (Units=GPa)
#
#
# Indices 1 2 3 4 5 6 
#
# 1 57.4587 17.8843 -7.5068 0.0000 1.0193 0.0000
# 2 17.8843 72.0902 21.3510 0.0000 3.0431 0.0000
# 3 -7.5068 21.3510 90.0770 0.0000 16.7249 0.0000
# 4 0.0000 0.0000 0.0000 39.8798 0.0000 -4.8656
# 5 1.0193 3.0431 16.7249 0.0000 12.4499 0.0000
# 6 0.0000 0.0000 0.0000 -4.8656 0.0000 23.3910
#
#
#
# Elastic Compliance Matrix: (Units=1/GPa)
#
#
# Indices 1 2 3 4 5 6 
#
# 1 0.019883 -0.005912 0.004120 0.000000 -0.005717 0.000000
# 2 -0.005912 0.016697 -0.005039 0.000000 0.003173 0.000000
# 3 0.004120 -0.005039 0.016618 0.000000 -0.021430 0.000000
# 4 0.000000 0.000000 0.000000 0.025728 0.000000 0.005352
# 5 -0.005717 0.003173 -0.021430 0.000000 0.108804 0.000000
# 6 0.000000 0.000000 0.000000 0.005352 0.000000 0.043865
#
#
# Mechanical properties :
#
#
# Convention : Reuss Voigt Hill
#
# Bulk Modulus (GPa) = 25.29313 31.45367 28.37340
# Shear Modulus (GPa) = 19.34711 27.67062 23.50887
#
# Velocity S-wave (km/s) = 2.90198 3.47053 3.19891
# Velocity P-wave (km/s) = 4.71575 5.45442 5.09848
#
# Compressibility (1/GPa) = 0.03953643
#
# Stress axis : x y z
#
# Youngs Moduli (GPa) = 50.29298 59.89228 60.17400
#
# Poissons Ratio (x) = 0.35406 -0.24791
# Poissons Ratio (y) = 0.29731 0.30324
# Poissons Ratio (z) = -0.20720 0.30182
#
# Static dielectric constant tensor:
#      x y z
#    x 1.852470 0.000000 0.005090 
#    y 0.000000 1.989250 0.000000 
#    z 0.005090 0.000000 1.854690 
# 
# From -- ./inp_files/17802.got.cif
#   From: 2010.05.17/outbox.cif.g08.bks.cpg/sg9_9_cif.got.tgz:17802.got - 2010.06.03 20:04:27.
