data_PCOD9137169
_publ_section_title
;
Structure prediction by ZEFSAII (Michael W. Deem and Ramdas Pophale) SiO2 
 PCOD9137169
Probable space group: C C
;
_chemical_formula_sum "Si O2"
_cell_formula_units_Z 24
_cell_length_a 8.543368
_cell_length_b 11.338433
_cell_length_c 13.096586
_cell_angle_alpha 90.000000
_cell_angle_beta 108.120289
_cell_angle_gamma 90.000000
_cell_volume 1205.727772
_symmetry_space_group_name_H-M "C C"
_symmetry_group_IT_number 9
_symmetry_cell_setting 'monoclinic'
loop_
_space_group_symop_operation_xyz
x,y,z
x,-y,1/2+z
1/2+x,1/2+y,z
1/2+x,1/2-y,1/2+z
loop_
_atom_site_type_symbol
_atom_site_label
_atom_site_fract_x
_atom_site_fract_y
_atom_site_fract_z
Si Si1 0.477830 0.736880 0.118160
Si Si2 0.907911 0.989236 0.463561
Si Si3 0.034210 0.141281 0.799740
Si Si4 0.596275 0.147481 0.444238
Si Si5 0.216829 0.920040 0.136330
Si Si6 0.812757 0.649797 0.237062
O O1 0.414678 0.626538 0.037797
O O2 0.332468 0.808731 0.141095
O O3 0.624757 0.688058 0.218741
O O4 0.563121 0.825780 0.054887
O O5 0.935137 0.946391 0.353199
O O6 0.063946 0.068541 0.528487
O O7 0.738805 0.056746 0.448104
O O8 0.135311 0.227231 0.896625
O O9 0.143103 0.084239 0.735400
O O10 0.908953 0.233045 0.720626
O O11 0.421404 0.112695 0.356804
O O12 0.312426 0.044893 0.155135
#
# Coordination Sequence:
#
# PCOD9137169 Si02
#       6
#     4   4   4   4   4   4
#     4  10  22  40  61  91 125 155 210 261 305 372
#     4  10  22  41  60  89 127 160 209 258 303 369
#     4   9  22  39  59  90 122 159 204 252 301 371
#     4   9  21  41  62  86 123 164 199 260 307 357
#     4  11  23  38  64  90 122 164 204 258 312 365
#     4   9  22  39  60  88 121 158 204 253 302 372
#
# _framework density 19.904990000000002
#
# number of rings (size 3 to 8) (size 9 to 14) (size 15 to 20)
#    1.000    1.333    0.000    1.000    4.667    4.000 
#    3.000    0.000    0.000    0.000    0.000    0.000 
#    0.000    0.000    0.000    0.000    0.000    0.000 
#
# Total GULP energy -66861.948214 kJ/mol
# GULP energy per Si atom -5571.829018 kJ/mol
# Density = 1.985969 g / cm^3
# Si number density = 19.904990 Si / 1000 Ang^3
#
#
#
# Elastic Constant Matrix: (Units=GPa)
#
#
# Indices 1 2 3 4 5 6 
#
# 1 108.8705 66.9198 45.6681 0.0000 9.7545 0.0000
# 2 66.9198 75.4865 17.0778 0.0000 6.2348 0.0000
# 3 45.6681 17.0778 51.6334 0.0000 11.9394 0.0000
# 4 0.0000 0.0000 0.0000 16.8568 0.0000 6.3156
# 5 9.7545 6.2348 11.9394 0.0000 32.9372 0.0000
# 6 0.0000 0.0000 0.0000 6.3156 0.0000 54.2073
#
#
#
# Elastic Compliance Matrix: (Units=1/GPa)
#
#
# Indices 1 2 3 4 5 6 
#
# 1 0.033526 -0.024965 -0.022040 0.000000 0.002786 0.000000
# 2 -0.024965 0.032945 0.011916 0.000000 -0.003162 0.000000
# 3 -0.022040 0.011916 0.037036 0.000000 -0.009154 0.000000
# 4 0.000000 0.000000 0.000000 0.062031 0.000000 -0.007227
# 5 0.002786 -0.003162 -0.009154 0.000000 0.033452 0.000000
# 6 0.000000 0.000000 0.000000 -0.007227 0.000000 0.019290
#
#
# Mechanical properties :
#
#
# Convention : Reuss Voigt Hill
#
# Bulk Modulus (GPa) = 30.00437 55.03576 42.52007
# Shear Modulus (GPa) = 16.69064 27.88855 22.28960
#
# Velocity S-wave (km/s) = 2.89885 3.74717 3.34997
# Velocity P-wave (km/s) = 5.12942 6.81402 6.03083
#
# Compressibility (1/GPa) = 0.03332848
#
# Stress axis : x y z
#
# Youngs Moduli (GPa) = 29.82744 30.35367 27.00056
#
# Poissons Ratio (x) = 0.75779 0.59509
# Poissons Ratio (y) = 0.74465 -0.32173
# Poissons Ratio (z) = 0.65739 -0.36168
#
# Static dielectric constant tensor:
#      x y z
#    x 1.672210 0.000000 0.026300 
#    y 0.000000 1.734910 0.000000 
#    z 0.026300 0.000000 1.724060 
# 
# From -- ./inp_files/14202.got.cif
#   From: 2010.05.17/outbox.cif.g08.bks.cpg/sg9_8_cif.got.tgz:14202.got - 2010.06.03 20:04:27.
