data_PCOD9137640
_publ_section_title
;
Structure prediction by ZEFSAII (Michael W. Deem and Ramdas Pophale) SiO2 
 PCOD9137640
Probable space group: C C
;
_chemical_formula_sum "Si O2"
_cell_formula_units_Z 24
_cell_length_a 7.366846
_cell_length_b 28.027488
_cell_length_c 7.852066
_cell_angle_alpha 90.000000
_cell_angle_beta 37.567843
_cell_angle_gamma 90.000000
_cell_volume 988.476132
_symmetry_space_group_name_H-M "C C"
_symmetry_group_IT_number 9
_symmetry_cell_setting 'monoclinic'
loop_
_space_group_symop_operation_xyz
x,y,z
x,-y,1/2+z
1/2+x,1/2+y,z
1/2+x,1/2-y,1/2+z
loop_
_atom_site_type_symbol
_atom_site_label
_atom_site_fract_x
_atom_site_fract_y
_atom_site_fract_z
Si Si1 0.431620 0.370531 0.397030
Si Si2 0.729955 0.780717 0.730326
Si Si3 0.063392 0.552531 0.588783
Si Si4 0.181466 0.987302 0.676635
Si Si5 0.006262 0.138655 0.212550
Si Si6 0.808174 0.401872 0.802679
O O1 0.264262 0.319779 0.555244
O O2 0.600354 0.376815 0.451291
O O3 0.155041 0.405917 0.584442
O O4 0.636504 0.375782 0.082593
O O5 0.907429 0.734356 0.534740
O O6 0.895436 0.807607 0.763793
O O7 0.346628 0.516513 0.358992
O O8 0.228624 0.603414 0.457998
O O9 0.825724 0.537310 0.621383
O O10 0.903050 0.539874 0.884122
O O11 0.182798 0.953792 0.845483
O O12 0.243551 0.130030 0.182181
#
# Coordination Sequence:
#
# PCOD9137640 Si02
#       6
#     4   4   4   4   4   4
#     4  10  24  40  74  92 135 182 212 285 342 400
#     4  10  22  43  68 102 136 171 223 280 340 413
#     4  11  24  46  63 102 133 186 227 289 340 395
#     4  11  25  42  69  95 142 171 241 286 326 415
#     4   9  25  44  72  94 142 177 228 277 341 409
#     4  11  22  45  66 103 128 181 233 271 335 410
#
# _framework density 24.279799000000001
#
# number of rings (size 3 to 8) (size 9 to 14) (size 15 to 20)
#    1.000    0.667    0.000    4.000    2.333    8.000 
#    0.000    5.000    0.000    0.000    0.000    0.000 
#    0.000    0.000    0.000    0.000    0.000    0.000 
#
# Total GULP energy -67109.782950 kJ/mol
# GULP energy per Si atom -5592.481913 kJ/mol
# Density = 2.422454 g / cm^3
# Si number density = 24.279799 Si / 1000 Ang^3
#
#
#
# Elastic Constant Matrix: (Units=GPa)
#
#
# Indices 1 2 3 4 5 6 
#
# 1 92.1326 -2.2664 29.7742 0.0000 10.3923 0.0000
# 2 -2.2664 77.1285 5.4975 0.0000 7.8397 0.0000
# 3 29.7742 5.4975 137.4212 0.0000 11.6072 0.0000
# 4 0.0000 0.0000 0.0000 39.6303 0.0000 -3.1624
# 5 10.3923 7.8397 11.6072 0.0000 45.6306 0.0000
# 6 0.0000 0.0000 0.0000 -3.1624 0.0000 35.3075
#
#
#
# Elastic Compliance Matrix: (Units=1/GPa)
#
#
# Indices 1 2 3 4 5 6 
#
# 1 0.011906 0.000749 -0.002422 0.000000 -0.002224 0.000000
# 2 0.000749 0.013259 -0.000496 0.000000 -0.002322 0.000000
# 3 -0.002422 -0.000496 0.007938 0.000000 -0.001382 0.000000
# 4 0.000000 0.000000 0.000000 0.025415 0.000000 0.002276
# 5 -0.002224 -0.002322 -0.001382 0.000000 0.023172 0.000000
# 6 0.000000 0.000000 0.000000 0.002276 0.000000 0.028526
#
#
# Mechanical properties :
#
#
# Convention : Reuss Voigt Hill
#
# Bulk Modulus (GPa) = 34.76607 41.41033 38.08820
# Shear Modulus (GPa) = 40.27601 42.35884 41.31743
#
# Velocity S-wave (km/s) = 4.07729 4.18139 4.12967
# Velocity P-wave (km/s) = 6.04283 6.35645 6.20162
#
# Compressibility (1/GPa) = 0.02876367
#
# Stress axis : x y z
#
# Youngs Moduli (GPa) = 83.99266 75.42166 125.97310
#
# Poissons Ratio (x) = -0.05646 0.30506
# Poissons Ratio (y) = -0.06287 0.06254
# Poissons Ratio (z) = 0.20340 0.03744
#
# Static dielectric constant tensor:
#      x y z
#    x 1.968160 0.000000 0.023670 
#    y 0.000000 2.017580 0.000000 
#    z 0.023670 0.000000 1.907680 
# 
# From -- ./inp_files/6500.got.cif
#   From: 2010.05.17/outbox.cif.g08.bks.cpg/sg9_4_cif.got.tgz:6500.got - 2010.06.03 20:04:27.
