data_PCOD9137908
_publ_section_title
;
Structure prediction by ZEFSAII (Michael W. Deem and Ramdas Pophale) SiO2 
 PCOD9137908
Probable space group: C C
;
_chemical_formula_sum "Si O2"
_cell_formula_units_Z 24
_cell_length_a 21.257058
_cell_length_b 7.596859
_cell_length_c 11.241942
_cell_angle_alpha 90.000000
_cell_angle_beta 148.134506
_cell_angle_gamma 90.000000
_cell_volume 958.412342
_symmetry_space_group_name_H-M "C C"
_symmetry_group_IT_number 9
_symmetry_cell_setting 'monoclinic'
loop_
_space_group_symop_operation_xyz
x,y,z
x,-y,1/2+z
1/2+x,1/2+y,z
1/2+x,1/2-y,1/2+z
loop_
_atom_site_type_symbol
_atom_site_label
_atom_site_fract_x
_atom_site_fract_y
_atom_site_fract_z
Si Si1 0.311540 0.822936 0.385390
Si Si2 0.686859 0.252442 0.846963
Si Si3 0.750328 0.014722 0.642095
Si Si4 0.519997 0.799091 0.879203
Si Si5 0.586353 0.412839 0.903343
Si Si6 0.882416 0.683337 0.460162
O O1 0.314098 0.630513 0.329153
O O2 0.385409 0.838044 0.625336
O O3 0.380450 0.977894 0.422941
O O4 0.235269 0.580196 0.992029
O O5 0.561277 0.206822 0.582332
O O6 0.669301 0.399264 0.919352
O O7 0.773865 0.308370 0.882751
O O8 0.669992 0.641974 0.648079
O O9 0.619283 0.072218 0.478554
O O10 0.833192 0.183874 0.781871
O O11 0.540562 0.605124 0.857220
O O12 0.487877 0.270643 0.706848
#
# Coordination Sequence:
#
# PCOD9137908 Si02
#       6
#     4   4   4   4   4   4
#     4  11  21  44  73  97 143 188 223 300 350 402
#     4  10  24  46  72 107 136 194 237 273 379 409
#     4  10  22  45  70 103 142 181 236 294 343 423
#     4  11  23  48  69 106 149 180 240 302 340 430
#     4  11  23  46  72 103 148 181 236 300 339 426
#     4  11  23  47  72 104 146 178 242 297 343 430
#
# _framework density 25.041412000000001
#
# number of rings (size 3 to 8) (size 9 to 14) (size 15 to 20)
#    0.000    1.333    5.000    2.000    0.000    1.333 
#   18.000    0.000    0.000    0.000    0.000    0.000 
#    0.000    0.000    0.000    0.000    0.000    0.000 
#
# Total GULP energy -67031.193606 kJ/mol
# GULP energy per Si atom -5585.932801 kJ/mol
# Density = 2.498442 g / cm^3
# Si number density = 25.041412 Si / 1000 Ang^3
#
#
#
# Elastic Constant Matrix: (Units=GPa)
#
#
# Indices 1 2 3 4 5 6 
#
# 1 12.5836 -1.2237 15.6831 0.0000 -0.6148 0.0000
# 2 -1.2237 127.2246 45.9551 0.0000 2.2067 0.0000
# 3 15.6831 45.9551 233.9804 0.0000 2.1685 0.0000
# 4 0.0000 0.0000 0.0000 56.4115 0.0000 2.0920
# 5 -0.6148 2.2067 2.1685 0.0000 31.3747 0.0000
# 6 0.0000 0.0000 0.0000 2.0920 0.0000 33.1135
#
#
#
# Elastic Compliance Matrix: (Units=1/GPa)
#
#
# Indices 1 2 3 4 5 6 
#
# 1 0.088026 0.003176 -0.006542 0.000000 0.001954 0.000000
# 2 0.003176 0.008582 -0.001895 0.000000 -0.000410 0.000000
# 3 -0.006542 -0.001895 0.005088 0.000000 -0.000347 0.000000
# 4 0.000000 0.000000 0.000000 0.017769 0.000000 -0.001123
# 5 0.001954 -0.000410 -0.000347 0.000000 0.031964 0.000000
# 6 0.000000 0.000000 0.000000 -0.001123 0.000000 0.030270
#
#
# Mechanical properties :
#
#
# Convention : Reuss Voigt Hill
#
# Bulk Modulus (GPa) = 10.96796 54.95751 32.96273
# Shear Modulus (GPa) = 22.46061 45.07155 33.76608
#
# Velocity S-wave (km/s) = 2.99814 4.24710 3.67605
# Velocity P-wave (km/s) = 4.04655 6.78563 5.58656
#
# Compressibility (1/GPa) = 0.09117468
#
# Stress axis : x y z
#
# Youngs Moduli (GPa) = 11.36022 116.52091 196.55290
#
# Poissons Ratio (x) = -0.37006 1.28586
# Poissons Ratio (y) = -0.03608 0.37240
# Poissons Ratio (z) = 0.07432 0.22077
#
# Static dielectric constant tensor:
#      x y z
#    x 2.046680 0.000000 0.033810 
#    y 0.000000 2.000470 0.000000 
#    z 0.033810 0.000000 2.012020 
# 
# From -- ./inp_files/21181.got.cif
#   From: 2010.05.17/outbox.cif.g08.bks.cpg/sg9_11_cif.got.tgz:21181.got - 2010.06.03 20:04:27.
