data_PCOD9137268
_publ_section_title
;
Structure prediction by ZEFSAII (Michael W. Deem and Ramdas Pophale) SiO2 
 PCOD9137268
Probable space group: C C
;
_chemical_formula_sum "Si O2"
_cell_formula_units_Z 28
_cell_length_a 23.401203
_cell_length_b 8.541287
_cell_length_c 10.010588
_cell_angle_alpha 90.000000
_cell_angle_beta 40.644623
_cell_angle_gamma 90.000000
_cell_volume 1303.304041
_symmetry_space_group_name_H-M "C C"
_symmetry_group_IT_number 9
_symmetry_cell_setting 'monoclinic'
loop_
_space_group_symop_operation_xyz
x,y,z
x,-y,1/2+z
1/2+x,1/2+y,z
1/2+x,1/2-y,1/2+z
loop_
_atom_site_type_symbol
_atom_site_label
_atom_site_fract_x
_atom_site_fract_y
_atom_site_fract_z
Si Si1 0.165480 0.668561 0.439010
Si Si2 0.412048 0.562035 0.613807
Si Si3 0.305212 0.541113 0.547410
Si Si4 0.042672 0.601675 0.272235
Si Si5 0.183970 0.802303 0.684583
Si Si6 0.591787 0.381162 0.352632
Si Si7 0.994946 0.636631 0.070623
O O1 0.236991 0.591190 0.216086
O O2 0.112103 0.525534 0.597751
O O3 0.202161 0.767649 0.496670
O O4 0.100747 0.777829 0.469281
O O5 0.385574 0.539109 0.507880
O O6 0.500046 0.470034 0.496867
O O7 0.429481 0.742529 0.617564
O O8 0.336065 0.497415 0.844016
O O9 0.258180 0.710221 0.633977
O O10 0.092130 0.758960 0.229369
O O11 0.979926 0.625004 0.255889
O O12 0.997542 0.524481 0.482669
O O13 0.166286 0.986003 0.729847
O O14 0.092276 0.714235 0.883653
#
# Coordination Sequence:
#
# PCOD9137268 Si02
#       7
#     4   4   4   4   4   4   4
#     4  11  22  42  71 100 130 187 233 278 346 427
#     4  11  27  42  70 102 144 182 225 294 362 408
#     4  12  23  47  67  99 144 187 227 286 368 413
#     4  11  20  41  71  97 131 174 242 284 337 405
#     4  10  23  40  68  99 132 181 234 280 341 426
#     4  11  25  42  73 102 137 178 246 290 338 428
#     4  10  22  40  68  99 128 185 231 278 342 423
#
# _framework density 21.483861000000001
#
# number of rings (size 3 to 8) (size 9 to 14) (size 15 to 20)
#    0.000    1.143    4.286    1.714   10.000    0.000 
#    0.000    4.286    0.000    0.000    0.000    0.000 
#    0.000    0.000    0.000    0.000    0.000    0.000 
#
# Total GULP energy -78236.353100 kJ/mol
# GULP energy per Si atom -5588.310936 kJ/mol
# Density = 2.143496 g / cm^3
# Si number density = 21.483861 Si / 1000 Ang^3
#
#
#
# Elastic Constant Matrix: (Units=GPa)
#
#
# Indices 1 2 3 4 5 6 
#
# 1 71.4212 16.2881 9.9827 0.0000 12.3308 0.0000
# 2 16.2881 112.1012 25.3844 0.0000 1.3815 0.0000
# 3 9.9827 25.3844 33.3239 0.0000 11.6486 0.0000
# 4 0.0000 0.0000 0.0000 20.8803 0.0000 2.8805
# 5 12.3308 1.3815 11.6486 0.0000 32.0664 0.0000
# 6 0.0000 0.0000 0.0000 2.8805 0.0000 46.4953
#
#
#
# Elastic Compliance Matrix: (Units=1/GPa)
#
#
# Indices 1 2 3 4 5 6 
#
# 1 0.015554 -0.001894 -0.001323 0.000000 -0.005419 0.000000
# 2 -0.001894 0.011249 -0.009263 0.000000 0.003608 0.000000
# 3 -0.001323 -0.009263 0.042546 0.000000 -0.014548 0.000000
# 4 0.000000 0.000000 0.000000 0.048305 0.000000 -0.002993
# 5 -0.005419 0.003608 -0.014548 0.000000 0.038398 0.000000
# 6 0.000000 0.000000 0.000000 -0.002993 0.000000 0.021693
#
#
# Mechanical properties :
#
#
# Convention : Reuss Voigt Hill
#
# Bulk Modulus (GPa) = 22.52747 35.57296 29.05021
# Shear Modulus (GPa) = 22.98859 30.90114 26.94486
#
# Velocity S-wave (km/s) = 3.27470 3.79666 3.54530
# Velocity P-wave (km/s) = 4.98063 5.98444 5.50546
#
# Compressibility (1/GPa) = 0.04439025
#
# Stress axis : x y z
#
# Youngs Moduli (GPa) = 64.29317 88.89950 23.50408
#
# Poissons Ratio (x) = 0.16834 0.03109
# Poissons Ratio (y) = 0.12175 0.21771
# Poissons Ratio (z) = 0.08504 0.82345
#
# Static dielectric constant tensor:
#      x y z
#    x 1.784010 0.000000 0.007410 
#    y 0.000000 1.786270 0.000000 
#    z 0.007410 0.000000 1.781250 
# 
# From -- ./inp_files/10373.got.cif
#   From: 2010.05.17/outbox.cif.g08.bks.cpg/sg9_6_cif.got.tgz:10373.got - 2010.06.03 20:04:27.
