data_PCOD9137213
_publ_section_title
;
Structure prediction by ZEFSAII (Michael W. Deem and Ramdas Pophale) SiO2 
 PCOD9137213
Probable space group: C C
;
_chemical_formula_sum "Si O2"
_cell_formula_units_Z 28
_cell_length_a 13.465346
_cell_length_b 4.933021
_cell_length_c 18.430716
_cell_angle_alpha 90.000000
_cell_angle_beta 64.562772
_cell_angle_gamma 90.000000
_cell_volume 1105.573357
_symmetry_space_group_name_H-M "C C"
_symmetry_group_IT_number 9
_symmetry_cell_setting 'monoclinic'
loop_
_space_group_symop_operation_xyz
x,y,z
x,-y,1/2+z
1/2+x,1/2+y,z
1/2+x,1/2-y,1/2+z
loop_
_atom_site_type_symbol
_atom_site_label
_atom_site_fract_x
_atom_site_fract_y
_atom_site_fract_z
Si Si1 0.279770 0.188109 0.865700
Si Si2 0.813663 0.142253 0.018209
Si Si3 0.958399 0.452976 0.413734
Si Si4 0.654526 0.189412 0.938129
Si Si5 0.962985 0.361756 0.715639
Si Si6 0.319636 0.853911 0.624548
Si Si7 0.576886 0.681558 0.240970
O O1 0.175594 0.995221 0.907395
O O2 0.507209 0.590219 0.742453
O O3 0.364798 0.032437 0.786926
O O4 0.345638 0.188955 0.921546
O O5 0.821064 0.378979 0.075728
O O6 0.818288 0.884162 0.066954
O O7 0.916900 0.236028 0.933870
O O8 0.704439 0.162025 0.002948
O O9 0.029853 0.388387 0.462058
O O10 0.038669 0.344307 0.324848
O O11 0.733825 0.985926 0.866611
O O12 0.915474 0.301044 0.652065
O O13 0.057061 0.590846 0.685397
O O14 0.204945 0.876908 0.704229
#
# Coordination Sequence:
#
# PCOD9137213 Si02
#       7
#     4   4   4   4   4   4   4
#     4  10  22  40  65 102 132 165 228 286 336 408
#     4  11  26  45  68 102 142 184 235 281 344 424
#     4  10  24  44  70  98 134 179 227 286 346 404
#     4  11  23  41  66  95 135 179 221 279 344 403
#     4  11  24  43  70 102 138 178 227 289 347 405
#     4  12  26  47  69  99 144 186 228 289 348 411
#     4  11  25  44  72 104 133 179 240 284 345 423
#
# _framework density 25.326225999999998
#
# number of rings (size 3 to 8) (size 9 to 14) (size 15 to 20)
#    0.000    1.143    0.000    6.000    0.000   14.857 
#    0.000    2.857    0.000    0.000    0.000    0.000 
#    0.000    0.000    0.000    0.000    0.000    0.000 
#
# Total GULP energy -78238.734915 kJ/mol
# GULP energy per Si atom -5588.481065 kJ/mol
# Density = 2.526858 g / cm^3
# Si number density = 25.326226 Si / 1000 Ang^3
#
#
#
# Elastic Constant Matrix: (Units=GPa)
#
#
# Indices 1 2 3 4 5 6 
#
# 1 163.3231 14.4686 31.8672 0.0002 15.4301 0.0005
# 2 14.4686 112.3730 44.9237 0.0015 1.8722 0.0021
# 3 31.8672 44.9237 79.6566 0.0001 13.9327 0.0003
# 4 0.0002 0.0015 0.0001 26.5407 0.0000 -4.0672
# 5 15.4301 1.8722 13.9327 0.0000 37.2457 0.0000
# 6 0.0005 0.0021 0.0003 -4.0672 0.0000 27.7877
#
#
#
# Elastic Compliance Matrix: (Units=1/GPa)
#
#
# Indices 1 2 3 4 5 6 
#
# 1 0.006768 0.000142 -0.002457 0.000000 -0.001892 0.000000
# 2 0.000142 0.011630 -0.006958 -0.000001 0.001959 -0.000001
# 3 -0.002457 -0.006958 0.018428 0.000000 -0.005526 0.000000
# 4 0.000000 -0.000001 0.000000 0.038542 0.000000 0.005641
# 5 -0.001892 0.001959 -0.005526 0.000000 0.029601 0.000000
# 6 0.000000 -0.000001 0.000000 0.005641 0.000000 0.036813
#
#
# Mechanical properties :
#
#
# Convention : Reuss Voigt Hill
#
# Bulk Modulus (GPa) = 54.70633 59.76353 57.23493
# Shear Modulus (GPa) = 30.04415 35.92104 32.98260
#
# Velocity S-wave (km/s) = 3.44799 3.77016 3.61267
# Velocity P-wave (km/s) = 6.12365 6.52694 6.32850
#
# Compressibility (1/GPa) = 0.01827942
#
# Stress axis : x y z
#
# Youngs Moduli (GPa) = 147.74547 85.98622 54.26614
#
# Poissons Ratio (x) = -0.01224 0.13334
# Poissons Ratio (y) = -0.02103 0.37761
# Poissons Ratio (z) = 0.36302 0.59833
#
# Static dielectric constant tensor:
#      x y z
#    x 1.996740 0.000000 -0.009050 
#    y 0.000000 2.019400 0.000000 
#    z -0.009050 0.000000 2.132560 
# 
# From -- ./inp_files/33462.got.cif
#   From: 2010.05.17/outbox.cif.g08.bks.cpg/sg9_17_cif.got.tgz:33462.got - 2010.06.03 20:04:27.
