data_PCOD9137050
_publ_section_title
;
Structure prediction by ZEFSAII (Michael W. Deem and Ramdas Pophale) SiO2 
 PCOD9137050
Probable space group: C C
;
_chemical_formula_sum "Si O2"
_cell_formula_units_Z 32
_cell_length_a 28.727008
_cell_length_b 7.417138
_cell_length_c 12.102160
_cell_angle_alpha 90.000000
_cell_angle_beta 148.728851
_cell_angle_gamma 90.000000
_cell_volume 1338.539813
_symmetry_space_group_name_H-M "C C"
_symmetry_group_IT_number 9
_symmetry_cell_setting 'monoclinic'
loop_
_space_group_symop_operation_xyz
x,y,z
x,-y,1/2+z
1/2+x,1/2+y,z
1/2+x,1/2-y,1/2+z
loop_
_atom_site_type_symbol
_atom_site_label
_atom_site_fract_x
_atom_site_fract_y
_atom_site_fract_z
Si Si1 0.548230 0.231463 0.011320
Si Si2 0.065115 0.839427 0.490106
Si Si3 0.900268 0.612130 0.559439
Si Si4 0.431335 0.693908 0.893485
Si Si5 0.311275 0.738071 0.311393
Si Si6 0.761646 0.350225 0.965336
Si Si7 0.491963 0.363303 0.115167
Si Si8 0.248421 0.715839 0.415844
O O1 0.553347 0.441101 0.979369
O O2 0.491464 0.230635 0.010111
O O3 0.647818 0.170241 0.247330
O O4 0.497337 0.126066 0.812585
O O5 0.163493 0.791036 0.728685
O O6 0.986630 0.738787 0.399006
O O7 0.056062 0.804954 0.341647
O O8 0.905827 0.691699 0.447835
O O9 0.859867 0.416708 0.455617
O O10 0.833754 0.701094 0.516464
O O11 0.336233 0.625349 0.648942
O O12 0.507987 0.556984 0.094803
O O13 0.393984 0.603300 0.467225
O O14 0.247314 0.684889 0.281304
O O15 0.276022 0.778029 0.118047
O O16 0.761824 0.570139 0.968809
#
# Coordination Sequence:
#
# PCOD9137050 Si02
#       8
#     4   4   4   4   4   4   4   4
#     4  10  22  38  62  90 120 157 204 248 297 350
#     4  10  22  38  63  92 117 159 205 246 295 355
#     4  11  22  38  63  88 121 155 200 247 299 350
#     4  11  22  38  63  88 121 155 200 247 299 350
#     4  11  22  40  62  86 126 157 197 248 301 356
#     4  10  22  38  63  92 117 159 205 246 295 355
#     4  11  22  40  62  86 126 157 197 248 301 356
#     4  10  22  38  62  90 120 157 204 248 297 350
#
# _framework density 23.906649000000002
#
# number of rings (size 3 to 8) (size 9 to 14) (size 15 to 20)
#    0.000    1.500    5.000    0.000    3.500    3.000 
#    0.000    2.500    0.000    0.000    0.000    0.000 
#    0.000    0.000    0.000    0.000    0.000    0.000 
#
# Total GULP energy -89318.644764 kJ/mol
# GULP energy per Si atom -5582.415298 kJ/mol
# Density = 2.385224 g / cm^3
# Si number density = 23.906649 Si / 1000 Ang^3
#
#
#
# Elastic Constant Matrix: (Units=GPa)
#
#
# Indices 1 2 3 4 5 6 
#
# 1 101.5673 11.3767 49.3383 0.0000 -17.4427 0.0000
# 2 11.3767 34.5478 2.5948 0.0000 -9.7483 0.0000
# 3 49.3383 2.5948 153.8430 0.0000 -17.0832 0.0000
# 4 0.0000 0.0000 0.0000 19.5368 0.0000 -3.2274
# 5 -17.4427 -9.7483 -17.0832 0.0000 47.8154 0.0000
# 6 0.0000 0.0000 0.0000 -3.2274 0.0000 24.8013
#
#
#
# Elastic Compliance Matrix: (Units=1/GPa)
#
#
# Indices 1 2 3 4 5 6 
#
# 1 0.012404 -0.003078 -0.003638 0.000000 0.002598 0.000000
# 2 -0.003078 0.031481 0.001087 0.000000 0.005684 0.000000
# 3 -0.003638 0.001087 0.007837 0.000000 0.001695 0.000000
# 4 0.000000 0.000000 0.000000 0.052310 0.000000 0.006807
# 5 0.002598 0.005684 0.001695 0.000000 0.023626 0.000000
# 6 0.000000 0.000000 0.000000 0.006807 0.000000 0.041206
#
#
# Mechanical properties :
#
#
# Convention : Reuss Voigt Hill
#
# Bulk Modulus (GPa) = 24.71314 46.28642 35.49978
# Shear Modulus (GPa) = 25.82537 33.54060 29.68299
#
# Velocity S-wave (km/s) = 3.29029 3.74970 3.52749
# Velocity P-wave (km/s) = 4.97941 6.17660 5.61003
#
# Compressibility (1/GPa) = 0.04046430
#
# Stress axis : x y z
#
# Youngs Moduli (GPa) = 80.62179 31.76501 127.60739
#
# Poissons Ratio (x) = 0.09778 0.46418
# Poissons Ratio (y) = 0.24818 -0.13876
# Poissons Ratio (z) = 0.29327 -0.03454
#
# Static dielectric constant tensor:
#      x y z
#    x 1.967890 0.000000 0.000830 
#    y 0.000000 2.023490 0.000000 
#    z 0.000830 0.000000 1.867100 
# 
# From -- ./inp_files/16178.got.cif
#   From: 2010.05.17/outbox.cif.g08.bks.cpg/sg9_9_cif.got.tgz:16178.got - 2010.06.03 20:04:27.
