data_PCOD9137961
_publ_section_title
;
Structure prediction by ZEFSAII (Michael W. Deem and Ramdas Pophale) SiO2 
 PCOD9137961
Probable space group: C C
;
_chemical_formula_sum "Si O2"
_cell_formula_units_Z 32
_cell_length_a 8.178282
_cell_length_b 11.150019
_cell_length_c 18.681463
_cell_angle_alpha 90.000000
_cell_angle_beta 50.372953
_cell_angle_gamma 90.000000
_cell_volume 1312.076018
_symmetry_space_group_name_H-M "C C"
_symmetry_group_IT_number 9
_symmetry_cell_setting 'monoclinic'
loop_
_space_group_symop_operation_xyz
x,y,z
x,-y,1/2+z
1/2+x,1/2+y,z
1/2+x,1/2-y,1/2+z
loop_
_atom_site_type_symbol
_atom_site_label
_atom_site_fract_x
_atom_site_fract_y
_atom_site_fract_z
Si Si1 0.869060 0.965467 0.633300
Si Si2 0.056773 0.661419 0.711101
Si Si3 0.268477 0.694146 0.959644
Si Si4 0.134717 0.172685 0.632210
Si Si5 0.407903 0.569711 0.389877
Si Si6 0.694793 0.176945 0.314100
Si Si7 0.582358 0.759212 0.056417
Si Si8 0.224520 0.748749 0.816161
O O1 0.739752 0.888113 0.727317
O O2 0.009102 0.871205 0.549416
O O3 0.682455 0.044031 0.650392
O O4 0.035682 0.054118 0.624810
O O5 0.128224 0.685020 0.772494
O O6 0.808902 0.692379 0.782460
O O7 0.125875 0.753534 0.629005
O O8 0.356624 0.559462 0.934984
O O9 0.455183 0.795223 0.903126
O O10 0.155995 0.705110 0.913657
O O11 0.138251 0.730917 0.066095
O O12 0.369976 0.162286 0.599165
O O13 0.971091 0.217295 0.738088
O O14 0.317918 0.589550 0.335163
O O15 0.650591 0.613601 0.328377
O O16 0.274934 0.673939 0.466791
#
# Coordination Sequence:
#
# PCOD9137961 Si02
#       8
#     4   4   4   4   4   4   4   4
#     4  10  23  45  70  97 142 177 236 291 348 415
#     4   9  21  41  70  97 135 180 230 281 351 409
#     4  12  26  46  72 105 143 183 241 287 353 420
#     4  11  25  48  70 106 140 185 236 293 353 414
#     4  11  25  45  68 103 145 180 233 291 349 420
#     4  10  22  46  66 103 137 186 232 289 352 413
#     4  11  24  43  70 103 137 185 232 285 355 414
#     4  10  24  46  70 102 137 188 234 281 355 411
#
# _framework density 24.388831
#
# number of rings (size 3 to 8) (size 9 to 14) (size 15 to 20)
#    0.000    1.500    1.250    3.000    5.250    3.000 
#   18.000    0.000    0.000    0.000    0.000    0.000 
#    0.000    0.000    0.000    0.000    0.000    0.000 
#
# Total GULP energy -89307.864990 kJ/mol
# GULP energy per Si atom -5581.741562 kJ/mol
# Density = 2.433332 g / cm^3
# Si number density = 24.388831 Si / 1000 Ang^3
#
#
#
# Elastic Constant Matrix: (Units=GPa)
#
#
# Indices 1 2 3 4 5 6 
#
# 1 72.3165 11.2604 3.1754 0.0000 -1.2663 0.0000
# 2 11.2604 115.2372 -0.1330 -0.0001 -9.8504 0.0000
# 3 3.1754 -0.1330 46.2925 -0.0002 11.2541 0.0001
# 4 0.0000 -0.0001 -0.0002 40.5203 0.0001 -7.5968
# 5 -1.2663 -9.8504 11.2541 0.0001 43.6496 0.0000
# 6 0.0000 0.0000 0.0001 -7.5968 0.0000 37.6559
#
#
#
# Elastic Compliance Matrix: (Units=1/GPa)
#
#
# Indices 1 2 3 4 5 6 
#
# 1 0.014091 -0.001346 -0.001063 0.000000 0.000379 0.000000
# 2 -0.001346 0.008987 -0.000390 0.000000 0.002090 0.000000
# 3 -0.001063 -0.000390 0.023154 0.000000 -0.006089 0.000000
# 4 0.000000 0.000000 0.000000 0.025649 0.000000 0.005175
# 5 0.000379 0.002090 -0.006089 0.000000 0.024962 0.000000
# 6 0.000000 0.000000 0.000000 0.005175 0.000000 0.027600
#
#
# Mechanical properties :
#
#
# Convention : Reuss Voigt Hill
#
# Bulk Modulus (GPa) = 24.60890 29.16131 26.88510
# Shear Modulus (GPa) = 34.82256 39.00139 36.91197
#
# Velocity S-wave (km/s) = 3.78273 4.00328 3.89457
# Velocity P-wave (km/s) = 5.40286 5.77504 5.59205
#
# Compressibility (1/GPa) = 0.04063571
#
# Stress axis : x y z
#
# Youngs Moduli (GPa) = 70.96754 111.26655 43.18959
#
# Poissons Ratio (x) = 0.14973 0.04589
# Poissons Ratio (y) = 0.09550 0.01684
# Poissons Ratio (z) = 0.07541 0.04338
#
# Static dielectric constant tensor:
#      x y z
#    x 2.009190 0.000000 0.002910 
#    y 0.000000 1.952640 0.000000 
#    z 0.002910 0.000000 1.971710 
# 
# From -- ./inp_files/32632.got.cif
#   From: 2010.05.17/outbox.cif.g08.bks.cpg/sg9_17_cif.got.tgz:32632.got - 2010.06.03 20:04:27.
