data_PCOD9137543
_publ_section_title
;
Structure prediction by ZEFSAII (Michael W. Deem and Ramdas Pophale) SiO2 
 PCOD9137543
Probable space group: C C
;
_chemical_formula_sum "Si O2"
_cell_formula_units_Z 32
_cell_length_a 26.742221
_cell_length_b 6.755053
_cell_length_c 8.948284
_cell_angle_alpha 90.000000
_cell_angle_beta 115.398643
_cell_angle_gamma 90.000000
_cell_volume 1460.225256
_symmetry_space_group_name_H-M "C C"
_symmetry_group_IT_number 9
_symmetry_cell_setting 'monoclinic'
loop_
_space_group_symop_operation_xyz
x,y,z
x,-y,1/2+z
1/2+x,1/2+y,z
1/2+x,1/2-y,1/2+z
loop_
_atom_site_type_symbol
_atom_site_label
_atom_site_fract_x
_atom_site_fract_y
_atom_site_fract_z
Si Si1 0.908120 0.842627 0.929670
Si Si2 0.331968 0.475045 0.077192
Si Si3 0.575063 0.117164 0.541366
Si Si4 0.463067 0.975101 0.306820
Si Si5 0.167187 0.708955 0.193234
Si Si6 0.254946 0.365826 0.242560
Si Si7 0.468154 0.733311 0.033286
Si Si8 0.162306 0.094860 0.009973
O O1 0.944946 0.663475 0.920380
O O2 0.874477 0.918672 0.742330
O O3 0.862444 0.827905 0.000894
O O4 0.950379 0.012005 0.035311
O O5 0.287912 0.374717 0.129771
O O6 0.299349 0.633739 0.932479
O O7 0.533880 0.228789 0.603693
O O8 0.608606 0.283672 0.495925
O O9 0.529163 0.002459 0.384546
O O10 0.617648 0.950698 0.651988
O O11 0.444342 0.867621 0.134925
O O12 0.444683 0.189748 0.343096
O O13 0.219517 0.568277 0.222065
O O14 0.172038 0.839012 0.350818
O O15 0.157388 0.863708 0.044924
O O16 0.212465 0.186036 0.173066
#
# Coordination Sequence:
#
# PCOD9137543 Si02
#       8
#     4   4   4   4   4   4   4   4
#     4  11  22  41  68  96 128 169 220 261 320 380
#     4  10  22  42  70  92 126 172 208 274 324 378
#     4   9  24  41  66  92 138 171 210 261 324 370
#     4  10  23  41  63  92 131 175 211 265 310 379
#     4  11  24  42  68 100 126 170 215 266 322 404
#     4  10  22  46  68  90 132 164 212 268 334 374
#     4  10  23  41  63  92 131 175 211 265 310 379
#     4  11  24  42  68 100 126 170 215 266 322 404
#
# _framework density 21.914425000000001
#
# number of rings (size 3 to 8) (size 9 to 14) (size 15 to 20)
#    0.750    1.000    2.500    0.750    5.250    2.000 
#    0.000    7.500    0.000    0.000    0.000    0.000 
#    0.000    0.000    0.000    0.000    0.000    0.000 
#
# Total GULP energy -89197.335903 kJ/mol
# GULP energy per Si atom -5574.833494 kJ/mol
# Density = 2.186455 g / cm^3
# Si number density = 21.914425 Si / 1000 Ang^3
#
#
#
# Elastic Constant Matrix: (Units=GPa)
#
#
# Indices 1 2 3 4 5 6 
#
# 1 105.6648 44.6612 29.0248 0.0000 -21.4930 0.0000
# 2 44.6612 77.9253 15.7178 0.0000 -4.5217 0.0000
# 3 29.0248 15.7178 70.6107 0.0000 -9.6904 0.0000
# 4 0.0000 0.0000 0.0000 26.5421 0.0000 -4.8365
# 5 -21.4930 -4.5217 -9.6904 0.0000 33.9665 0.0000
# 6 0.0000 0.0000 0.0000 -4.8365 0.0000 12.7345
#
#
#
# Elastic Compliance Matrix: (Units=1/GPa)
#
#
# Indices 1 2 3 4 5 6 
#
# 1 0.015158 -0.007539 -0.003512 0.000000 0.007586 0.000000
# 2 -0.007539 0.017217 -0.001117 0.000000 -0.002797 0.000000
# 3 -0.003512 -0.001117 0.016162 0.000000 0.002240 0.000000
# 4 0.000000 0.000000 0.000000 0.040477 0.000000 0.015373
# 5 0.007586 -0.002797 0.002240 0.000000 0.034508 0.000000
# 6 0.000000 0.000000 0.000000 0.015373 0.000000 0.084365
#
#
# Mechanical properties :
#
#
# Convention : Reuss Voigt Hill
#
# Bulk Modulus (GPa) = 41.32109 48.11204 44.71656
# Shear Modulus (GPa) = 20.80823 25.63508 23.22166
#
# Velocity S-wave (km/s) = 3.08477 3.42392 3.25876
# Velocity P-wave (km/s) = 5.62000 6.13458 5.88292
#
# Compressibility (1/GPa) = 0.02420072
#
# Stress axis : x y z
#
# Youngs Moduli (GPa) = 65.97149 58.08316 61.87457
#
# Poissons Ratio (x) = 0.43789 0.21727
# Poissons Ratio (y) = 0.49736 0.06913
# Poissons Ratio (z) = 0.23166 0.06490
#
# Static dielectric constant tensor:
#      x y z
#    x 1.802320 0.000000 0.013470 
#    y 0.000000 1.772390 0.000000 
#    z 0.013470 0.000000 1.857190 
# 
# From -- ./inp_files/12597.got.cif
#   From: 2010.05.17/outbox.cif.g08.bks.cpg/sg9_7_cif.got.tgz:12597.got - 2010.06.03 20:04:27.
