data_PCOD9137248
_publ_section_title
;
Structure prediction by ZEFSAII (Michael W. Deem and Ramdas Pophale) SiO2 
 PCOD9137248
Probable space group: C C
;
_chemical_formula_sum "Si O2"
_cell_formula_units_Z 28
_cell_length_a 8.346561
_cell_length_b 12.173365
_cell_length_c 13.818480
_cell_angle_alpha 90.000000
_cell_angle_beta 57.065217
_cell_angle_gamma 90.000000
_cell_volume 1178.393988
_symmetry_space_group_name_H-M "C C"
_symmetry_group_IT_number 9
_symmetry_cell_setting 'monoclinic'
loop_
_space_group_symop_operation_xyz
x,y,z
x,-y,1/2+z
1/2+x,1/2+y,z
1/2+x,1/2-y,1/2+z
loop_
_atom_site_type_symbol
_atom_site_label
_atom_site_fract_x
_atom_site_fract_y
_atom_site_fract_z
Si Si1 0.919190 0.823133 0.207410
Si Si2 0.839634 0.974547 0.396636
Si Si3 0.126345 0.840693 0.830550
Si Si4 0.998122 0.390656 0.074695
Si Si5 0.275861 0.204166 0.972683
Si Si6 0.662056 0.671345 0.804223
Si Si7 0.740210 0.556829 0.487230
O O1 0.778436 0.728318 0.218898
O O2 0.069433 0.774773 0.238565
O O3 0.797323 0.909833 0.312020
O O4 0.042079 0.894457 0.093868
O O5 0.661464 0.017709 0.514251
O O6 0.985812 0.073552 0.325699
O O7 0.977678 0.891310 0.408633
O O8 0.240905 0.904127 0.876880
O O9 0.980472 0.755400 0.930821
O O10 0.823035 0.407616 0.204644
O O11 0.905155 0.388643 0.998340
O O12 0.103223 0.278003 0.069214
O O13 0.258797 0.227880 0.862231
O O14 0.258370 0.074313 0.993522
#
# Coordination Sequence:
#
# PCOD9137248 Si02
#       7
#     4   4   4   4   4   4   4
#     4   9  21  39  61  89 125 160 208 260 312 368
#     4   9  20  41  61  89 129 159 212 263 301 377
#     4  11  22  38  64  92 123 167 206 260 314 379
#     4  10  22  40  67  91 127 173 206 264 324 364
#     4  11  23  40  64  90 128 167 212 259 311 381
#     4   9  20  43  59  91 131 160 213 260 311 375
#     4  11  22  41  62  94 125 162 215 258 315 382
#
# _framework density 23.761153
#
# number of rings (size 3 to 8) (size 9 to 14) (size 15 to 20)
#    0.857    1.143    1.429    1.714    0.000    5.714 
#    2.571    2.857    0.000    0.000    0.000    0.000 
#    0.000    0.000    0.000    0.000    0.000    0.000 
#
# Total GULP energy -78061.392832 kJ/mol
# GULP energy per Si atom -5575.813774 kJ/mol
# Density = 2.370707 g / cm^3
# Si number density = 23.761153 Si / 1000 Ang^3
#
#
#
# Elastic Constant Matrix: (Units=GPa)
#
#
# Indices 1 2 3 4 5 6 
#
# 1 85.9110 35.0334 20.1138 0.0000 -10.8839 0.0000
# 2 35.0334 78.5532 -0.4177 0.0000 0.7329 0.0000
# 3 20.1138 -0.4177 46.1696 0.0000 -7.5493 0.0000
# 4 0.0000 0.0000 0.0000 28.1132 0.0000 -14.1463
# 5 -10.8839 0.7329 -7.5493 0.0000 33.1607 0.0000
# 6 0.0000 0.0000 0.0000 -14.1463 0.0000 46.3517
#
#
#
# Elastic Compliance Matrix: (Units=1/GPa)
#
#
# Indices 1 2 3 4 5 6 
#
# 1 0.016832 -0.007582 -0.006721 0.000000 0.004162 0.000000
# 2 -0.007582 0.016148 0.003099 0.000000 -0.002140 0.000000
# 3 -0.006721 0.003099 0.025181 0.000000 0.003458 0.000000
# 4 0.000000 0.000000 0.000000 0.042024 0.000000 0.012826
# 5 0.004162 -0.002140 0.003458 0.000000 0.032357 0.000000
# 6 0.000000 0.000000 0.000000 0.012826 0.000000 0.025488
#
#
# Mechanical properties :
#
#
# Convention : Reuss Voigt Hill
#
# Bulk Modulus (GPa) = 27.96882 35.56585 31.76734
# Shear Modulus (GPa) = 25.99350 31.91876 28.95613
#
# Velocity S-wave (km/s) = 3.31108 3.66910 3.49468
# Velocity P-wave (km/s) = 5.13946 5.74024 5.44814
#
# Compressibility (1/GPa) = 0.03575410
#
# Stress axis : x y z
#
# Youngs Moduli (GPa) = 59.40892 61.92742 39.71285
#
# Poissons Ratio (x) = 0.46951 0.26691
# Poissons Ratio (y) = 0.45041 -0.12307
# Poissons Ratio (z) = 0.39929 -0.19192
#
# Static dielectric constant tensor:
#      x y z
#    x 1.910870 0.000000 0.020400 
#    y 0.000000 1.965070 0.000000 
#    z 0.020400 0.000000 1.912760 
# 
# From -- ./inp_files/22839.got.cif
#   From: 2010.05.17/outbox.cif.g08.bks.cpg/sg9_12_cif.got.tgz:22839.got - 2010.06.03 20:04:27.
