data_PCOD9137171
_publ_section_title
;
Structure prediction by ZEFSAII (Michael W. Deem and Ramdas Pophale) SiO2 
 PCOD9137171
Probable space group: C C
;
_chemical_formula_sum "Si O2"
_cell_formula_units_Z 32
_cell_length_a 12.533049
_cell_length_b 21.758668
_cell_length_c 9.452271
_cell_angle_alpha 90.000000
_cell_angle_beta 144.079603
_cell_angle_gamma 90.000000
_cell_volume 1512.210317
_symmetry_space_group_name_H-M "C C"
_symmetry_group_IT_number 9
_symmetry_cell_setting 'monoclinic'
loop_
_space_group_symop_operation_xyz
x,y,z
x,-y,1/2+z
1/2+x,1/2+y,z
1/2+x,1/2-y,1/2+z
loop_
_atom_site_type_symbol
_atom_site_label
_atom_site_fract_x
_atom_site_fract_y
_atom_site_fract_z
Si Si1 0.670860 0.967158 0.565590
Si Si2 0.106648 0.571459 0.300886
Si Si3 0.990855 0.867241 0.580163
Si Si4 0.642920 0.842340 0.365737
Si Si5 0.018303 0.107712 0.788703
Si Si6 0.582643 0.470012 0.902002
Si Si7 0.761975 0.626785 0.800248
Si Si8 0.273488 0.788332 0.045290
O O1 0.638248 0.969065 0.695259
O O2 0.623195 0.901020 0.447110
O O3 0.884882 0.973239 0.763873
O O4 0.567728 0.023198 0.382171
O O5 0.301334 0.602178 0.536692
O O6 0.943578 0.615862 0.085325
O O7 0.059081 0.928477 0.735967
O O8 0.773191 0.862615 0.375670
O O9 0.041895 0.866256 0.471223
O O10 0.096714 0.813201 0.773998
O O11 0.442140 0.814483 0.134288
O O12 0.754194 0.784312 0.547305
O O13 0.103656 0.139737 0.743499
O O14 0.114382 0.040258 0.894397
O O15 0.711416 0.433682 0.150183
O O16 0.784032 0.679789 0.708972
#
# Coordination Sequence:
#
# PCOD9137171 Si02
#       8
#     4   4   4   4   4   4   4   4
#     4  10  22  40  61  93 130 163 211 259 324 382
#     4  11  24  38  61  97 130 171 203 260 327 386
#     4  10  23  39  65  93 122 168 207 266 311 372
#     4  11  22  41  70  91 121 165 222 267 307 380
#     4  11  23  39  61  92 139 162 202 258 325 385
#     4   9  20  38  61  91 126 168 206 247 312 387
#     4  11  23  39  63  97 128 167 212 260 319 381
#     4  11  23  42  70  92 118 166 227 265 309 373
#
# _framework density 21.161076999999999
#
# number of rings (size 3 to 8) (size 9 to 14) (size 15 to 20)
#    0.000    1.500    3.750    0.750   10.500    2.000 
#    0.000    0.000    5.500    0.000    0.000    0.000 
#    0.000    0.000    0.000    0.000    0.000    0.000 
#
# Total GULP energy -89339.793504 kJ/mol
# GULP energy per Si atom -5583.737094 kJ/mol
# Density = 2.111291 g / cm^3
# Si number density = 21.161077 Si / 1000 Ang^3
#
#
#
# Elastic Constant Matrix: (Units=GPa)
#
#
# Indices 1 2 3 4 5 6 
#
# 1 69.5238 9.8487 22.8383 0.0000 -4.3798 0.0000
# 2 9.8487 40.8910 14.3756 0.0000 1.9701 0.0000
# 3 22.8383 14.3756 92.4377 0.0000 7.0141 0.0000
# 4 0.0000 0.0000 0.0000 9.6792 0.0000 5.3685
# 5 -4.3798 1.9701 7.0141 0.0000 34.8431 0.0000
# 6 0.0000 0.0000 0.0000 5.3685 0.0000 12.2332
#
#
#
# Elastic Compliance Matrix: (Units=1/GPa)
#
#
# Indices 1 2 3 4 5 6 
#
# 1 0.016204 -0.002707 -0.003807 0.000000 0.002956 0.000000
# 2 -0.002707 0.026337 -0.003339 0.000000 -0.001157 0.000000
# 3 -0.003807 -0.003339 0.012491 0.000000 -0.002804 0.000000
# 4 0.000000 0.000000 0.000000 0.136552 0.000000 -0.059925
# 5 0.002956 -0.001157 -0.002804 0.000000 0.029702 0.000000
# 6 0.000000 0.000000 0.000000 -0.059925 0.000000 0.108043
#
#
# Mechanical properties :
#
#
# Convention : Reuss Voigt Hill
#
# Bulk Modulus (GPa) = 28.30805 32.99753 30.65279
# Shear Modulus (GPa) = 13.85777 21.73709 17.79743
#
# Velocity S-wave (km/s) = 2.56182 3.20850 2.90322
# Velocity P-wave (km/s) = 4.70712 5.41787 5.07496
#
# Compressibility (1/GPa) = 0.03532564
#
# Stress axis : x y z
#
# Youngs Moduli (GPa) = 61.71410 37.96959 80.05953
#
# Poissons Ratio (x) = 0.10278 0.30477
# Poissons Ratio (y) = 0.16705 0.26734
# Poissons Ratio (z) = 0.23493 0.12679
#
# Static dielectric constant tensor:
#      x y z
#    x 1.788760 0.000000 0.052630 
#    y 0.000000 1.780430 0.000000 
#    z 0.052630 0.000000 1.775310 
# 
# From -- ./inp_files/8481.got.cif
#   From: 2010.05.17/outbox.cif.g08.bks.cpg/sg9_5_cif.got.tgz:8481.got - 2010.06.03 20:04:27.
