data_PCOD9137775
_publ_section_title
;
Structure prediction by ZEFSAII (Michael W. Deem and Ramdas Pophale) SiO2 
 PCOD9137775
Probable space group: C C
;
_chemical_formula_sum "Si O2"
_cell_formula_units_Z 24
_cell_length_a 12.991944
_cell_length_b 6.571831
_cell_length_c 25.144014
_cell_angle_alpha 90.000000
_cell_angle_beta 156.070352
_cell_angle_gamma 90.000000
_cell_volume 870.780579
_symmetry_space_group_name_H-M "C C"
_symmetry_group_IT_number 9
_symmetry_cell_setting 'monoclinic'
loop_
_space_group_symop_operation_xyz
x,y,z
x,-y,1/2+z
1/2+x,1/2+y,z
1/2+x,1/2-y,1/2+z
loop_
_atom_site_type_symbol
_atom_site_label
_atom_site_fract_x
_atom_site_fract_y
_atom_site_fract_z
Si Si1 0.200030 0.175966 0.778690
Si Si2 0.467692 0.761432 0.063588
Si Si3 0.192908 0.545846 0.514710
Si Si4 0.717762 0.174672 0.171138
Si Si5 0.540421 0.321475 0.353592
Si Si6 0.916072 0.933311 0.957372
O O1 0.419395 0.029977 0.903735
O O2 0.306373 0.396674 0.847243
O O3 0.190253 0.187980 0.710374
O O4 0.919955 0.099872 0.662125
O O5 0.290613 0.639604 0.021930
O O6 0.435214 0.653631 0.991381
O O7 0.755529 0.729367 0.219223
O O8 0.490684 0.005493 0.067669
O O9 0.146307 0.754978 0.460805
O O10 0.976717 0.050212 0.303616
O O11 0.671144 0.311852 0.096925
O O12 0.698929 0.186323 0.387512
#
# Coordination Sequence:
#
# PCOD9137775 Si02
#       6
#     4   4   4   4   4   4
#     4  12  25  41  73 102 142 180 237 278 351 408
#     4   9  21  43  66  94 133 178 222 283 336 400
#     4  11  21  44  66 102 138 180 228 285 334 414
#     4  10  22  44  68  96 133 189 218 286 345 405
#     4   9  20  42  69  90 137 175 226 283 344 396
#     4  11  23  44  64 104 135 178 233 285 338 415
#
# _framework density 27.561478999999999
#
# number of rings (size 3 to 8) (size 9 to 14) (size 15 to 20)
#    1.000    0.667    5.000    0.000    4.667    0.000 
#   12.000    0.000    0.000    0.000    0.000    0.000 
#    0.000    0.000    0.000    0.000    0.000    0.000 
#
# Total GULP energy -67042.045677 kJ/mol
# GULP energy per Si atom -5586.837140 kJ/mol
# Density = 2.749875 g / cm^3
# Si number density = 27.561479 Si / 1000 Ang^3
#
#
#
# Elastic Constant Matrix: (Units=GPa)
#
#
# Indices 1 2 3 4 5 6 
#
# 1 29.3147 11.0428 33.9681 0.0018 4.6524 0.0002
# 2 11.0428 141.7302 29.2808 -0.0002 -2.9583 0.0006
# 3 33.9681 29.2808 150.9873 0.0098 4.9131 0.0014
# 4 0.0018 -0.0002 0.0098 36.5109 0.0030 4.2604
# 5 4.6524 -2.9583 4.9131 0.0030 55.5175 0.0000
# 6 0.0002 0.0006 0.0014 4.2604 0.0000 36.8631
#
#
#
# Elastic Compliance Matrix: (Units=1/GPa)
#
#
# Indices 1 2 3 4 5 6 
#
# 1 0.046987 -0.001629 -0.010153 0.000001 -0.003126 0.000000
# 2 -0.001629 0.007422 -0.001093 0.000000 0.000629 0.000000
# 3 -0.010153 -0.001093 0.009120 -0.000002 -0.000014 0.000000
# 4 0.000001 0.000000 -0.000002 0.027763 -0.000001 -0.003209
# 5 -0.003126 0.000629 -0.000014 -0.000001 0.018309 0.000000
# 6 0.000000 0.000000 0.000000 -0.003209 0.000000 0.027498
#
#
# Mechanical properties :
#
#
# Convention : Reuss Voigt Hill
#
# Bulk Modulus (GPa) = 26.47040 52.29064 39.38052
# Shear Modulus (GPa) = 28.49938 42.29435 35.39686
#
# Velocity S-wave (km/s) = 3.21912 3.92158 3.58758
# Velocity P-wave (km/s) = 4.84169 6.28638 5.61073
#
# Compressibility (1/GPa) = 0.03777805
#
# Stress axis : x y z
#
# Youngs Moduli (GPa) = 21.28241 134.74280 109.65159
#
# Poissons Ratio (x) = 0.21944 1.11333
# Poissons Ratio (y) = 0.03466 0.11988
# Poissons Ratio (z) = 0.21609 0.14732
#
# Static dielectric constant tensor:
#      x y z
#    x 2.267570 0.000000 0.020130 
#    y 0.000000 2.201970 0.000000 
#    z 0.020130 0.000000 2.221850 
# 
# From -- ./inp_files/26565.got.cif
#   From: 2010.05.17/outbox.cif.g08.bks.cpg/sg9_14_cif.got.tgz:26565.got - 2010.06.03 20:04:27.
