data_PCOD9137840
_publ_section_title
;
Structure prediction by ZEFSAII (Michael W. Deem and Ramdas Pophale) SiO2 
 PCOD9137840
Probable space group: C C
;
_chemical_formula_sum "Si O2"
_cell_formula_units_Z 32
_cell_length_a 13.705799
_cell_length_b 5.521405
_cell_length_c 23.774836
_cell_angle_alpha 90.000000
_cell_angle_beta 138.183336
_cell_angle_gamma 90.000000
_cell_volume 1199.593305
_symmetry_space_group_name_H-M "C C"
_symmetry_group_IT_number 9
_symmetry_cell_setting 'monoclinic'
loop_
_space_group_symop_operation_xyz
x,y,z
x,-y,1/2+z
1/2+x,1/2+y,z
1/2+x,1/2-y,1/2+z
loop_
_atom_site_type_symbol
_atom_site_label
_atom_site_fract_x
_atom_site_fract_y
_atom_site_fract_z
Si Si1 0.392490 0.263201 0.648350
Si Si2 0.630014 0.359167 0.098452
Si Si3 0.464770 0.327492 0.459076
Si Si4 0.213646 0.023497 0.298411
Si Si5 0.116688 0.238346 0.905560
Si Si6 0.597072 0.876043 0.699790
Si Si7 0.786973 0.768606 0.479454
Si Si8 0.804557 0.734168 0.230078
O O1 0.544709 0.396069 0.724886
O O2 0.322035 0.323754 0.558925
O O3 0.266300 0.311255 0.639467
O O4 0.451782 0.990590 0.662960
O O5 0.560131 0.284717 0.127930
O O6 0.722038 0.611189 0.143238
O O7 0.517389 0.399066 0.998399
O O8 0.308392 0.212497 0.373425
O O9 0.564592 0.251849 0.449174
O O10 0.442637 0.240667 0.514374
O O11 0.295492 0.018662 0.272998
O O12 0.188903 0.737393 0.291468
O O13 0.196850 0.489059 0.923604
O O14 0.973137 0.200180 0.804910
O O15 0.206978 0.989220 0.939143
O O16 0.702648 0.073783 0.717506
#
# Coordination Sequence:
#
# PCOD9137840 Si02
#       8
#     4   4   4   4   4   4   4   4
#     4  11  25  44  68 106 142 189 247 303 373 451
#     4  11  24  43  71 103 143 191 248 302 380 444
#     4  11  25  47  72 109 148 201 247 316 374 447
#     4   9  22  43  69 100 141 187 248 305 373 444
#     4  11  28  48  74 110 152 193 252 313 370 448
#     4  10  22  44  74  98 141 195 244 314 369 449
#     4  12  28  47  74 111 150 198 248 308 376 447
#     4   9  22  44  68 103 141 188 244 305 373 440
#
# _framework density 26.675706000000002
#
# number of rings (size 3 to 8) (size 9 to 14) (size 15 to 20)
#    0.000    1.500    1.250    2.250   10.500    5.000 
#    2.250    0.000    0.000    0.000    0.000    0.000 
#    0.000    0.000    0.000    0.000    0.000    0.000 
#
# Total GULP energy -89132.433456 kJ/mol
# GULP energy per Si atom -5570.777091 kJ/mol
# Density = 2.661499 g / cm^3
# Si number density = 26.675706 Si / 1000 Ang^3
#
#
#
# Elastic Constant Matrix: (Units=GPa)
#
#
# Indices 1 2 3 4 5 6 
#
# 1 151.5955 33.7369 8.5980 0.0000 10.6855 0.0005
# 2 33.7369 104.2550 18.5204 0.0000 7.7823 0.0013
# 3 8.5980 18.5204 71.8301 0.0000 15.9917 0.0001
# 4 0.0000 0.0000 0.0000 25.6032 -0.0001 -4.6405
# 5 10.6855 7.7823 15.9917 -0.0001 28.2650 -0.0001
# 6 0.0005 0.0013 0.0001 -4.6405 -0.0001 39.3779
#
#
#
# Elastic Compliance Matrix: (Units=1/GPa)
#
#
# Indices 1 2 3 4 5 6 
#
# 1 0.007235 -0.002210 0.000203 0.000000 -0.002241 0.000000
# 2 -0.002210 0.010782 -0.002335 0.000000 -0.000812 0.000000
# 3 0.000203 -0.002335 0.016445 0.000000 -0.008738 0.000000
# 4 0.000000 0.000000 0.000000 0.039910 0.000000 0.004703
# 5 -0.002241 -0.000812 -0.008738 0.000000 0.041394 0.000000
# 6 0.000000 0.000000 0.000000 0.004703 0.000000 0.025949
#
#
# Mechanical properties :
#
#
# Convention : Reuss Voigt Hill
#
# Bulk Modulus (GPa) = 38.79223 49.93235 44.36229
# Shear Modulus (GPa) = 31.44819 36.43760 33.94289
#
# Velocity S-wave (km/s) = 3.43725 3.69988 3.57098
# Velocity P-wave (km/s) = 5.50696 6.08367 5.80249
#
# Compressibility (1/GPa) = 0.02577836
#
# Stress axis : x y z
#
# Youngs Moduli (GPa) = 138.22104 92.74397 60.80961
#
# Poissons Ratio (x) = 0.20495 -0.01233
# Poissons Ratio (y) = 0.30545 0.14197
# Poissons Ratio (z) = -0.02803 0.21653
#
# Static dielectric constant tensor:
#      x y z
#    x 2.063570 0.000000 -0.038870 
#    y 0.000000 2.402530 0.000000 
#    z -0.038870 0.000000 2.290390 
# 
# From -- ./inp_files/36632.got.cif
#   From: 2010.05.17/outbox.cif.g08.bks.cpg/sg9_19_cif.got.tgz:36632.got - 2010.06.03 20:04:27.
