data_PCOD9137497
_publ_section_title
;
Structure prediction by ZEFSAII (Michael W. Deem and Ramdas Pophale) SiO2 
 PCOD9137497
Probable space group: C C
;
_chemical_formula_sum "Si O2"
_cell_formula_units_Z 28
_cell_length_a 18.812649
_cell_length_b 8.975971
_cell_length_c 12.785183
_cell_angle_alpha 90.000000
_cell_angle_beta 31.129292
_cell_angle_gamma 90.000000
_cell_volume 1116.103683
_symmetry_space_group_name_H-M "C C"
_symmetry_group_IT_number 9
_symmetry_cell_setting 'monoclinic'
loop_
_space_group_symop_operation_xyz
x,y,z
x,-y,1/2+z
1/2+x,1/2+y,z
1/2+x,1/2-y,1/2+z
loop_
_atom_site_type_symbol
_atom_site_label
_atom_site_fract_x
_atom_site_fract_y
_atom_site_fract_z
Si Si1 0.234380 0.695449 0.726560
Si Si2 0.542699 0.615949 0.883209
Si Si3 0.737718 0.131958 0.205078
Si Si4 0.917179 0.900863 0.192050
Si Si5 0.162198 0.405364 0.030296
Si Si6 0.970718 0.616525 0.199441
Si Si7 0.222772 0.096514 0.048898
O O1 0.245015 0.536808 0.653804
O O2 0.341405 0.682216 0.688029
O O3 0.264228 0.831055 0.610314
O O4 0.081653 0.682627 0.972075
O O5 0.656369 0.741494 0.749608
O O6 0.596526 0.514380 0.721874
O O7 0.389194 0.672869 0.056266
O O8 0.537683 0.502162 0.989757
O O9 0.644121 0.110373 0.427748
O O10 0.913092 0.781676 0.291091
O O11 0.811483 0.028774 0.356776
O O12 0.158874 0.241165 0.076129
O O13 0.053857 0.536716 0.187938
O O14 0.846583 0.497371 0.339011
#
# Coordination Sequence:
#
# PCOD9137497 Si02
#       7
#     4   4   4   4   4   4   4
#     4   9  22  42  68  99 138 183 235 294 362 433
#     4  10  22  44  70 102 136 189 238 296 365 434
#     4   9  22  45  68  98 141 185 231 295 366 431
#     4   9  20  45  68  95 138 182 230 296 365 428
#     4   9  24  41  65 102 132 180 236 297 352 435
#     4  10  22  42  67  97 137 178 234 287 367 417
#     4  12  24  41  70 103 134 191 236 297 363 434
#
# _framework density 25.087273
#
# number of rings (size 3 to 8) (size 9 to 14) (size 15 to 20)
#    0.000    2.857    1.429    0.000   12.000    2.286 
#    7.714    0.000    0.000    0.000    0.000    0.000 
#    0.000    0.000    0.000    0.000    0.000    0.000 
#
# Total GULP energy -77982.588713 kJ/mol
# GULP energy per Si atom -5570.184908 kJ/mol
# Density = 2.503017 g / cm^3
# Si number density = 25.087273 Si / 1000 Ang^3
#
#
#
# Elastic Constant Matrix: (Units=GPa)
#
#
# Indices 1 2 3 4 5 6 
#
# 1 20.5572 23.1292 12.7089 0.0000 8.5322 0.0000
# 2 23.1292 150.2065 37.1828 0.0000 -22.0761 0.0000
# 3 12.7089 37.1828 76.9649 0.0000 -21.1749 0.0000
# 4 0.0000 0.0000 0.0000 21.4688 0.0000 6.7737
# 5 8.5322 -22.0761 -21.1749 0.0000 30.6337 0.0000
# 6 0.0000 0.0000 0.0000 6.7737 0.0000 52.7988
#
#
#
# Elastic Compliance Matrix: (Units=1/GPa)
#
#
# Indices 1 2 3 4 5 6 
#
# 1 0.117047 -0.021020 -0.027548 0.000000 -0.066790 0.000000
# 2 -0.021020 0.011675 0.002169 0.000000 0.015767 0.000000
# 3 -0.027548 0.002169 0.023505 0.000000 0.025483 0.000000
# 4 0.000000 0.000000 0.000000 0.048544 0.000000 -0.006228
# 5 -0.066790 0.015767 0.025483 0.000000 0.080224 0.000000
# 6 0.000000 0.000000 0.000000 -0.006228 0.000000 0.019739
#
#
# Mechanical properties :
#
#
# Convention : Reuss Voigt Hill
#
# Bulk Modulus (GPa) = 16.82721 43.75226 30.28973
# Shear Modulus (GPa) = 12.09654 32.62742 22.36198
#
# Velocity S-wave (km/s) = 2.19824 3.61024 2.98882
# Velocity P-wave (km/s) = 3.62836 5.90392 4.90007
#
# Compressibility (1/GPa) = 0.05942758
#
# Stress axis : x y z
#
# Youngs Moduli (GPa) = 8.54360 85.65545 42.54379
#
# Poissons Ratio (x) = 1.80048 1.17200
# Poissons Ratio (y) = 0.17959 -0.09226
# Poissons Ratio (z) = 0.23536 -0.18576
#
# Static dielectric constant tensor:
#      x y z
#    x 2.162880 0.000000 -0.021560 
#    y 0.000000 2.215470 0.000000 
#    z -0.021560 0.000000 2.215990 
# 
# From -- ./inp_files/27326.got.cif
#   From: 2010.05.17/outbox.cif.g08.bks.cpg/sg9_14_cif.got.tgz:27326.got - 2010.06.03 20:04:27.
