data_PCOD9137232
_publ_section_title
;
Structure prediction by ZEFSAII (Michael W. Deem and Ramdas Pophale) SiO2 
 PCOD9137232
Probable space group: C C
;
_chemical_formula_sum "Si O2"
_cell_formula_units_Z 28
_cell_length_a 8.505619
_cell_length_b 28.982642
_cell_length_c 5.291955
_cell_angle_alpha 90.000000
_cell_angle_beta 116.100397
_cell_angle_gamma 90.000000
_cell_volume 1171.516038
_symmetry_space_group_name_H-M "C C"
_symmetry_group_IT_number 9
_symmetry_cell_setting 'monoclinic'
loop_
_space_group_symop_operation_xyz
x,y,z
x,-y,1/2+z
1/2+x,1/2+y,z
1/2+x,1/2-y,1/2+z
loop_
_atom_site_type_symbol
_atom_site_label
_atom_site_fract_x
_atom_site_fract_y
_atom_site_fract_z
Si Si1 0.188020 0.706877 0.160700
Si Si2 0.737361 0.022458 0.324164
Si Si3 0.898430 0.243902 0.706370
Si Si4 0.021263 0.389917 0.531973
Si Si5 0.783221 0.390356 0.875530
Si Si6 0.110229 0.205680 0.249816
Si Si7 0.636593 0.515426 0.147776
O O1 0.369333 0.710998 0.442676
O O2 0.120661 0.657670 0.027122
O O3 0.053962 0.719457 0.293864
O O4 0.151071 0.751094 0.959315
O O5 0.672088 0.072551 0.196855
O O6 0.670214 0.011182 0.555863
O O7 0.947541 0.010558 0.484259
O O8 0.743993 0.280953 0.617628
O O9 0.927898 0.211113 0.970776
O O10 0.902548 0.385463 0.704679
O O11 0.902093 0.402021 0.204106
O O12 0.675432 0.344227 0.873374
O O13 0.643156 0.430829 0.718429
O O14 0.729245 0.490678 0.446101
#
# Coordination Sequence:
#
# PCOD9137232 Si02
#       7
#     4   4   4   4   4   4   4
#     4  11  23  43  65 101 143 188 240 295 353 427
#     4  10  23  46  70  99 140 177 233 301 356 426
#     4  10  22  40  66  92 138 188 232 292 354 408
#     4  12  26  44  72 104 142 189 240 292 367 434
#     4  12  26  44  72 104 142 189 240 292 367 434
#     4  11  23  43  65 101 143 188 240 295 353 427
#     4  10  23  46  70  99 140 177 233 301 356 426
#
# _framework density 23.900656999999999
#
# number of rings (size 3 to 8) (size 9 to 14) (size 15 to 20)
#    0.000    1.143    1.429    4.286    4.000    5.714 
#   10.286    0.000    0.000    0.000    0.000    0.000 
#    0.000    0.000    0.000    0.000    0.000    0.000 
#
# Total GULP energy -77961.348680 kJ/mol
# GULP energy per Si atom -5568.667763 kJ/mol
# Density = 2.384626 g / cm^3
# Si number density = 23.900657 Si / 1000 Ang^3
#
#
#
# Elastic Constant Matrix: (Units=GPa)
#
#
# Indices 1 2 3 4 5 6 
#
# 1 52.6527 31.8060 17.0340 0.0000 17.0592 0.0000
# 2 31.8060 159.1474 34.4156 0.0000 11.6507 0.0000
# 3 17.0340 34.4156 149.2943 0.0000 -25.6288 0.0000
# 4 0.0000 0.0000 0.0000 35.4913 0.0000 1.0974
# 5 17.0592 11.6507 -25.6288 0.0000 33.9188 0.0000
# 6 0.0000 0.0000 0.0000 1.0974 0.0000 33.2484
#
#
#
# Elastic Compliance Matrix: (Units=1/GPa)
#
#
# Indices 1 2 3 4 5 6 
#
# 1 0.028277 -0.003213 -0.005444 0.000000 -0.017232 0.000000
# 2 -0.003213 0.007469 -0.001744 0.000000 -0.002268 0.000000
# 3 -0.005444 -0.001744 0.009531 0.000000 0.010538 0.000000
# 4 0.000000 0.000000 0.000000 0.028205 0.000000 -0.000931
# 5 -0.017232 -0.002268 0.010538 0.000000 0.046890 0.000000
# 6 0.000000 0.000000 0.000000 -0.000931 0.000000 0.030107
#
#
# Mechanical properties :
#
#
# Convention : Reuss Voigt Hill
#
# Bulk Modulus (GPa) = 40.85860 58.62286 49.74073
# Shear Modulus (GPa) = 27.86461 39.05427 33.45944
#
# Velocity S-wave (km/s) = 3.41816 4.04669 3.74563
# Velocity P-wave (km/s) = 5.71933 6.81287 6.28991
#
# Compressibility (1/GPa) = 0.02447465
#
# Stress axis : x y z
#
# Youngs Moduli (GPa) = 35.36427 133.89063 104.92594
#
# Poissons Ratio (x) = 0.43013 0.57120
# Poissons Ratio (y) = 0.11361 0.18304
# Poissons Ratio (z) = 0.19252 0.23357
#
# Static dielectric constant tensor:
#      x y z
#    x 2.502430 0.000000 0.135980 
#    y 0.000000 1.916490 0.000000 
#    z 0.135980 0.000000 2.088830 
# 
# From -- ./inp_files/1336.got.cif
#   From: 2010.05.17/outbox.cif.g08.bks.cpg/sg9_1_cif.got.tgz:1336.got - 2010.06.03 20:04:27.
