data_PCOD9137448
_publ_section_title
;
Structure prediction by ZEFSAII (Michael W. Deem and Ramdas Pophale) SiO2 
 PCOD9137448
Probable space group: C C
;
_chemical_formula_sum "Si O2"
_cell_formula_units_Z 16
_cell_length_a 7.159712
_cell_length_b 12.362820
_cell_length_c 9.343907
_cell_angle_alpha 90.000000
_cell_angle_beta 117.972266
_cell_angle_gamma 90.000000
_cell_volume 730.446217
_symmetry_space_group_name_H-M "C C"
_symmetry_group_IT_number 9
_symmetry_cell_setting 'monoclinic'
loop_
_space_group_symop_operation_xyz
x,y,z
x,-y,1/2+z
1/2+x,1/2+y,z
1/2+x,1/2-y,1/2+z
loop_
_atom_site_type_symbol
_atom_site_label
_atom_site_fract_x
_atom_site_fract_y
_atom_site_fract_z
Si Si1 0.629360 0.048304 0.319330
Si Si2 0.518367 0.129946 0.578304
Si Si3 0.566776 0.451692 0.840204
Si Si4 0.177772 0.129946 0.081226
O O1 0.617491 0.058874 0.485096
O O2 0.429856 0.117096 0.188928
O O3 0.848068 0.086398 0.329769
O O4 0.589109 0.926065 0.250384
O O5 0.266281 0.117100 0.470606
O O6 0.598073 0.249999 0.579762
O O7 0.578639 0.441120 0.674436
O O8 0.607031 0.573931 0.909148
#
# Coordination Sequence:
#
# PCOD9137448 Si02
#       4
#     4   4   4   4
#     4  10  22  42  65  94 128 163 215 260 307 383
#     4  10  23  43  65  95 129 165 210 264 311 372
#     4  10  22  42  65  94 128 163 215 260 307 383
#     4  10  23  43  65  95 129 165 210 264 311 372
#
# _framework density 21.904418
#
# number of rings (size 3 to 8) (size 9 to 14) (size 15 to 20)
#    0.000    2.000    0.000    1.500    7.000    2.000 
#   18.000    0.000    0.000    0.000    0.000    0.000 
#    0.000    0.000    0.000    0.000    0.000    0.000 
#
# Total GULP energy -44728.659891 kJ/mol
# GULP energy per Si atom -5591.082486 kJ/mol
# Density = 2.185456 g / cm^3
# Si number density = 21.904418 Si / 1000 Ang^3
#
#
#
# Elastic Constant Matrix: (Units=GPa)
#
#
# Indices 1 2 3 4 5 6 
#
# 1 198.2101 36.2967 6.0539 0.0000 8.4678 0.0000
# 2 36.2967 160.0052 44.7263 0.0000 -3.6802 0.0000
# 3 6.0539 44.7263 65.8287 0.0000 -27.2649 0.0000
# 4 0.0000 0.0000 0.0000 20.1498 0.0000 -13.8515
# 5 8.4678 -3.6802 -27.2649 0.0000 28.8953 0.0000
# 6 0.0000 0.0000 0.0000 -13.8515 0.0000 31.4862
#
#
#
# Elastic Compliance Matrix: (Units=1/GPa)
#
#
# Indices 1 2 3 4 5 6 
#
# 1 0.005367 -0.001051 -0.000799 0.000000 -0.002460 0.000000
# 2 -0.001051 0.008746 -0.008629 0.000000 -0.006720 0.000000
# 3 -0.000799 -0.008629 0.034093 0.000000 0.031304 0.000000
# 4 0.000000 0.000000 0.000000 0.071143 0.000000 0.031297
# 5 -0.002460 -0.006720 0.031304 0.000000 0.064010 0.000000
# 6 0.000000 0.000000 0.000000 0.031297 0.000000 0.045528
#
#
# Mechanical properties :
#
#
# Convention : Reuss Voigt Hill
#
# Bulk Modulus (GPa) = 36.69872 66.46642 51.58257
# Shear Modulus (GPa) = 19.31051 38.57072 28.94061
#
# Velocity S-wave (km/s) = 2.97236 4.20082 3.63881
# Velocity P-wave (km/s) = 5.34512 7.34431 6.42297
#
# Compressibility (1/GPa) = 0.02724891
#
# Stress axis : x y z
#
# Youngs Moduli (GPa) = 186.32105 114.34290 29.33195
#
# Poissons Ratio (x) = 0.12016 0.02342
# Poissons Ratio (y) = 0.19580 0.25310
# Poissons Ratio (z) = 0.14878 0.98664
#
# Static dielectric constant tensor:
#      x y z
#    x 1.812960 0.000000 0.029880 
#    y 0.000000 1.778080 0.000000 
#    z 0.029880 0.000000 1.855770 
# 
# From -- ./inp_files/3518.got.cif
#   From: 2010.05.17/outbox.cif.g08.bks.cpg/sg9_2_cif.got.tgz:3518.got - 2010.06.03 20:04:27.
