data_PCOD9137989
_publ_section_title
;
Structure prediction by ZEFSAII (Michael W. Deem and Ramdas Pophale) SiO2 
 PCOD9137989
Probable space group: C C
;
_chemical_formula_sum "Si O2"
_cell_formula_units_Z 28
_cell_length_a 6.738826
_cell_length_b 18.009247
_cell_length_c 13.215150
_cell_angle_alpha 90.000000
_cell_angle_beta 45.111656
_cell_angle_gamma 90.000000
_cell_volume 1136.270122
_symmetry_space_group_name_H-M "C C"
_symmetry_group_IT_number 9
_symmetry_cell_setting 'monoclinic'
loop_
_space_group_symop_operation_xyz
x,y,z
x,-y,1/2+z
1/2+x,1/2+y,z
1/2+x,1/2-y,1/2+z
loop_
_atom_site_type_symbol
_atom_site_label
_atom_site_fract_x
_atom_site_fract_y
_atom_site_fract_z
Si Si1 0.811720 0.748053 0.415930
Si Si2 0.317052 0.633048 0.260621
Si Si3 0.764390 0.633661 0.786723
Si Si4 0.706501 0.755740 0.218887
Si Si5 0.624255 0.995046 0.459184
Si Si6 0.985932 0.976369 0.519833
Si Si7 0.585562 0.434979 0.157698
O O1 0.693421 0.757215 0.344866
O O2 0.533971 0.733967 0.579595
O O3 0.052010 0.685516 0.331040
O O4 0.979960 0.818093 0.402259
O O5 0.568242 0.682418 0.217587
O O6 0.210743 0.573757 0.380643
O O7 0.396740 0.586110 0.132650
O O8 0.756336 0.620476 0.668585
O O9 0.023878 0.679234 0.734381
O O10 0.733854 0.557773 0.861547
O O11 0.292088 0.992528 0.589068
O O12 0.743643 0.986468 0.526508
O O13 0.790252 0.941412 0.322292
O O14 0.037043 0.055899 0.555939
#
# Coordination Sequence:
#
# PCOD9137989 Si02
#       7
#     4   4   4   4   4   4   4
#     4  11  25  43  71 102 137 189 226 287 356 405
#     4  10  24  43  68 103 141 171 238 285 334 431
#     4  10  24  43  68 103 141 171 238 285 334 431
#     4  11  25  43  71 102 137 189 226 287 356 405
#     4  10  24  42  66  98 135 180 226 281 341 408
#     4  10  22  46  70  96 142 180 222 286 348 404
#     4  10  24  42  66  98 135 180 226 281 341 408
#
# _framework density 24.642029000000001
#
# number of rings (size 3 to 8) (size 9 to 14) (size 15 to 20)
#    0.000    1.714    0.000    1.714    4.000   18.286 
#    0.000    0.000    0.000    0.000    0.000    0.000 
#    0.000    0.000    0.000    0.000    0.000    0.000 
#
# Total GULP energy -78217.790324 kJ/mol
# GULP energy per Si atom -5586.985023 kJ/mol
# Density = 2.458594 g / cm^3
# Si number density = 24.642029 Si / 1000 Ang^3
#
#
#
# Elastic Constant Matrix: (Units=GPa)
#
#
# Indices 1 2 3 4 5 6 
#
# 1 103.8406 30.8591 15.7985 -0.0003 5.0272 0.0002
# 2 30.8591 84.1144 12.9804 0.0000 13.8724 0.0000
# 3 15.7985 12.9804 86.1301 -0.0005 12.1978 0.0004
# 4 -0.0003 0.0000 -0.0005 25.3288 0.0003 3.8406
# 5 5.0272 13.8724 12.1978 0.0003 37.5595 -0.0003
# 6 0.0002 0.0000 0.0004 3.8406 -0.0003 48.8654
#
#
#
# Elastic Compliance Matrix: (Units=1/GPa)
#
#
# Indices 1 2 3 4 5 6 
#
# 1 0.010987 -0.003874 -0.001495 0.000000 0.000446 0.000000
# 2 -0.003874 0.014167 -0.000793 0.000000 -0.004456 0.000000
# 3 -0.001495 -0.000793 0.012510 0.000000 -0.003570 0.000000
# 4 0.000000 0.000000 0.000000 0.039957 0.000000 -0.003140
# 5 0.000446 -0.004456 -0.003570 0.000000 0.029370 0.000000
# 6 0.000000 0.000000 0.000000 -0.003140 0.000000 0.020711
#
#
# Mechanical properties :
#
#
# Convention : Reuss Voigt Hill
#
# Bulk Modulus (GPa) = 39.46274 43.70679 41.58476
# Shear Modulus (GPa) = 33.67633 36.64722 35.16177
#
# Velocity S-wave (km/s) = 3.70080 3.86059 3.78153
# Velocity P-wave (km/s) = 5.85750 6.13574 5.99824
#
# Compressibility (1/GPa) = 0.02534036
#
# Stress axis : x y z
#
# Youngs Moduli (GPa) = 91.01548 70.58605 79.93863
#
# Poissons Ratio (x) = 0.27343 0.11948
# Poissons Ratio (y) = 0.35257 0.06343
# Poissons Ratio (z) = 0.13604 0.05600
#
# Static dielectric constant tensor:
#      x y z
#    x 1.944800 0.000000 -0.016900 
#    y 0.000000 2.112060 0.000000 
#    z -0.016900 0.000000 1.949630 
# 
# From -- ./inp_files/13437.got.cif
#   From: 2010.05.17/outbox.cif.g08.bks.cpg/sg9_7_cif.got.tgz:13437.got - 2010.06.03 20:04:27.
