data_PCOD9137509
_publ_section_title
;
Structure prediction by ZEFSAII (Michael W. Deem and Ramdas Pophale) SiO2 
 PCOD9137509
Probable space group: C C
;
_chemical_formula_sum "Si O2"
_cell_formula_units_Z 32
_cell_length_a 19.621402
_cell_length_b 14.212211
_cell_length_c 10.119311
_cell_angle_alpha 90.000000
_cell_angle_beta 31.513735
_cell_angle_gamma 90.000000
_cell_volume 1475.018859
_symmetry_space_group_name_H-M "C C"
_symmetry_group_IT_number 9
_symmetry_cell_setting 'monoclinic'
loop_
_space_group_symop_operation_xyz
x,y,z
x,-y,1/2+z
1/2+x,1/2+y,z
1/2+x,1/2-y,1/2+z
loop_
_atom_site_type_symbol
_atom_site_label
_atom_site_fract_x
_atom_site_fract_y
_atom_site_fract_z
Si Si1 0.178940 0.555683 0.636540
Si Si2 0.182058 0.873438 0.082754
Si Si3 0.888300 0.798726 0.889701
Si Si4 0.788317 0.062315 0.168663
Si Si5 0.546101 0.451948 0.734409
Si Si6 0.393774 0.099876 0.006623
Si Si7 0.799607 0.596453 0.644124
Si Si8 0.939619 0.233682 0.009322
O O1 0.257735 0.641112 0.577589
O O2 0.248993 0.527673 0.381433
O O3 0.183503 0.469616 0.733494
O O4 0.037084 0.592199 0.831562
O O5 0.259058 0.844427 0.084383
O O6 0.074218 0.797402 0.220270
O O7 0.108547 0.973969 0.234714
O O8 0.285612 0.890184 0.798269
O O9 0.955885 0.799638 0.634036
O O10 0.973224 0.851371 0.862845
O O11 0.874646 0.690430 0.947958
O O12 0.824069 0.170306 0.137243
O O13 0.922661 0.015183 0.892156
O O14 0.668509 0.428476 0.439870
O O15 0.366283 0.999494 0.985444
O O16 0.897790 0.658947 0.567579
#
# Coordination Sequence:
#
# PCOD9137509 Si02
#       8
#     4   4   4   4   4   4   4   4
#     4  10  23  42  68 100 137 172 225 276 341 397
#     4  10  23  44  63  96 133 169 221 275 333 399
#     4  10  22  42  68  95 125 175 222 268 328 411
#     4   9  21  42  68 100 131 177 223 275 330 408
#     4   9  20  42  69  93 124 176 221 265 325 400
#     4  11  27  40  66  97 134 173 219 279 338 398
#     4  11  24  40  65  98 131 171 219 279 333 394
#     4  10  22  42  69  93 129 175 224 267 334 401
#
# _framework density 21.694638000000001
#
# number of rings (size 3 to 8) (size 9 to 14) (size 15 to 20)
#    0.000    2.000    1.250    0.000   10.500    2.000 
#    6.750    0.000    0.000    0.000    0.000    0.000 
#    0.000    0.000    0.000    0.000    0.000    0.000 
#
# Total GULP energy -89114.193284 kJ/mol
# GULP energy per Si atom -5569.637080 kJ/mol
# Density = 2.164526 g / cm^3
# Si number density = 21.694638 Si / 1000 Ang^3
#
#
#
# Elastic Constant Matrix: (Units=GPa)
#
#
# Indices 1 2 3 4 5 6 
#
# 1 77.2386 26.8438 25.1695 0.0000 -11.5890 0.0000
# 2 26.8438 101.6611 27.2333 0.0000 -5.4717 0.0000
# 3 25.1695 27.2333 78.1105 0.0000 -15.8142 0.0000
# 4 0.0000 0.0000 0.0000 10.3930 0.0000 2.8169
# 5 -11.5890 -5.4717 -15.8142 0.0000 23.0482 0.0000
# 6 0.0000 0.0000 0.0000 2.8169 0.0000 36.7543
#
#
#
# Elastic Compliance Matrix: (Units=1/GPa)
#
#
# Indices 1 2 3 4 5 6 
#
# 1 0.015759 -0.003092 -0.002955 0.000000 0.005162 0.000000
# 2 -0.003092 0.011457 -0.003208 0.000000 -0.001036 0.000000
# 3 -0.002955 -0.003208 0.016744 0.000000 0.009241 0.000000
# 4 0.000000 0.000000 0.000000 0.098260 0.000000 -0.007531
# 5 0.005162 -0.001036 0.009241 0.000000 0.052078 0.000000
# 6 0.000000 0.000000 0.000000 -0.007531 0.000000 0.027785
#
#
# Mechanical properties :
#
#
# Convention : Reuss Voigt Hill
#
# Bulk Modulus (GPa) = 39.29187 46.16704 42.72946
# Shear Modulus (GPa) = 20.07433 25.89001 22.98217
#
# Velocity S-wave (km/s) = 3.04520 3.45829 3.25829
# Velocity P-wave (km/s) = 5.52403 6.10515 5.82185
#
# Compressibility (1/GPa) = 0.02545056
#
# Stress axis : x y z
#
# Youngs Moduli (GPa) = 63.45632 87.28631 59.72323
#
# Poissons Ratio (x) = 0.26987 0.17647
# Poissons Ratio (y) = 0.19619 0.19158
# Poissons Ratio (z) = 0.18750 0.27999
#
# Static dielectric constant tensor:
#      x y z
#    x 1.793260 0.000000 -0.024500 
#    y 0.000000 1.834450 0.000000 
#    z -0.024500 0.000000 1.801340 
# 
# From -- ./inp_files/16864.got.cif
#   From: 2010.05.17/outbox.cif.g08.bks.cpg/sg9_9_cif.got.tgz:16864.got - 2010.06.03 20:04:27.
