data_PCOD9137835
_publ_section_title
;
Structure prediction by ZEFSAII (Michael W. Deem and Ramdas Pophale) SiO2 
 PCOD9137835
Probable space group: C C
;
_chemical_formula_sum "Si O2"
_cell_formula_units_Z 28
_cell_length_a 7.179688
_cell_length_b 13.353488
_cell_length_c 12.837922
_cell_angle_alpha 90.000000
_cell_angle_beta 115.247348
_cell_angle_gamma 90.000000
_cell_volume 1113.247014
_symmetry_space_group_name_H-M "C C"
_symmetry_group_IT_number 9
_symmetry_cell_setting 'monoclinic'
loop_
_space_group_symop_operation_xyz
x,y,z
x,-y,1/2+z
1/2+x,1/2+y,z
1/2+x,1/2-y,1/2+z
loop_
_atom_site_type_symbol
_atom_site_label
_atom_site_fract_x
_atom_site_fract_y
_atom_site_fract_z
Si Si1 0.110380 0.665302 0.412000
Si Si2 0.724055 0.427428 0.083340
Si Si3 0.386158 0.597347 0.666755
Si Si4 0.581554 0.626241 0.997591
Si Si5 0.765303 0.204832 0.071789
Si Si6 0.625219 0.940402 0.696442
Si Si7 0.713735 0.291737 0.739200
O O1 0.151326 0.784003 0.439751
O O2 0.153194 0.618439 0.310375
O O3 0.861530 0.658833 0.358350
O O4 0.107918 0.913806 0.166878
O O5 0.230553 0.390456 0.031543
O O6 0.612714 0.510484 0.984611
O O7 0.699640 0.316673 0.032170
O O8 0.954082 0.471128 0.153309
O O9 0.333565 0.497518 0.715004
O O10 0.325571 0.690047 0.726339
O O11 0.353974 0.650399 0.989794
O O12 0.716144 0.640629 0.135483
O O13 0.603991 0.139524 0.097069
O O14 0.970309 0.221469 0.194256
#
# Coordination Sequence:
#
# PCOD9137835 Si02
#       7
#     4   4   4   4   4   4   4
#     4  11  23  43  76 108 150 203 250 309 386 452
#     4  12  22  44  77  95 149 197 238 314 379 433
#     4  11  24  45  72 111 153 195 252 319 381 447
#     4   9  21  43  66 103 142 188 243 308 359 444
#     4  10  22  44  73 103 144 197 241 318 370 437
#     4  12  23  47  74 106 151 200 252 316 374 445
#     4   9  19  44  70  98 151 184 248 312 361 446
#
# _framework density 25.151648999999999
#
# number of rings (size 3 to 8) (size 9 to 14) (size 15 to 20)
#    0.857    0.571    4.286    0.857    2.000    1.143 
#    5.143    5.714    0.000    0.000    0.000    0.000 
#    0.000    0.000    0.000    0.000    0.000    0.000 
#
# Total GULP energy -78150.669473 kJ/mol
# GULP energy per Si atom -5582.190677 kJ/mol
# Density = 2.509440 g / cm^3
# Si number density = 25.151649 Si / 1000 Ang^3
#
#
#
# Elastic Constant Matrix: (Units=GPa)
#
#
# Indices 1 2 3 4 5 6 
#
# 1 96.3174 22.9266 23.6773 0.0000 -20.7435 0.0000
# 2 22.9266 117.8346 6.9191 0.0000 -9.3707 0.0000
# 3 23.6773 6.9191 79.0015 0.0000 -5.4067 0.0000
# 4 0.0000 0.0000 0.0000 -0.0693 0.0000 -12.5007
# 5 -20.7435 -9.3707 -5.4067 0.0000 38.6491 0.0000
# 6 0.0000 0.0000 0.0000 -12.5007 0.0000 45.4567
#
#
#
# Elastic Compliance Matrix: (Units=1/GPa)
#
#
# Indices 1 2 3 4 5 6 
#
# 1 0.012932 -0.001843 -0.003302 0.000000 0.006032 0.000000
# 2 -0.001843 0.008946 -0.000152 0.000000 0.001159 0.000000
# 3 -0.003302 -0.000152 0.013668 0.000000 0.000103 0.000000
# 4 0.000000 0.000000 0.000000 -0.285144 0.000000 -0.078415
# 5 0.006032 0.001159 0.000103 0.000000 0.029407 0.000000
# 6 0.000000 0.000000 0.000000 -0.078415 0.000000 0.000435
#
#
# Mechanical properties :
#
#
# Convention : Reuss Voigt Hill
#
# Bulk Modulus (GPa) = 40.07456 44.46662 42.27059
# Shear Modulus (GPa) = -24.89448 32.78266 3.94409
#
# Velocity S-wave (km/s) = -3.14948 3.61418 1.25361
# Velocity P-wave (km/s) = 1.65593 5.92741 4.35180
#
# Compressibility (1/GPa) = 0.02495349
#
# Stress axis : x y z
#
# Youngs Moduli (GPa) = 77.32993 111.78128 73.16439
#
# Poissons Ratio (x) = 0.20596 0.24155
# Poissons Ratio (y) = 0.14248 0.01112
# Poissons Ratio (z) = 0.25531 0.01699
#
# Static dielectric constant tensor:
#      x y z
#    x 2.072990 0.000000 0.030320 
#    y 0.000000 2.055600 0.000000 
#    z 0.030320 0.000000 2.033900 
# 
# From -- ./inp_files/23091.got.cif
#   From: 2010.05.17/outbox.cif.g08.bks.cpg/sg9_12_cif.got.tgz:23091.got - 2010.06.03 20:04:27.
