data_PCOD9137541
_publ_section_title
;
Structure prediction by ZEFSAII (Michael W. Deem and Ramdas Pophale) SiO2 
 PCOD9137541
Probable space group: C C
;
_chemical_formula_sum "Si O2"
_cell_formula_units_Z 28
_cell_length_a 7.432615
_cell_length_b 16.148817
_cell_length_c 10.290682
_cell_angle_alpha 90.000000
_cell_angle_beta 98.052513
_cell_angle_gamma 90.000000
_cell_volume 1222.990706
_symmetry_space_group_name_H-M "C C"
_symmetry_group_IT_number 9
_symmetry_cell_setting 'monoclinic'
loop_
_space_group_symop_operation_xyz
x,y,z
x,-y,1/2+z
1/2+x,1/2+y,z
1/2+x,1/2-y,1/2+z
loop_
_atom_site_type_symbol
_atom_site_label
_atom_site_fract_x
_atom_site_fract_y
_atom_site_fract_z
Si Si1 0.218290 0.056623 0.558520
Si Si2 0.100707 0.843253 0.835285
Si Si3 0.771171 0.196488 0.473833
Si Si4 0.553243 0.301995 0.225709
Si Si5 0.910516 0.066038 0.103293
Si Si6 0.604751 0.056188 0.644128
Si Si7 0.231371 0.657301 0.865802
O O1 0.237224 0.095169 0.417645
O O2 0.176896 0.134265 0.653638
O O3 0.410952 0.014817 0.602823
O O4 0.048253 0.995517 0.545204
O O5 0.172998 0.751412 0.853287
O O6 0.917201 0.850754 0.900732
O O7 0.044386 0.872167 0.689897
O O8 0.660716 0.248701 0.349683
O O9 0.650948 0.129903 0.543455
O O10 0.909288 0.236689 0.600790
O O11 0.414265 0.353282 0.300315
O O12 0.771478 0.007090 0.165646
O O13 0.777979 0.124302 0.009550
O O14 0.585959 0.101568 0.779795
#
# Coordination Sequence:
#
# PCOD9137541 Si02
#       7
#     4   4   4   4   4   4   4
#     4  11  24  47  72 103 143 188 239 294 361 433
#     4  11  25  44  71 103 145 187 233 298 365 427
#     4  10  22  42  70 104 147 185 244 303 356 437
#     4  10  22  42  70 104 147 185 244 303 356 437
#     4  12  26  48  72 102 148 182 240 308 354 434
#     4  11  24  47  72 103 143 188 239 294 361 433
#     4  11  25  44  71 103 145 187 233 298 365 427
#
# _framework density 22.894694000000001
#
# number of rings (size 3 to 8) (size 9 to 14) (size 15 to 20)
#    0.000    1.143    4.286    2.571   10.000    1.143 
#    5.143    0.000    0.000    0.000    0.000    0.000 
#    0.000    0.000    0.000    0.000    0.000    0.000 
#
# Total GULP energy -77989.859474 kJ/mol
# GULP energy per Si atom -5570.704248 kJ/mol
# Density = 2.284258 g / cm^3
# Si number density = 22.894694 Si / 1000 Ang^3
#
#
#
# Elastic Constant Matrix: (Units=GPa)
#
#
# Indices 1 2 3 4 5 6 
#
# 1 63.3218 17.3616 4.3117 0.0000 29.0393 0.0000
# 2 17.3616 50.3823 21.0025 0.0000 6.5862 0.0000
# 3 4.3117 21.0025 73.0522 0.0000 9.2920 0.0000
# 4 0.0000 0.0000 0.0000 18.3635 0.0000 12.3629
# 5 29.0393 6.5862 9.2920 0.0000 26.9032 0.0000
# 6 0.0000 0.0000 0.0000 12.3629 0.0000 12.8236
#
#
#
# Elastic Compliance Matrix: (Units=1/GPa)
#
#
# Indices 1 2 3 4 5 6 
#
# 1 0.035294 -0.009508 0.005439 0.000000 -0.037647 0.000000
# 2 -0.009508 0.025420 -0.007594 0.000000 0.006663 0.000000
# 3 0.005439 -0.007594 0.016800 0.000000 -0.009814 0.000000
# 4 0.000000 0.000000 0.000000 0.155164 0.000000 -0.149589
# 5 -0.037647 0.006663 -0.009814 0.000000 0.079565 0.000000
# 6 0.000000 0.000000 0.000000 -0.149589 0.000000 0.222196
#
#
# Mechanical properties :
#
#
# Convention : Reuss Voigt Hill
#
# Bulk Modulus (GPa) = 18.45506 30.23423 24.34464
# Shear Modulus (GPa) = 8.68317 21.22343 14.95330
#
# Velocity S-wave (km/s) = 1.94959 3.04797 2.55842
# Velocity P-wave (km/s) = 3.62577 5.06175 4.40270
#
# Compressibility (1/GPa) = 0.05418569
#
# Stress axis : x y z
#
# Youngs Moduli (GPa) = 28.33366 39.33987 59.52556
#
# Poissons Ratio (x) = 0.37405 -0.32376
# Poissons Ratio (y) = 0.26940 0.45206
# Poissons Ratio (z) = -0.15411 0.29876
#
# Static dielectric constant tensor:
#      x y z
#    x 1.945460 0.000000 0.090110 
#    y 0.000000 1.824840 0.000000 
#    z 0.090110 0.000000 2.080400 
# 
# From -- ./inp_files/14794.got.cif
#   From: 2010.05.17/outbox.cif.g08.bks.cpg/sg9_8_cif.got.tgz:14794.got - 2010.06.03 20:04:27.
