data_PCOD9137852
_publ_section_title
;
Structure prediction by ZEFSAII (Michael W. Deem and Ramdas Pophale) SiO2 
 PCOD9137852
Probable space group: C C
;
_chemical_formula_sum "Si O2"
_cell_formula_units_Z 32
_cell_length_a 7.375897
_cell_length_b 7.449876
_cell_length_c 23.500223
_cell_angle_alpha 90.000000
_cell_angle_beta 60.921762
_cell_angle_gamma 90.000000
_cell_volume 1128.563178
_symmetry_space_group_name_H-M "C C"
_symmetry_group_IT_number 9
_symmetry_cell_setting 'monoclinic'
loop_
_space_group_symop_operation_xyz
x,y,z
x,-y,1/2+z
1/2+x,1/2+y,z
1/2+x,1/2-y,1/2+z
loop_
_atom_site_type_symbol
_atom_site_label
_atom_site_fract_x
_atom_site_fract_y
_atom_site_fract_z
Si Si1 0.195120 0.258245 0.006230
Si Si2 0.522493 0.747996 0.550390
Si Si3 0.599537 0.091519 0.802639
Si Si4 0.383314 0.592482 0.125400
Si Si5 0.451500 0.974418 0.153626
Si Si6 0.798391 0.569121 0.424864
Si Si7 0.474301 0.436278 0.884220
Si Si8 0.991137 0.083985 0.257121
O O1 0.317048 0.305872 0.045552
O O2 0.964387 0.191009 0.054194
O O3 0.254909 0.386010 0.945392
O O4 0.322949 0.079762 0.969080
O O5 0.514611 0.592706 0.600852
O O6 0.496262 0.938936 0.584150
O O7 0.705432 0.729709 0.476098
O O8 0.601929 0.252917 0.848342
O O9 0.470234 0.202902 0.774881
O O10 0.490752 0.928910 0.852955
O O11 0.817699 0.018532 0.747241
O O12 0.140609 0.552908 0.161214
O O13 0.438528 0.758122 0.158156
O O14 0.225978 0.049313 0.203897
O O15 0.617039 0.485955 0.411756
O O16 0.455968 0.512833 0.824337
#
# Coordination Sequence:
#
# PCOD9137852 Si02
#       8
#     4   4   4   4   4   4   4   4
#     4   9  18  42  64  97 142 165 230 297 360 438
#     4  10  23  44  67 102 143 177 233 304 369 440
#     4   9  20  42  62  92 132 182 232 303 360 435
#     4  11  24  43  66 100 135 184 242 292 364 434
#     4  12  26  43  69 100 140 199 241 298 365 440
#     4   9  18  40  65  99 136 171 233 296 379 437
#     4   8  19  39  63  91 132 175 223 303 363 429
#     4  10  22  45  62  91 144 183 248 295 356 449
#
# _framework density 28.354634999999998
#
# number of rings (size 3 to 8) (size 9 to 14) (size 15 to 20)
#    0.750    1.500    1.250    0.750    3.500    1.000 
#    9.000    0.000    0.000    0.000    0.000    0.000 
#    0.000    0.000    0.000    0.000    0.000    0.000 
#
# Total GULP energy -89357.804106 kJ/mol
# GULP energy per Si atom -5584.862757 kJ/mol
# Density = 2.829010 g / cm^3
# Si number density = 28.354635 Si / 1000 Ang^3
#
#
#
# Elastic Constant Matrix: (Units=GPa)
#
#
# Indices 1 2 3 4 5 6 
#
# 1 105.0647 34.0795 34.4991 0.0000 -6.5065 0.0000
# 2 34.0795 159.5996 27.9880 0.0000 -10.7495 0.0000
# 3 34.4991 27.9880 85.1267 0.0000 -8.8681 0.0000
# 4 0.0000 0.0000 0.0000 22.3175 0.0000 1.1446
# 5 -6.5065 -10.7495 -8.8681 0.0000 52.1754 0.0000
# 6 0.0000 0.0000 0.0000 1.1446 0.0000 46.2038
#
#
#
# Elastic Compliance Matrix: (Units=1/GPa)
#
#
# Indices 1 2 3 4 5 6 
#
# 1 0.011417 -0.001706 -0.004026 0.000000 0.000388 0.000000
# 2 -0.001706 0.006957 -0.001495 0.000000 0.000966 0.000000
# 3 -0.004026 -0.001495 0.014034 0.000000 0.001575 0.000000
# 4 0.000000 0.000000 0.000000 0.044865 0.000000 -0.001111
# 5 0.000388 0.000966 0.001575 0.000000 0.019681 0.000000
# 6 0.000000 0.000000 0.000000 -0.001111 0.000000 0.021671
#
#
# Mechanical properties :
#
#
# Convention : Reuss Voigt Hill
#
# Bulk Modulus (GPa) = 55.69493 60.32491 58.00992
# Shear Modulus (GPa) = 35.95445 41.02098 38.48771
#
# Velocity S-wave (km/s) = 3.56480 3.80769 3.68825
# Velocity P-wave (km/s) = 6.05216 6.37595 6.21616
#
# Compressibility (1/GPa) = 0.01795496
#
# Stress axis : x y z
#
# Youngs Moduli (GPa) = 87.58718 143.73468 71.25311
#
# Poissons Ratio (x) = 0.24519 0.28685
# Poissons Ratio (y) = 0.14941 0.10655
# Poissons Ratio (z) = 0.35260 0.21494
#
# Static dielectric constant tensor:
#      x y z
#    x 2.276000 0.000000 0.105130 
#    y 0.000000 2.240900 0.000000 
#    z 0.105130 0.000000 2.312280 
# 
# From -- ./inp_files/37137.got.cif
#   From: 2010.05.17/outbox.cif.g08.bks.cpg/sg9_19_cif.got.tgz:37137.got - 2010.06.03 20:04:27.
