data_PCOD9137033
_publ_section_title
;
Structure prediction by ZEFSAII (Michael W. Deem and Ramdas Pophale) SiO2 
 PCOD9137033
Probable space group: C C
;
_chemical_formula_sum "Si O2"
_cell_formula_units_Z 20
_cell_length_a 15.906602
_cell_length_b 8.764832
_cell_length_c 5.372003
_cell_angle_alpha 90.000000
_cell_angle_beta 104.629342
_cell_angle_gamma 90.000000
_cell_volume 724.676403
_symmetry_space_group_name_H-M "C C"
_symmetry_group_IT_number 9
_symmetry_cell_setting 'monoclinic'
loop_
_space_group_symop_operation_xyz
x,y,z
x,-y,1/2+z
1/2+x,1/2+y,z
1/2+x,1/2-y,1/2+z
loop_
_atom_site_type_symbol
_atom_site_label
_atom_site_fract_x
_atom_site_fract_y
_atom_site_fract_z
Si Si1 0.661170 0.931894 0.494730
Si Si2 0.465177 0.939522 0.855660
Si Si3 0.226558 0.105444 0.537461
Si Si4 0.503726 0.561442 0.568133
Si Si5 0.900511 0.197969 0.122247
O O1 0.656607 0.747195 0.503819
O O2 0.703167 0.993300 0.271137
O O3 0.911369 0.979390 0.570339
O O4 0.565455 0.012290 0.414532
O O5 0.448104 0.768070 0.916496
O O6 0.423111 0.013178 0.069279
O O7 0.310655 0.220296 0.600036
O O8 0.226167 0.006344 0.279645
O O9 0.550470 0.528059 0.867792
O O10 0.469456 0.712093 0.402801
#
# Coordination Sequence:
#
# PCOD9137033 Si02
#       5
#     4   4   4   4   4
#     4  10  23  45  72  92 129 191 228 263 331 429
#     4  10  22  38  66  88 125 170 229 256 323 401
#     4  12  27  40  69 104 138 170 230 288 336 389
#     4   8  20  32  56  90 134 162 210 264 342 378
#     4  10  22  37  65  98 136 169 221 277 344 385
#
# _framework density 27.598523
#
# number of rings (size 3 to 8) (size 9 to 14) (size 15 to 20)
#    1.200    0.800    0.000    2.400    8.400    0.000 
#    0.000    0.000   52.800    0.000    0.000    0.000 
#    0.000    0.000    0.000    0.000    0.000    0.000 
#
# Total GULP energy -55670.872749 kJ/mol
# GULP energy per Si atom -5567.087275 kJ/mol
# Density = 2.753571 g / cm^3
# Si number density = 27.598523 Si / 1000 Ang^3
#
#
#
# Elastic Constant Matrix: (Units=GPa)
#
#
# Indices 1 2 3 4 5 6 
#
# 1 126.6158 12.3864 -11.0368 0.0000 -6.0210 0.0000
# 2 12.3864 90.0205 26.1203 0.0000 11.8172 0.0000
# 3 -11.0368 26.1203 232.9473 0.0000 16.0589 0.0000
# 4 0.0000 0.0000 0.0000 65.3163 0.0000 3.0397
# 5 -6.0210 11.8172 16.0589 0.0000 16.6501 0.0000
# 6 0.0000 0.0000 0.0000 3.0397 0.0000 33.1842
#
#
#
# Elastic Compliance Matrix: (Units=1/GPa)
#
#
# Indices 1 2 3 4 5 6 
#
# 1 0.008283 -0.001748 0.000318 0.000000 0.003930 0.000000
# 2 -0.001748 0.012770 -0.000907 0.000000 -0.008821 0.000000
# 3 0.000318 -0.000907 0.004668 0.000000 -0.003744 0.000000
# 4 0.000000 0.000000 0.000000 0.015376 0.000000 -0.001408
# 5 0.003930 -0.008821 -0.003744 0.000000 0.071352 0.000000
# 6 0.000000 0.000000 0.000000 -0.001408 0.000000 0.030264
#
#
# Mechanical properties :
#
#
# Convention : Reuss Voigt Hill
#
# Bulk Modulus (GPa) = 47.51167 56.05813 51.78490
# Shear Modulus (GPa) = 32.38300 51.17104 41.77702
#
# Velocity S-wave (km/s) = 3.42915 4.31062 3.89490
# Velocity P-wave (km/s) = 5.73859 6.71799 6.24751
#
# Compressibility (1/GPa) = 0.02104746
#
# Stress axis : x y z
#
# Youngs Moduli (GPa) = 120.72289 78.30805 214.24325
#
# Poissons Ratio (x) = 0.13686 -0.06803
# Poissons Ratio (y) = 0.21099 0.19423
# Poissons Ratio (z) = -0.03833 0.07099
#
# Static dielectric constant tensor:
#      x y z
#    x 2.388690 0.000000 0.085540 
#    y 0.000000 2.391380 0.000000 
#    z 0.085540 0.000000 2.371470 
# 
# From -- ./inp_files/2852.got.cif
#   From: 2010.05.17/outbox.cif.g08.bks.cpg/sg9_2_cif.got.tgz:2852.got - 2010.06.03 20:04:27.
