data_PCOD9137663
_publ_section_title
;
Structure prediction by ZEFSAII (Michael W. Deem and Ramdas Pophale) SiO2 
 PCOD9137663
Probable space group: C C
;
_chemical_formula_sum "Si O2"
_cell_formula_units_Z 32
_cell_length_a 5.336344
_cell_length_b 23.022605
_cell_length_c 11.437288
_cell_angle_alpha 90.000000
_cell_angle_beta 110.295531
_cell_angle_gamma 90.000000
_cell_volume 1317.908559
_symmetry_space_group_name_H-M "C C"
_symmetry_group_IT_number 9
_symmetry_cell_setting 'monoclinic'
loop_
_space_group_symop_operation_xyz
x,y,z
x,-y,1/2+z
1/2+x,1/2+y,z
1/2+x,1/2-y,1/2+z
loop_
_atom_site_type_symbol
_atom_site_label
_atom_site_fract_x
_atom_site_fract_y
_atom_site_fract_z
Si Si1 0.141730 0.810258 0.836180
Si Si2 0.529405 0.788215 0.696028
Si Si3 0.475876 0.090887 0.419472
Si Si4 0.273179 0.476353 0.406959
Si Si5 0.947512 0.821888 0.049027
Si Si6 0.564657 0.589915 0.774286
Si Si7 0.810328 0.523905 0.605448
Si Si8 0.488207 0.094685 0.044640
O O1 0.362168 0.781138 0.788897
O O2 0.850830 0.782894 0.764217
O O3 0.210522 0.878951 0.823706
O O4 0.163258 0.810653 0.980677
O O5 0.394661 0.742437 0.586474
O O6 0.513149 0.851298 0.633460
O O7 0.715628 0.138269 0.453239
O O8 0.434078 0.075263 0.548384
O O9 0.564439 0.029075 0.383609
O O10 0.317273 0.445441 0.289959
O O11 0.540873 0.508704 0.489570
O O12 0.217182 0.424720 0.490458
O O13 0.019334 0.856949 0.178886
O O14 0.722964 0.545674 0.716923
O O15 0.740969 0.605294 0.915961
O O16 0.960229 0.463250 0.616949
#
# Coordination Sequence:
#
# PCOD9137663 Si02
#       8
#     4   4   4   4   4   4   4   4
#     4  12  28  52  80 113 152 215 264 324 391 467
#     4  12  32  51  80 115 159 213 266 331 379 474
#     4  11  22  48  75 114 153 204 261 324 396 481
#     4  10  23  43  69 113 159 202 255 328 400 478
#     4  12  28  52  82 114 157 207 275 320 400 469
#     4  11  24  43  76 114 154 204 258 331 395 479
#     4  10  22  43  69 110 154 198 256 319 396 475
#     4  10  27  46  69 111 158 205 259 323 401 467
#
# _framework density 24.280897
#
# number of rings (size 3 to 8) (size 9 to 14) (size 15 to 20)
#    0.000    1.000    3.750    0.000    8.750    6.000 
#    0.000    0.000    0.000    0.000    0.000    0.000 
#    0.000    0.000    0.000    0.000    0.000    0.000 
#
# Total GULP energy -89334.794744 kJ/mol
# GULP energy per Si atom -5583.424671 kJ/mol
# Density = 2.422563 g / cm^3
# Si number density = 24.280897 Si / 1000 Ang^3
#
#
#
# Elastic Constant Matrix: (Units=GPa)
#
#
# Indices 1 2 3 4 5 6 
#
# 1 102.2818 19.7636 37.8090 0.0000 -45.1978 0.0000
# 2 19.7636 89.3674 5.9829 0.0000 -23.2676 0.0000
# 3 37.8090 5.9829 90.6104 0.0000 -23.1515 0.0000
# 4 0.0000 0.0000 0.0000 27.1603 0.0000 -1.4113
# 5 -45.1978 -23.2676 -23.1515 0.0000 50.4709 0.0000
# 6 0.0000 0.0000 0.0000 -1.4113 0.0000 25.9176
#
#
#
# Elastic Compliance Matrix: (Units=1/GPa)
#
#
# Indices 1 2 3 4 5 6 
#
# 1 0.017194 0.000016 -0.003670 0.000000 0.013721 0.000000
# 2 0.000016 0.012761 0.000745 0.000000 0.006239 0.000000
# 3 -0.003670 0.000745 0.013329 0.000000 0.003171 0.000000
# 4 0.000000 0.000000 0.000000 0.036923 0.000000 0.002011
# 5 0.013721 0.006239 0.003171 0.000000 0.036432 0.000000
# 6 0.000000 0.000000 0.000000 0.002011 0.000000 0.038693
#
#
# Mechanical properties :
#
#
# Convention : Reuss Voigt Hill
#
# Bulk Modulus (GPa) = 26.69161 45.48563 36.08862
# Shear Modulus (GPa) = 28.79565 35.29002 32.04284
#
# Velocity S-wave (km/s) = 3.44748 3.81649 3.63667
# Velocity P-wave (km/s) = 5.18301 6.18018 5.70343
#
# Compressibility (1/GPa) = 0.03746496
#
# Stress axis : x y z
#
# Youngs Moduli (GPa) = 58.16070 78.36575 75.02708
#
# Poissons Ratio (x) = -0.00123 0.27532
# Poissons Ratio (y) = -0.00092 -0.05588
# Poissons Ratio (z) = 0.21343 -0.05837
#
# Static dielectric constant tensor:
#      x y z
#    x 2.048190 0.000000 0.047060 
#    y 0.000000 1.900900 0.000000 
#    z 0.047060 0.000000 1.977630 
# 
# From -- ./inp_files/13660.got.cif
#   From: 2010.05.17/outbox.cif.g08.bks.cpg/sg9_7_cif.got.tgz:13660.got - 2010.06.03 20:04:27.
