data_PCOD9137600
_publ_section_title
;
Structure prediction by ZEFSAII (Michael W. Deem and Ramdas Pophale) SiO2 
 PCOD9137600
Probable space group: C C
;
_chemical_formula_sum "Si O2"
_cell_formula_units_Z 28
_cell_length_a 18.252185
_cell_length_b 5.289150
_cell_length_c 12.474545
_cell_angle_alpha 90.000000
_cell_angle_beta 81.124927
_cell_angle_gamma 90.000000
_cell_volume 1189.855734
_symmetry_space_group_name_H-M "C C"
_symmetry_group_IT_number 9
_symmetry_cell_setting 'monoclinic'
loop_
_space_group_symop_operation_xyz
x,y,z
x,-y,1/2+z
1/2+x,1/2+y,z
1/2+x,1/2-y,1/2+z
loop_
_atom_site_type_symbol
_atom_site_label
_atom_site_fract_x
_atom_site_fract_y
_atom_site_fract_z
Si Si1 0.553430 0.542003 0.414190
Si Si2 0.271719 0.401484 0.298800
Si Si3 0.703873 0.405031 0.985544
Si Si4 0.497675 0.916626 0.279591
Si Si5 0.027419 0.566066 0.546093
Si Si6 0.337604 0.906251 0.348932
Si Si7 0.143662 0.416628 0.674956
O O1 0.640687 0.501559 0.416738
O O2 0.513503 0.305327 0.475789
O O3 0.528718 0.639806 0.303770
O O4 0.533690 0.798402 0.486070
O O5 0.230623 0.356634 0.422439
O O6 0.327915 0.632178 0.299553
O O7 0.210816 0.466644 0.224477
O O8 0.310543 0.130811 0.276499
O O9 0.778015 0.570471 0.959392
O O10 0.670240 0.335168 0.107964
O O11 0.570905 0.096207 0.268808
O O12 0.474384 0.936481 0.160608
O O13 0.422073 0.958690 0.360274
O O14 0.107335 0.589882 0.589686
#
# Coordination Sequence:
#
# PCOD9137600 Si02
#       7
#     4   4   4   4   4   4   4
#     4  11  21  41  68  95 128 175 226 270 327 387
#     4  10  22  43  64  93 129 181 207 277 325 405
#     4   9  21  41  66  93 132 168 222 274 318 405
#     4  10  22  45  67 100 134 182 214 287 328 398
#     4   9  24  38  67  98 128 162 234 272 315 395
#     4  10  24  41  64  92 142 163 222 269 344 381
#     4   9  20  43  70  95 125 179 229 265 329 393
#
# _framework density 23.532264000000001
#
# number of rings (size 3 to 8) (size 9 to 14) (size 15 to 20)
#    1.714    0.571    1.429    0.000    4.000    5.714 
#    2.571    0.000    0.000    0.000    0.000    0.000 
#    0.000    0.000    0.000    0.000    0.000    0.000 
#
# Total GULP energy -77973.977709 kJ/mol
# GULP energy per Si atom -5569.569836 kJ/mol
# Density = 2.347870 g / cm^3
# Si number density = 23.532264 Si / 1000 Ang^3
#
#
#
# Elastic Constant Matrix: (Units=GPa)
#
#
# Indices 1 2 3 4 5 6 
#
# 1 112.9968 4.1549 4.0761 0.0000 -15.2810 0.0000
# 2 4.1549 90.1381 7.4684 0.0000 -0.0963 0.0000
# 3 4.0761 7.4684 34.2601 0.0000 -3.9307 0.0000
# 4 0.0000 0.0000 0.0000 19.7674 0.0000 2.1737
# 5 -15.2810 -0.0963 -3.9307 0.0000 28.3496 0.0000
# 6 0.0000 0.0000 0.0000 2.1737 0.0000 24.3608
#
#
#
# Elastic Compliance Matrix: (Units=1/GPa)
#
#
# Indices 1 2 3 4 5 6 
#
# 1 0.009570 -0.000397 -0.000468 0.000000 0.005092 0.000000
# 2 -0.000397 0.011317 -0.002479 0.000000 -0.000519 0.000000
# 3 -0.000468 -0.002479 0.030236 0.000000 0.003932 0.000000
# 4 0.000000 0.000000 0.000000 0.051090 0.000000 -0.004559
# 5 0.005092 -0.000519 0.003932 0.000000 0.038562 0.000000
# 6 0.000000 0.000000 0.000000 -0.004559 0.000000 0.041456
#
#
# Mechanical properties :
#
#
# Convention : Reuss Voigt Hill
#
# Bulk Modulus (GPa) = 22.50505 29.86601 26.18553
# Shear Modulus (GPa) = 24.54221 29.27525 26.90873
#
# Velocity S-wave (km/s) = 3.23293 3.53093 3.38521
# Velocity P-wave (km/s) = 4.84974 5.41686 5.14113
#
# Compressibility (1/GPa) = 0.04443447
#
# Stress axis : x y z
#
# Youngs Moduli (GPa) = 104.49415 88.36062 33.07351
#
# Poissons Ratio (x) = 0.03507 0.01547
# Poissons Ratio (y) = 0.04148 0.08200
# Poissons Ratio (z) = 0.04889 0.21908
#
# Static dielectric constant tensor:
#      x y z
#    x 1.886300 0.000000 -0.016960 
#    y 0.000000 1.909210 0.000000 
#    z -0.016960 0.000000 2.040190 
# 
# From -- ./inp_files/26976.got.cif
#   From: 2010.05.17/outbox.cif.g08.bks.cpg/sg9_14_cif.got.tgz:26976.got - 2010.06.03 20:04:27.
