data_PCOD9137823
_publ_section_title
;
Structure prediction by ZEFSAII (Michael W. Deem and Ramdas Pophale) SiO2 
 PCOD9137823
Probable space group: C C
;
_chemical_formula_sum "Si O2"
_cell_formula_units_Z 28
_cell_length_a 10.625201
_cell_length_b 9.713281
_cell_length_c 14.782967
_cell_angle_alpha 90.000000
_cell_angle_beta 57.437158
_cell_angle_gamma 90.000000
_cell_volume 1285.849324
_symmetry_space_group_name_H-M "C C"
_symmetry_group_IT_number 9
_symmetry_cell_setting 'monoclinic'
loop_
_space_group_symop_operation_xyz
x,y,z
x,-y,1/2+z
1/2+x,1/2+y,z
1/2+x,1/2-y,1/2+z
loop_
_atom_site_type_symbol
_atom_site_label
_atom_site_fract_x
_atom_site_fract_y
_atom_site_fract_z
Si Si1 0.605880 0.620230 0.533920
Si Si2 0.759025 0.695448 0.664249
Si Si3 0.540174 0.259256 0.804895
Si Si4 0.109030 0.476781 0.722623
Si Si5 0.285900 0.065399 0.280289
Si Si6 0.541782 0.681355 0.102117
Si Si7 0.836123 0.820692 0.034679
O O1 0.685325 0.663721 0.595614
O O2 0.718678 0.589440 0.407156
O O3 0.524321 0.476037 0.584556
O O4 0.471498 0.717421 0.550416
O O5 0.684997 0.837819 0.727727
O O6 0.739543 0.573320 0.744375
O O7 0.935796 0.724792 0.582071
O O8 0.707862 0.314334 0.752823
O O9 0.487539 0.283748 0.723927
O O10 0.549799 0.094658 0.815082
O O11 0.436856 0.351434 0.908176
O O12 0.229935 0.559662 0.614765
O O13 0.963194 0.436096 0.721883
O O14 0.717948 0.711202 0.041047
#
# Coordination Sequence:
#
# PCOD9137823 Si02
#       7
#     4   4   4   4   4   4   4
#     4  11  25  44  69 102 141 184 234 288 349 421
#     4  12  25  42  72 103 136 184 233 294 344 408
#     4  10  22  44  71  97 140 190 224 293 346 423
#     4  11  24  43  71 104 139 180 242 288 344 423
#     4  11  24  46  70 101 143 187 231 287 359 413
#     4  11  22  41  70  95 139 180 228 291 350 408
#     4  10  22  44  71  96 140 183 234 275 356 416
#
# _framework density 21.775493000000001
#
# number of rings (size 3 to 8) (size 9 to 14) (size 15 to 20)
#    0.000    1.143    5.714    0.857    4.000    1.143 
#    0.000    1.429    0.000    0.000    0.000    0.000 
#    0.000    0.000    0.000    0.000    0.000    0.000 
#
# Total GULP energy -78031.503055 kJ/mol
# GULP energy per Si atom -5573.678790 kJ/mol
# Density = 2.172593 g / cm^3
# Si number density = 21.775493 Si / 1000 Ang^3
#
#
#
# Elastic Constant Matrix: (Units=GPa)
#
#
# Indices 1 2 3 4 5 6 
#
# 1 162.8394 25.7638 34.4794 0.0000 -11.5829 0.0000
# 2 25.7638 71.2205 -1.2105 0.0000 -1.3381 0.0000
# 3 34.4794 -1.2105 66.5286 0.0000 -14.6083 0.0000
# 4 0.0000 0.0000 0.0000 8.6050 0.0000 -1.5695
# 5 -11.5829 -1.3381 -14.6083 0.0000 11.2591 0.0000
# 6 0.0000 0.0000 0.0000 -1.5695 0.0000 45.7155
#
#
#
# Elastic Compliance Matrix: (Units=1/GPa)
#
#
# Indices 1 2 3 4 5 6 
#
# 1 0.007478 -0.002700 -0.003225 0.000000 0.003188 0.000000
# 2 -0.002700 0.015083 0.002038 0.000000 0.001659 0.000000
# 3 -0.003225 0.002038 0.022464 0.000000 0.026072 0.000000
# 4 0.000000 0.000000 0.000000 0.116943 0.000000 0.004015
# 5 0.003188 0.001659 0.026072 0.000000 0.126122 0.000000
# 6 0.000000 0.000000 0.000000 0.004015 0.000000 0.022012
#
#
# Mechanical properties :
#
#
# Convention : Reuss Voigt Hill
#
# Bulk Modulus (GPa) = 26.84373 46.51708 36.68041
# Shear Modulus (GPa) = 15.13810 29.21964 22.17887
#
# Velocity S-wave (km/s) = 2.63951 3.66711 3.19490
# Velocity P-wave (km/s) = 4.65227 6.27206 5.52188
#
# Compressibility (1/GPa) = 0.03725265
#
# Stress axis : x y z
#
# Youngs Moduli (GPa) = 133.73060 66.29801 44.51534
#
# Poissons Ratio (x) = 0.17900 0.14354
# Poissons Ratio (y) = 0.36106 -0.09073
# Poissons Ratio (z) = 0.43121 -0.13512
#
# Static dielectric constant tensor:
#      x y z
#    x 1.820760 0.000000 -0.028660 
#    y 0.000000 1.799280 0.000000 
#    z -0.028660 0.000000 1.825320 
# 
# From -- ./inp_files/22687.got.cif
#   From: 2010.05.17/outbox.cif.g08.bks.cpg/sg9_12_cif.got.tgz:22687.got - 2010.06.03 20:04:27.
