data_PCOD9137499
_publ_section_title
;
Structure prediction by ZEFSAII (Michael W. Deem and Ramdas Pophale) SiO2 
 PCOD9137499
Probable space group: C C
;
_chemical_formula_sum "Si O2"
_cell_formula_units_Z 32
_cell_length_a 22.654417
_cell_length_b 11.655951
_cell_length_c 10.014413
_cell_angle_alpha 90.000000
_cell_angle_beta 26.849761
_cell_angle_gamma 90.000000
_cell_volume 1194.347190
_symmetry_space_group_name_H-M "C C"
_symmetry_group_IT_number 9
_symmetry_cell_setting 'monoclinic'
loop_
_space_group_symop_operation_xyz
x,y,z
x,-y,1/2+z
1/2+x,1/2+y,z
1/2+x,1/2-y,1/2+z
loop_
_atom_site_type_symbol
_atom_site_label
_atom_site_fract_x
_atom_site_fract_y
_atom_site_fract_z
Si Si1 0.658700 0.375710 0.952080
Si Si2 0.539441 0.965298 0.366645
Si Si3 0.390413 0.757637 0.577169
Si Si4 0.181225 0.483897 0.833123
Si Si5 0.941878 0.194670 0.047776
Si Si6 0.687289 0.724462 0.731898
Si Si7 0.448490 0.482108 0.846657
Si Si8 0.281330 0.098447 0.801212
O O1 0.799760 0.319681 0.646084
O O2 0.685632 0.484475 0.001655
O O3 0.558630 0.276163 0.202134
O O4 0.568145 0.449399 0.034345
O O5 0.506690 0.838125 0.388236
O O6 0.572071 0.969953 0.454606
O O7 0.414005 0.037165 0.577861
O O8 0.652088 0.013759 0.044381
O O9 0.454475 0.638921 0.407640
O O10 0.287073 0.759573 0.907402
O O11 0.179640 0.348551 0.813367
O O12 0.322650 0.529264 0.507237
O O13 0.039896 0.193615 0.977565
O O14 0.816525 0.278107 0.300899
O O15 0.910055 0.074119 0.041072
O O16 0.751047 0.638584 0.710732
#
# Coordination Sequence:
#
# PCOD9137499 Si02
#       8
#     4   4   4   4   4   4   4   4
#     4   8  21  40  64  94 131 180 242 280 365 418
#     4  11  26  45  72 109 140 191 250 296 367 448
#     4  10  22  45  68  96 144 189 238 304 358 434
#     4  12  24  43  71 106 145 190 241 303 368 439
#     4   9  20  40  62  96 132 178 233 289 356 422
#     4  11  21  41  68 101 142 186 238 298 371 428
#     4  10  22  42  67  99 143 184 241 298 361 435
#     4  11  20  42  70  93 139 184 231 302 356 430
#
# _framework density 26.792878999999999
#
# number of rings (size 3 to 8) (size 9 to 14) (size 15 to 20)
#    0.750    1.000    2.500    1.500    3.500    0.000 
#    9.000    2.500    0.000    0.000    0.000    0.000 
#    0.000    0.000    0.000    0.000    0.000    0.000 
#
# Total GULP energy -89122.141211 kJ/mol
# GULP energy per Si atom -5570.133826 kJ/mol
# Density = 2.673190 g / cm^3
# Si number density = 26.792879 Si / 1000 Ang^3
#
#
#
# Elastic Constant Matrix: (Units=GPa)
#
#
# Indices 1 2 3 4 5 6 
#
# 1 58.2940 1.5037 -11.0165 0.0000 -1.6939 0.0000
# 2 1.5037 141.3069 -13.5856 0.0000 -2.6346 0.0000
# 3 -11.0165 -13.5856 45.9533 0.0000 -4.9880 0.0000
# 4 0.0000 0.0000 0.0000 842.9782 0.0000 83.9845
# 5 -1.6939 -2.6346 -4.9880 0.0000 46.7827 0.0000
# 6 0.0000 0.0000 0.0000 83.9845 0.0000 34.5875
#
#
#
# Elastic Compliance Matrix: (Units=1/GPa)
#
#
# Indices 1 2 3 4 5 6 
#
# 1 0.018037 0.000265 0.004527 0.000000 0.001151 0.000000
# 2 0.000265 0.007307 0.002296 0.000000 0.000666 0.000000
# 3 0.004527 0.002296 0.023833 0.000000 0.002834 0.000000
# 4 0.000000 0.000000 0.000000 0.001565 0.000000 -0.003800
# 5 0.001151 0.000666 0.002834 0.000000 0.021757 0.000000
# 6 0.000000 0.000000 0.000000 -0.003800 0.000000 0.038138
#
#
# Mechanical properties :
#
#
# Convention : Reuss Voigt Hill
#
# Bulk Modulus (GPa) = 15.78467 22.15080 18.96773
# Shear Modulus (GPa) = 42.52482 202.77985 122.65234
#
# Velocity S-wave (km/s) = 3.98825 8.70911 6.77328
# Velocity P-wave (km/s) = 5.20695 10.46025 8.26224
#
# Compressibility (1/GPa) = 0.06335262
#
# Stress axis : x y z
#
# Youngs Moduli (GPa) = 55.44290 136.85241 41.95865
#
# Poissons Ratio (x) = -0.03623 -0.18995
# Poissons Ratio (y) = -0.01468 -0.09634
# Poissons Ratio (z) = -0.25100 -0.31422
#
# Static dielectric constant tensor:
#      x y z
#    x 2.173600 0.000000 0.036630 
#    y 0.000000 -1.316230 0.000000 
#    z 0.036630 0.000000 2.345190 
# 
# From -- ./inp_files/20899.got.cif
#   From: 2010.05.17/outbox.cif.g08.bks.cpg/sg9_11_cif.got.tgz:20899.got - 2010.06.03 20:04:27.
