data_PCOD9137440
_publ_section_title
;
Structure prediction by ZEFSAII (Michael W. Deem and Ramdas Pophale) SiO2 
 PCOD9137440
Probable space group: C C
;
_chemical_formula_sum "Si O2"
_cell_formula_units_Z 32
_cell_length_a 19.960958
_cell_length_b 12.157990
_cell_length_c 14.347564
_cell_angle_alpha 90.000000
_cell_angle_beta 21.939335
_cell_angle_gamma 90.000000
_cell_volume 1300.938860
_symmetry_space_group_name_H-M "C C"
_symmetry_group_IT_number 9
_symmetry_cell_setting 'monoclinic'
loop_
_space_group_symop_operation_xyz
x,y,z
x,-y,1/2+z
1/2+x,1/2+y,z
1/2+x,1/2-y,1/2+z
loop_
_atom_site_type_symbol
_atom_site_label
_atom_site_fract_x
_atom_site_fract_y
_atom_site_fract_z
Si Si1 0.007230 0.153587 0.357380
Si Si2 0.158838 0.130320 0.342264
Si Si3 0.645837 0.656412 0.560059
Si Si4 0.780703 0.985658 0.552715
Si Si5 0.167081 0.123381 0.855506
Si Si6 0.043064 0.711279 0.372160
Si Si7 0.033194 0.620496 0.746316
Si Si8 0.313032 0.055719 0.866707
O O1 0.023213 0.182226 0.443626
O O2 0.084075 0.254088 0.198427
O O3 0.159802 0.062232 0.143998
O O4 0.831035 0.094528 0.547075
O O5 0.149694 0.197650 0.449388
O O6 0.106686 0.001838 0.419563
O O7 0.358804 0.121330 0.040507
O O8 0.640755 0.732965 0.657049
O O9 0.815414 0.573191 0.342715
O O10 0.461141 0.583320 0.800542
O O11 0.647356 0.897876 0.770915
O O12 0.679118 0.034461 0.593885
O O13 0.031503 0.202943 0.973680
O O14 0.355601 0.168109 0.571980
O O15 0.232672 0.115030 0.879179
O O16 0.980968 0.601708 0.706373
#
# Coordination Sequence:
#
# PCOD9137440 Si02
#       8
#     4   4   4   4   4   4   4   4
#     4  10  22  42  64  88 128 170 215 275 326 387
#     4  10  22  44  65  88 131 174 216 259 332 392
#     4  10  23  43  63  92 132 175 207 268 335 396
#     4  11  22  40  65  98 126 169 225 274 326 391
#     4  11  23  41  64  94 128 173 210 273 325 395
#     4  12  23  40  67  94 136 172 218 274 336 386
#     4  11  21  41  67  90 126 168 222 274 320 387
#     4   9  22  41  63  90 127 169 213 261 332 388
#
# _framework density 24.597621
#
# number of rings (size 3 to 8) (size 9 to 14) (size 15 to 20)
#    0.000    1.500    2.500    3.750    1.750    1.000 
#    4.500    0.000    0.000    0.000    0.000    0.000 
#    0.000    0.000    0.000    0.000    0.000    0.000 
#
# Total GULP energy -89160.635529 kJ/mol
# GULP energy per Si atom -5572.539721 kJ/mol
# Density = 2.454164 g / cm^3
# Si number density = 24.597621 Si / 1000 Ang^3
#
#
#
# Elastic Constant Matrix: (Units=GPa)
#
#
# Indices 1 2 3 4 5 6 
#
# 1 172.3602 32.0885 0.7134 0.0000 -1.2674 -0.0001
# 2 32.0885 58.0151 1.5038 0.0001 3.9730 0.0000
# 3 0.7134 1.5038 22.8005 0.0001 -9.4532 0.0000
# 4 0.0000 0.0001 0.0001 32.1586 0.0000 -14.8517
# 5 -1.2674 3.9730 -9.4532 0.0000 27.1890 0.0000
# 6 -0.0001 0.0000 0.0000 -14.8517 0.0000 18.3036
#
#
#
# Elastic Compliance Matrix: (Units=1/GPa)
#
#
# Indices 1 2 3 4 5 6 
#
# 1 0.006490 -0.003670 0.000452 0.000000 0.000996 0.000000
# 2 -0.003670 0.019616 -0.002849 0.000000 -0.004028 0.000000
# 3 0.000452 -0.002849 0.051661 0.000000 0.018399 0.000000
# 4 0.000000 0.000000 0.000000 0.049732 0.000000 0.040353
# 5 0.000996 -0.004028 0.018399 0.000000 0.043812 0.000000
# 6 0.000000 0.000000 0.000000 0.040353 0.000000 0.087377
#
#
# Mechanical properties :
#
#
# Convention : Reuss Voigt Hill
#
# Bulk Modulus (GPa) = 15.23610 35.75414 25.49512
# Shear Modulus (GPa) = 17.08233 30.12157 23.60195
#
# Velocity S-wave (km/s) = 2.63814 3.50319 3.10098
# Velocity P-wave (km/s) = 3.93539 5.56150 4.81755
#
# Compressibility (1/GPa) = 0.06563361
#
# Stress axis : x y z
#
# Youngs Moduli (GPa) = 154.07194 50.97774 19.35704
#
# Poissons Ratio (x) = 0.18708 -0.00875
# Poissons Ratio (y) = 0.56542 0.05515
# Poissons Ratio (z) = -0.06962 0.14524
#
# Static dielectric constant tensor:
#      x y z
#    x 2.029840 0.000000 0.013520 
#    y 0.000000 2.260280 0.000000 
#    z 0.013520 0.000000 2.063280 
# 
# From -- ./inp_files/9287.got.cif
#   From: 2010.05.17/outbox.cif.g08.bks.cpg/sg9_5_cif.got.tgz:9287.got - 2010.06.03 20:04:27.
