data_PCOD9137603
_publ_section_title
;
Structure prediction by ZEFSAII (Michael W. Deem and Ramdas Pophale) SiO2 
 PCOD9137603
Probable space group: C C
;
_chemical_formula_sum "Si O2"
_cell_formula_units_Z 32
_cell_length_a 30.953881
_cell_length_b 7.004865
_cell_length_c 18.442647
_cell_angle_alpha 90.000000
_cell_angle_beta 20.150835
_cell_angle_gamma 90.000000
_cell_volume 1377.584446
_symmetry_space_group_name_H-M "C C"
_symmetry_group_IT_number 9
_symmetry_cell_setting 'monoclinic'
loop_
_space_group_symop_operation_xyz
x,y,z
x,-y,1/2+z
1/2+x,1/2+y,z
1/2+x,1/2-y,1/2+z
loop_
_atom_site_type_symbol
_atom_site_label
_atom_site_fract_x
_atom_site_fract_y
_atom_site_fract_z
Si Si1 0.951200 0.296624 0.289400
Si Si2 0.425983 0.998674 0.049083
Si Si3 0.144302 0.792426 0.255665
Si Si4 0.279509 0.767789 0.900865
Si Si5 0.739813 0.192547 0.345288
Si Si6 0.925409 0.913181 0.682456
Si Si7 0.516510 0.875455 0.767084
Si Si8 0.827043 0.042486 0.067303
O O1 0.936472 0.237270 0.229279
O O2 0.948966 0.523894 0.305625
O O3 0.860142 0.158256 0.478245
O O4 0.096096 0.261076 0.082425
O O5 0.371038 0.130015 0.199052
O O6 0.303823 0.884117 0.214464
O O7 0.489738 0.039077 0.871058
O O8 0.534543 0.859461 0.908214
O O9 0.061244 0.943385 0.431456
O O10 0.208610 0.867967 0.080461
O O11 0.236555 0.672081 0.160707
O O12 0.365713 0.609088 0.803648
O O13 0.164025 0.670264 0.038119
O O14 0.823214 0.154248 0.284454
O O15 0.763916 0.032824 0.246060
O O16 0.452094 0.670628 0.880726
#
# Coordination Sequence:
#
# PCOD9137603 Si02
#       8
#     4   4   4   4   4   4   4   4
#     4  12  23  41  70  98 132 182 225 275 351 406
#     4   9  22  42  68  98 130 181 226 275 347 404
#     4  10  22  43  64  97 141 169 224 289 333 407
#     4  11  21  45  67  98 137 175 231 286 339 407
#     4  10  22  43  65  90 139 170 222 286 329 401
#     4  11  23  41  67  99 134 175 223 281 341 402
#     4  10  24  42  67 100 134 176 235 280 335 420
#     4  11  23  43  64  96 137 176 220 286 341 399
#
# _framework density 23.229067000000001
#
# number of rings (size 3 to 8) (size 9 to 14) (size 15 to 20)
#    0.000    1.500    3.750    1.500    1.750    2.000 
#    2.250    0.000    0.000    0.000    0.000    0.000 
#    0.000    0.000    0.000    0.000    0.000    0.000 
#
# Total GULP energy -89160.068823 kJ/mol
# GULP energy per Si atom -5572.504301 kJ/mol
# Density = 2.317620 g / cm^3
# Si number density = 23.229067 Si / 1000 Ang^3
#
#
#
# Elastic Constant Matrix: (Units=GPa)
#
#
# Indices 1 2 3 4 5 6 
#
# 1 91.2029 -2.3296 29.2356 -0.0001 12.0985 0.0000
# 2 -2.3296 15.3635 10.4860 -0.0002 3.5815 0.0000
# 3 29.2356 10.4860 97.9970 -0.0001 -5.7074 0.0000
# 4 -0.0001 -0.0002 -0.0001 36.6751 0.0000 8.9174
# 5 12.0985 3.5815 -5.7074 0.0000 37.0656 0.0000
# 6 0.0000 0.0000 0.0000 8.9174 0.0000 29.3480
#
#
#
# Elastic Compliance Matrix: (Units=1/GPa)
#
#
# Indices 1 2 3 4 5 6 
#
# 1 0.013568 0.006933 -0.005133 0.000000 -0.005889 0.000000
# 2 0.006933 0.076201 -0.010880 0.000000 -0.011302 0.000000
# 3 -0.005133 -0.010880 0.013177 0.000000 0.004756 0.000000
# 4 0.000000 0.000000 0.000000 0.029442 0.000000 -0.008946
# 5 -0.005889 -0.011302 0.004756 0.000000 0.030726 0.000000
# 6 0.000000 0.000000 0.000000 -0.008946 0.000000 0.036792
#
#
# Mechanical properties :
#
#
# Convention : Reuss Voigt Hill
#
# Bulk Modulus (GPa) = 11.79428 31.03861 21.41645
# Shear Modulus (GPa) = 20.29818 31.76252 26.03035
#
# Velocity S-wave (km/s) = 2.95926 3.70180 3.35116
# Velocity P-wave (km/s) = 4.09447 5.62690 4.92071
#
# Compressibility (1/GPa) = 0.08478683
#
# Stress axis : x y z
#
# Youngs Moduli (GPa) = 73.70184 13.12314 75.89065
#
# Poissons Ratio (x) = -0.09099 0.38952
# Poissons Ratio (y) = -0.51101 0.82573
# Poissons Ratio (z) = 0.37829 0.14279
#
# Static dielectric constant tensor:
#      x y z
#    x 1.973890 0.000000 0.111160 
#    y 0.000000 1.983650 0.000000 
#    z 0.111160 0.000000 1.952560 
# 
# From -- ./inp_files/24203.got.cif
#   From: 2010.05.17/outbox.cif.g08.bks.cpg/sg9_13_cif.got.tgz:24203.got - 2010.06.03 20:04:27.
