data_PCOD9137061
_publ_section_title
;
Structure prediction by ZEFSAII (Michael W. Deem and Ramdas Pophale) SiO2 
 PCOD9137061
Probable space group: C C
;
_chemical_formula_sum "Si O2"
_cell_formula_units_Z 32
_cell_length_a 8.211541
_cell_length_b 16.522680
_cell_length_c 14.403400
_cell_angle_alpha 90.000000
_cell_angle_beta 127.944152
_cell_angle_gamma 90.000000
_cell_volume 1541.106760
_symmetry_space_group_name_H-M "C C"
_symmetry_group_IT_number 9
_symmetry_cell_setting 'monoclinic'
loop_
_space_group_symop_operation_xyz
x,y,z
x,-y,1/2+z
1/2+x,1/2+y,z
1/2+x,1/2-y,1/2+z
loop_
_atom_site_type_symbol
_atom_site_label
_atom_site_fract_x
_atom_site_fract_y
_atom_site_fract_z
Si Si1 0.986600 0.568044 0.855100
Si Si2 0.885475 0.001836 0.917938
Si Si3 0.277620 0.292136 0.041017
Si Si4 0.470574 0.599198 0.270806
Si Si5 0.077026 0.672690 0.059242
Si Si6 0.758027 0.382579 0.587953
Si Si7 0.510106 0.437474 0.160673
Si Si8 0.897199 0.393207 0.848411
O O1 0.753114 0.582604 0.740064
O O2 0.967995 0.482689 0.904187
O O3 0.166155 0.548160 0.844158
O O4 0.053009 0.638881 0.947653
O O5 0.903896 0.933289 0.847189
O O6 0.072999 0.065611 0.980578
O O7 0.922686 0.959667 0.029671
O O8 0.457685 0.256722 0.036352
O O9 0.202628 0.212444 0.068317
O O10 0.383338 0.358005 0.144911
O O11 0.085673 0.331822 0.921267
O O12 0.311527 0.663855 0.173617
O O13 0.472805 0.516200 0.210407
O O14 0.702989 0.631472 0.342841
O O15 0.950649 0.613140 0.085132
O O16 0.820800 0.403980 0.714906
#
# Coordination Sequence:
#
# PCOD9137061 Si02
#       8
#     4   4   4   4   4   4   4   4
#     4  11  21  41  70  90 133 167 233 268 326 399
#     4  12  22  42  67 101 126 174 227 278 323 401
#     4  10  25  39  66  96 137 173 220 271 354 397
#     4  11  23  40  73  93 133 174 233 271 331 393
#     4  10  22  40  64  98 126 178 209 277 334 406
#     4  10  22  38  64  93 133 167 220 269 337 393
#     4  11  23  43  66  98 126 178 223 273 328 407
#     4  11  20  43  64  95 130 179 217 285 321 404
#
# _framework density 20.764298
#
# number of rings (size 3 to 8) (size 9 to 14) (size 15 to 20)
#    0.750    0.500    5.000    2.250    1.750    0.000 
#    2.250    1.250    0.000    0.000    0.000    0.000 
#    0.000    0.000    0.000    0.000    0.000    0.000 
#
# Total GULP energy -89237.572778 kJ/mol
# GULP energy per Si atom -5577.348299 kJ/mol
# Density = 2.071704 g / cm^3
# Si number density = 20.764298 Si / 1000 Ang^3
#
#
#
# Elastic Constant Matrix: (Units=GPa)
#
#
# Indices 1 2 3 4 5 6 
#
# 1 57.5728 -14.1579 4.3439 0.0000 26.4717 0.0000
# 2 -14.1579 62.2945 4.9709 0.0000 18.2887 0.0000
# 3 4.3439 4.9709 62.3151 0.0000 17.0148 0.0000
# 4 0.0000 0.0000 0.0000 19.0194 0.0000 9.2668
# 5 26.4717 18.2887 17.0148 0.0000 45.7627 0.0000
# 6 0.0000 0.0000 0.0000 9.2668 0.0000 37.3894
#
#
#
# Elastic Compliance Matrix: (Units=1/GPa)
#
#
# Indices 1 2 3 4 5 6 
#
# 1 0.032877 0.014914 0.003716 0.000000 -0.026360 0.000000
# 2 0.014914 0.024972 0.002280 0.000000 -0.019455 0.000000
# 3 0.003716 0.002280 0.018300 0.000000 -0.009865 0.000000
# 4 0.000000 0.000000 0.000000 0.059799 0.000000 -0.014821
# 5 -0.026360 -0.019455 -0.009865 0.000000 0.048543 0.000000
# 6 0.000000 0.000000 0.000000 -0.014821 0.000000 0.030419
#
#
# Mechanical properties :
#
#
# Convention : Reuss Voigt Hill
#
# Bulk Modulus (GPa) = 8.47678 19.16626 13.82152
# Shear Modulus (GPa) = 23.53921 32.90264 28.22093
#
# Velocity S-wave (km/s) = 3.37061 3.98499 3.69061
# Velocity P-wave (km/s) = 4.38626 5.51580 4.98313
#
# Compressibility (1/GPa) = 0.11796939
#
# Stress axis : x y z
#
# Youngs Moduli (GPa) = 30.41685 40.04480 54.64456
#
# Poissons Ratio (x) = -0.59723 -0.20305
# Poissons Ratio (y) = -0.45364 -0.12461
# Poissons Ratio (z) = -0.11302 -0.09132
#
# Static dielectric constant tensor:
#      x y z
#    x 1.784860 0.000000 0.017430 
#    y 0.000000 1.775330 0.000000 
#    z 0.017430 0.000000 1.733020 
# 
# From -- ./inp_files/15104.got.cif
#   From: 2010.05.17/outbox.cif.g08.bks.cpg/sg9_8_cif.got.tgz:15104.got - 2010.06.03 20:04:27.
