data_PCOD9137217
_publ_section_title
;
Structure prediction by ZEFSAII (Michael W. Deem and Ramdas Pophale) SiO2 
 PCOD9137217
Probable space group: C C
;
_chemical_formula_sum "Si O2"
_cell_formula_units_Z 28
_cell_length_a 5.596491
_cell_length_b 29.774066
_cell_length_c 7.781919
_cell_angle_alpha 90.000000
_cell_angle_beta 60.829496
_cell_angle_gamma 90.000000
_cell_volume 1132.246578
_symmetry_space_group_name_H-M "C C"
_symmetry_group_IT_number 9
_symmetry_cell_setting 'monoclinic'
loop_
_space_group_symop_operation_xyz
x,y,z
x,-y,1/2+z
1/2+x,1/2+y,z
1/2+x,1/2-y,1/2+z
loop_
_atom_site_type_symbol
_atom_site_label
_atom_site_fract_x
_atom_site_fract_y
_atom_site_fract_z
Si Si1 0.905400 0.810060 0.461000
Si Si2 0.886236 0.556042 0.965862
Si Si3 0.276546 0.205546 0.500689
Si Si4 0.871734 0.064082 0.392759
Si Si5 0.935014 0.657405 0.918035
Si Si6 0.630248 0.010707 0.178787
Si Si7 0.293809 0.669876 0.472575
O O1 0.815994 0.758570 0.508583
O O2 0.631014 0.837683 0.514258
O O3 0.100822 0.813626 0.222551
O O4 0.122831 0.825260 0.529446
O O5 0.645066 0.557838 0.187550
O O6 0.129207 0.539089 0.004609
O O7 0.917219 0.605080 0.880731
O O8 0.867659 0.519783 0.821433
O O9 0.582819 0.185171 0.398291
O O10 0.080982 0.194614 0.408055
O O11 0.839098 0.030723 0.566248
O O12 0.841555 0.116410 0.446272
O O13 0.658030 0.045478 0.325388
O O14 0.108151 0.681111 0.706724
#
# Coordination Sequence:
#
# PCOD9137217 Si02
#       7
#     4   4   4   4   4   4   4
#     4  10  22  40  65  93 131 171 218 272 339 396
#     4  11  23  41  66  95 132 178 229 273 345 393
#     4  10  22  40  65  93 131 171 218 272 339 396
#     4  11  23  41  66  95 132 178 229 273 345 393
#     4  10  22  41  64  95 132 174 218 280 330 399
#     4  10  24  44  62  96 134 172 234 282 334 398
#     4  10  22  41  64  95 132 174 218 280 330 399
#
# _framework density 24.729596999999998
#
# number of rings (size 3 to 8) (size 9 to 14) (size 15 to 20)
#    0.000    1.714    1.429    1.714    4.000    2.286 
#    0.000    0.000    0.000    0.000    0.000    0.000 
#    0.000    0.000    0.000    0.000    0.000    0.000 
#
# Total GULP energy -78139.372539 kJ/mol
# GULP energy per Si atom -5581.383753 kJ/mol
# Density = 2.467331 g / cm^3
# Si number density = 24.729597 Si / 1000 Ang^3
#
#
#
# Elastic Constant Matrix: (Units=GPa)
#
#
# Indices 1 2 3 4 5 6 
#
# 1 160.1163 52.4057 14.3748 0.0000 -15.7213 0.0000
# 2 52.4057 108.1289 -21.0300 0.0000 -11.4078 0.0000
# 3 14.3748 -21.0300 59.9683 0.0000 8.7450 0.0000
# 4 0.0000 0.0000 0.0000 26.5353 0.0000 1.2168
# 5 -15.7213 -11.4078 8.7450 0.0000 39.5126 0.0000
# 6 0.0000 0.0000 0.0000 1.2168 0.0000 31.0601
#
#
#
# Elastic Compliance Matrix: (Units=1/GPa)
#
#
# Indices 1 2 3 4 5 6 
#
# 1 0.008377 -0.004535 -0.004023 0.000000 0.002914 0.000000
# 2 -0.004535 0.012563 0.005401 0.000000 0.000627 0.000000
# 3 -0.004023 0.005401 0.020192 0.000000 -0.004510 0.000000
# 4 0.000000 0.000000 0.000000 0.037753 0.000000 -0.001479
# 5 0.002914 0.000627 -0.004510 0.000000 0.027647 0.000000
# 6 0.000000 0.000000 0.000000 -0.001479 0.000000 0.032254
#
#
# Mechanical properties :
#
#
# Convention : Reuss Voigt Hill
#
# Bulk Modulus (GPa) = 28.72146 46.63495 37.67821
# Shear Modulus (GPa) = 31.90681 38.25247 35.07964
#
# Velocity S-wave (km/s) = 3.59587 3.93724 3.77042
# Velocity P-wave (km/s) = 5.37399 6.29031 5.85012
#
# Compressibility (1/GPa) = 0.03481717
#
# Stress axis : x y z
#
# Youngs Moduli (GPa) = 119.37238 79.59964 49.52514
#
# Poissons Ratio (x) = 0.36099 0.19926
# Poissons Ratio (y) = 0.54137 -0.26750
# Poissons Ratio (z) = 0.48029 -0.42994
#
# Static dielectric constant tensor:
#      x y z
#    x 2.079120 0.000000 0.011440 
#    y 0.000000 1.861650 0.000000 
#    z 0.011440 0.000000 2.061830 
# 
# From -- ./inp_files/4135.got.cif
#   From: 2010.05.17/outbox.cif.g08.bks.cpg/sg9_3_cif.got.tgz:4135.got - 2010.06.03 20:04:27.
