data_PCOD9137668
_publ_section_title
;
Structure prediction by ZEFSAII (Michael W. Deem and Ramdas Pophale) SiO2 
 PCOD9137668
Probable space group: C C
;
_chemical_formula_sum "Si O2"
_cell_formula_units_Z 32
_cell_length_a 26.618935
_cell_length_b 11.097036
_cell_length_c 15.165036
_cell_angle_alpha 90.000000
_cell_angle_beta 18.731391
_cell_angle_gamma 90.000000
_cell_volume 1438.548672
_symmetry_space_group_name_H-M "C C"
_symmetry_group_IT_number 9
_symmetry_cell_setting 'monoclinic'
loop_
_space_group_symop_operation_xyz
x,y,z
x,-y,1/2+z
1/2+x,1/2+y,z
1/2+x,1/2-y,1/2+z
loop_
_atom_site_type_symbol
_atom_site_label
_atom_site_fract_x
_atom_site_fract_y
_atom_site_fract_z
Si Si1 0.930790 0.119962 0.845760
Si Si2 0.265528 0.836465 0.194087
Si Si3 0.966531 0.176647 0.084794
Si Si4 0.951333 0.042245 0.475721
Si Si5 0.919602 0.437378 0.505335
Si Si6 0.249166 0.105987 0.907389
Si Si7 0.717503 0.777508 0.296625
Si Si8 0.724783 0.929193 0.111025
O O1 0.071201 0.190505 0.564247
O O2 0.863491 0.217564 0.023566
O O3 0.971829 0.010624 0.842614
O O4 0.794123 0.062790 0.013179
O O5 0.146895 0.833815 0.310860
O O6 0.182004 0.839092 0.427681
O O7 0.381172 0.950551 0.005413
O O8 0.900577 0.308270 0.170504
O O9 0.870701 0.143107 0.330843
O O10 0.935177 0.068594 0.068559
O O11 0.799022 0.127841 0.729728
O O12 0.122509 0.106497 0.196354
O O13 0.091617 0.428043 0.258200
O O14 0.815270 0.475389 0.765885
O O15 0.857967 0.319746 0.558523
O O16 0.675380 0.859523 0.282348
#
# Coordination Sequence:
#
# PCOD9137668 Si02
#       8
#     4   4   4   4   4   4   4   4
#     4  11  22  46  68  97 143 176 236 283 343 417
#     4  10  23  42  69  94 134 188 219 289 347 404
#     4  12  24  43  68 100 140 181 234 282 350 410
#     4  11  23  43  69 102 139 186 224 286 345 405
#     4  10  22  44  67  98 139 179 227 283 348 407
#     4  10  22  43  69  97 139 181 225 285 342 410
#     4  11  24  43  70  98 137 186 227 284 348 408
#     4  11  26  42  68 106 137 181 236 288 339 421
#
# _framework density 22.24464
#
# number of rings (size 3 to 8) (size 9 to 14) (size 15 to 20)
#    0.750    0.500    2.500    3.750    1.750    5.000 
#    0.000    0.000    0.000    0.000    0.000    0.000 
#    0.000    0.000    0.000    0.000    0.000    0.000 
#
# Total GULP energy -89111.638449 kJ/mol
# GULP energy per Si atom -5569.477403 kJ/mol
# Density = 2.219401 g / cm^3
# Si number density = 22.244640 Si / 1000 Ang^3
#
#
#
# Elastic Constant Matrix: (Units=GPa)
#
#
# Indices 1 2 3 4 5 6 
#
# 1 62.7638 25.8186 19.6046 -0.0001 -29.2165 0.0001
# 2 25.8186 85.3309 31.2428 -0.0003 -22.5077 0.0001
# 3 19.6046 31.2428 58.5314 -0.0001 -13.5832 0.0001
# 4 -0.0001 -0.0003 -0.0001 40.8473 0.0001 -6.4435
# 5 -29.2165 -22.5077 -13.5832 0.0001 32.9302 0.0000
# 6 0.0001 0.0001 0.0001 -6.4435 0.0000 28.8158
#
#
#
# Elastic Compliance Matrix: (Units=1/GPa)
#
#
# Indices 1 2 3 4 5 6 
#
# 1 0.028056 -0.001252 -0.003484 0.000000 0.022599 0.000000
# 2 -0.001252 0.016493 -0.006664 0.000000 0.007413 0.000000
# 3 -0.003484 -0.006664 0.022155 0.000000 0.001493 0.000000
# 4 0.000000 0.000000 0.000000 0.025377 0.000000 0.005674
# 5 0.022599 0.007413 0.001493 0.000000 0.056100 0.000000
# 6 0.000000 0.000000 0.000000 0.005674 0.000000 0.035972
#
#
# Mechanical properties :
#
#
# Convention : Reuss Voigt Hill
#
# Bulk Modulus (GPa) = 22.77712 39.99535 31.38623
# Shear Modulus (GPa) = 22.56430 29.18265 25.87347
#
# Velocity S-wave (km/s) = 3.18837 3.62594 3.41417
# Velocity P-wave (km/s) = 4.88015 5.96227 5.44815
#
# Compressibility (1/GPa) = 0.04390371
#
# Stress axis : x y z
#
# Youngs Moduli (GPa) = 35.64302 60.63066 45.13589
#
# Poissons Ratio (x) = 0.07593 0.15726
# Poissons Ratio (y) = 0.04464 0.30078
# Poissons Ratio (z) = 0.12419 0.40404
#
# Static dielectric constant tensor:
#      x y z
#    x 1.883000 0.000000 -0.046290 
#    y 0.000000 1.863520 0.000000 
#    z -0.046290 0.000000 1.870830 
# 
# From -- ./inp_files/28095.got.cif
#   From: 2010.05.17/outbox.cif.g08.bks.cpg/sg9_15_cif.got.tgz:28095.got - 2010.06.03 20:04:27.
