data_PCOD9137954
_publ_section_title
;
Structure prediction by ZEFSAII (Michael W. Deem and Ramdas Pophale) SiO2 
 PCOD9137954
Probable space group: C C
;
_chemical_formula_sum "Si O2"
_cell_formula_units_Z 24
_cell_length_a 15.813809
_cell_length_b 8.745532
_cell_length_c 13.878417
_cell_angle_alpha 90.000000
_cell_angle_beta 144.164264
_cell_angle_gamma 90.000000
_cell_volume 1123.731171
_symmetry_space_group_name_H-M "C C"
_symmetry_group_IT_number 9
_symmetry_cell_setting 'monoclinic'
loop_
_space_group_symop_operation_xyz
x,y,z
x,-y,1/2+z
1/2+x,1/2+y,z
1/2+x,1/2-y,1/2+z
loop_
_atom_site_type_symbol
_atom_site_label
_atom_site_fract_x
_atom_site_fract_y
_atom_site_fract_z
Si Si1 0.459760 0.607912 0.980510
Si Si2 0.643950 0.134978 0.612379
Si Si3 0.670997 0.467994 0.017693
Si Si4 0.680932 0.107663 0.014628
Si Si5 0.446355 0.565069 0.664019
Si Si6 0.471311 0.884716 0.767625
O O1 0.309531 0.657069 0.792496
O O2 0.561973 0.511223 0.003157
O O3 0.545263 0.762605 0.089642
O O4 0.426517 0.502622 0.040629
O O5 0.578074 0.189167 0.447406
O O6 0.631997 0.954980 0.575676
O O7 0.695145 0.286932 0.031749
O O8 0.599314 0.518704 0.850879
O O9 0.821864 0.554204 0.171781
O O10 0.563262 0.038039 0.830625
O O11 0.827142 0.019405 0.120693
O O12 0.437841 0.748917 0.663321
#
# Coordination Sequence:
#
# PCOD9137954 Si02
#       6
#     4   4   4   4   4   4
#     4  12  25  43  73 102 142 187 238 292 363 425
#     4  10  22  46  70  98 138 193 228 288 363 431
#     4  12  22  46  67 103 138 184 241 294 361 422
#     4  10  23  43  71  96 135 184 233 296 349 423
#     4  12  24  43  68 102 138 188 237 296 349 433
#     4  10  22  45  77  91 139 194 235 288 365 412
#
# _framework density 21.357423000000001
#
# number of rings (size 3 to 8) (size 9 to 14) (size 15 to 20)
#    1.000    0.000    3.333    4.000    2.333    0.000 
#    6.000    0.000    0.000    0.000    0.000    0.000 
#    0.000    0.000    0.000    0.000    0.000    0.000 
#
# Total GULP energy -66814.454169 kJ/mol
# GULP energy per Si atom -5567.871181 kJ/mol
# Density = 2.130881 g / cm^3
# Si number density = 21.357423 Si / 1000 Ang^3
#
#
#
# Elastic Constant Matrix: (Units=GPa)
#
#
# Indices 1 2 3 4 5 6 
#
# 1 52.1777 47.0781 51.4908 0.0000 3.1541 0.0000
# 2 47.0781 168.2692 54.9977 0.0000 4.2560 0.0000
# 3 51.4908 54.9977 127.9707 0.0000 28.7022 0.0000
# 4 0.0000 0.0000 0.0000 29.0099 0.0000 -1.4144
# 5 3.1541 4.2560 28.7022 0.0000 25.8268 0.0000
# 6 0.0000 0.0000 0.0000 -1.4144 0.0000 26.4372
#
#
#
# Elastic Compliance Matrix: (Units=1/GPa)
#
#
# Indices 1 2 3 4 5 6 
#
# 1 0.040704 -0.006181 -0.017096 0.000000 0.015047 0.000000
# 2 -0.006181 0.008017 -0.001108 0.000000 0.000665 0.000000
# 3 -0.017096 -0.001108 0.019527 0.000000 -0.019431 0.000000
# 4 0.000000 0.000000 0.000000 0.034561 0.000000 0.001849
# 5 0.015047 0.000665 -0.019431 0.000000 0.058367 0.000000
# 6 0.000000 0.000000 0.000000 0.001849 0.000000 0.037924
#
#
# Mechanical properties :
#
#
# Convention : Reuss Voigt Hill
#
# Bulk Modulus (GPa) = 51.33803 72.83896 62.08850
# Shear Modulus (GPa) = 19.65695 29.24484 24.45089
#
# Velocity S-wave (km/s) = 3.03707 3.70443 3.38722
# Velocity P-wave (km/s) = 6.03226 7.24402 6.66573
#
# Compressibility (1/GPa) = 0.01947874
#
# Stress axis : x y z
#
# Youngs Moduli (GPa) = 24.56791 124.72935 51.21003
#
# Poissons Ratio (x) = 0.77092 0.87550
# Poissons Ratio (y) = 0.15185 0.05673
# Poissons Ratio (z) = 0.42002 0.13817
#
# Static dielectric constant tensor:
#      x y z
#    x 1.831380 0.000000 -0.006240 
#    y 0.000000 1.834930 0.000000 
#    z -0.006240 0.000000 1.788410 
# 
# From -- ./inp_files/11191.got.cif
#   From: 2010.05.17/outbox.cif.g08.bks.cpg/sg9_6_cif.got.tgz:11191.got - 2010.06.03 20:04:27.
