data_PCOD9137356
_publ_section_title
;
Structure prediction by ZEFSAII (Michael W. Deem and Ramdas Pophale) SiO2 
 PCOD9137356
Probable space group: C C
;
_chemical_formula_sum "Si O2"
_cell_formula_units_Z 28
_cell_length_a 18.761672
_cell_length_b 5.807012
_cell_length_c 19.648670
_cell_angle_alpha 90.000000
_cell_angle_beta 31.484297
_cell_angle_gamma 90.000000
_cell_volume 1118.016542
_symmetry_space_group_name_H-M "C C"
_symmetry_group_IT_number 9
_symmetry_cell_setting 'monoclinic'
loop_
_space_group_symop_operation_xyz
x,y,z
x,-y,1/2+z
1/2+x,1/2+y,z
1/2+x,1/2-y,1/2+z
loop_
_atom_site_type_symbol
_atom_site_label
_atom_site_fract_x
_atom_site_fract_y
_atom_site_fract_z
Si Si1 0.428280 0.016078 0.775100
Si Si2 0.734537 0.146793 0.869376
Si Si3 0.870925 0.235011 0.185992
Si Si4 0.118886 0.917876 0.744585
Si Si5 0.085257 0.007047 0.920505
Si Si6 0.694602 0.915348 0.642923
Si Si7 0.843719 0.910827 0.901718
O O1 0.438728 0.198373 0.703748
O O2 0.557877 0.930535 0.709331
O O3 0.329954 0.134156 0.911926
O O4 0.353529 0.806908 0.801063
O O5 0.792477 0.007483 0.758624
O O6 0.602295 0.292682 0.958489
O O7 0.733404 0.974240 0.933525
O O8 0.742720 0.407680 0.283698
O O9 0.985239 0.196212 0.035300
O O10 0.045347 0.924774 0.878258
O O11 0.195751 0.166087 0.677639
O O12 0.194163 0.667537 0.680716
O O13 0.009964 0.917984 0.770756
O O14 0.809675 0.932924 0.492864
#
# Coordination Sequence:
#
# PCOD9137356 Si02
#       7
#     4   4   4   4   4   4   4
#     4   9  21  41  63 105 131 180 233 298 360 429
#     4  10  22  41  67 103 136 184 235 303 361 433
#     4  10  25  45  69 104 143 187 242 300 367 439
#     4  11  27  46  66 106 140 192 244 290 364 439
#     4  11  27  45  71 102 144 194 242 301 368 439
#     4  11  25  43  72  99 141 186 235 297 356 436
#     4  10  23  41  70  99 143 181 239 299 366 427
#
# _framework density 25.044353000000001
#
# number of rings (size 3 to 8) (size 9 to 14) (size 15 to 20)
#    0.000    1.714    1.429    0.000   14.000    1.143 
#    0.000    0.000    0.000    0.000    0.000    0.000 
#    0.000    0.000    0.000    0.000    0.000    0.000 
#
# Total GULP energy -77949.998024 kJ/mol
# GULP energy per Si atom -5567.857002 kJ/mol
# Density = 2.498735 g / cm^3
# Si number density = 25.044353 Si / 1000 Ang^3
#
#
#
# Elastic Constant Matrix: (Units=GPa)
#
#
# Indices 1 2 3 4 5 6 
#
# 1 86.5997 -2.4603 -1.0951 0.0000 -0.7447 -0.0005
# 2 -2.4603 106.9177 -5.9180 0.0012 -8.7047 0.0051
# 3 -1.0951 -5.9180 36.9054 0.0021 -3.1173 0.0021
# 4 0.0000 0.0012 0.0021 21.4738 -0.0005 0.5478
# 5 -0.7447 -8.7047 -3.1173 -0.0005 22.5587 -0.0006
# 6 -0.0005 0.0051 0.0021 0.5478 -0.0006 -0.5776
#
#
#
# Elastic Compliance Matrix: (Units=1/GPa)
#
#
# Indices 1 2 3 4 5 6 
#
# 1 0.011568 0.000338 0.000446 0.000000 0.000574 -0.000007
# 2 0.000338 0.009798 0.001924 -0.000003 0.004058 0.000087
# 3 0.000446 0.001924 0.027807 -0.000005 0.004600 0.000109
# 4 0.000000 -0.000003 -0.000005 0.045468 0.000000 0.043117
# 5 0.000574 0.004058 0.004600 0.000000 0.046549 0.000006
# 6 -0.000007 0.000087 0.000109 0.043117 0.000006 -1.690265
#
#
# Mechanical properties :
#
#
# Convention : Reuss Voigt Hill
#
# Bulk Modulus (GPa) = 18.31965 23.49733 20.90849
# Shear Modulus (GPa) = -3.25458 24.68405 10.71473
#
# Velocity S-wave (km/s) = -1.14121 3.14285 2.07065
# Velocity P-wave (km/s) = 2.36523 4.75107 3.75280
#
# Compressibility (1/GPa) = 0.05458621
#
# Stress axis : x y z
#
# Youngs Moduli (GPa) = 86.44871 102.06590 35.96274
#
# Poissons Ratio (x) = -0.03445 -0.01603
# Poissons Ratio (y) = -0.02918 -0.06919
# Poissons Ratio (z) = -0.03854 -0.19636
#
# Static dielectric constant tensor:
#      x y z
#    x 2.020930 0.000000 0.052750 
#    y 0.000000 2.078580 0.000000 
#    z 0.052750 0.000000 2.182070 
# 
# From -- ./inp_files/31142.got.cif
#   From: 2010.05.17/outbox.cif.g08.bks.cpg/sg9_16_cif.got.tgz:31142.got - 2010.06.03 20:04:27.
