data_PCOD9137107
_publ_section_title
;
Structure prediction by ZEFSAII (Michael W. Deem and Ramdas Pophale) SiO2 
 PCOD9137107
Probable space group: C C
;
_chemical_formula_sum "Si O2"
_cell_formula_units_Z 32
_cell_length_a 16.779192
_cell_length_b 9.210520
_cell_length_c 19.657721
_cell_angle_alpha 90.000000
_cell_angle_beta 150.653868
_cell_angle_gamma 90.000000
_cell_volume 1488.878567
_symmetry_space_group_name_H-M "C C"
_symmetry_group_IT_number 9
_symmetry_cell_setting 'monoclinic'
loop_
_space_group_symop_operation_xyz
x,y,z
x,-y,1/2+z
1/2+x,1/2+y,z
1/2+x,1/2-y,1/2+z
loop_
_atom_site_type_symbol
_atom_site_label
_atom_site_fract_x
_atom_site_fract_y
_atom_site_fract_z
Si Si1 0.371790 0.319302 0.996490
Si Si2 0.439022 0.796708 0.406144
Si Si3 0.699194 0.858388 0.217968
Si Si4 0.853015 0.506632 0.507817
Si Si5 0.687848 0.474130 0.740721
Si Si6 0.906425 0.745240 0.641150
Si Si7 0.251618 0.602300 0.907147
Si Si8 0.797674 0.899216 0.692933
O O1 0.344675 0.277792 0.897955
O O2 0.234424 0.434352 0.914197
O O3 0.369538 0.165400 0.032117
O O4 0.537593 0.413570 0.122302
O O5 0.343360 0.945427 0.322534
O O6 0.618982 0.827732 0.566023
O O7 0.425382 0.690662 0.332906
O O8 0.680527 0.684781 0.200965
O O9 0.797085 0.884944 0.361515
O O10 0.526576 0.935444 0.107777
O O11 0.776454 0.941652 0.210869
O O12 0.730717 0.535738 0.353770
O O13 0.816080 0.596351 0.549205
O O14 0.887980 0.831898 0.557065
O O15 0.842894 0.858248 0.649534
O O16 0.084251 0.687975 0.792480
#
# Coordination Sequence:
#
# PCOD9137107 Si02
#       8
#     4   4   4   4   4   4   4   4
#     4  11  21  37  70 103 136 173 237 299 340 397
#     4  11  22  40  66 101 132 180 229 291 343 420
#     4  11  21  37  65  99 134 172 238 287 337 410
#     4  10  22  39  63 103 133 179 238 284 342 421
#     4  11  21  36  65 105 136 169 233 303 341 399
#     4  11  25  43  66  99 138 190 226 288 357 433
#     4  11  23  42  66  99 138 182 235 287 348 418
#     4  12  23  44  67  97 141 183 232 283 362 422
#
# _framework density 21.492688000000001
#
# number of rings (size 3 to 8) (size 9 to 14) (size 15 to 20)
#    0.000    1.000    6.250    2.250    5.250    0.000 
#    0.000    1.250    0.000    3.000    0.000    0.000 
#    0.000    0.000    0.000    0.000    0.000    0.000 
#
# Total GULP energy -89195.947853 kJ/mol
# GULP energy per Si atom -5574.746741 kJ/mol
# Density = 2.144377 g / cm^3
# Si number density = 21.492688 Si / 1000 Ang^3
#
#
#
# Elastic Constant Matrix: (Units=GPa)
#
#
# Indices 1 2 3 4 5 6 
#
# 1 75.8080 47.4325 17.6574 0.0000 -15.0976 0.0000
# 2 47.4325 196.0365 49.1067 0.0001 -4.4235 0.0001
# 3 17.6574 49.1067 81.6875 0.0000 -13.3353 0.0000
# 4 0.0000 0.0001 0.0000 37.1112 0.0000 -8.1194
# 5 -15.0976 -4.4235 -13.3353 0.0000 23.0393 0.0000
# 6 0.0000 0.0001 0.0000 -8.1194 0.0000 32.6600
#
#
#
# Elastic Compliance Matrix: (Units=1/GPa)
#
#
# Indices 1 2 3 4 5 6 
#
# 1 0.017951 -0.004211 0.000486 0.000000 0.011236 0.000000
# 2 -0.004211 0.007016 -0.003907 0.000000 -0.003674 0.000000
# 3 0.000486 -0.003907 0.015919 0.000000 0.008782 0.000000
# 4 0.000000 0.000000 0.000000 0.028496 0.000000 0.007084
# 5 0.011236 -0.003674 0.008782 0.000000 0.055145 0.000000
# 6 0.000000 0.000000 0.000000 0.007084 0.000000 0.032380
#
#
# Mechanical properties :
#
#
# Convention : Reuss Voigt Hill
#
# Bulk Modulus (GPa) = 39.03156 64.65835 51.84496
# Shear Modulus (GPa) = 27.66835 34.51781 31.09308
#
# Velocity S-wave (km/s) = 3.59184 4.01187 3.80765
# Velocity P-wave (km/s) = 5.94992 7.18397 6.59587
#
# Compressibility (1/GPa) = 0.02562029
#
# Stress axis : x y z
#
# Youngs Moduli (GPa) = 55.70776 142.53337 62.81712
#
# Poissons Ratio (x) = 0.60028 -0.03051
# Poissons Ratio (y) = 0.23461 0.24543
# Poissons Ratio (z) = -0.02706 0.55689
#
# Static dielectric constant tensor:
#      x y z
#    x 1.821420 0.000000 0.028590 
#    y 0.000000 1.883150 0.000000 
#    z 0.028590 0.000000 1.862710 
# 
# From -- ./inp_files/34054.got.cif
#   From: 2010.05.17/outbox.cif.g08.bks.cpg/sg9_18_cif.got.tgz:34054.got - 2010.06.03 20:04:27.
