data_PCOD9137301
_publ_section_title
;
Structure prediction by ZEFSAII (Michael W. Deem and Ramdas Pophale) SiO2 
 PCOD9137301
Probable space group: C C
;
_chemical_formula_sum "Si O2"
_cell_formula_units_Z 24
_cell_length_a 5.093663
_cell_length_b 20.779623
_cell_length_c 8.064847
_cell_angle_alpha 90.000000
_cell_angle_beta 89.085586
_cell_angle_gamma 90.000000
_cell_volume 853.510157
_symmetry_space_group_name_H-M "C C"
_symmetry_group_IT_number 9
_symmetry_cell_setting 'monoclinic'
loop_
_space_group_symop_operation_xyz
x,y,z
x,-y,1/2+z
1/2+x,1/2+y,z
1/2+x,1/2-y,1/2+z
loop_
_atom_site_type_symbol
_atom_site_label
_atom_site_fract_x
_atom_site_fract_y
_atom_site_fract_z
Si Si1 0.722380 0.993715 0.254290
Si Si2 0.878278 0.873709 0.740216
Si Si3 0.886614 0.415864 0.538230
Si Si4 0.299631 0.195756 0.679372
Si Si5 0.308368 0.741409 0.498963
Si Si6 0.752761 0.446271 0.216692
O O1 0.795500 0.059930 0.333782
O O2 0.446888 0.008863 0.144355
O O3 0.553724 0.941646 0.352088
O O4 0.968706 0.970697 0.153716
O O5 0.652823 0.877027 0.602352
O O6 0.847310 0.815254 0.864552
O O7 0.174295 0.882403 0.673879
O O8 0.833103 0.303007 0.378671
O O9 0.643731 0.434868 0.406470
O O10 0.527157 0.234173 0.585061
O O11 0.307986 0.121304 0.625686
O O12 0.025243 0.227787 0.634640
#
# Coordination Sequence:
#
# PCOD9137301 Si02
#       6
#     4   4   4   4   4   4
#     4  10  22  41  63 107 146 192 221 306 359 450
#     4  10  22  44  70 100 139 197 229 296 376 428
#     4  10  22  41  67 104 138 195 231 303 357 431
#     4  12  30  48  79 109 146 201 247 326 363 450
#     4  12  28  52  77 109 149 195 258 309 378 440
#     4  12  24  42  70 107 144 186 250 296 367 439
#
# _framework density 28.119174000000001
#
# number of rings (size 3 to 8) (size 9 to 14) (size 15 to 20)
#    1.000    0.000    1.667    4.000    4.667    4.000 
#    0.000    0.000    0.000    0.000    0.000    0.000 
#    0.000    0.000    0.000    0.000    0.000    0.000 
#
# Total GULP energy -66922.974480 kJ/mol
# GULP energy per Si atom -5576.914540 kJ/mol
# Density = 2.805517 g / cm^3
# Si number density = 28.119174 Si / 1000 Ang^3
#
#
#
# Elastic Constant Matrix: (Units=GPa)
#
#
# Indices 1 2 3 4 5 6 
#
# 1 213.4998 22.7715 -2.1918 0.0000 2.6126 0.0000
# 2 22.7715 90.6998 -8.4698 0.0000 4.1000 0.0000
# 3 -2.1918 -8.4698 118.9243 0.0000 17.4029 0.0000
# 4 0.0000 0.0000 0.0000 53.8688 0.0000 -12.0573
# 5 2.6126 4.1000 17.4029 0.0000 32.2880 0.0000
# 6 0.0000 0.0000 0.0000 -12.0573 0.0000 37.6981
#
#
#
# Elastic Compliance Matrix: (Units=1/GPa)
#
#
# Indices 1 2 3 4 5 6 
#
# 1 0.004815 -0.001193 0.000042 0.000000 -0.000261 0.000000
# 2 -0.001193 0.011514 0.001083 0.000000 -0.001949 0.000000
# 3 0.000042 0.001083 0.009236 0.000000 -0.005119 0.000000
# 4 0.000000 0.000000 0.000000 0.019995 0.000000 0.006395
# 5 -0.000261 -0.001949 -0.005119 0.000000 0.033999 0.000000
# 6 0.000000 0.000000 0.000000 0.006395 0.000000 0.028572
#
#
# Mechanical properties :
#
#
# Convention : Reuss Voigt Hill
#
# Bulk Modulus (GPa) = 39.32530 49.70486 44.51508
# Shear Modulus (GPa) = 42.82928 52.17192 47.50060
#
# Velocity S-wave (km/s) = 3.90697 4.31209 4.11452
# Velocity P-wave (km/s) = 5.86243 6.51974 6.19981
#
# Compressibility (1/GPa) = 0.02542892
#
# Stress axis : x y z
#
# Youngs Moduli (GPa) = 207.69637 86.84911 108.27524
#
# Poissons Ratio (x) = 0.10362 -0.00454
# Poissons Ratio (y) = 0.24780 -0.11730
# Poissons Ratio (z) = -0.00870 -0.09409
#
# Static dielectric constant tensor:
#      x y z
#    x 2.104350 0.000000 0.240230 
#    y 0.000000 2.478570 0.000000 
#    z 0.240230 0.000000 2.443110 
# 
# From -- ./inp_files/21868.got.cif
#   From: 2010.05.17/outbox.cif.g08.bks.cpg/sg9_11_cif.got.tgz:21868.got - 2010.06.03 20:04:27.
