data_PCOD9137782
_publ_section_title
;
Structure prediction by ZEFSAII (Michael W. Deem and Ramdas Pophale) SiO2 
 PCOD9137782
Probable space group: C C
;
_chemical_formula_sum "Si O2"
_cell_formula_units_Z 32
_cell_length_a 7.330786
_cell_length_b 30.869838
_cell_length_c 7.912497
_cell_angle_alpha 90.000000
_cell_angle_beta 41.159690
_cell_angle_gamma 90.000000
_cell_volume 1178.500839
_symmetry_space_group_name_H-M "C C"
_symmetry_group_IT_number 9
_symmetry_cell_setting 'monoclinic'
loop_
_space_group_symop_operation_xyz
x,y,z
x,-y,1/2+z
1/2+x,1/2+y,z
1/2+x,1/2-y,1/2+z
loop_
_atom_site_type_symbol
_atom_site_label
_atom_site_fract_x
_atom_site_fract_y
_atom_site_fract_z
Si Si1 0.071630 0.741948 0.533380
Si Si2 0.815719 0.224908 0.876127
Si Si3 0.536791 0.857203 0.025415
Si Si4 0.682077 0.013355 0.233482
Si Si5 0.340425 0.063578 0.048488
Si Si6 0.126776 0.046085 0.555537
Si Si7 0.473270 0.404398 0.520780
Si Si8 0.777050 0.131539 0.731055
O O1 0.396673 0.748079 0.319941
O O2 0.005700 0.693653 0.523398
O O3 0.958778 0.773044 0.463406
O O4 0.819331 0.177256 0.792107
O O5 0.010822 0.256200 0.627285
O O6 0.239042 0.879368 0.264288
O O7 0.715388 0.862132 0.074794
O O8 0.711270 0.874964 0.746151
O O9 0.861129 0.051190 0.013460
O O10 0.535821 0.966739 0.292078
O O11 0.266407 0.960991 0.770377
O O12 0.901642 0.007187 0.711487
O O13 0.077664 0.078114 0.127852
O O14 0.401179 0.960579 0.978063
O O15 0.500717 0.107143 0.986028
O O16 0.004154 0.094568 0.616529
#
# Coordination Sequence:
#
# PCOD9137782 Si02
#       8
#     4   4   4   4   4   4   4   4
#     4  10  22  44  68  99 137 186 233 307 369 447
#     4  10  24  43  70  99 143 186 235 309 372 449
#     4  11  24  44  71 103 142 190 246 306 373 439
#     4  11  25  40  67 104 142 201 245 307 365 438
#     4  10  23  42  67  96 145 188 242 304 359 447
#     4  11  24  43  68 102 148 193 253 304 368 445
#     4  11  24  45  69 102 146 192 243 301 366 444
#     4  10  24  43  68 103 141 194 245 306 376 441
#
# _framework density 27.15314
#
# number of rings (size 3 to 8) (size 9 to 14) (size 15 to 20)
#    0.000    1.500    2.500    0.750    5.250    3.000 
#    6.750    0.000    0.000    0.000    0.000    0.000 
#    0.000    0.000    0.000    0.000    0.000    0.000 
#
# Total GULP energy -89439.722417 kJ/mol
# GULP energy per Si atom -5589.982651 kJ/mol
# Density = 2.709134 g / cm^3
# Si number density = 27.153140 Si / 1000 Ang^3
#
#
#
# Elastic Constant Matrix: (Units=GPa)
#
#
# Indices 1 2 3 4 5 6 
#
# 1 93.7580 29.7546 42.4420 0.0000 -0.1495 0.0000
# 2 29.7546 176.6130 60.8284 0.0000 -22.9795 0.0000
# 3 42.4420 60.8284 118.5542 0.0000 -35.0670 0.0000
# 4 0.0000 0.0000 0.0000 44.7931 0.0000 -3.5504
# 5 -0.1495 -22.9795 -35.0670 0.0000 49.4446 0.0000
# 6 0.0000 0.0000 0.0000 -3.5504 0.0000 34.3959
#
#
#
# Elastic Compliance Matrix: (Units=1/GPa)
#
#
# Indices 1 2 3 4 5 6 
#
# 1 0.013515 -0.000893 -0.005683 0.000000 -0.004404 0.000000
# 2 -0.000893 0.006967 -0.002908 0.000000 0.001173 0.000000
# 3 -0.005683 -0.002908 0.014625 0.000000 0.009003 0.000000
# 4 0.000000 0.000000 0.000000 0.022509 0.000000 0.002323
# 5 -0.004404 0.001173 0.009003 0.000000 0.027142 0.000000
# 6 0.000000 0.000000 0.000000 0.002323 0.000000 0.029313
#
#
# Mechanical properties :
#
#
# Convention : Reuss Voigt Hill
#
# Bulk Modulus (GPa) = 61.96366 72.77500 67.36933
# Shear Modulus (GPa) = 36.12292 42.78674 39.45483
#
# Velocity S-wave (km/s) = 3.65134 3.97389 3.81602
# Velocity P-wave (km/s) = 6.37542 6.92211 6.65438
#
# Compressibility (1/GPa) = 0.01613849
#
# Stress axis : x y z
#
# Youngs Moduli (GPa) = 73.99437 143.54124 68.37786
#
# Poissons Ratio (x) = 0.12813 0.38859
# Poissons Ratio (y) = 0.06605 0.19885
# Poissons Ratio (z) = 0.42051 0.41743
#
# Static dielectric constant tensor:
#      x y z
#    x 2.107760 0.000000 0.015030 
#    y 0.000000 2.052150 0.000000 
#    z 0.015030 0.000000 2.277060 
# 
# From -- ./inp_files/6434.got.cif
#   From: 2010.05.17/outbox.cif.g08.bks.cpg/sg9_4_cif.got.tgz:6434.got - 2010.06.03 20:04:27.
