data_PCOD9137634
_publ_section_title
;
Structure prediction by ZEFSAII (Michael W. Deem and Ramdas Pophale) SiO2 
 PCOD9137634
Probable space group: C C
;
_chemical_formula_sum "Si O2"
_cell_formula_units_Z 28
_cell_length_a 5.912102
_cell_length_b 18.241068
_cell_length_c 14.718433
_cell_angle_alpha 90.000000
_cell_angle_beta 45.588700
_cell_angle_gamma 90.000000
_cell_volume 1133.849698
_symmetry_space_group_name_H-M "C C"
_symmetry_group_IT_number 9
_symmetry_cell_setting 'monoclinic'
loop_
_space_group_symop_operation_xyz
x,y,z
x,-y,1/2+z
1/2+x,1/2+y,z
1/2+x,1/2-y,1/2+z
loop_
_atom_site_type_symbol
_atom_site_label
_atom_site_fract_x
_atom_site_fract_y
_atom_site_fract_z
Si Si1 0.551990 0.597372 0.140490
Si Si2 0.655651 0.188541 0.970782
Si Si3 0.931888 0.003994 0.995597
Si Si4 0.361820 0.728031 0.086111
Si Si5 0.366906 0.651213 0.722530
Si Si6 0.179170 0.979493 0.229546
Si Si7 0.361883 0.661280 0.525436
O O1 0.577412 0.543527 0.044203
O O2 0.341698 0.664912 0.166439
O O3 0.463453 0.544280 0.247541
O O4 0.855271 0.643495 0.091286
O O5 0.920676 0.187313 0.973913
O O6 0.619704 0.275594 0.966722
O O7 0.661723 0.153640 0.869720
O O8 0.548054 0.002982 0.117786
O O9 0.003156 0.917046 0.960665
O O10 0.058222 0.037170 0.864997
O O11 0.612899 0.792100 0.036532
O O12 0.034170 0.770260 0.174055
O O13 0.618638 0.588180 0.677731
O O14 0.214806 0.643197 0.666885
#
# Coordination Sequence:
#
# PCOD9137634 Si02
#       7
#     4   4   4   4   4   4   4
#     4  11  24  44  67 105 144 185 245 304 365 437
#     4  10  24  42  69 103 138 192 243 302 363 441
#     4  12  27  45  72 107 147 195 245 306 369 434
#     4  10  22  43  67  97 143 184 246 299 366 434
#     4  11  22  43  68  98 140 189 242 302 370 438
#     4  12  26  44  70 105 145 192 247 304 370 439
#     4  10  23  43  67 101 141 189 248 297 363 437
#
# _framework density 24.694633
#
# number of rings (size 3 to 8) (size 9 to 14) (size 15 to 20)
#    0.000    1.143    2.857    2.571    2.000    9.143 
#    0.000    0.000    0.000    0.000    0.000    0.000 
#    0.000    0.000    0.000    0.000    0.000    0.000 
#
# Total GULP energy -78020.396483 kJ/mol
# GULP energy per Si atom -5572.885463 kJ/mol
# Density = 2.463843 g / cm^3
# Si number density = 24.694633 Si / 1000 Ang^3
#
#
#
# Elastic Constant Matrix: (Units=GPa)
#
#
# Indices 1 2 3 4 5 6 
#
# 1 86.4847 45.3842 18.4580 0.0000 29.4316 0.0000
# 2 45.3842 150.0592 21.7972 0.0000 6.8299 0.0000
# 3 18.4580 21.7972 40.1696 0.0000 17.7204 -0.0001
# 4 0.0000 0.0000 0.0000 28.4183 0.0000 18.4259
# 5 29.4316 6.8299 17.7204 0.0000 28.6184 0.0000
# 6 0.0000 0.0000 -0.0001 18.4259 0.0000 41.8080
#
#
#
# Elastic Compliance Matrix: (Units=1/GPa)
#
#
# Indices 1 2 3 4 5 6 
#
# 1 0.021921 -0.006077 0.003481 0.000000 -0.023249 0.000000
# 2 -0.006077 0.008939 -0.005330 0.000000 0.007417 0.000000
# 3 0.003481 -0.005330 0.037429 0.000000 -0.025484 0.000000
# 4 0.000000 0.000000 0.000000 0.049267 0.000000 -0.021713
# 5 -0.023249 0.007417 -0.025484 0.000000 0.072861 0.000000
# 6 0.000000 0.000000 0.000000 -0.021713 0.000000 0.033489
#
#
# Mechanical properties :
#
#
# Convention : Reuss Voigt Hill
#
# Bulk Modulus (GPa) = 19.07076 49.77691 34.42383
# Shear Modulus (GPa) = 19.43743 32.50720 25.97232
#
# Velocity S-wave (km/s) = 2.80859 3.63211 3.24657
# Velocity P-wave (km/s) = 4.27282 6.14739 5.29374
#
# Compressibility (1/GPa) = 0.05243630
#
# Stress axis : x y z
#
# Youngs Moduli (GPa) = 45.61904 111.87375 26.71733
#
# Poissons Ratio (x) = 0.67988 -0.09300
# Poissons Ratio (y) = 0.27724 0.14240
# Poissons Ratio (z) = -0.15880 0.59626
#
# Static dielectric constant tensor:
#      x y z
#    x 2.027770 0.000000 0.050360 
#    y 0.000000 1.981130 0.000000 
#    z 0.050360 0.000000 2.078040 
# 
# From -- ./inp_files/13096.got.cif
#   From: 2010.05.17/outbox.cif.g08.bks.cpg/sg9_7_cif.got.tgz:13096.got - 2010.06.03 20:04:27.
