data_PCOD9137553
_publ_section_title
;
Structure prediction by ZEFSAII (Michael W. Deem and Ramdas Pophale) SiO2 
 PCOD9137553
Probable space group: C C
;
_chemical_formula_sum "Si O2"
_cell_formula_units_Z 32
_cell_length_a 10.750279
_cell_length_b 11.298260
_cell_length_c 12.819611
_cell_angle_alpha 90.000000
_cell_angle_beta 44.936982
_cell_angle_gamma 90.000000
_cell_volume 1099.798076
_symmetry_space_group_name_H-M "C C"
_symmetry_group_IT_number 9
_symmetry_cell_setting 'monoclinic'
loop_
_space_group_symop_operation_xyz
x,y,z
x,-y,1/2+z
1/2+x,1/2+y,z
1/2+x,1/2-y,1/2+z
loop_
_atom_site_type_symbol
_atom_site_label
_atom_site_fract_x
_atom_site_fract_y
_atom_site_fract_z
Si Si1 0.562700 0.324545 0.731170
Si Si2 0.840801 0.484115 0.324558
Si Si3 0.040004 0.362547 0.063873
Si Si4 0.423247 0.172897 0.981035
Si Si5 0.213349 0.413362 0.636045
Si Si6 0.116435 0.821085 0.021264
Si Si7 0.331311 0.475789 0.275748
Si Si8 0.482770 0.267603 0.389867
O O1 0.586750 0.211468 0.640444
O O2 0.439479 0.287891 0.898039
O O3 0.758830 0.344367 0.653293
O O4 0.481962 0.429940 0.715050
O O5 0.845992 0.405027 0.216576
O O6 0.878814 0.422872 0.415743
O O7 0.665253 0.559921 0.429993
O O8 0.031050 0.545565 0.193557
O O9 0.031295 0.264640 0.979363
O O10 0.166702 0.463133 0.937676
O O11 0.579863 0.207331 0.968730
O O12 0.262961 0.503819 0.697966
O O13 0.380957 0.394062 0.460418
O O14 0.143105 0.290775 0.730798
O O15 0.306948 0.806172 0.961633
O O16 0.948938 0.854026 0.194274
#
# Coordination Sequence:
#
# PCOD9137553 Si02
#       8
#     4   4   4   4   4   4   4   4
#     4  11  21  41  71  98 137 184 245 301 361 442
#     4  10  24  47  69 101 146 187 245 303 366 446
#     4  10  22  42  71 101 132 190 239 299 365 429
#     4  11  25  43  70 101 144 191 242 302 371 437
#     4  10  23  42  65  98 135 178 231 288 355 434
#     4  11  26  45  66 103 147 188 236 303 369 441
#     4  11  22  40  69  99 137 179 241 296 358 441
#     4  10  23  44  65  97 134 177 233 290 363 422
#
# _framework density 29.096249
#
# number of rings (size 3 to 8) (size 9 to 14) (size 15 to 20)
#    0.000    1.500    3.750    0.000    3.500    5.000 
#    9.000    0.000    0.000    0.000    0.000    0.000 
#    0.000    0.000    0.000    0.000    0.000    0.000 
#
# Total GULP energy -89219.772902 kJ/mol
# GULP energy per Si atom -5576.235806 kJ/mol
# Density = 2.903002 g / cm^3
# Si number density = 29.096249 Si / 1000 Ang^3
#
#
#
# Elastic Constant Matrix: (Units=GPa)
#
#
# Indices 1 2 3 4 5 6 
#
# 1 59.5588 17.3896 1.4447 0.0000 -11.8694 0.0000
# 2 17.3896 75.6446 -4.0398 0.0000 12.1832 0.0000
# 3 1.4447 -4.0398 145.6555 0.0000 -2.8833 0.0000
# 4 0.0000 0.0000 0.0000 27.8849 0.0000 -11.2088
# 5 -11.8694 12.1832 -2.8833 0.0000 32.9212 0.0000
# 6 0.0000 0.0000 0.0000 -11.2088 0.0000 52.3743
#
#
#
# Elastic Compliance Matrix: (Units=1/GPa)
#
#
# Indices 1 2 3 4 5 6 
#
# 1 0.020577 -0.006309 -0.000186 0.000000 0.009737 0.000000
# 2 -0.006309 0.016004 0.000345 0.000000 -0.008167 0.000000
# 3 -0.000186 0.000345 0.006885 0.000000 0.000408 0.000000
# 4 0.000000 0.000000 0.000000 0.039237 0.000000 0.008397
# 5 0.009737 -0.008167 0.000408 0.000000 0.036944 0.000000
# 6 0.000000 0.000000 0.000000 0.008397 0.000000 0.020890
#
#
# Mechanical properties :
#
#
# Convention : Reuss Voigt Hill
#
# Bulk Modulus (GPa) = 32.08668 34.49420 33.29044
# Shear Modulus (GPa) = 30.63231 40.37372 35.50301
#
# Velocity S-wave (km/s) = 3.24820 3.72908 3.49691
# Velocity P-wave (km/s) = 5.01193 5.51564 5.26981
#
# Compressibility (1/GPa) = 0.03116558
#
# Stress axis : x y z
#
# Youngs Moduli (GPa) = 48.59766 62.48554 145.24310
#
# Poissons Ratio (x) = 0.39420 0.02706
# Poissons Ratio (y) = 0.30658 -0.05008
# Poissons Ratio (z) = 0.00905 -0.02154
#
# Static dielectric constant tensor:
#      x y z
#    x 2.289020 0.000000 0.022170 
#    y 0.000000 2.499870 0.000000 
#    z 0.022170 0.000000 2.342530 
# 
# From -- ./inp_files/24916.got.cif
#   From: 2010.05.17/outbox.cif.g08.bks.cpg/sg9_13_cif.got.tgz:24916.got - 2010.06.03 20:04:27.
