data_PCOD9137942
_publ_section_title
;
Structure prediction by ZEFSAII (Michael W. Deem and Ramdas Pophale) SiO2 
 PCOD9137942
Probable space group: C C
;
_chemical_formula_sum "Si O2"
_cell_formula_units_Z 32
_cell_length_a 8.721451
_cell_length_b 33.235709
_cell_length_c 11.339205
_cell_angle_alpha 90.000000
_cell_angle_beta 27.652618
_cell_angle_gamma 90.000000
_cell_volume 1525.446346
_symmetry_space_group_name_H-M "C C"
_symmetry_group_IT_number 9
_symmetry_cell_setting 'monoclinic'
loop_
_space_group_symop_operation_xyz
x,y,z
x,-y,1/2+z
1/2+x,1/2+y,z
1/2+x,1/2-y,1/2+z
loop_
_atom_site_type_symbol
_atom_site_label
_atom_site_fract_x
_atom_site_fract_y
_atom_site_fract_z
Si Si1 0.766680 0.724410 0.641430
Si Si2 0.988830 0.999333 0.005526
Si Si3 0.418751 0.644904 0.779077
Si Si4 0.630782 0.354336 0.861687
Si Si5 0.895813 0.069567 0.373798
Si Si6 0.775912 0.224606 0.505275
Si Si7 0.179365 0.931532 0.242305
Si Si8 0.328501 0.992918 0.483986
O O1 0.598271 0.685668 0.698770
O O2 0.983439 0.748397 0.396597
O O3 0.022343 0.712987 0.572428
O O4 0.687310 0.988949 0.296769
O O5 0.946735 0.965653 0.936185
O O6 0.325298 0.995986 0.847628
O O7 0.949972 0.045576 0.993252
O O8 0.522732 0.637695 0.571360
O O9 0.548289 0.608371 0.771960
O O10 0.025387 0.648505 0.070816
O O11 0.501683 0.389770 0.864690
O O12 0.453676 0.313377 0.941787
O O13 0.537514 0.073751 0.559220
O O14 0.152411 0.050214 0.106630
O O15 0.055116 0.252344 0.253213
O O16 0.193747 0.967711 0.138559
#
# Coordination Sequence:
#
# PCOD9137942 Si02
#       8
#     4   4   4   4   4   4   4   4
#     4  10  22  45  74 102 135 177 220 267 329 401
#     4  11  23  41  65  92 125 172 222 277 336 396
#     4  12  28  44  67 102 137 177 220 277 331 391
#     4  12  28  44  67 102 137 177 220 277 331 391
#     4  11  25  41  63  92 128 174 222 276 333 395
#     4  10  22  45  74 102 135 177 220 267 329 401
#     4  11  25  41  63  92 128 174 222 276 333 395
#     4  11  23  41  65  92 125 172 222 277 336 396
#
# _framework density 20.977467000000001
#
# number of rings (size 3 to 8) (size 9 to 14) (size 15 to 20)
#    0.000    1.000    2.500    3.000    7.000    3.000 
#    0.000    3.750    0.000    0.000    0.000    0.000 
#    0.000    0.000    0.000    0.000    0.000    0.000 
#
# Total GULP energy -89222.789173 kJ/mol
# GULP energy per Si atom -5576.424323 kJ/mol
# Density = 2.092972 g / cm^3
# Si number density = 20.977467 Si / 1000 Ang^3
#
#
#
# Elastic Constant Matrix: (Units=GPa)
#
#
# Indices 1 2 3 4 5 6 
#
# 1 128.4521 85.7704 64.0181 0.0000 -15.4066 0.0000
# 2 85.7704 135.0725 57.6542 0.0000 -25.3258 0.0000
# 3 64.0181 57.6542 133.7888 0.0000 -15.9646 0.0000
# 4 0.0000 0.0000 0.0000 10.4972 0.0000 -9.2256
# 5 -15.4066 -25.3258 -15.9646 0.0000 33.1797 0.0000
# 6 0.0000 0.0000 0.0000 -9.2256 0.0000 46.6162
#
#
#
# Elastic Compliance Matrix: (Units=1/GPa)
#
#
# Indices 1 2 3 4 5 6 
#
# 1 0.014932 -0.008056 -0.003798 0.000000 -0.001043 0.000000
# 2 -0.008056 0.014412 -0.001580 0.000000 0.006500 0.000000
# 3 -0.003798 -0.001580 0.010204 0.000000 0.001940 0.000000
# 4 0.000000 0.000000 0.000000 0.115322 0.000000 0.022823
# 5 -0.001043 0.006500 0.001940 0.000000 0.035549 0.000000
# 6 0.000000 0.000000 0.000000 0.022823 0.000000 0.025969
#
#
# Mechanical properties :
#
#
# Convention : Reuss Voigt Hill
#
# Bulk Modulus (GPa) = 78.86447 90.24432 84.55439
# Shear Modulus (GPa) = 20.20338 30.71667 25.46002
#
# Velocity S-wave (km/s) = 3.10675 3.83073 3.48758
# Velocity P-wave (km/s) = 7.10955 7.91701 7.52412
#
# Compressibility (1/GPa) = 0.01267998
#
# Stress axis : x y z
#
# Youngs Moduli (GPa) = 66.97037 69.38509 97.99925
#
# Poissons Ratio (x) = 0.55899 0.37217
# Poissons Ratio (y) = 0.53953 0.15486
# Poissons Ratio (z) = 0.25433 0.10964
#
# Static dielectric constant tensor:
#      x y z
#    x 1.805610 0.000000 0.128570 
#    y 0.000000 1.687890 0.000000 
#    z 0.128570 0.000000 1.937450 
# 
# From -- ./inp_files/1244.got.cif
#   From: 2010.05.17/outbox.cif.g08.bks.cpg/sg9_1_cif.got.tgz:1244.got - 2010.06.03 20:04:27.
