data_PCOD9137894
_publ_section_title
;
Structure prediction by ZEFSAII (Michael W. Deem and Ramdas Pophale) SiO2 
 PCOD9137894
Probable space group: C C
;
_chemical_formula_sum "Si O2"
_cell_formula_units_Z 32
_cell_length_a 19.624337
_cell_length_b 8.917215
_cell_length_c 10.061172
_cell_angle_alpha 90.000000
_cell_angle_beta 133.816671
_cell_angle_gamma 90.000000
_cell_volume 1270.411855
_symmetry_space_group_name_H-M "C C"
_symmetry_group_IT_number 9
_symmetry_cell_setting 'monoclinic'
loop_
_space_group_symop_operation_xyz
x,y,z
x,-y,1/2+z
1/2+x,1/2+y,z
1/2+x,1/2-y,1/2+z
loop_
_atom_site_type_symbol
_atom_site_label
_atom_site_fract_x
_atom_site_fract_y
_atom_site_fract_z
Si Si1 0.802280 0.807624 0.788330
Si Si2 0.571405 0.529261 0.148856
Si Si3 0.616899 0.667577 0.944594
Si Si4 0.365431 0.631696 0.885194
Si Si5 0.598584 0.762512 0.499115
Si Si6 0.492396 0.146123 0.071956
Si Si7 0.909779 0.616535 0.619025
Si Si8 0.317007 0.174430 0.102084
O O1 0.704044 0.763172 0.586390
O O2 0.800661 0.986983 0.785688
O O3 0.906218 0.744474 0.888387
O O4 0.796222 0.737042 0.927826
O O5 0.602832 0.652071 0.083313
O O6 0.465493 0.555523 0.050524
O O7 0.583228 0.384389 0.069189
O O8 0.617516 0.484435 0.351746
O O9 0.539649 0.771884 0.764254
O O10 0.724612 0.710430 0.064332
O O11 0.386574 0.717452 0.775634
O O12 0.345041 0.751968 0.972997
O O13 0.578803 0.885367 0.589438
O O14 0.509885 0.805185 0.289315
O O15 0.441158 0.995711 0.044649
O O16 0.855108 0.495791 0.639293
#
# Coordination Sequence:
#
# PCOD9137894 Si02
#       8
#     4   4   4   4   4   4   4   4
#     4  11  23  45  74 101 138 197 245 304 371 445
#     4  11  23  45  73 105 141 196 244 307 366 446
#     4  11  23  44  75 102 149 194 245 307 373 444
#     4  12  26  45  75 106 143 199 254 296 379 455
#     4  11  23  41  70 103 142 184 245 308 375 425
#     4  10  22  45  68  99 148 187 237 313 372 430
#     4  11  26  44  69 107 145 193 243 312 373 443
#     4  11  26  47  70 105 152 192 245 313 377 438
#
# _framework density 25.188682
#
# number of rings (size 3 to 8) (size 9 to 14) (size 15 to 20)
#    0.000    1.000    5.000    3.000    5.250    1.000 
#    0.000    1.250    0.000    0.000    0.000    0.000 
#    0.000    0.000    0.000    0.000    0.000    0.000 
#
# Total GULP energy -89170.864207 kJ/mol
# GULP energy per Si atom -5573.179013 kJ/mol
# Density = 2.513135 g / cm^3
# Si number density = 25.188682 Si / 1000 Ang^3
#
#
#
# Elastic Constant Matrix: (Units=GPa)
#
#
# Indices 1 2 3 4 5 6 
#
# 1 61.3328 -8.8530 5.3774 0.0000 14.1012 0.0000
# 2 -8.8530 111.3749 35.5999 0.0000 11.9114 0.0000
# 3 5.3774 35.5999 86.6413 0.0000 3.9982 0.0000
# 4 0.0000 0.0000 0.0000 30.7459 0.0000 -9.3693
# 5 14.1012 11.9114 3.9982 0.0000 40.0681 0.0000
# 6 0.0000 0.0000 0.0000 -9.3693 0.0000 14.3102
#
#
#
# Elastic Compliance Matrix: (Units=1/GPa)
#
#
# Indices 1 2 3 4 5 6 
#
# 1 0.018548 0.002883 -0.002004 0.000000 -0.007185 0.000000
# 2 0.002883 0.011075 -0.004552 0.000000 -0.003853 0.000000
# 3 -0.002004 -0.004552 0.013504 0.000000 0.000711 0.000000
# 4 0.000000 0.000000 0.000000 0.040631 0.000000 0.026602
# 5 -0.007185 -0.003853 0.000711 0.000000 0.028561 0.000000
# 6 0.000000 0.000000 0.000000 0.026602 0.000000 0.087298
#
#
# Mechanical properties :
#
#
# Convention : Reuss Voigt Hill
#
# Bulk Modulus (GPa) = 27.94734 35.95529 31.95132
# Shear Modulus (GPa) = 22.84268 32.17316 27.50792
#
# Velocity S-wave (km/s) = 3.01468 3.57779 3.30824
# Velocity P-wave (km/s) = 4.82048 5.60115 5.22541
#
# Compressibility (1/GPa) = 0.03578158
#
# Stress axis : x y z
#
# Youngs Moduli (GPa) = 53.91324 90.29461 74.05391
#
# Poissons Ratio (x) = -0.26036 0.14844
# Poissons Ratio (y) = -0.15546 0.33707
# Poissons Ratio (z) = 0.10806 0.41099
#
# Static dielectric constant tensor:
#      x y z
#    x 2.048950 0.000000 -0.042360 
#    y 0.000000 2.060560 0.000000 
#    z -0.042360 0.000000 2.039010 
# 
# From -- ./inp_files/20816.got.cif
#   From: 2010.05.17/outbox.cif.g08.bks.cpg/sg9_11_cif.got.tgz:20816.got - 2010.06.03 20:04:27.
