data_PCOD9137538
_publ_section_title
;
Structure prediction by ZEFSAII (Michael W. Deem and Ramdas Pophale) SiO2 
 PCOD9137538
Probable space group: C C
;
_chemical_formula_sum "Si O2"
_cell_formula_units_Z 32
_cell_length_a 7.724419
_cell_length_b 15.087452
_cell_length_c 14.300573
_cell_angle_alpha 90.000000
_cell_angle_beta 53.918201
_cell_angle_gamma 90.000000
_cell_volume 1346.919551
_symmetry_space_group_name_H-M "C C"
_symmetry_group_IT_number 9
_symmetry_cell_setting 'monoclinic'
loop_
_space_group_symop_operation_xyz
x,y,z
x,-y,1/2+z
1/2+x,1/2+y,z
1/2+x,1/2-y,1/2+z
loop_
_atom_site_type_symbol
_atom_site_label
_atom_site_fract_x
_atom_site_fract_y
_atom_site_fract_z
Si Si1 0.183870 0.377037 0.513000
Si Si2 0.133732 0.219974 0.406190
Si Si3 0.259992 0.712043 0.390660
Si Si4 0.071739 0.476215 0.291277
Si Si5 0.125097 0.681455 0.228924
Si Si6 0.626811 0.404825 0.425361
Si Si7 0.471962 0.043053 0.528840
Si Si8 0.531468 0.568145 0.590033
O O1 0.079914 0.314393 0.468781
O O2 0.203006 0.313463 0.598149
O O3 0.430280 0.403561 0.415229
O O4 0.053385 0.467513 0.573288
O O5 0.386515 0.219780 0.309080
O O6 0.082231 0.143483 0.497828
O O7 0.995675 0.202473 0.358097
O O8 0.167478 0.806625 0.451005
O O9 0.114946 0.631618 0.476592
O O10 0.252208 0.713737 0.279888
O O11 0.106028 0.576546 0.249797
O O12 0.020194 0.490742 0.416665
O O13 0.291024 0.423995 0.204253
O O14 0.858547 0.434939 0.314468
O O15 0.553605 0.474760 0.527547
O O16 0.221721 0.067429 0.605924
#
# Coordination Sequence:
#
# PCOD9137538 Si02
#       8
#     4   4   4   4   4   4   4   4
#     4  12  25  44  76 105 146 190 241 295 371 420
#     4  12  24  46  72 108 148 187 239 303 348 437
#     4  11  24  47  73 101 151 188 236 300 361 413
#     4  10  22  42  70 101 142 190 233 286 364 419
#     4  11  24  47  69 107 143 190 243 295 355 432
#     4  11  21  44  70  99 145 188 234 298 345 432
#     4  10  23  44  70 105 140 191 233 301 354 429
#     4  11  21  44  72 104 147 182 243 290 356 432
#
# _framework density 23.757912999999999
#
# number of rings (size 3 to 8) (size 9 to 14) (size 15 to 20)
#    0.000    1.000    6.250    2.250    0.000    4.000 
#    4.500    0.000    0.000    0.000    0.000    0.000 
#    0.000    0.000    0.000    0.000    0.000    0.000 
#
# Total GULP energy -89457.646819 kJ/mol
# GULP energy per Si atom -5591.102926 kJ/mol
# Density = 2.370384 g / cm^3
# Si number density = 23.757913 Si / 1000 Ang^3
#
#
#
# Elastic Constant Matrix: (Units=GPa)
#
#
# Indices 1 2 3 4 5 6 
#
# 1 156.9507 19.3842 33.0822 0.0000 -28.1834 0.0000
# 2 19.3842 109.4471 -0.4041 0.0000 -8.0464 0.0000
# 3 33.0822 -0.4041 87.4965 0.0000 -22.5648 0.0000
# 4 0.0000 0.0000 0.0000 10.0853 0.0000 -3.0086
# 5 -28.1834 -8.0464 -22.5648 0.0000 32.0384 0.0000
# 6 0.0000 0.0000 0.0000 -3.0086 0.0000 40.4491
#
#
#
# Elastic Compliance Matrix: (Units=1/GPa)
#
#
# Indices 1 2 3 4 5 6 
#
# 1 0.007811 -0.000981 -0.001527 0.000000 0.005549 0.000000
# 2 -0.000981 0.009477 0.000985 0.000000 0.002211 0.000000
# 3 -0.001527 0.000985 0.014331 0.000000 0.008998 0.000000
# 4 0.000000 0.000000 0.000000 0.101404 0.000000 0.007542
# 5 0.005549 0.002211 0.008998 0.000000 0.042987 0.000000
# 6 0.000000 0.000000 0.000000 0.007542 0.000000 0.025283
#
#
# Mechanical properties :
#
#
# Convention : Reuss Voigt Hill
#
# Bulk Modulus (GPa) = 34.99772 50.89099 42.94435
# Shear Modulus (GPa) = 23.37939 36.63668 30.00804
#
# Velocity S-wave (km/s) = 3.14039 3.93120 3.55783
# Velocity P-wave (km/s) = 5.28321 6.48636 5.91546
#
# Compressibility (1/GPa) = 0.02857329
#
# Stress axis : x y z
#
# Youngs Moduli (GPa) = 128.02649 105.52143 69.77712
#
# Poissons Ratio (x) = 0.10352 0.10652
# Poissons Ratio (y) = 0.12560 -0.06872
# Poissons Ratio (z) = 0.19545 -0.10392
#
# Static dielectric constant tensor:
#      x y z
#    x 2.031210 0.000000 0.055030 
#    y 0.000000 1.889740 0.000000 
#    z 0.055030 0.000000 1.940750 
# 
# From -- ./inp_files/23260.got.cif
#   From: 2010.05.17/outbox.cif.g08.bks.cpg/sg9_12_cif.got.tgz:23260.got - 2010.06.03 20:04:27.
