data_PCOD9137431
_publ_section_title
;
Structure prediction by ZEFSAII (Michael W. Deem and Ramdas Pophale) SiO2 
 PCOD9137431
Probable space group: C C
;
_chemical_formula_sum "Si O2"
_cell_formula_units_Z 24
_cell_length_a 6.079173
_cell_length_b 20.513099
_cell_length_c 8.195227
_cell_angle_alpha 90.000000
_cell_angle_beta 85.685497
_cell_angle_gamma 90.000000
_cell_volume 1019.070622
_symmetry_space_group_name_H-M "C C"
_symmetry_group_IT_number 9
_symmetry_cell_setting 'monoclinic'
loop_
_space_group_symop_operation_xyz
x,y,z
x,-y,1/2+z
1/2+x,1/2+y,z
1/2+x,1/2-y,1/2+z
loop_
_atom_site_type_symbol
_atom_site_label
_atom_site_fract_x
_atom_site_fract_y
_atom_site_fract_z
Si Si1 0.559840 0.505571 0.052980
Si Si2 0.273912 0.090557 0.322426
Si Si3 0.293769 0.221300 0.494577
Si Si4 0.003824 0.353786 0.526894
Si Si5 0.330829 0.586063 0.782808
Si Si6 0.149265 0.802372 0.332879
O O1 0.627153 0.552805 0.196680
O O2 0.364655 0.457029 0.121854
O O3 0.760444 0.459720 0.975844
O O4 0.471442 0.549053 0.912645
O O5 0.196804 0.160187 0.400191
O O6 0.488947 0.109163 0.200941
O O7 0.329417 0.204620 0.682164
O O8 0.145940 0.287040 0.513559
O O9 0.523696 0.238405 0.396897
O O10 0.759992 0.333169 0.485153
O O11 0.098327 0.400206 0.379395
O O12 0.460478 0.653938 0.759170
#
# Coordination Sequence:
#
# PCOD9137431 Si02
#       6
#     4   4   4   4   4   4
#     4  10  22  42  70  91 137 175 217 275 319 399
#     4  11  22  43  67  98 133 178 219 272 330 387
#     4  11  24  42  67  98 135 171 218 273 336 392
#     4  11  25  41  68  96 132 172 223 273 333 391
#     4  10  22  42  62  95 130 170 218 265 328 389
#     4  11  23  42  64  98 133 170 215 276 326 396
#
# _framework density 23.550871000000001
#
# number of rings (size 3 to 8) (size 9 to 14) (size 15 to 20)
#    0.000    1.333    5.000    0.000    2.333    1.333 
#    0.000    1.667    0.000    0.000    0.000    0.000 
#    0.000    0.000    0.000    0.000    0.000    0.000 
#
# Total GULP energy -66912.049134 kJ/mol
# GULP energy per Si atom -5576.004095 kJ/mol
# Density = 2.349727 g / cm^3
# Si number density = 23.550871 Si / 1000 Ang^3
#
#
#
# Elastic Constant Matrix: (Units=GPa)
#
#
# Indices 1 2 3 4 5 6 
#
# 1 32.0389 22.5587 7.5826 0.0000 -14.5002 0.0000
# 2 22.5587 91.9407 37.4802 0.0000 -17.9999 0.0000
# 3 7.5826 37.4802 106.7694 0.0000 -34.0053 0.0000
# 4 0.0000 0.0000 0.0000 22.2908 0.0000 -12.9602
# 5 -14.5002 -17.9999 -34.0053 0.0000 29.9084 0.0000
# 6 0.0000 0.0000 0.0000 -12.9602 0.0000 32.1927
#
#
#
# Elastic Compliance Matrix: (Units=1/GPa)
#
#
# Indices 1 2 3 4 5 6 
#
# 1 0.048803 -0.010196 0.008928 0.000000 0.027675 0.000000
# 2 -0.010196 0.015141 -0.005116 0.000000 -0.001647 0.000000
# 3 0.008928 -0.005116 0.017128 0.000000 0.020724 0.000000
# 4 0.000000 0.000000 0.000000 0.058571 0.000000 0.023580
# 5 0.027675 -0.001647 0.020724 0.000000 0.069425 0.000000
# 6 0.000000 0.000000 0.000000 0.023580 0.000000 0.040556
#
#
# Mechanical properties :
#
#
# Convention : Reuss Voigt Hill
#
# Bulk Modulus (GPa) = 14.64018 40.66579 27.65298
# Shear Modulus (GPa) = 17.53402 27.75353 22.64378
#
# Velocity S-wave (km/s) = 2.73154 3.43658 3.10414
# Velocity P-wave (km/s) = 4.02223 5.74904 4.96134
#
# Compressibility (1/GPa) = 0.06830518
#
# Stress axis : x y z
#
# Youngs Moduli (GPa) = 20.49043 66.04509 58.38329
#
# Poissons Ratio (x) = 0.67337 -0.52122
# Poissons Ratio (y) = 0.20891 0.29867
# Poissons Ratio (z) = -0.18293 0.33786
#
# Static dielectric constant tensor:
#      x y z
#    x 1.902420 0.000000 -0.048260 
#    y 0.000000 1.946790 0.000000 
#    z -0.048260 0.000000 1.917610 
# 
# From -- ./inp_files/3964.got.cif
#   From: 2010.05.17/outbox.cif.g08.bks.cpg/sg9_2_cif.got.tgz:3964.got - 2010.06.03 20:04:27.
