data_PCOD9137977
_publ_section_title
;
Structure prediction by ZEFSAII (Michael W. Deem and Ramdas Pophale) SiO2 
 PCOD9137977
Probable space group: C C
;
_chemical_formula_sum "Si O2"
_cell_formula_units_Z 28
_cell_length_a 7.823523
_cell_length_b 16.710618
_cell_length_c 10.123017
_cell_angle_alpha 90.000000
_cell_angle_beta 61.820201
_cell_angle_gamma 90.000000
_cell_volume 1166.574236
_symmetry_space_group_name_H-M "C C"
_symmetry_group_IT_number 9
_symmetry_cell_setting 'monoclinic'
loop_
_space_group_symop_operation_xyz
x,y,z
x,-y,1/2+z
1/2+x,1/2+y,z
1/2+x,1/2-y,1/2+z
loop_
_atom_site_type_symbol
_atom_site_label
_atom_site_fract_x
_atom_site_fract_y
_atom_site_fract_z
Si Si1 0.031020 0.185389 0.518700
Si Si2 0.924141 0.594876 0.788320
Si Si3 0.230381 0.334677 0.593100
Si Si4 0.355913 0.071310 0.332990
Si Si5 0.110797 0.579397 0.457676
Si Si6 0.290082 0.579875 0.815002
Si Si7 0.307584 0.269862 0.831992
O O1 0.121780 0.256176 0.574396
O O2 0.200065 0.138706 0.381035
O O3 0.920991 0.122479 0.655408
O O4 0.908758 0.216944 0.437651
O O5 0.793248 0.516926 0.815910
O O6 0.811905 0.676227 0.807976
O O7 0.091434 0.577206 0.619501
O O8 0.062389 0.601500 0.866454
O O9 0.340686 0.377744 0.434163
O O10 0.365913 0.309454 0.668131
O O11 0.058484 0.397177 0.697604
O O12 0.408221 0.056234 0.467091
O O13 0.272145 0.516957 0.343849
O O14 0.123103 0.673536 0.418612
#
# Coordination Sequence:
#
# PCOD9137977 Si02
#       7
#     4   4   4   4   4   4   4
#     4  12  24  46  69 113 139 182 241 304 346 421
#     4  11  21  45  71 101 135 189 232 288 356 428
#     4  11  23  46  71 103 138 196 232 290 358 431
#     4  10  24  43  73  97 141 181 237 285 357 422
#     4  10  22  46  69 100 136 192 232 286 362 428
#     4  11  23  44  74  96 145 186 230 294 363 418
#     4  11  25  42  73 102 138 182 242 291 350 426
#
# _framework density 24.001902000000001
#
# number of rings (size 3 to 8) (size 9 to 14) (size 15 to 20)
#    0.000    1.143    4.286    1.714    0.000    1.143 
#    7.714    0.000    0.000    0.000    0.000    0.000 
#    0.000    0.000    0.000    0.000    0.000    0.000 
#
# Total GULP energy -77934.621186 kJ/mol
# GULP energy per Si atom -5566.758656 kJ/mol
# Density = 2.394727 g / cm^3
# Si number density = 24.001902 Si / 1000 Ang^3
#
#
#
# Elastic Constant Matrix: (Units=GPa)
#
#
# Indices 1 2 3 4 5 6 
#
# 1 19.9047 11.0865 21.5725 0.0000 10.1079 0.0000
# 2 11.0865 180.4161 45.0598 0.0000 -9.6190 0.0000
# 3 21.5725 45.0598 83.0922 0.0000 20.4696 0.0000
# 4 0.0000 0.0000 0.0000 34.6465 0.0000 1.9348
# 5 10.1079 -9.6190 20.4696 0.0000 32.1477 0.0000
# 6 0.0000 0.0000 0.0000 1.9348 0.0000 23.3785
#
#
#
# Elastic Compliance Matrix: (Units=1/GPa)
#
#
# Indices 1 2 3 4 5 6 
#
# 1 0.074684 -0.001627 -0.014947 0.000000 -0.014451 0.000000
# 2 -0.001627 0.007171 -0.004888 0.000000 0.005769 0.000000
# 3 -0.014947 -0.004888 0.021074 0.000000 -0.010181 0.000000
# 4 0.000000 0.000000 0.000000 0.028997 0.000000 -0.002400
# 5 -0.014451 0.005769 -0.010181 0.000000 0.043859 0.000000
# 6 0.000000 0.000000 0.000000 -0.002400 0.000000 0.042973
#
#
# Mechanical properties :
#
#
# Convention : Reuss Voigt Hill
#
# Bulk Modulus (GPa) = 16.66509 48.76118 32.71314
# Shear Modulus (GPa) = 17.75044 31.74749 24.74896
#
# Velocity S-wave (km/s) = 2.72240 3.64085 3.21460
# Velocity P-wave (km/s) = 4.10369 6.16717 5.23805
#
# Compressibility (1/GPa) = 0.06000567
#
# Stress axis : x y z
#
# Youngs Moduli (GPa) = 13.38979 139.45037 47.45153
#
# Poissons Ratio (x) = 0.22683 0.70927
# Poissons Ratio (y) = 0.02178 0.23193
# Poissons Ratio (z) = 0.20014 0.68159
#
# Static dielectric constant tensor:
#      x y z
#    x 1.925990 0.000000 0.039000 
#    y 0.000000 1.980410 0.000000 
#    z 0.039000 0.000000 2.076320 
# 
# From -- ./inp_files/14533.got.cif
#   From: 2010.05.17/outbox.cif.g08.bks.cpg/sg9_8_cif.got.tgz:14533.got - 2010.06.03 20:04:27.
