data_PCOD9137211
_publ_section_title
;
Structure prediction by ZEFSAII (Michael W. Deem and Ramdas Pophale) SiO2 
 PCOD9137211
Probable space group: C C
;
_chemical_formula_sum "Si O2"
_cell_formula_units_Z 32
_cell_length_a 20.723331
_cell_length_b 12.892228
_cell_length_c 14.175117
_cell_angle_alpha 90.000000
_cell_angle_beta 158.727671
_cell_angle_gamma 90.000000
_cell_volume 1373.988006
_symmetry_space_group_name_H-M "C C"
_symmetry_group_IT_number 9
_symmetry_cell_setting 'monoclinic'
loop_
_space_group_symop_operation_xyz
x,y,z
x,-y,1/2+z
1/2+x,1/2+y,z
1/2+x,1/2-y,1/2+z
loop_
_atom_site_type_symbol
_atom_site_label
_atom_site_fract_x
_atom_site_fract_y
_atom_site_fract_z
Si Si1 0.008760 0.252522 0.590430
Si Si2 0.760132 0.841728 0.240929
Si Si3 0.957392 0.966887 0.350934
Si Si4 0.198285 0.628024 0.203048
Si Si5 0.419779 0.976706 0.743961
Si Si6 0.860938 0.523141 0.943050
Si Si7 0.152191 0.157477 0.978349
Si Si8 0.226086 0.437420 0.380069
O O1 0.146553 0.272494 0.694957
O O2 0.862129 0.166895 0.364350
O O3 0.925123 0.365810 0.492446
O O4 0.097229 0.216719 0.808483
O O5 0.771717 0.731248 0.206802
O O6 0.783849 0.846485 0.386462
O O7 0.876590 0.921939 0.337369
O O8 0.560316 0.883877 0.951533
O O9 0.984285 0.871383 0.314203
O O10 0.158033 0.003153 0.640528
O O11 0.833555 0.045721 0.123118
O O12 0.258866 0.537404 0.356799
O O13 0.027406 0.580085 0.918628
O O14 0.369769 0.978780 0.567613
O O15 0.252228 0.946300 0.579409
O O16 0.015906 0.444974 0.117221
#
# Coordination Sequence:
#
# PCOD9137211 Si02
#       8
#     4   4   4   4   4   4   4   4
#     4  11  21  39  66 101 131 170 237 288 337 402
#     4  11  23  40  69 100 138 178 233 291 347 401
#     4  12  24  41  69 103 135 184 230 283 359 417
#     4  10  22  40  65 100 135 172 224 294 342 399
#     4  11  23  42  68 100 144 183 227 291 353 410
#     4  11  24  43  68  99 141 185 232 288 352 417
#     4  12  23  40  71 103 132 181 240 294 340 418
#     4  10  22  45  62 102 138 179 225 291 350 416
#
# _framework density 23.289868999999999
#
# number of rings (size 3 to 8) (size 9 to 14) (size 15 to 20)
#    0.000    1.000    3.750    4.500    1.750    2.000 
#    0.000    1.250    0.000    0.000    0.000    0.000 
#    0.000    0.000    0.000    0.000    0.000    0.000 
#
# Total GULP energy -89471.879570 kJ/mol
# GULP energy per Si atom -5591.992473 kJ/mol
# Density = 2.323686 g / cm^3
# Si number density = 23.289869 Si / 1000 Ang^3
#
#
#
# Elastic Constant Matrix: (Units=GPa)
#
#
# Indices 1 2 3 4 5 6 
#
# 1 110.3451 18.3801 31.0380 0.0000 4.8087 0.0000
# 2 18.3801 46.1100 16.9246 0.0000 -4.7194 0.0000
# 3 31.0380 16.9246 101.2690 0.0000 -11.5748 0.0000
# 4 0.0000 0.0000 0.0000 37.4012 0.0000 8.1014
# 5 4.8087 -4.7194 -11.5748 0.0000 33.3032 0.0000
# 6 0.0000 0.0000 0.0000 8.1014 0.0000 29.0461
#
#
#
# Elastic Compliance Matrix: (Units=1/GPa)
#
#
# Indices 1 2 3 4 5 6 
#
# 1 0.010622 -0.003436 -0.003033 0.000000 -0.003075 0.000000
# 2 -0.003436 0.024346 -0.002671 0.000000 0.003018 0.000000
# 3 -0.003033 -0.002671 0.011723 0.000000 0.004134 0.000000
# 4 0.000000 0.000000 0.000000 0.028456 0.000000 -0.007937
# 5 -0.003075 0.003018 0.004134 0.000000 0.032335 0.000000
# 6 0.000000 0.000000 0.000000 -0.007937 0.000000 0.036642
#
#
# Mechanical properties :
#
#
# Convention : Reuss Voigt Hill
#
# Bulk Modulus (GPa) = 35.19587 43.37883 39.28735
# Shear Modulus (GPa) = 29.09119 32.70888 30.90003
#
# Velocity S-wave (km/s) = 3.53808 3.75163 3.64642
# Velocity P-wave (km/s) = 5.64231 6.11820 5.88507
#
# Compressibility (1/GPa) = 0.02841243
#
# Stress axis : x y z
#
# Youngs Moduli (GPa) = 94.14635 41.07459 85.30198
#
# Poissons Ratio (x) = 0.14111 0.25870
# Poissons Ratio (y) = 0.32344 0.22784
# Poissons Ratio (z) = 0.28552 0.10971
#
# Static dielectric constant tensor:
#      x y z
#    x 1.896190 0.000000 0.006610 
#    y 0.000000 1.933200 0.000000 
#    z 0.006610 0.000000 1.880050 
# 
# From -- ./inp_files/11798.got.cif
#   From: 2010.05.17/outbox.cif.g08.bks.cpg/sg9_6_cif.got.tgz:11798.got - 2010.06.03 20:04:27.
