data_PCOD9137102
_publ_section_title
;
Structure prediction by ZEFSAII (Michael W. Deem and Ramdas Pophale) SiO2 
 PCOD9137102
Probable space group: C C
;
_chemical_formula_sum "Si O2"
_cell_formula_units_Z 32
_cell_length_a 6.705161
_cell_length_b 27.889385
_cell_length_c 8.376658
_cell_angle_alpha 90.000000
_cell_angle_beta 92.867263
_cell_angle_gamma 90.000000
_cell_volume 1564.497592
_symmetry_space_group_name_H-M "C C"
_symmetry_group_IT_number 9
_symmetry_cell_setting 'monoclinic'
loop_
_space_group_symop_operation_xyz
x,y,z
x,-y,1/2+z
1/2+x,1/2+y,z
1/2+x,1/2-y,1/2+z
loop_
_atom_site_type_symbol
_atom_site_label
_atom_site_fract_x
_atom_site_fract_y
_atom_site_fract_z
Si Si1 0.136850 0.209249 0.753490
Si Si2 0.005183 0.460073 0.191201
Si Si3 0.659403 0.361857 0.697115
Si Si4 0.730688 0.614520 0.564873
Si Si5 0.440931 0.789620 0.533396
Si Si6 0.928803 0.943087 0.274192
Si Si7 0.779611 0.456235 0.505390
Si Si8 0.319076 0.653448 0.951138
O O1 0.228434 0.162972 0.668063
O O2 0.061992 0.247908 0.624805
O O3 0.949084 0.189932 0.848508
O O4 0.299820 0.228510 0.884851
O O5 0.239675 0.471019 0.198256
O O6 0.934986 0.449048 0.367928
O O7 0.939920 0.413909 0.084927
O O8 0.873912 0.504133 0.122509
O O9 0.672803 0.373554 0.882818
O O10 0.799335 0.317480 0.652590
O O11 0.736246 0.407605 0.598560
O O12 0.437904 0.351296 0.622851
O O13 0.570367 0.579283 0.643393
O O14 0.599183 0.827262 0.468917
O O15 0.836189 0.897308 0.362985
O O16 0.073194 0.969806 0.405713
#
# Coordination Sequence:
#
# PCOD9137102 Si02
#       8
#     4   4   4   4   4   4   4   4
#     4  10  24  39  60  87 125 161 209 261 314 372
#     4  11  21  39  64  89 123 166 206 254 319 373
#     4  10  22  41  62  92 126 163 206 263 309 369
#     4  10  22  40  60  90 126 160 210 262 308 373
#     4  11  23  40  63  88 123 167 208 259 315 374
#     4   9  20  40  62  86 123 166 201 254 316 366
#     4  10  22  39  62  91 126 157 210 262 304 377
#     4   9  20  40  61  85 120 164 208 249 311 368
#
# _framework density 20.453851
#
# number of rings (size 3 to 8) (size 9 to 14) (size 15 to 20)
#    0.000    2.000    0.000    4.500    3.500    4.000 
#    2.250    3.750    0.000    0.000    0.000    0.000 
#    0.000    0.000    0.000    0.000    0.000    0.000 
#
# Total GULP energy -89409.347204 kJ/mol
# GULP energy per Si atom -5588.084200 kJ/mol
# Density = 2.040730 g / cm^3
# Si number density = 20.453851 Si / 1000 Ang^3
#
#
#
# Elastic Constant Matrix: (Units=GPa)
#
#
# Indices 1 2 3 4 5 6 
#
# 1 100.7740 22.1553 18.6241 0.0000 24.3949 0.0000
# 2 22.1553 61.1746 10.5686 0.0000 21.6294 0.0000
# 3 18.6241 10.5686 88.2441 0.0000 14.5418 0.0000
# 4 0.0000 0.0000 0.0000 26.9479 0.0000 10.6189
# 5 24.3949 21.6294 14.5418 0.0000 20.8843 0.0000
# 6 0.0000 0.0000 0.0000 10.6189 0.0000 22.8110
#
#
#
# Elastic Compliance Matrix: (Units=1/GPa)
#
#
# Indices 1 2 3 4 5 6 
#
# 1 0.013887 0.001087 -0.000229 0.000000 -0.017189 0.000000
# 2 0.001087 0.026049 0.001475 0.000000 -0.029276 0.000000
# 3 -0.000229 0.001475 0.012891 0.000000 -0.010236 0.000000
# 4 0.000000 0.000000 0.000000 0.045445 0.000000 -0.021155
# 5 -0.017189 -0.029276 -0.010236 0.000000 0.105409 0.000000
# 6 0.000000 0.000000 0.000000 -0.021155 0.000000 0.053687
#
#
# Mechanical properties :
#
#
# Convention : Reuss Voigt Hill
#
# Bulk Modulus (GPa) = 17.39290 39.20984 28.30137
# Shear Modulus (GPa) = 18.39149 27.38495 22.88822
#
# Velocity S-wave (km/s) = 3.00187 3.66302 3.34880
# Velocity P-wave (km/s) = 4.53177 6.09113 5.36837
#
# Compressibility (1/GPa) = 0.05749472
#
# Stress axis : x y z
#
# Youngs Moduli (GPa) = 72.00779 38.38923 77.57557
#
# Poissons Ratio (x) = -0.04175 0.01774
# Poissons Ratio (y) = -0.07830 -0.11443
# Poissons Ratio (z) = 0.01646 -0.05663
#
# Static dielectric constant tensor:
#      x y z
#    x 1.733190 0.000000 0.012130 
#    y 0.000000 1.730320 0.000000 
#    z 0.012130 0.000000 1.708540 
# 
# From -- ./inp_files/4337.got.cif
#   From: 2010.05.17/outbox.cif.g08.bks.cpg/sg9_3_cif.got.tgz:4337.got - 2010.06.03 20:04:27.
