data_PCOD9137638
_publ_section_title
;
Structure prediction by ZEFSAII (Michael W. Deem and Ramdas Pophale) SiO2 
 PCOD9137638
Probable space group: C C
;
_chemical_formula_sum "Si O2"
_cell_formula_units_Z 28
_cell_length_a 8.357007
_cell_length_b 22.429347
_cell_length_c 10.878811
_cell_angle_alpha 90.000000
_cell_angle_beta 39.852228
_cell_angle_gamma 90.000000
_cell_volume 1306.706186
_symmetry_space_group_name_H-M "C C"
_symmetry_group_IT_number 9
_symmetry_cell_setting 'monoclinic'
loop_
_space_group_symop_operation_xyz
x,y,z
x,-y,1/2+z
1/2+x,1/2+y,z
1/2+x,1/2-y,1/2+z
loop_
_atom_site_type_symbol
_atom_site_label
_atom_site_fract_x
_atom_site_fract_y
_atom_site_fract_z
Si Si1 0.241350 0.138247 0.937170
Si Si2 0.269313 0.703288 0.105739
Si Si3 0.786502 0.865724 0.158513
Si Si4 0.624878 0.421231 0.763867
Si Si5 0.139217 0.059310 0.778200
Si Si6 0.654653 0.109240 0.001247
Si Si7 0.256426 0.167693 0.529016
O O1 0.521331 0.165101 0.783265
O O2 0.260644 0.081876 0.832842
O O3 0.140959 0.114187 0.126668
O O4 0.032036 0.182009 0.005878
O O5 0.035526 0.673031 0.311931
O O6 0.235288 0.676399 0.988251
O O7 0.239569 0.773651 0.123503
O O8 0.707945 0.903250 0.326397
O O9 0.885365 0.904077 0.985794
O O10 0.028427 0.829314 0.064713
O O11 0.667176 0.491518 0.723204
O O12 0.868297 0.400708 0.695850
O O13 0.223627 0.106844 0.625109
O O14 0.841445 0.069288 0.969161
#
# Coordination Sequence:
#
# PCOD9137638 Si02
#       7
#     4   4   4   4   4   4   4
#     4  10  25  42  65 103 140 171 235 286 335 408
#     4  11  22  46  72  98 136 179 238 283 341 417
#     4  10  22  43  67  98 137 176 230 273 344 398
#     4  11  23  41  67  97 140 184 220 287 345 400
#     4  10  24  40  65  99 140 178 231 278 344 410
#     4   9  21  42  62  97 127 178 231 272 333 417
#     4  11  23  44  74  96 136 188 225 285 348 420
#
# _framework density 21.427921999999999
#
# number of rings (size 3 to 8) (size 9 to 14) (size 15 to 20)
#    0.000    1.714    1.429    2.571    8.000    0.000 
#    5.143    8.571    3.143    0.000    0.000    0.000 
#    0.000    0.000    0.000    0.000    0.000    0.000 
#
# Total GULP energy -78065.206193 kJ/mol
# GULP energy per Si atom -5576.086157 kJ/mol
# Density = 2.137915 g / cm^3
# Si number density = 21.427922 Si / 1000 Ang^3
#
#
#
# Elastic Constant Matrix: (Units=GPa)
#
#
# Indices 1 2 3 4 5 6 
#
# 1 107.4687 37.9463 50.1726 0.0000 -26.1127 0.0000
# 2 37.9463 113.7981 42.3929 0.0000 -8.5120 0.0000
# 3 50.1726 42.3929 134.9141 0.0000 -15.2953 0.0000
# 4 0.0000 0.0000 0.0000 22.7263 0.0000 2.9844
# 5 -26.1127 -8.5120 -15.2953 0.0000 40.3659 0.0000
# 6 0.0000 0.0000 0.0000 2.9844 0.0000 17.0367
#
#
#
# Elastic Compliance Matrix: (Units=1/GPa)
#
#
# Indices 1 2 3 4 5 6 
#
# 1 0.013527 -0.002732 -0.003391 0.000000 0.006889 0.000000
# 2 -0.002732 0.010540 -0.002345 0.000000 -0.000433 0.000000
# 3 -0.003391 -0.002345 0.009514 0.000000 0.000917 0.000000
# 4 0.000000 0.000000 0.000000 0.045038 0.000000 -0.007890
# 5 0.006889 -0.000433 0.000917 0.000000 0.029486 0.000000
# 6 0.000000 0.000000 0.000000 -0.007890 0.000000 0.060079
#
#
# Mechanical properties :
#
#
# Convention : Reuss Voigt Hill
#
# Bulk Modulus (GPa) = 60.07923 68.57828 64.32875
# Shear Modulus (GPa) = 26.22372 31.07041 28.64706
#
# Velocity S-wave (km/s) = 3.50210 3.81201 3.66034
# Velocity P-wave (km/s) = 6.66720 7.17279 6.92461
#
# Compressibility (1/GPa) = 0.01664469
#
# Stress axis : x y z
#
# Youngs Moduli (GPa) = 73.92764 94.88013 105.10922
#
# Poissons Ratio (x) = 0.25921 0.35641
# Poissons Ratio (y) = 0.20197 0.24647
# Poissons Ratio (z) = 0.25068 0.22249
#
# Static dielectric constant tensor:
#      x y z
#    x 1.814370 0.000000 0.003700 
#    y 0.000000 1.788060 0.000000 
#    z 0.003700 0.000000 1.842090 
# 
# From -- ./inp_files/15452.got.cif
#   From: 2010.05.17/outbox.cif.g08.bks.cpg/sg9_8_cif.got.tgz:15452.got - 2010.06.03 20:04:27.
