data_PCOD9137363
_publ_section_title
;
Structure prediction by ZEFSAII (Michael W. Deem and Ramdas Pophale) SiO2 
 PCOD9137363
Probable space group: C C
;
_chemical_formula_sum "Si O2"
_cell_formula_units_Z 28
_cell_length_a 17.696352
_cell_length_b 7.899004
_cell_length_c 18.475914
_cell_angle_alpha 90.000000
_cell_angle_beta 26.086843
_cell_angle_gamma 90.000000
_cell_volume 1135.667023
_symmetry_space_group_name_H-M "C C"
_symmetry_group_IT_number 9
_symmetry_cell_setting 'monoclinic'
loop_
_space_group_symop_operation_xyz
x,y,z
x,-y,1/2+z
1/2+x,1/2+y,z
1/2+x,1/2-y,1/2+z
loop_
_atom_site_type_symbol
_atom_site_label
_atom_site_fract_x
_atom_site_fract_y
_atom_site_fract_z
Si Si1 0.812620 0.001059 0.801510
Si Si2 0.588034 0.759300 0.087760
Si Si3 0.349455 0.455569 0.608065
Si Si4 0.130579 0.112568 0.773543
Si Si5 0.713804 0.743306 0.139742
Si Si6 0.799018 0.811652 0.459407
Si Si7 0.960976 0.482279 0.305015
O O1 0.786342 0.024498 0.739493
O O2 0.810901 0.146190 0.863776
O O3 0.999099 0.913351 0.644154
O O4 0.674290 0.868681 0.951908
O O5 0.705462 0.735525 0.058850
O O6 0.435215 0.876172 0.254071
O O7 0.242392 0.285088 0.678886
O O8 0.546179 0.400698 0.425894
O O9 0.337897 0.618671 0.566395
O O10 0.218768 0.936412 0.674755
O O11 0.968136 0.126362 0.857490
O O12 0.533309 0.853685 0.303532
O O13 0.628097 0.901130 0.637017
O O14 0.814430 0.610768 0.454099
#
# Coordination Sequence:
#
# PCOD9137363 Si02
#       7
#     4   4   4   4   4   4   4
#     4  11  22  41  63  94 133 169 215 283 334 396
#     4   9  20  41  64  88 126 171 223 262 322 396
#     4  12  26  44  65 104 138 169 224 280 344 393
#     4  12  22  46  69  94 133 184 219 274 330 404
#     4  10  22  41  67  95 129 173 225 269 319 403
#     4  11  18  41  64  91 131 170 223 268 324 393
#     4   9  20  36  64  96 124 162 231 268 313 391
#
# _framework density 24.655114999999999
#
# number of rings (size 3 to 8) (size 9 to 14) (size 15 to 20)
#    0.857    0.571    4.286    0.857    0.000    2.286 
#   12.857    0.000    0.000    0.000    0.000    0.000 
#    0.000    0.000    0.000    0.000    0.000    0.000 
#
# Total GULP energy -78109.784636 kJ/mol
# GULP energy per Si atom -5579.270331 kJ/mol
# Density = 2.459900 g / cm^3
# Si number density = 24.655115 Si / 1000 Ang^3
#
#
#
# Elastic Constant Matrix: (Units=GPa)
#
#
# Indices 1 2 3 4 5 6 
#
# 1 50.8458 34.2558 21.8199 -0.0001 30.0051 0.0000
# 2 34.2558 144.8991 36.9373 -0.0003 16.9634 0.0001
# 3 21.8199 36.9373 98.0791 -0.0005 33.1973 0.0003
# 4 -0.0001 -0.0003 -0.0005 52.2430 0.0002 -1.5920
# 5 30.0051 16.9634 33.1973 0.0002 42.1140 -0.0001
# 6 0.0000 0.0001 0.0003 -1.5920 -0.0001 28.7407
#
#
#
# Elastic Compliance Matrix: (Units=1/GPa)
#
#
# Indices 1 2 3 4 5 6 
#
# 1 0.039303 -0.006866 0.003251 0.000000 -0.027800 0.000000
# 2 -0.006866 0.008871 -0.003082 0.000000 0.003748 0.000000
# 3 0.003251 -0.003082 0.014999 0.000000 -0.012898 0.000000
# 4 0.000000 0.000000 0.000000 0.019174 0.000000 0.001062
# 5 -0.027800 0.003748 -0.012898 0.000000 0.052210 0.000000
# 6 0.000000 0.000000 0.000000 0.001062 0.000000 0.034853
#
#
# Mechanical properties :
#
#
# Convention : Reuss Voigt Hill
#
# Bulk Modulus (GPa) = 20.08835 53.31666 36.70251
# Shear Modulus (GPa) = 25.07571 38.00692 31.54132
#
# Velocity S-wave (km/s) = 3.19260 3.93051 3.58061
# Velocity P-wave (km/s) = 4.66430 6.50157 5.65801
#
# Compressibility (1/GPa) = 0.04978009
#
# Stress axis : x y z
#
# Youngs Moduli (GPa) = 25.44341 112.72088 66.67081
#
# Poissons Ratio (x) = 0.77394 -0.21678
# Poissons Ratio (y) = 0.17469 0.20549
# Poissons Ratio (z) = -0.08273 0.34743
#
# Static dielectric constant tensor:
#      x y z
#    x 2.014740 0.000000 -0.065580 
#    y 0.000000 2.040920 0.000000 
#    z -0.065580 0.000000 2.122930 
# 
# From -- ./inp_files/25749.got.cif
#   From: 2010.05.17/outbox.cif.g08.bks.cpg/sg9_13_cif.got.tgz:25749.got - 2010.06.03 20:04:27.
