data_PCOD9137540
_publ_section_title
;
Structure prediction by ZEFSAII (Michael W. Deem and Ramdas Pophale) SiO2 
 PCOD9137540
Probable space group: C C
;
_chemical_formula_sum "Si O2"
_cell_formula_units_Z 32
_cell_length_a 11.944385
_cell_length_b 14.696332
_cell_length_c 17.895636
_cell_angle_alpha 90.000000
_cell_angle_beta 27.639873
_cell_angle_gamma 90.000000
_cell_volume 1457.323929
_symmetry_space_group_name_H-M "C C"
_symmetry_group_IT_number 9
_symmetry_cell_setting 'monoclinic'
loop_
_space_group_symop_operation_xyz
x,y,z
x,-y,1/2+z
1/2+x,1/2+y,z
1/2+x,1/2-y,1/2+z
loop_
_atom_site_type_symbol
_atom_site_label
_atom_site_fract_x
_atom_site_fract_y
_atom_site_fract_z
Si Si1 0.634460 0.551288 0.354230
Si Si2 0.437942 0.836872 0.569790
Si Si3 0.589114 0.181134 0.769008
Si Si4 0.216608 0.332591 0.037491
Si Si5 0.989231 0.789093 0.241536
Si Si6 0.729512 0.620302 0.458891
Si Si7 0.368742 0.893335 0.121200
Si Si8 0.439143 0.977223 0.451708
O O1 0.836496 0.622189 0.205487
O O2 0.387880 0.582679 0.459340
O O3 0.623295 0.566851 0.449441
O O4 0.726267 0.456822 0.265118
O O5 0.339582 0.735699 0.618826
O O6 0.725012 0.836851 0.395892
O O7 0.315799 0.900149 0.577573
O O8 0.396790 0.247462 0.921436
O O9 0.531831 0.171921 0.715841
O O10 0.607945 0.087513 0.802405
O O11 0.067702 0.340949 0.050359
O O12 0.936323 0.686503 0.301342
O O13 0.173228 0.835121 0.191260
O O14 0.095073 0.810332 0.096563
O O15 0.804251 0.539314 0.471460
O O16 0.512139 0.953783 0.974407
#
# Coordination Sequence:
#
# PCOD9137540 Si02
#       8
#     4   4   4   4   4   4   4   4
#     4  10  23  42  67 103 132 178 231 279 335 398
#     4  10  22  42  70 104 134 174 228 284 337 405
#     4  11  22  43  71 102 131 176 227 281 340 401
#     4  11  24  41  71  98 138 176 226 281 337 404
#     4  11  25  43  70  97 141 180 222 281 344 406
#     4  11  24  45  67 103 139 179 232 276 343 403
#     4  10  25  47  67 101 139 179 227 280 346 394
#     4  10  23  43  69 100 134 176 229 278 330 403
#
# _framework density 21.958055999999999
#
# number of rings (size 3 to 8) (size 9 to 14) (size 15 to 20)
#    0.000    1.500    1.250    2.250    8.750    2.000 
#    2.250    2.500    0.000    0.000    0.000    0.000 
#    0.000    0.000    0.000    0.000    0.000    0.000 
#
# Total GULP energy -89173.617491 kJ/mol
# GULP energy per Si atom -5573.351093 kJ/mol
# Density = 2.190808 g / cm^3
# Si number density = 21.958056 Si / 1000 Ang^3
#
#
#
# Elastic Constant Matrix: (Units=GPa)
#
#
# Indices 1 2 3 4 5 6 
#
# 1 171.5233 52.9159 57.0477 -0.0151 23.0946 -0.0125
# 2 52.9159 68.2340 32.7946 -0.0179 -3.1433 0.0031
# 3 57.0477 32.7946 92.0402 -0.0590 26.0171 0.0021
# 4 -0.0151 -0.0179 -0.0590 28.9326 0.0310 11.3615
# 5 23.0946 -3.1433 26.0171 0.0310 37.9044 0.0070
# 6 -0.0125 0.0031 0.0021 11.3615 0.0070 29.4617
#
#
#
# Elastic Compliance Matrix: (Units=1/GPa)
#
#
# Indices 1 2 3 4 5 6 
#
# 1 0.009073 -0.006240 -0.002099 -0.000001 -0.004605 0.000006
# 2 -0.006240 0.023707 -0.007705 -0.000016 0.011056 -0.000001
# 3 -0.002099 -0.007705 0.018276 0.000051 -0.011905 -0.000018
# 4 -0.000001 -0.000016 0.000051 0.040731 -0.000066 -0.015707
# 5 -0.004605 0.011056 -0.011905 -0.000066 0.038276 0.000014
# 6 0.000006 -0.000001 -0.000018 -0.015707 0.000014 0.040000
#
#
# Mechanical properties :
#
#
# Convention : Reuss Voigt Hill
#
# Bulk Modulus (GPa) = 52.71568 68.59046 60.65307
# Shear Modulus (GPa) = 23.98399 31.86237 27.92318
#
# Velocity S-wave (km/s) = 3.30853 3.81341 3.56990
# Velocity P-wave (km/s) = 6.21729 7.11999 6.68390
#
# Compressibility (1/GPa) = 0.01896969
#
# Stress axis : x y z
#
# Youngs Moduli (GPa) = 110.21495 42.18208 54.71671
#
# Poissons Ratio (x) = 0.26321 0.11483
# Poissons Ratio (y) = 0.68772 0.42157
# Poissons Ratio (z) = 0.23130 0.32500
#
# Static dielectric constant tensor:
#      x y z
#    x 1.829960 0.000000 0.010340 
#    y 0.000000 1.845120 0.000020 
#    z 0.010340 0.000020 1.824560 
# 
# From -- ./inp_files/16879.got.cif
#   From: 2010.05.17/outbox.cif.g08.bks.cpg/sg9_9_cif.got.tgz:16879.got - 2010.06.03 20:04:27.
