data_PCOD9137075
_publ_section_title
;
Structure prediction by ZEFSAII (Michael W. Deem and Ramdas Pophale) SiO2 
 PCOD9137075
Probable space group: C C
;
_chemical_formula_sum "Si O2"
_cell_formula_units_Z 32
_cell_length_a 20.726148
_cell_length_b 12.518132
_cell_length_c 9.519867
_cell_angle_alpha 90.000000
_cell_angle_beta 142.787493
_cell_angle_gamma 90.000000
_cell_volume 1493.761899
_symmetry_space_group_name_H-M "C C"
_symmetry_group_IT_number 9
_symmetry_cell_setting 'monoclinic'
loop_
_space_group_symop_operation_xyz
x,y,z
x,-y,1/2+z
1/2+x,1/2+y,z
1/2+x,1/2-y,1/2+z
loop_
_atom_site_type_symbol
_atom_site_label
_atom_site_fract_x
_atom_site_fract_y
_atom_site_fract_z
Si Si1 0.885100 0.611999 0.431330
Si Si2 0.344349 0.307932 0.536711
Si Si3 0.454973 0.525024 0.766251
Si Si4 0.752229 0.305383 0.137562
Si Si5 0.620544 0.906848 0.455120
Si Si6 0.297932 0.073301 0.973539
Si Si7 0.098671 0.003907 0.266842
Si Si8 0.719056 0.994000 0.875087
O O1 0.857140 0.733514 0.424613
O O2 0.818959 0.534747 0.421449
O O3 0.006555 0.593269 0.686141
O O4 0.863208 0.585269 0.230928
O O5 0.437423 0.395450 0.722062
O O6 0.329426 0.232038 0.645912
O O7 0.241432 0.385554 0.357256
O O8 0.534179 0.554010 0.778439
O O9 0.332763 0.564224 0.547402
O O10 0.510521 0.551055 0.008789
O O11 0.815330 0.336384 0.387317
O O12 0.673725 0.208065 0.032800
O O13 0.679076 0.405708 0.964069
O O14 0.694089 0.989149 0.494353
O O15 0.625894 0.940880 0.625668
O O16 0.174900 0.073195 0.809611
#
# Coordination Sequence:
#
# PCOD9137075 Si02
#       8
#     4   4   4   4   4   4   4   4
#     4  12  22  41  65  92 125 173 215 259 319 384
#     4   9  22  41  64  92 130 164 210 272 319 381
#     4  10  22  38  67  92 125 167 211 264 325 375
#     4  11  23  43  63  95 131 167 211 271 321 376
#     4  11  23  43  67  89 128 170 212 262 321 386
#     4  12  24  40  65  95 133 171 213 270 316 385
#     4  12  20  40  66  93 128 169 215 263 328 373
#     4   9  22  42  63  90 128 165 203 265 323 376
#
# _framework density 21.422425
#
# number of rings (size 3 to 8) (size 9 to 14) (size 15 to 20)
#    0.750    0.500    3.750    2.250    0.000    1.000 
#    2.250    0.000    2.750    0.000    0.000    0.000 
#    0.000    0.000    0.000    0.000    0.000    0.000 
#
# Total GULP energy -89282.119594 kJ/mol
# GULP energy per Si atom -5580.132475 kJ/mol
# Density = 2.137367 g / cm^3
# Si number density = 21.422425 Si / 1000 Ang^3
#
#
#
# Elastic Constant Matrix: (Units=GPa)
#
#
# Indices 1 2 3 4 5 6 
#
# 1 35.6428 1.4823 -0.7955 0.0000 -13.2130 0.0000
# 2 1.4823 31.2030 9.2301 0.0000 -11.5031 0.0000
# 3 -0.7955 9.2301 108.5795 0.0000 -24.6769 0.0000
# 4 0.0000 0.0000 0.0000 15.5875 0.0000 -12.0382
# 5 -13.2130 -11.5031 -24.6769 0.0000 36.1158 0.0000
# 6 0.0000 0.0000 0.0000 -12.0382 0.0000 13.5764
#
#
#
# Elastic Compliance Matrix: (Units=1/GPa)
#
#
# Indices 1 2 3 4 5 6 
#
# 1 0.033881 0.003176 0.003581 0.000000 0.015854 0.000000
# 2 0.003176 0.036637 -0.000207 0.000000 0.012689 0.000000
# 3 0.003581 -0.000207 0.011290 0.000000 0.008958 0.000000
# 4 0.000000 0.000000 0.000000 0.203528 0.000000 0.180467
# 5 0.015854 0.012689 0.008958 0.000000 0.043651 0.000000
# 6 0.000000 0.000000 0.000000 0.180467 0.000000 0.233677
#
#
# Mechanical properties :
#
#
# Convention : Reuss Voigt Hill
#
# Bulk Modulus (GPa) = 10.53659 21.69545 16.11602
# Shear Modulus (GPa) = 8.60290 24.08983 16.34636
#
# Velocity S-wave (km/s) = 2.00613 3.35702 2.76533
# Velocity P-wave (km/s) = 3.20862 5.01752 4.21134
#
# Compressibility (1/GPa) = 0.09490735
#
# Stress axis : x y z
#
# Youngs Moduli (GPa) = 29.51492 27.29506 88.57689
#
# Poissons Ratio (x) = -0.08668 -0.31723
# Poissons Ratio (y) = -0.09373 0.01836
# Poissons Ratio (z) = -0.10571 0.00566
#
# Static dielectric constant tensor:
#      x y z
#    x 1.792620 0.000000 0.003380 
#    y 0.000000 1.790420 0.000000 
#    z 0.003380 0.000000 1.756260 
# 
# From -- ./inp_files/7615.got.cif
#   From: 2010.05.17/outbox.cif.g08.bks.cpg/sg9_4_cif.got.tgz:7615.got - 2010.06.03 20:04:27.
