data_PCOD9137630
_publ_section_title
;
Structure prediction by ZEFSAII (Michael W. Deem and Ramdas Pophale) SiO2 
 PCOD9137630
Probable space group: C C
;
_chemical_formula_sum "Si O2"
_cell_formula_units_Z 32
_cell_length_a 8.537146
_cell_length_b 31.009306
_cell_length_c 5.470010
_cell_angle_alpha 90.000000
_cell_angle_beta 59.875836
_cell_angle_gamma 90.000000
_cell_volume 1252.503001
_symmetry_space_group_name_H-M "C C"
_symmetry_group_IT_number 9
_symmetry_cell_setting 'monoclinic'
loop_
_space_group_symop_operation_xyz
x,y,z
x,-y,1/2+z
1/2+x,1/2+y,z
1/2+x,1/2-y,1/2+z
loop_
_atom_site_type_symbol
_atom_site_label
_atom_site_fract_x
_atom_site_fract_y
_atom_site_fract_z
Si Si1 0.512690 0.513794 0.408680
Si Si2 0.047306 0.113475 0.459949
Si Si3 0.931580 0.754795 0.279379
Si Si4 0.603189 0.980739 0.660301
Si Si5 0.667677 0.804527 0.264647
Si Si6 0.983863 0.385184 0.647149
Si Si7 0.519556 0.662318 0.003482
Si Si8 0.901811 0.319687 0.093424
O O1 0.606041 0.492697 0.572287
O O2 0.488630 0.563979 0.484434
O O3 0.317760 0.490837 0.521902
O O4 0.268050 0.112666 0.263299
O O5 0.005741 0.133570 0.762549
O O6 0.956456 0.137808 0.297289
O O7 0.865753 0.784558 0.106260
O O8 0.819839 0.712637 0.457844
O O9 0.946787 0.791043 0.478438
O O10 0.092932 0.725641 0.041744
O O11 0.565804 0.932232 0.605441
O O12 0.531743 0.009722 0.489855
O O13 0.603023 0.852822 0.385481
O O14 0.557639 0.794662 0.109416
O O15 0.986917 0.361532 0.906627
O O16 0.732344 0.669039 0.889159
#
# Coordination Sequence:
#
# PCOD9137630 Si02
#       8
#     4   4   4   4   4   4   4   4
#     4  10  22  43  67  95 131 176 217 282 343 414
#     4  11  24  43  70  98 137 178 233 281 350 407
#     4  11  25  39  65 101 135 190 235 287 344 406
#     4  10  24  42  68  95 135 173 219 284 343 415
#     4  11  24  42  67  97 142 182 240 286 345 410
#     4  10  24  42  65 100 132 181 229 285 346 412
#     4  11  24  45  68  99 139 184 229 286 338 416
#     4  10  23  42  66  93 139 182 230 287 337 416
#
# _framework density 25.548839999999998
#
# number of rings (size 3 to 8) (size 9 to 14) (size 15 to 20)
#    0.000    1.500    2.500    0.750    5.250    5.000 
#    2.250    0.000    0.000    0.000    0.000    0.000 
#    0.000    0.000    0.000    0.000    0.000    0.000 
#
# Total GULP energy -89306.651521 kJ/mol
# GULP energy per Si atom -5581.665720 kJ/mol
# Density = 2.549069 g / cm^3
# Si number density = 25.548840 Si / 1000 Ang^3
#
#
#
# Elastic Constant Matrix: (Units=GPa)
#
#
# Indices 1 2 3 4 5 6 
#
# 1 67.3153 25.3598 43.2808 0.0000 25.3467 0.0000
# 2 25.3598 179.0438 34.6459 0.0000 9.9350 0.0000
# 3 43.2808 34.6459 80.8992 0.0000 16.2772 0.0000
# 4 0.0000 0.0000 0.0000 28.5880 0.0000 -3.0442
# 5 25.3467 9.9350 16.2772 0.0000 31.2006 0.0000
# 6 0.0000 0.0000 0.0000 -3.0442 0.0000 29.8880
#
#
#
# Elastic Compliance Matrix: (Units=1/GPa)
#
#
# Indices 1 2 3 4 5 6 
#
# 1 0.029334 -0.000905 -0.011808 0.000000 -0.017381 0.000000
# 2 -0.000905 0.006130 -0.002118 0.000000 -0.000111 0.000000
# 3 -0.011808 -0.002118 0.019575 0.000000 0.000056 0.000000
# 4 0.000000 0.000000 0.000000 0.035363 0.000000 0.003602
# 5 -0.017381 -0.000111 0.000056 0.000000 0.046177 0.000000
# 6 0.000000 0.000000 0.000000 0.003602 0.000000 0.033825
#
#
# Mechanical properties :
#
#
# Convention : Reuss Voigt Hill
#
# Bulk Modulus (GPa) = 39.41128 59.31458 49.36293
# Shear Modulus (GPa) = 23.97790 32.86677 28.42234
#
# Velocity S-wave (km/s) = 3.06684 3.59057 3.33899
# Velocity P-wave (km/s) = 5.29150 6.36052 5.85048
#
# Compressibility (1/GPa) = 0.02537344
#
# Stress axis : x y z
#
# Youngs Moduli (GPa) = 34.09062 163.14456 51.08672
#
# Poissons Ratio (x) = 0.14770 0.60326
# Poissons Ratio (y) = 0.03086 0.10822
# Poissons Ratio (z) = 0.40256 0.34559
#
# Static dielectric constant tensor:
#      x y z
#    x 2.398310 0.000000 -0.285790 
#    y 0.000000 2.040090 0.000000 
#    z -0.285790 0.000000 2.292170 
# 
# From -- ./inp_files/1224.got.cif
#   From: 2010.05.17/outbox.cif.g08.bks.cpg/sg9_1_cif.got.tgz:1224.got - 2010.06.03 20:04:27.
