data_PCOD9137124
_publ_section_title
;
Structure prediction by ZEFSAII (Michael W. Deem and Ramdas Pophale) SiO2 
 PCOD9137124
Probable space group: C C
;
_chemical_formula_sum "Si O2"
_cell_formula_units_Z 24
_cell_length_a 23.655624
_cell_length_b 11.653116
_cell_length_c 12.151477
_cell_angle_alpha 90.000000
_cell_angle_beta 161.801767
_cell_angle_gamma 90.000000
_cell_volume 1046.129258
_symmetry_space_group_name_H-M "C C"
_symmetry_group_IT_number 9
_symmetry_cell_setting 'monoclinic'
loop_
_space_group_symop_operation_xyz
x,y,z
x,-y,1/2+z
1/2+x,1/2+y,z
1/2+x,1/2-y,1/2+z
loop_
_atom_site_type_symbol
_atom_site_label
_atom_site_fract_x
_atom_site_fract_y
_atom_site_fract_z
Si Si1 0.634360 0.357034 0.618910
Si Si2 0.319677 0.073226 0.673543
Si Si3 0.217600 0.735180 0.126350
Si Si4 0.074204 0.647355 0.634840
Si Si5 0.052575 0.894018 0.240836
Si Si6 0.996106 0.883401 0.886138
O O1 0.515375 0.252259 0.446772
O O2 0.671206 0.337914 0.557757
O O3 0.551319 0.484728 0.466782
O O4 0.791862 0.370743 0.002103
O O5 0.355878 0.168131 0.832683
O O6 0.126922 0.022256 0.360003
O O7 0.452115 0.965583 0.908708
O O8 0.346654 0.629457 0.397902
O O9 0.097402 0.694497 0.801341
O O10 0.099027 0.795854 0.998054
O O11 0.279575 0.620028 0.977495
O O12 0.057277 0.853267 0.123523
#
# Coordination Sequence:
#
# PCOD9137124 Si02
#       6
#     4   4   4   4   4   4
#     4  10  22  41  63  91 129 168 214 271 322 390
#     4  10  22  43  64  94 131 167 219 276 325 386
#     4  10  22  43  64  93 133 168 219 278 316 390
#     4  10  24  41  65  96 127 172 220 270 330 388
#     4  10  22  39  65  93 125 175 210 267 332 376
#     4  10  22  43  63  93 131 170 220 268 325 388
#
# _framework density 22.941716
#
# number of rings (size 3 to 8) (size 9 to 14) (size 15 to 20)
#    0.000    2.000    1.667    0.000    7.000    1.333 
#    6.000    3.333    0.000    0.000    0.000    0.000 
#    0.000    0.000    0.000    0.000    0.000    0.000 
#
# Total GULP energy -66911.904764 kJ/mol
# GULP energy per Si atom -5575.992064 kJ/mol
# Density = 2.288950 g / cm^3
# Si number density = 22.941716 Si / 1000 Ang^3
#
#
#
# Elastic Constant Matrix: (Units=GPa)
#
#
# Indices 1 2 3 4 5 6 
#
# 1 113.5894 40.8512 49.0802 0.0000 -15.8638 0.0000
# 2 40.8512 115.0877 39.2977 0.0000 18.6900 0.0000
# 3 49.0802 39.2977 60.0362 0.0000 9.8547 0.0000
# 4 0.0000 0.0000 0.0000 48.9988 0.0000 13.0089
# 5 -15.8638 18.6900 9.8547 0.0000 31.9766 0.0000
# 6 0.0000 0.0000 0.0000 13.0089 0.0000 31.0754
#
#
#
# Elastic Compliance Matrix: (Units=1/GPa)
#
#
# Indices 1 2 3 4 5 6 
#
# 1 0.019754 -0.004298 -0.016175 0.000000 0.017297 0.000000
# 2 -0.004298 0.012779 -0.003450 0.000000 -0.008538 0.000000
# 3 -0.016175 -0.003450 0.034889 0.000000 -0.016761 0.000000
# 4 0.000000 0.000000 0.000000 0.022961 0.000000 -0.009612
# 5 0.017297 -0.008538 -0.016761 0.000000 0.050010 0.000000
# 6 0.000000 0.000000 0.000000 -0.009612 0.000000 0.036204
#
#
# Mechanical properties :
#
#
# Convention : Reuss Voigt Hill
#
# Bulk Modulus (GPa) = 51.08051 60.79685 55.93868
# Shear Modulus (GPa) = 21.64808 33.04242 27.34525
#
# Velocity S-wave (km/s) = 3.07516 3.79922 3.45620
# Velocity P-wave (km/s) = 5.90952 6.76783 6.35319
#
# Compressibility (1/GPa) = 0.01957694
#
# Stress axis : x y z
#
# Youngs Moduli (GPa) = 50.62285 78.25295 28.66203
#
# Poissons Ratio (x) = 0.33630 0.46361
# Poissons Ratio (y) = 0.21756 0.09888
# Poissons Ratio (z) = 0.81883 0.26997
#
# Static dielectric constant tensor:
#      x y z
#    x 1.901470 0.000000 -0.001150 
#    y 0.000000 1.879250 0.000000 
#    z -0.001150 0.000000 1.905060 
# 
# From -- ./inp_files/14115.got.cif
#   From: 2010.05.17/outbox.cif.g08.bks.cpg/sg9_8_cif.got.tgz:14115.got - 2010.06.03 20:04:27.
