data_PCOD9137156
_publ_section_title
;
Structure prediction by ZEFSAII (Michael W. Deem and Ramdas Pophale) SiO2 
 PCOD9137156
Probable space group: C C
;
_chemical_formula_sum "Si O2"
_cell_formula_units_Z 28
_cell_length_a 13.037699
_cell_length_b 15.022603
_cell_length_c 9.189832
_cell_angle_alpha 90.000000
_cell_angle_beta 42.027185
_cell_angle_gamma 90.000000
_cell_volume 1205.017489
_symmetry_space_group_name_H-M "C C"
_symmetry_group_IT_number 9
_symmetry_cell_setting 'monoclinic'
loop_
_space_group_symop_operation_xyz
x,y,z
x,-y,1/2+z
1/2+x,1/2+y,z
1/2+x,1/2-y,1/2+z
loop_
_atom_site_type_symbol
_atom_site_label
_atom_site_fract_x
_atom_site_fract_y
_atom_site_fract_z
Si Si1 0.759330 0.892995 0.262670
Si Si2 0.044310 0.342380 0.870581
Si Si3 0.053540 0.155158 0.923328
Si Si4 0.899241 0.048348 0.316406
Si Si5 0.358092 0.287885 0.388420
Si Si6 0.936380 0.532804 0.114084
Si Si7 0.224580 0.000398 0.613852
O O1 0.834324 0.801274 0.242756
O O2 0.835258 0.965477 0.292109
O O3 0.578470 0.901146 0.474817
O O4 0.796187 0.920204 0.059054
O O5 0.073633 0.257755 0.946973
O O6 0.203331 0.332586 0.615081
O O7 0.903378 0.305807 0.916139
O O8 0.009145 0.437479 0.979373
O O9 0.181214 0.079709 0.774550
O O10 0.922095 0.120631 0.166751
O O11 0.999069 0.159280 0.812061
O O12 0.066361 0.032523 0.211840
O O13 0.845138 0.520068 0.359356
O O14 0.814243 0.566477 0.124630
#
# Coordination Sequence:
#
# PCOD9137156 Si02
#       7
#     4   4   4   4   4   4   4
#     4  12  23  40  66 102 130 178 218 300 333 412
#     4  10  22  41  68  96 133 180 223 275 354 416
#     4  10  22  39  70  95 132 179 227 276 341 419
#     4  12  20  39  66  94 129 172 238 262 344 404
#     4  10  22  41  69  94 135 178 231 273 349 421
#     4  12  25  39  67 104 139 169 237 290 346 395
#     4  12  22  39  64 101 132 176 228 290 327 419
#
# _framework density 23.236177999999999
#
# number of rings (size 3 to 8) (size 9 to 14) (size 15 to 20)
#    0.857    0.000    4.286    4.286    0.000    0.000 
#    0.000    0.000   18.857    0.000    0.000    0.000 
#    0.000    0.000    0.000    0.000    0.000    0.000 
#
# Total GULP energy -77977.954399 kJ/mol
# GULP energy per Si atom -5569.853886 kJ/mol
# Density = 2.318329 g / cm^3
# Si number density = 23.236178 Si / 1000 Ang^3
#
#
#
# Elastic Constant Matrix: (Units=GPa)
#
#
# Indices 1 2 3 4 5 6 
#
# 1 80.1521 -5.5942 -11.4296 0.0000 -4.9359 0.0000
# 2 -5.5942 52.0514 -9.0915 0.0000 -0.0496 0.0000
# 3 -11.4296 -9.0915 96.1537 0.0000 6.8637 0.0000
# 4 0.0000 0.0000 0.0000 36.0102 0.0000 2.2587
# 5 -4.9359 -0.0496 6.8637 0.0000 40.3014 0.0000
# 6 0.0000 0.0000 0.0000 2.2587 0.0000 26.4740
#
#
#
# Elastic Compliance Matrix: (Units=1/GPa)
#
#
# Indices 1 2 3 4 5 6 
#
# 1 0.012901 0.001667 0.001598 0.000000 0.001310 0.000000
# 2 0.001667 0.019753 0.002075 0.000000 -0.000125 0.000000
# 3 0.001598 0.002075 0.010905 0.000000 -0.001659 0.000000
# 4 0.000000 0.000000 0.000000 0.027919 0.000000 -0.002382
# 5 0.001310 -0.000125 -0.001659 0.000000 0.025256 0.000000
# 6 0.000000 0.000000 0.000000 -0.002382 0.000000 0.037976
#
#
# Mechanical properties :
#
#
# Convention : Reuss Voigt Hill
#
# Bulk Modulus (GPa) = 18.43753 19.56962 19.00357
# Shear Modulus (GPa) = 35.18384 37.52197 36.35290
#
# Velocity S-wave (km/s) = 3.89547 4.02283 3.95966
# Velocity P-wave (km/s) = 5.30896 5.47885 5.39457
#
# Compressibility (1/GPa) = 0.05423720
#
# Stress axis : x y z
#
# Youngs Moduli (GPa) = 77.51270 50.62479 91.70516
#
# Poissons Ratio (x) = -0.08438 -0.14651
# Poissons Ratio (y) = -0.12920 -0.19027
# Poissons Ratio (z) = -0.12384 -0.10503
#
# Static dielectric constant tensor:
#      x y z
#    x 1.945760 0.000000 0.006240 
#    y 0.000000 2.011660 0.000000 
#    z 0.006240 0.000000 1.925700 
# 
# From -- ./inp_files/7871.got.cif
#   From: 2010.05.17/outbox.cif.g08.bks.cpg/sg9_4_cif.got.tgz:7871.got - 2010.06.03 20:04:27.
