data_PCOD9137561
_publ_section_title
;
Structure prediction by ZEFSAII (Michael W. Deem and Ramdas Pophale) SiO2 
 PCOD9137561
Probable space group: C C
;
_chemical_formula_sum "Si O2"
_cell_formula_units_Z 32
_cell_length_a 7.919343
_cell_length_b 17.988233
_cell_length_c 13.863919
_cell_angle_alpha 90.000000
_cell_angle_beta 137.434746
_cell_angle_gamma 90.000000
_cell_volume 1335.937618
_symmetry_space_group_name_H-M "C C"
_symmetry_group_IT_number 9
_symmetry_cell_setting 'monoclinic'
loop_
_space_group_symop_operation_xyz
x,y,z
x,-y,1/2+z
1/2+x,1/2+y,z
1/2+x,1/2-y,1/2+z
loop_
_atom_site_type_symbol
_atom_site_label
_atom_site_fract_x
_atom_site_fract_y
_atom_site_fract_z
Si Si1 0.354280 0.332000 0.878800
Si Si2 0.871496 0.130753 0.027042
Si Si3 0.012597 0.294637 0.040060
Si Si4 0.119000 0.579282 0.738527
Si Si5 0.646927 0.565321 0.853650
Si Si6 0.377336 0.923497 0.642238
Si Si7 0.045188 0.197764 0.670171
Si Si8 0.124179 0.899671 0.815892
O O1 0.254604 0.257772 0.784419
O O2 0.528016 0.378330 0.880778
O O3 0.110255 0.383240 0.788998
O O4 0.491524 0.312985 0.035400
O O5 0.883975 0.218717 0.016975
O O6 0.130008 0.095780 0.096276
O O7 0.889677 0.110045 0.146050
O O8 0.663809 0.099151 0.868857
O O9 0.048105 0.348595 0.146529
O O10 0.282292 0.277371 0.108253
O O11 0.843003 0.339413 0.891775
O O12 0.380826 0.555419 0.797511
O O13 0.931563 0.510863 0.656562
O O14 0.610279 0.620402 0.749760
O O15 0.725580 0.483153 0.854620
O O16 0.826610 0.600808 0.010126
#
# Coordination Sequence:
#
# PCOD9137561 Si02
#       8
#     4   4   4   4   4   4   4   4
#     4  12  26  46  70 105 144 186 240 299 352 425
#     4  11  25  42  71 101 139 187 236 290 357 429
#     4  11  23  46  71 102 136 187 235 293 358 426
#     4  10  22  42  72 101 140 181 237 292 350 420
#     4  10  23  44  69 103 141 182 234 293 353 420
#     4  11  21  45  71 100 139 188 234 288 349 431
#     4  11  26  46  76 101 137 195 241 286 356 438
#     4  12  26  43  66 105 148 178 233 303 357 413
#
# _framework density 23.953213000000002
#
# number of rings (size 3 to 8) (size 9 to 14) (size 15 to 20)
#    0.000    1.000    3.750    2.250    7.000    0.000 
#    2.250    0.000    0.000    0.000    0.000    0.000 
#    0.000    0.000    0.000    0.000    0.000    0.000 
#
# Total GULP energy -89658.755443 kJ/mol
# GULP energy per Si atom -5603.672215 kJ/mol
# Density = 2.389869 g / cm^3
# Si number density = 23.953213 Si / 1000 Ang^3
#
#
#
# Elastic Constant Matrix: (Units=GPa)
#
#
# Indices 1 2 3 4 5 6 
#
# 1 50.6723 10.2797 29.9959 0.0001 -2.6663 0.0000
# 2 10.2797 114.5702 31.6108 -0.0002 -10.5280 -0.0001
# 3 29.9959 31.6108 138.9683 0.0005 -45.5142 0.0004
# 4 0.0001 -0.0002 0.0005 39.4268 0.0003 -0.9387
# 5 -2.6663 -10.5280 -45.5142 0.0003 43.9276 0.0002
# 6 0.0000 -0.0001 0.0004 -0.9387 0.0002 22.7442
#
#
#
# Elastic Compliance Matrix: (Units=1/GPa)
#
#
# Indices 1 2 3 4 5 6 
#
# 1 0.023630 -0.000770 -0.006836 0.000000 -0.005833 0.000000
# 2 -0.000770 0.009338 -0.001877 0.000000 0.000246 0.000000
# 3 -0.006836 -0.001877 0.013343 0.000000 0.012960 0.000000
# 4 0.000000 0.000000 0.000000 0.025388 0.000000 0.001048
# 5 -0.005833 0.000246 0.012960 0.000000 0.035898 -0.000001
# 6 0.000000 0.000000 0.000000 0.001048 -0.000001 0.044010
#
#
# Mechanical properties :
#
#
# Convention : Reuss Voigt Hill
#
# Bulk Modulus (GPa) = 36.56955 49.77597 43.17276
# Shear Modulus (GPa) = 27.82582 36.70803 32.26692
#
# Velocity S-wave (km/s) = 3.41203 3.91895 3.67424
# Velocity P-wave (km/s) = 5.55183 6.42675 6.00525
#
# Compressibility (1/GPa) = 0.02734516
#
# Stress axis : x y z
#
# Youngs Moduli (GPa) = 42.31834 107.09004 74.94586
#
# Poissons Ratio (x) = 0.08248 0.51231
# Poissons Ratio (y) = 0.03259 0.14069
# Poissons Ratio (z) = 0.28928 0.20103
#
# Static dielectric constant tensor:
#      x y z
#    x 1.943210 0.000000 0.029490 
#    y 0.000000 1.861710 0.000000 
#    z 0.029490 0.000000 1.946030 
# 
# From -- ./inp_files/23664.got.cif
#   From: 2010.05.17/outbox.cif.g08.bks.cpg/sg9_12_cif.got.tgz:23664.got - 2010.06.03 20:04:27.
