data_PCOD9137079
_publ_section_title
;
Structure prediction by ZEFSAII (Michael W. Deem and Ramdas Pophale) SiO2 
 PCOD9137079
Probable space group: C C
;
_chemical_formula_sum "Si O2"
_cell_formula_units_Z 32
_cell_length_a 24.291477
_cell_length_b 11.261685
_cell_length_c 8.216309
_cell_angle_alpha 90.000000
_cell_angle_beta 41.272769
_cell_angle_gamma 90.000000
_cell_volume 1482.668406
_symmetry_space_group_name_H-M "C C"
_symmetry_group_IT_number 9
_symmetry_cell_setting 'monoclinic'
loop_
_space_group_symop_operation_xyz
x,y,z
x,-y,1/2+z
1/2+x,1/2+y,z
1/2+x,1/2-y,1/2+z
loop_
_atom_site_type_symbol
_atom_site_label
_atom_site_fract_x
_atom_site_fract_y
_atom_site_fract_z
Si Si1 0.175560 0.898731 0.672270
Si Si2 0.613225 0.358370 0.171442
Si Si3 0.890364 0.909665 0.963354
Si Si4 0.953483 0.833877 0.315322
Si Si5 0.816783 0.244973 0.351422
Si Si6 0.126336 0.371929 0.858737
Si Si7 0.721378 0.965472 0.941931
Si Si8 0.532496 0.737411 0.321802
O O1 0.273016 0.871566 0.439541
O O2 0.122154 0.821767 0.661492
O O3 0.141220 0.028960 0.713848
O O4 0.158109 0.862807 0.897107
O O5 0.517472 0.355431 0.323016
O O6 0.634104 0.246040 0.234779
O O7 0.803606 0.949963 0.245364
O O8 0.867324 0.802314 0.893446
O O9 0.967654 0.856124 0.890582
O O10 0.925504 0.035132 0.814836
O O11 0.873051 0.773472 0.569167
O O12 0.995061 0.750376 0.086808
O O13 0.744698 0.144802 0.503438
O O14 0.137608 0.473378 0.696907
O O15 0.201595 0.410550 0.810118
O O16 0.050640 0.342203 0.152162
#
# Coordination Sequence:
#
# PCOD9137079 Si02
#       8
#     4   4   4   4   4   4   4   4
#     4  11  23  42  66 107 142 181 226 286 359 417
#     4  11  24  41  71 102 141 182 228 287 352 426
#     4  11  21  40  68 107 137 181 242 297 350 400
#     4  10  22  38  68 105 141 180 237 297 344 405
#     4  11  22  39  66 101 141 178 233 296 350 411
#     4  12  25  43  68 104 141 186 235 293 356 419
#     4  11  24  41  68 100 138 184 238 295 350 414
#     4  11  23  38  67 102 143 178 227 293 349 408
#
# _framework density 21.582708
#
# number of rings (size 3 to 8) (size 9 to 14) (size 15 to 20)
#    0.000    1.000    3.750    3.750    5.250    0.000 
#    0.000    0.000    0.000   15.000    0.000    0.000 
#    0.000    0.000    0.000    0.000    0.000    0.000 
#
# Total GULP energy -89172.566100 kJ/mol
# GULP energy per Si atom -5573.285381 kJ/mol
# Density = 2.153358 g / cm^3
# Si number density = 21.582708 Si / 1000 Ang^3
#
#
#
# Elastic Constant Matrix: (Units=GPa)
#
#
# Indices 1 2 3 4 5 6 
#
# 1 108.2922 35.0762 37.7922 0.0000 7.3191 0.0000
# 2 35.0762 50.1780 51.1219 0.0000 -0.5499 0.0000
# 3 37.7922 51.1219 104.0310 0.0000 -0.0914 0.0000
# 4 0.0000 0.0000 0.0000 16.0030 0.0000 9.9017
# 5 7.3191 -0.5499 -0.0914 0.0000 26.4037 0.0000
# 6 0.0000 0.0000 0.0000 9.9017 0.0000 30.8100
#
#
#
# Elastic Compliance Matrix: (Units=1/GPa)
#
#
# Indices 1 2 3 4 5 6 
#
# 1 0.012277 -0.008159 -0.000454 0.000000 -0.003575 0.000000
# 2 -0.008159 0.045348 -0.019318 0.000000 0.003139 0.000000
# 3 -0.000454 -0.019318 0.019270 0.000000 -0.000210 0.000000
# 4 0.000000 0.000000 0.000000 0.077998 0.000000 -0.025067
# 5 -0.003575 0.003139 -0.000210 0.000000 0.038929 0.000000
# 6 0.000000 0.000000 0.000000 -0.025067 0.000000 0.040513
#
#
# Mechanical properties :
#
#
# Convention : Reuss Voigt Hill
#
# Bulk Modulus (GPa) = 47.54153 56.72020 52.13087
# Shear Modulus (GPa) = 16.82326 23.87740 20.35033
#
# Velocity S-wave (km/s) = 2.79494 3.32975 3.07400
# Velocity P-wave (km/s) = 5.70009 6.41252 6.06677
#
# Compressibility (1/GPa) = 0.02103424
#
# Stress axis : x y z
#
# Youngs Moduli (GPa) = 81.45380 22.05171 51.89392
#
# Poissons Ratio (x) = 0.17992 0.02354
# Poissons Ratio (y) = 0.66458 1.00247
# Poissons Ratio (z) = 0.03696 0.42599
#
# Static dielectric constant tensor:
#      x y z
#    x 1.816110 0.000000 0.030250 
#    y 0.000000 1.802480 0.000000 
#    z 0.030250 0.000000 1.844400 
# 
# From -- ./inp_files/12187.got.cif
#   From: 2010.05.17/outbox.cif.g08.bks.cpg/sg9_7_cif.got.tgz:12187.got - 2010.06.03 20:04:27.
