data_PCOD9137175
_publ_section_title
;
Structure prediction by ZEFSAII (Michael W. Deem and Ramdas Pophale) SiO2 
 PCOD9137175
Probable space group: C C
;
_chemical_formula_sum "Si O2"
_cell_formula_units_Z 32
_cell_length_a 6.410728
_cell_length_b 14.571056
_cell_length_c 16.802541
_cell_angle_alpha 90.000000
_cell_angle_beta 119.839379
_cell_angle_gamma 90.000000
_cell_volume 1361.459154
_symmetry_space_group_name_H-M "C C"
_symmetry_group_IT_number 9
_symmetry_cell_setting 'monoclinic'
loop_
_space_group_symop_operation_xyz
x,y,z
x,-y,1/2+z
1/2+x,1/2+y,z
1/2+x,1/2-y,1/2+z
loop_
_atom_site_type_symbol
_atom_site_label
_atom_site_fract_x
_atom_site_fract_y
_atom_site_fract_z
Si Si1 0.122970 0.195158 0.400900
Si Si2 0.773963 0.459879 0.184863
Si Si3 0.117649 0.719184 0.323970
Si Si4 0.783904 0.967922 0.549866
Si Si5 0.360324 0.951045 0.865370
Si Si6 0.521110 0.130260 0.142693
Si Si7 0.149160 0.701003 0.741713
Si Si8 0.047726 0.207489 0.057157
O O1 0.136817 0.090627 0.372255
O O2 0.113413 0.260305 0.322613
O O3 0.374321 0.214096 0.492108
O O4 0.888782 0.221155 0.406310
O O5 0.492729 0.457707 0.107685
O O6 0.790620 0.479941 0.282092
O O7 0.878463 0.548857 0.159746
O O8 0.958351 0.380085 0.196388
O O9 0.980489 0.637366 0.344196
O O10 0.141816 0.687928 0.236288
O O11 0.941632 0.807166 0.293061
O O12 0.695897 0.916270 0.613012
O O13 0.901693 0.886778 0.520253
O O14 0.555831 0.007771 0.461592
O O15 0.308172 0.194061 0.067174
O O16 0.096840 0.771493 0.659623
#
# Coordination Sequence:
#
# PCOD9137175 Si02
#       8
#     4   4   4   4   4   4   4   4
#     4  11  22  40  64  89 130 175 218 271 330 392
#     4  10  22  41  63  92 133 170 217 275 326 400
#     4   9  20  40  62  88 127 173 213 269 335 386
#     4  11  22  39  64  93 127 175 219 268 332 393
#     4  10  23  39  61  94 132 167 221 272 326 400
#     4   9  20  40  61  87 126 172 214 265 330 386
#     4  10  22  40  61  94 129 167 223 274 325 395
#     4  10  23  39  62  89 132 167 219 276 324 388
#
# _framework density 23.504194999999999
#
# number of rings (size 3 to 8) (size 9 to 14) (size 15 to 20)
#    0.000    2.000    0.000    4.500    3.500    4.000 
#    2.250    3.750    0.000    0.000    0.000    0.000 
#    0.000    0.000    0.000    0.000    0.000    0.000 
#
# Total GULP energy -89365.569163 kJ/mol
# GULP energy per Si atom -5585.348073 kJ/mol
# Density = 2.345070 g / cm^3
# Si number density = 23.504195 Si / 1000 Ang^3
#
#
#
# Elastic Constant Matrix: (Units=GPa)
#
#
# Indices 1 2 3 4 5 6 
#
# 1 89.7545 23.2644 27.5383 0.0000 16.2943 0.0000
# 2 23.2644 50.9836 13.6084 0.0000 6.5982 0.0000
# 3 27.5383 13.6084 70.7047 0.0000 3.4721 0.0000
# 4 0.0000 0.0000 0.0000 28.3790 0.0000 5.2465
# 5 16.2943 6.5982 3.4721 0.0000 30.8749 0.0000
# 6 0.0000 0.0000 0.0000 5.2465 0.0000 41.6661
#
#
#
# Elastic Compliance Matrix: (Units=1/GPa)
#
#
# Indices 1 2 3 4 5 6 
#
# 1 0.014938 -0.004770 -0.004588 0.000000 -0.006348 0.000000
# 2 -0.004770 0.022701 -0.002410 0.000000 -0.002063 0.000000
# 3 -0.004588 -0.002410 0.016340 0.000000 0.001099 0.000000
# 4 0.000000 0.000000 0.000000 0.036077 0.000000 -0.004543
# 5 -0.006348 -0.002063 0.001099 0.000000 0.036056 0.000000
# 6 0.000000 0.000000 0.000000 -0.004543 0.000000 0.024572
#
#
# Mechanical properties :
#
#
# Convention : Reuss Voigt Hill
#
# Bulk Modulus (GPa) = 32.84878 37.80721 35.32800
# Shear Modulus (GPa) = 27.11937 29.98610 28.55273
#
# Velocity S-wave (km/s) = 3.40046 3.57568 3.48917
# Velocity P-wave (km/s) = 5.42435 5.75912 5.59424
#
# Compressibility (1/GPa) = 0.03044253
#
# Stress axis : x y z
#
# Youngs Moduli (GPa) = 66.94246 44.05072 61.19841
#
# Poissons Ratio (x) = 0.21013 0.28080
# Poissons Ratio (y) = 0.31933 0.14749
# Poissons Ratio (z) = 0.30715 0.10616
#
# Static dielectric constant tensor:
#      x y z
#    x 1.944770 0.000000 0.040840 
#    y 0.000000 1.895640 0.000000 
#    z 0.040840 0.000000 1.899660 
# 
# From -- ./inp_files/28736.got.cif
#   From: 2010.05.17/outbox.cif.g08.bks.cpg/sg9_15_cif.got.tgz:28736.got - 2010.06.03 20:04:27.
