data_PCOD9137856
_publ_section_title
;
Structure prediction by ZEFSAII (Michael W. Deem and Ramdas Pophale) SiO2 
 PCOD9137856
Probable space group: C C
;
_chemical_formula_sum "Si O2"
_cell_formula_units_Z 32
_cell_length_a 8.782077
_cell_length_b 16.049736
_cell_length_c 10.258116
_cell_angle_alpha 90.000000
_cell_angle_beta 86.287373
_cell_angle_gamma 90.000000
_cell_volume 1442.847261
_symmetry_space_group_name_H-M "C C"
_symmetry_group_IT_number 9
_symmetry_cell_setting 'monoclinic'
loop_
_space_group_symop_operation_xyz
x,y,z
x,-y,1/2+z
1/2+x,1/2+y,z
1/2+x,1/2-y,1/2+z
loop_
_atom_site_type_symbol
_atom_site_label
_atom_site_fract_x
_atom_site_fract_y
_atom_site_fract_z
Si Si1 0.376410 0.114304 0.300810
Si Si2 0.320773 0.420227 0.394243
Si Si3 0.990916 0.582705 0.033446
Si Si4 0.503766 0.252796 0.452490
Si Si5 0.462352 0.501407 0.636792
Si Si6 0.555606 0.679560 0.230403
Si Si7 0.802743 0.548938 0.671648
Si Si8 0.329582 0.800603 0.351334
O O1 0.506233 0.117878 0.180019
O O2 0.434288 0.163830 0.421518
O O3 0.227453 0.165340 0.264435
O O4 0.320239 0.018449 0.290828
O O5 0.142635 0.417983 0.440377
O O6 0.393825 0.329315 0.416219
O O7 0.397605 0.483652 0.495869
O O8 0.356812 0.448476 0.244711
O O9 0.920576 0.491969 0.064382
O O10 0.865299 0.640052 0.971451
O O11 0.545175 0.266878 0.599802
O O12 0.661443 0.264571 0.367316
O O13 0.486034 0.410071 0.698340
O O14 0.630737 0.542551 0.627141
O O15 0.454143 0.728342 0.339812
O O16 0.837776 0.638153 0.727220
#
# Coordination Sequence:
#
# PCOD9137856 Si02
#       8
#     4   4   4   4   4   4   4   4
#     4   9  21  44  63  93 130 165 209 273 318 378
#     4  11  23  41  68  97 134 171 220 272 326 390
#     4  10  23  42  67  91 135 166 215 271 319 388
#     4  11  22  42  68  94 131 169 219 263 326 386
#     4  10  22  45  64  97 134 173 214 276 326 386
#     4  10  23  43  62  94 133 170 212 269 325 386
#     4   9  22  42  67  91 130 171 217 261 328 386
#     4  12  22  43  69  93 127 175 210 265 324 386
#
# _framework density 22.178367999999999
#
# number of rings (size 3 to 8) (size 9 to 14) (size 15 to 20)
#    0.750    1.000    2.500    1.500    5.250    1.000 
#    6.750    0.000    0.000    0.000    0.000    0.000 
#    0.000    0.000    0.000    0.000    0.000    0.000 
#
# Total GULP energy -89348.130487 kJ/mol
# GULP energy per Si atom -5584.258155 kJ/mol
# Density = 2.212789 g / cm^3
# Si number density = 22.178368 Si / 1000 Ang^3
#
#
#
# Elastic Constant Matrix: (Units=GPa)
#
#
# Indices 1 2 3 4 5 6 
#
# 1 85.0418 25.6823 5.2678 0.0000 -24.2542 0.0000
# 2 25.6823 58.9917 7.1682 0.0000 -3.4036 0.0000
# 3 5.2678 7.1682 41.8211 0.0000 -7.4013 0.0000
# 4 0.0000 0.0000 0.0000 38.0926 0.0000 -6.4820
# 5 -24.2542 -3.4036 -7.4013 0.0000 33.7990 0.0000
# 6 0.0000 0.0000 0.0000 -6.4820 0.0000 21.1847
#
#
#
# Elastic Compliance Matrix: (Units=1/GPa)
#
#
# Indices 1 2 3 4 5 6 
#
# 1 0.017165 -0.006925 0.001125 0.000000 0.011867 0.000000
# 2 -0.006925 0.020148 -0.003227 0.000000 -0.003647 0.000000
# 3 0.001125 -0.003227 0.025392 0.000000 0.006043 0.000000
# 4 0.000000 0.000000 0.000000 0.027694 0.000000 0.008474
# 5 0.011867 -0.003647 0.006043 0.000000 0.039058 0.000000
# 6 0.000000 0.000000 0.000000 0.008474 0.000000 0.049797
#
#
# Mechanical properties :
#
#
# Convention : Reuss Voigt Hill
#
# Bulk Modulus (GPa) = 22.39540 29.12122 25.75831
# Shear Modulus (GPa) = 23.56376 28.46434 26.01405
#
# Velocity S-wave (km/s) = 3.26308 3.58638 3.42855
# Velocity P-wave (km/s) = 4.93120 5.50531 5.22615
#
# Compressibility (1/GPa) = 0.04465202
#
# Stress axis : x y z
#
# Youngs Moduli (GPa) = 58.25848 49.63282 39.38228
#
# Poissons Ratio (x) = 0.34370 -0.04430
# Poissons Ratio (y) = 0.40343 0.12707
# Poissons Ratio (z) = -0.06554 0.16014
#
# Static dielectric constant tensor:
#      x y z
#    x 1.778240 0.000000 -0.006030 
#    y 0.000000 1.790410 0.000000 
#    z -0.006030 0.000000 1.904650 
# 
# From -- ./inp_files/15057.got.cif
#   From: 2010.05.17/outbox.cif.g08.bks.cpg/sg9_8_cif.got.tgz:15057.got - 2010.06.03 20:04:27.
