data_PCOD9137092
_publ_section_title
;
Structure prediction by ZEFSAII (Michael W. Deem and Ramdas Pophale) SiO2 
 PCOD9137092
Probable space group: C C
;
_chemical_formula_sum "Si O2"
_cell_formula_units_Z 32
_cell_length_a 11.018743
_cell_length_b 21.864481
_cell_length_c 11.736394
_cell_angle_alpha 90.000000
_cell_angle_beta 26.462031
_cell_angle_gamma 90.000000
_cell_volume 1259.956722
_symmetry_space_group_name_H-M "C C"
_symmetry_group_IT_number 9
_symmetry_cell_setting 'monoclinic'
loop_
_space_group_symop_operation_xyz
x,y,z
x,-y,1/2+z
1/2+x,1/2+y,z
1/2+x,1/2-y,1/2+z
loop_
_atom_site_type_symbol
_atom_site_label
_atom_site_fract_x
_atom_site_fract_y
_atom_site_fract_z
Si Si1 0.577550 0.612834 0.644980
Si Si2 0.385559 0.045954 0.126274
Si Si3 0.074484 0.379795 0.130640
Si Si4 0.865703 0.115144 0.589597
Si Si5 0.221079 0.478458 0.544489
Si Si6 0.058892 0.415570 0.895788
Si Si7 0.620570 0.290001 0.495391
Si Si8 0.346884 0.712831 0.977992
O O1 0.542884 0.639466 0.547296
O O2 0.844545 0.620734 0.498259
O O3 0.349508 0.651183 0.905421
O O4 0.469332 0.542505 0.753699
O O5 0.601915 0.085782 0.873143
O O6 0.416843 0.975544 0.067395
O O7 0.461263 0.050998 0.195971
O O8 0.083072 0.066909 0.357828
O O9 0.130226 0.450735 0.117350
O O10 0.769413 0.353764 0.403065
O O11 0.261422 0.346956 0.069193
O O12 0.141692 0.377582 0.938552
O O13 0.258310 0.447943 0.637083
O O14 0.384556 0.255007 0.762309
O O15 0.485119 0.298685 0.484748
O O16 0.555647 0.757519 0.738783
#
# Coordination Sequence:
#
# PCOD9137092 Si02
#       8
#     4   4   4   4   4   4   4   4
#     4  11  23  41  68  97 138 178 223 284 342 406
#     4  10  22  39  58  89 135 176 211 264 326 404
#     4  11  23  43  64 105 135 186 226 284 345 418
#     4  11  23  41  61  92 135 172 216 271 330 404
#     4  10  22  40  64 100 138 177 229 273 345 413
#     4  11  21  39  64  93 135 176 224 271 338 405
#     4  10  23  45  68  96 132 177 234 292 335 395
#     4  10  23  42  69 100 130 172 235 289 335 393
#
# _framework density 25.3977
#
# number of rings (size 3 to 8) (size 9 to 14) (size 15 to 20)
#    0.000    1.500    3.750    0.750    1.750    2.000 
#    4.500    1.250    0.000    0.000    0.000    0.000 
#    0.000    0.000    0.000    0.000    0.000    0.000 
#
# Total GULP energy -89324.881562 kJ/mol
# GULP energy per Si atom -5582.805098 kJ/mol
# Density = 2.533989 g / cm^3
# Si number density = 25.397700 Si / 1000 Ang^3
#
#
#
# Elastic Constant Matrix: (Units=GPa)
#
#
# Indices 1 2 3 4 5 6 
#
# 1 176.4381 16.4460 31.0714 -0.0366 18.3810 0.0166
# 2 16.4460 72.5029 14.9298 -0.0098 -2.4891 0.0063
# 3 31.0714 14.9298 97.1495 -0.0418 -1.2455 0.0330
# 4 -0.0366 -0.0098 -0.0418 44.6673 0.0292 -4.7732
# 5 18.3810 -2.4891 -1.2455 0.0292 38.1103 -0.0180
# 6 0.0166 0.0063 0.0330 -4.7732 -0.0180 28.0554
#
#
#
# Elastic Compliance Matrix: (Units=1/GPa)
#
#
# Indices 1 2 3 4 5 6 
#
# 1 0.006456 -0.001180 -0.001925 0.000005 -0.003254 -0.000003
# 2 -0.001180 0.014487 -0.001830 0.000000 0.001455 0.000000
# 3 -0.001925 -0.001830 0.011206 0.000007 0.001175 -0.000010
# 4 0.000005 0.000000 0.000007 0.022802 -0.000018 0.003879
# 5 -0.003254 0.001455 0.001175 -0.000018 0.027942 0.000015
# 6 -0.000003 0.000000 -0.000010 0.003879 0.000015 0.036304
#
#
# Mechanical properties :
#
#
# Convention : Reuss Voigt Hill
#
# Bulk Modulus (GPa) = 44.88772 52.33167 48.60970
# Shear Modulus (GPa) = 36.63195 41.07616 38.85406
#
# Velocity S-wave (km/s) = 3.80193 4.02595 3.91554
# Velocity P-wave (km/s) = 6.08154 6.50082 6.29467
#
# Compressibility (1/GPa) = 0.02227781
#
# Stress axis : x y z
#
# Youngs Moduli (GPa) = 154.90321 69.02734 89.24182
#
# Poissons Ratio (x) = 0.08143 0.17180
# Poissons Ratio (y) = 0.18273 0.16335
# Poissons Ratio (z) = 0.29821 0.12635
#
# Static dielectric constant tensor:
#      x y z
#    x 2.062810 -0.000020 0.040470 
#    y -0.000020 2.070190 -0.000010 
#    z 0.040470 -0.000010 2.059110 
# 
# From -- ./inp_files/17224.got.cif
#   From: 2010.05.17/outbox.cif.g08.bks.cpg/sg9_9_cif.got.tgz:17224.got - 2010.06.03 20:04:27.
