data_PCOD9137393
_publ_section_title
;
Structure prediction by ZEFSAII (Michael W. Deem and Ramdas Pophale) SiO2 
 PCOD9137393
Probable space group: C C
;
_chemical_formula_sum "Si O2"
_cell_formula_units_Z 32
_cell_length_a 18.640361
_cell_length_b 14.173966
_cell_length_c 13.076208
_cell_angle_alpha 90.000000
_cell_angle_beta 22.232871
_cell_angle_gamma 90.000000
_cell_volume 1307.213142
_symmetry_space_group_name_H-M "C C"
_symmetry_group_IT_number 9
_symmetry_cell_setting 'monoclinic'
loop_
_space_group_symop_operation_xyz
x,y,z
x,-y,1/2+z
1/2+x,1/2+y,z
1/2+x,1/2-y,1/2+z
loop_
_atom_site_type_symbol
_atom_site_label
_atom_site_fract_x
_atom_site_fract_y
_atom_site_fract_z
Si Si1 0.338730 0.342996 0.974470
Si Si2 0.998467 0.205874 0.470531
Si Si3 0.554251 0.776689 0.807659
Si Si4 0.351573 0.994821 0.312406
Si Si5 0.687767 0.345062 0.393152
Si Si6 0.623399 0.428704 0.275855
Si Si7 0.141901 0.828427 0.993320
Si Si8 0.222856 0.466150 0.690269
O O1 0.436277 0.355273 0.956974
O O2 0.488471 0.306328 0.694212
O O3 0.180738 0.264919 0.197776
O O4 0.257350 0.447849 0.065341
O O5 0.022354 0.156439 0.548431
O O6 0.835726 0.281813 0.701877
O O7 0.656438 0.682531 0.711710
O O8 0.553553 0.750020 0.687538
O O9 0.653427 0.873190 0.717869
O O10 0.348590 0.779112 0.133515
O O11 0.208434 0.075105 0.457441
O O12 0.300044 0.010789 0.498909
O O13 0.278392 0.894782 0.371504
O O14 0.559386 0.999997 0.986857
O O15 0.637747 0.428193 0.378818
O O16 0.417064 0.445759 0.496998
#
# Coordination Sequence:
#
# PCOD9137393 Si02
#       8
#     4   4   4   4   4   4   4   4
#     4  11  24  47  66 104 142 193 240 301 361 449
#     4  10  24  42  71  97 142 187 240 292 365 428
#     4  10  25  43  70 105 143 184 236 308 370 430
#     4  10  23  43  65  99 144 177 244 298 356 433
#     4  11  25  43  67 101 139 187 239 301 367 435
#     4  11  24  44  71 102 140 193 244 297 369 430
#     4  10  22  41  70 103 136 184 236 298 354 426
#     4  11  23  47  70 103 148 189 245 301 368 433
#
# _framework density 24.479558999999998
#
# number of rings (size 3 to 8) (size 9 to 14) (size 15 to 20)
#    0.000    1.500    2.500    0.750   10.500    0.000 
#    6.750    0.000    0.000    0.000    0.000    0.000 
#    0.000    0.000    0.000    0.000    0.000    0.000 
#
# Total GULP energy -89329.619109 kJ/mol
# GULP energy per Si atom -5583.101194 kJ/mol
# Density = 2.442384 g / cm^3
# Si number density = 24.479559 Si / 1000 Ang^3
#
#
#
# Elastic Constant Matrix: (Units=GPa)
#
#
# Indices 1 2 3 4 5 6 
#
# 1 65.6769 19.7139 26.8922 0.0006 16.3785 -0.0003
# 2 19.7139 99.4000 35.3764 0.0011 4.5432 -0.0004
# 3 26.8922 35.3764 184.1433 0.0007 25.4165 -0.0005
# 4 0.0006 0.0011 0.0007 40.8490 -0.0006 13.6566
# 5 16.3785 4.5432 25.4165 -0.0006 30.8751 0.0006
# 6 -0.0003 -0.0004 -0.0005 13.6566 0.0006 20.4394
#
#
#
# Elastic Compliance Matrix: (Units=1/GPa)
#
#
# Indices 1 2 3 4 5 6 
#
# 1 0.018674 -0.002965 -0.000959 -0.000001 -0.008680 0.000001
# 2 -0.002965 0.011270 -0.001941 0.000000 0.001512 0.000000
# 3 -0.000959 -0.001941 0.006582 0.000000 -0.004624 0.000000
# 4 -0.000001 0.000000 0.000000 0.031522 0.000002 -0.021061
# 5 -0.008680 0.001512 -0.004624 0.000002 0.040577 -0.000002
# 6 0.000001 0.000000 0.000000 -0.021061 -0.000002 0.062997
#
#
# Mechanical properties :
#
#
# Convention : Reuss Voigt Hill
#
# Bulk Modulus (GPa) = 40.33194 57.02056 48.67625
# Shear Modulus (GPa) = 26.09380 36.24856 31.17118
#
# Velocity S-wave (km/s) = 3.26842 3.85225 3.57228
# Velocity P-wave (km/s) = 5.54571 6.56735 6.07804
#
# Compressibility (1/GPa) = 0.02479424
#
# Stress axis : x y z
#
# Youngs Moduli (GPa) = 53.55174 88.73040 151.93679
#
# Poissons Ratio (x) = 0.26312 0.14576
# Poissons Ratio (y) = 0.15880 0.29488
# Poissons Ratio (z) = 0.05138 0.17221
#
# Static dielectric constant tensor:
#      x y z
#    x 2.085490 0.000000 0.033880 
#    y 0.000000 1.938650 0.000000 
#    z 0.033880 0.000000 1.993250 
# 
# From -- ./inp_files/27476.got.cif
#   From: 2010.05.17/outbox.cif.g08.bks.cpg/sg9_14_cif.got.tgz:27476.got - 2010.06.03 20:04:27.
