data_PCOD9137516
_publ_section_title
;
Structure prediction by ZEFSAII (Michael W. Deem and Ramdas Pophale) SiO2 
 PCOD9137516
Probable space group: C C
;
_chemical_formula_sum "Si O2"
_cell_formula_units_Z 24
_cell_length_a 9.264986
_cell_length_b 21.051373
_cell_length_c 7.619442
_cell_angle_alpha 90.000000
_cell_angle_beta 43.122720
_cell_angle_gamma 90.000000
_cell_volume 1015.844122
_symmetry_space_group_name_H-M "C C"
_symmetry_group_IT_number 9
_symmetry_cell_setting 'monoclinic'
loop_
_space_group_symop_operation_xyz
x,y,z
x,-y,1/2+z
1/2+x,1/2+y,z
1/2+x,1/2-y,1/2+z
loop_
_atom_site_type_symbol
_atom_site_label
_atom_site_fract_x
_atom_site_fract_y
_atom_site_fract_z
Si Si1 0.216300 0.400156 0.011650
Si Si2 0.422191 0.922052 0.697828
Si Si3 0.224977 0.052569 0.737435
Si Si4 0.760637 0.969721 0.599756
Si Si5 0.604265 0.236912 0.480839
Si Si6 0.170580 0.858983 0.629151
O O1 0.149042 0.461477 0.185545
O O2 0.103483 0.334472 0.058259
O O3 0.239953 0.435130 0.803055
O O4 0.438781 0.380007 0.896515
O O5 0.666613 0.925529 0.531579
O O6 0.341357 0.873071 0.626227
O O7 0.341440 0.990768 0.706661
O O8 0.326541 0.913394 0.979259
O O9 0.203602 0.099838 0.921072
O O10 0.007639 0.024598 0.856296
O O11 0.650599 0.286622 0.592411
O O12 0.846349 0.245149 0.160482
#
# Coordination Sequence:
#
# PCOD9137516 Si02
#       6
#     4   4   4   4   4   4
#     4  10  22  42  68  97 142 183 233 299 365 425
#     4  12  22  37  66 101 133 183 227 297 354 420
#     4  11  22  40  60  99 143 170 235 293 355 424
#     4  11  23  38  65 105 135 179 233 301 356 423
#     4  10  24  45  74  98 140 199 240 289 368 443
#     4  10  23  44  67  96 137 188 234 295 360 435
#
# _framework density 23.62567
#
# number of rings (size 3 to 8) (size 9 to 14) (size 15 to 20)
#    0.000    1.333    3.333    2.000    4.667    0.000 
#    3.000    0.000   11.000    0.000    0.000    0.000 
#    0.000    0.000    0.000    0.000    0.000    0.000 
#
# Total GULP energy -66843.460631 kJ/mol
# GULP energy per Si atom -5570.288386 kJ/mol
# Density = 2.357190 g / cm^3
# Si number density = 23.625670 Si / 1000 Ang^3
#
#
#
# Elastic Constant Matrix: (Units=GPa)
#
#
# Indices 1 2 3 4 5 6 
#
# 1 122.9088 -6.7767 32.9130 0.0000 -16.9999 0.0000
# 2 -6.7767 104.3795 11.0057 0.0000 2.3150 0.0000
# 3 32.9130 11.0057 77.6369 0.0000 -6.6524 0.0000
# 4 0.0000 0.0000 0.0000 30.2061 0.0000 -12.2200
# 5 -16.9999 2.3150 -6.6524 0.0000 54.2232 0.0000
# 6 0.0000 0.0000 0.0000 -12.2200 0.0000 9.1193
#
#
#
# Elastic Compliance Matrix: (Units=1/GPa)
#
#
# Indices 1 2 3 4 5 6 
#
# 1 0.009605 0.000990 -0.004000 0.000000 0.002478 0.000000
# 2 0.000990 0.009847 -0.001844 0.000000 -0.000336 0.000000
# 3 -0.004000 -0.001844 0.014893 0.000000 0.000652 0.000000
# 4 0.000000 0.000000 0.000000 0.072301 0.000000 0.096885
# 5 0.002478 -0.000336 0.000652 0.000000 0.019314 0.000000
# 6 0.000000 0.000000 0.000000 0.096885 0.000000 0.239486
#
#
# Mechanical properties :
#
#
# Convention : Reuss Voigt Hill
#
# Bulk Modulus (GPa) = 40.58965 42.13437 41.36201
# Shear Modulus (GPa) = 13.04239 36.56194 24.80216
#
# Velocity S-wave (km/s) = 2.35211 3.93816 3.24357
# Velocity P-wave (km/s) = 4.95925 6.20900 5.61898
#
# Compressibility (1/GPa) = 0.02463683
#
# Stress axis : x y z
#
# Youngs Moduli (GPa) = 104.11740 101.55731 67.14370
#
# Poissons Ratio (x) = -0.10057 0.26856
# Poissons Ratio (y) = -0.10311 0.12385
# Poissons Ratio (z) = 0.41644 0.18732
#
# Static dielectric constant tensor:
#      x y z
#    x 1.898610 0.000000 -0.094910 
#    y 0.000000 1.842160 0.000000 
#    z -0.094910 0.000000 2.217760 
# 
# From -- ./inp_files/5707.got.cif
#   From: 2010.05.17/outbox.cif.g08.bks.cpg/sg9_3_cif.got.tgz:5707.got - 2010.06.03 20:04:27.
