data_PCOD9137449
_publ_section_title
;
Structure prediction by ZEFSAII (Michael W. Deem and Ramdas Pophale) SiO2 
 PCOD9137449
Probable space group: C C
;
_chemical_formula_sum "Si O2"
_cell_formula_units_Z 32
_cell_length_a 9.206839
_cell_length_b 15.593834
_cell_length_c 12.403327
_cell_angle_alpha 90.000000
_cell_angle_beta 66.420263
_cell_angle_gamma 90.000000
_cell_volume 1632.060057
_symmetry_space_group_name_H-M "C C"
_symmetry_group_IT_number 9
_symmetry_cell_setting 'monoclinic'
loop_
_space_group_symop_operation_xyz
x,y,z
x,-y,1/2+z
1/2+x,1/2+y,z
1/2+x,1/2-y,1/2+z
loop_
_atom_site_type_symbol
_atom_site_label
_atom_site_fract_x
_atom_site_fract_y
_atom_site_fract_z
Si Si1 0.463810 0.360935 0.579160
Si Si2 0.427786 0.657738 0.333748
Si Si3 0.834396 0.659633 0.392579
Si Si4 0.598791 0.108133 0.140071
Si Si5 0.105059 0.689342 0.906192
Si Si6 0.517552 0.551181 0.491808
Si Si7 0.081826 0.313231 0.990001
Si Si8 0.679308 0.910471 0.170732
O O1 0.497938 0.345333 0.694787
O O2 0.274042 0.354246 0.615755
O O3 0.519080 0.453251 0.524087
O O4 0.559296 0.287973 0.490433
O O5 0.487243 0.738001 0.389521
O O6 0.468151 0.570025 0.383513
O O7 0.239664 0.661064 0.381254
O O8 0.759787 0.753070 0.388977
O O9 0.685209 0.596982 0.449910
O O10 0.958030 0.637256 0.261036
O O11 0.929576 0.651558 0.475124
O O12 0.624039 0.005902 0.152129
O O13 0.559086 0.140464 0.030366
O O14 0.133809 0.620290 0.803252
O O15 0.370718 0.592365 0.601779
O O16 0.104562 0.346745 0.104383
#
# Coordination Sequence:
#
# PCOD9137449 Si02
#       8
#     4   4   4   4   4   4   4   4
#     4  11  21  43  65  98 128 173 214 267 332 378
#     4  10  22  42  65  95 132 171 216 268 326 393
#     4  11  24  43  66  99 131 167 223 269 323 394
#     4  11  25  41  68  97 134 172 216 273 326 388
#     4  11  24  42  68  97 130 175 222 266 329 392
#     4   9  24  42  64  94 130 169 213 270 327 382
#     4  11  22  42  66  94 131 169 217 268 322 388
#     4  10  24  43  68  92 130 176 215 269 331 387
#
# _framework density 19.607122
#
# number of rings (size 3 to 8) (size 9 to 14) (size 15 to 20)
#    0.000    1.500    3.750    0.000    7.000    4.000 
#    4.500    0.000    0.000    0.000    0.000    0.000 
#    0.000    0.000    0.000    0.000    0.000    0.000 
#
# Total GULP energy -89242.770549 kJ/mol
# GULP energy per Si atom -5577.673159 kJ/mol
# Density = 1.956250 g / cm^3
# Si number density = 19.607122 Si / 1000 Ang^3
#
#
#
# Elastic Constant Matrix: (Units=GPa)
#
#
# Indices 1 2 3 4 5 6 
#
# 1 87.7545 52.6044 26.9587 0.0000 3.6901 0.0000
# 2 52.6044 104.6411 46.5733 0.0000 3.5903 0.0000
# 3 26.9587 46.5733 87.0439 0.0000 10.1918 0.0000
# 4 0.0000 0.0000 0.0000 25.8753 0.0000 8.2124
# 5 3.6901 3.5903 10.1918 0.0000 17.2168 0.0000
# 6 0.0000 0.0000 0.0000 8.2124 0.0000 20.4519
#
#
#
# Elastic Compliance Matrix: (Units=1/GPa)
#
#
# Indices 1 2 3 4 5 6 
#
# 1 0.016395 -0.007886 -0.000687 0.000000 -0.001463 0.000000
# 2 -0.007886 0.016371 -0.006571 0.000000 0.002166 0.000000
# 3 -0.000687 -0.006571 0.016159 0.000000 -0.008048 0.000000
# 4 0.000000 0.000000 0.000000 0.044292 0.000000 -0.017785
# 5 -0.001463 0.002166 -0.008048 0.000000 0.062709 0.000000
# 6 0.000000 0.000000 0.000000 -0.017785 0.000000 0.056037
#
#
# Mechanical properties :
#
#
# Convention : Reuss Voigt Hill
#
# Bulk Modulus (GPa) = 53.65365 59.07913 56.36639
# Shear Modulus (GPa) = 20.12368 22.92902 21.52635
#
# Velocity S-wave (km/s) = 3.20714 3.42339 3.31703
# Velocity P-wave (km/s) = 6.41390 6.76927 6.59398
#
# Compressibility (1/GPa) = 0.01863806
#
# Stress axis : x y z
#
# Youngs Moduli (GPa) = 60.99285 61.08353 61.88420
#
# Poissons Ratio (x) = 0.48172 0.04252
# Poissons Ratio (y) = 0.48100 0.40661
# Poissons Ratio (z) = 0.04191 0.40135
#
# Static dielectric constant tensor:
#      x y z
#    x 1.697720 0.000000 0.018470 
#    y 0.000000 1.693880 0.000000 
#    z 0.018470 0.000000 1.662020 
# 
# From -- ./inp_files/14667.got.cif
#   From: 2010.05.17/outbox.cif.g08.bks.cpg/sg9_8_cif.got.tgz:14667.got - 2010.06.03 20:04:27.
