data_PCOD9137269
_publ_section_title
;
Structure prediction by ZEFSAII (Michael W. Deem and Ramdas Pophale) SiO2 
 PCOD9137269
Probable space group: C C
;
_chemical_formula_sum "Si O2"
_cell_formula_units_Z 28
_cell_length_a 13.463764
_cell_length_b 5.170317
_cell_length_c 19.167573
_cell_angle_alpha 90.000000
_cell_angle_beta 111.413239
_cell_angle_gamma 90.000000
_cell_volume 1242.187529
_symmetry_space_group_name_H-M "C C"
_symmetry_group_IT_number 9
_symmetry_cell_setting 'monoclinic'
loop_
_space_group_symop_operation_xyz
x,y,z
x,-y,1/2+z
1/2+x,1/2+y,z
1/2+x,1/2-y,1/2+z
loop_
_atom_site_type_symbol
_atom_site_label
_atom_site_fract_x
_atom_site_fract_y
_atom_site_fract_z
Si Si1 0.768960 0.712288 0.613150
Si Si2 0.111075 0.865955 0.623809
Si Si3 0.460103 0.440997 0.193995
Si Si4 0.569428 0.007109 0.495726
Si Si5 0.576907 0.063375 0.745836
Si Si6 0.205548 0.467754 0.407148
Si Si7 0.332190 0.034514 0.988070
O O1 0.721278 0.519312 0.658088
O O2 0.842592 0.944441 0.658235
O O3 0.831614 0.550852 0.569385
O O4 0.662443 0.826666 0.550788
O O5 0.092758 0.780109 0.539935
O O6 0.013753 0.031287 0.630581
O O7 0.109833 0.616380 0.674092
O O8 0.487761 0.157819 0.226880
O O9 0.527875 0.657539 0.253959
O O10 0.593495 0.989439 0.420250
O O11 0.450201 0.946262 0.487446
O O12 0.676128 0.993132 0.819294
O O13 0.265368 0.196566 0.434229
O O14 0.275194 0.694259 0.459396
#
# Coordination Sequence:
#
# PCOD9137269 Si02
#       7
#     4   4   4   4   4   4   4
#     4  11  23  40  72 102 135 178 226 289 359 397
#     4  10  22  40  68  99 134 174 228 286 338 413
#     4  10  23  42  70  95 140 174 226 289 345 405
#     4  11  24  41  69 101 132 170 234 279 338 410
#     4  10  23  46  66  97 144 179 230 284 341 419
#     4  11  25  45  69  94 137 186 221 280 343 399
#     4  11  24  42  70  98 134 175 227 281 336 407
#
# _framework density 22.540880999999999
#
# number of rings (size 3 to 8) (size 9 to 14) (size 15 to 20)
#    0.857    0.571    2.857    1.714    4.000    2.286 
#    2.571    0.000    0.000    0.000    0.000    0.000 
#    0.000    0.000    0.000    0.000    0.000    0.000 
#
# Total GULP energy -78194.700973 kJ/mol
# GULP energy per Si atom -5585.335784 kJ/mol
# Density = 2.248958 g / cm^3
# Si number density = 22.540881 Si / 1000 Ang^3
#
#
#
# Elastic Constant Matrix: (Units=GPa)
#
#
# Indices 1 2 3 4 5 6 
#
# 1 139.4794 21.5156 -2.6215 0.0000 6.2624 0.0000
# 2 21.5156 98.7223 3.2720 0.0000 4.0489 0.0000
# 3 -2.6215 3.2720 41.0323 0.0000 8.1863 0.0000
# 4 0.0000 0.0000 0.0000 22.4093 0.0000 6.9392
# 5 6.2624 4.0489 8.1863 0.0000 14.4796 0.0000
# 6 0.0000 0.0000 0.0000 6.9392 0.0000 40.9272
#
#
#
# Elastic Compliance Matrix: (Units=1/GPa)
#
#
# Indices 1 2 3 4 5 6 
#
# 1 0.007596 -0.001552 0.001328 0.000000 -0.003602 0.000000
# 2 -0.001552 0.010567 -0.000548 0.000000 -0.001974 0.000000
# 3 0.001328 -0.000548 0.027709 0.000000 -0.016087 0.000000
# 4 0.000000 0.000000 0.000000 0.047097 0.000000 -0.007985
# 5 -0.003602 -0.001974 -0.016087 0.000000 0.080267 0.000000
# 6 0.000000 0.000000 0.000000 -0.007985 0.000000 0.025788
#
#
# Mechanical properties :
#
#
# Convention : Reuss Voigt Hill
#
# Bulk Modulus (GPa) = 22.55947 35.95180 29.25563
# Shear Modulus (GPa) = 23.21875 32.70107 27.95991
#
# Velocity S-wave (km/s) = 3.21296 3.81300 3.52576
# Velocity P-wave (km/s) = 4.87792 5.94722 5.43891
#
# Compressibility (1/GPa) = 0.04432729
#
# Stress axis : x y z
#
# Youngs Moduli (GPa) = 131.65631 94.63687 36.08927
#
# Poissons Ratio (x) = 0.14684 -0.04791
# Poissons Ratio (y) = 0.20429 0.01977
# Poissons Ratio (z) = -0.17479 0.05186
#
# Static dielectric constant tensor:
#      x y z
#    x 1.851800 0.000000 -0.008330 
#    y 0.000000 1.897320 0.000000 
#    z -0.008330 0.000000 1.829580 
# 
# From -- ./inp_files/32987.got.cif
#   From: 2010.05.17/outbox.cif.g08.bks.cpg/sg9_17_cif.got.tgz:32987.got - 2010.06.03 20:04:27.
