data_PCOD9137575
_publ_section_title
;
Structure prediction by ZEFSAII (Michael W. Deem and Ramdas Pophale) SiO2 
 PCOD9137575
Probable space group: C C
;
_chemical_formula_sum "Si O2"
_cell_formula_units_Z 16
_cell_length_a 5.164091
_cell_length_b 21.997666
_cell_length_c 5.551788
_cell_angle_alpha 90.000000
_cell_angle_beta 93.180129
_cell_angle_gamma 90.000000
_cell_volume 629.700536
_symmetry_space_group_name_H-M "C C"
_symmetry_group_IT_number 9
_symmetry_cell_setting 'monoclinic'
loop_
_space_group_symop_operation_xyz
x,y,z
x,-y,1/2+z
1/2+x,1/2+y,z
1/2+x,1/2-y,1/2+z
loop_
_atom_site_type_symbol
_atom_site_label
_atom_site_fract_x
_atom_site_fract_y
_atom_site_fract_z
Si Si1 0.911070 0.808175 0.865380
Si Si2 0.773775 0.097312 0.978435
Si Si3 0.072990 0.991060 0.207968
Si Si4 0.423462 0.172477 0.685732
O O1 0.889091 0.842770 0.609445
O O2 0.920388 0.735854 0.829766
O O3 0.660183 0.823727 0.009900
O O4 0.166855 0.828979 0.015840
O O5 0.929437 0.071285 0.758512
O O6 0.491560 0.117363 0.871477
O O7 0.843400 0.041985 0.162926
O O8 0.218032 0.008937 0.461543
#
# Coordination Sequence:
#
# PCOD9137575 Si02
#       4
#     4   4   4   4
#     4  12  26  45  72 109 148 192 246 306 376 443
#     4  10  22  42  74 102 152 186 258 290 384 428
#     4   8  18  40  68 102 144 194 240 300 360 436
#     4  12  26  45  72 109 148 192 246 306 376 443
#
# _framework density 25.408902000000001
#
# number of rings (size 3 to 8) (size 9 to 14) (size 15 to 20)
#    1.500    0.000    2.500    3.000    0.000    0.000 
#    0.000    2.500    0.000    0.000    0.000    0.000 
#    0.000    0.000    0.000    0.000    0.000    0.000 
#
# Total GULP energy -44721.347368 kJ/mol
# GULP energy per Si atom -5590.168421 kJ/mol
# Density = 2.535107 g / cm^3
# Si number density = 25.408902 Si / 1000 Ang^3
#
#
#
# Elastic Constant Matrix: (Units=GPa)
#
#
# Indices 1 2 3 4 5 6 
#
# 1 122.8194 24.8318 36.8622 0.0000 24.6557 0.0000
# 2 24.8318 97.9346 28.6719 0.0000 -8.4925 0.0000
# 3 36.8622 28.6719 150.2549 0.0000 12.2369 0.0000
# 4 0.0000 0.0000 0.0000 77.7710 0.0000 5.0703
# 5 24.6557 -8.4925 12.2369 0.0000 38.3074 0.0000
# 6 0.0000 0.0000 0.0000 5.0703 0.0000 26.2980
#
#
#
# Elastic Compliance Matrix: (Units=1/GPa)
#
#
# Indices 1 2 3 4 5 6 
#
# 1 0.010558 -0.002846 -0.001481 0.000000 -0.006953 0.000000
# 2 -0.002846 0.011963 -0.002002 0.000000 0.005124 0.000000
# 3 -0.001481 -0.002002 0.007556 0.000000 -0.001904 0.000000
# 4 0.000000 0.000000 0.000000 0.013022 0.000000 -0.002511
# 5 -0.006953 0.005124 -0.001904 0.000000 0.032324 0.000000
# 6 0.000000 0.000000 0.000000 -0.002511 0.000000 0.038510
#
#
# Mechanical properties :
#
#
# Convention : Reuss Voigt Hill
#
# Bulk Modulus (GPa) = 57.40967 61.30451 59.35709
# Shear Modulus (GPa) = 37.76540 47.18482 42.47511
#
# Velocity S-wave (km/s) = 3.85945 4.31399 4.09303
# Velocity P-wave (km/s) = 6.51949 6.99954 6.76378
#
# Compressibility (1/GPa) = 0.01741867
#
# Stress axis : x y z
#
# Youngs Moduli (GPa) = 94.71667 83.59140 132.35058
#
# Poissons Ratio (x) = 0.23794 0.19597
# Poissons Ratio (y) = 0.26961 0.26493
# Poissons Ratio (z) = 0.14025 0.16733
#
# Static dielectric constant tensor:
#      x y z
#    x 1.924040 0.000000 -0.023490 
#    y 0.000000 1.872290 0.000000 
#    z -0.023490 0.000000 2.060400 
# 
# From -- ./inp_files/122.got.cif
#   From: 2010.05.17/outbox.cif.g08.bks.cpg/sg9_1_cif.got.tgz:122.got - 2010.06.03 20:04:27.
