data_PCOD9137105
_publ_section_title
;
Structure prediction by ZEFSAII (Michael W. Deem and Ramdas Pophale) SiO2 
 PCOD9137105
Probable space group: C C
;
_chemical_formula_sum "Si O2"
_cell_formula_units_Z 28
_cell_length_a 10.830707
_cell_length_b 20.234940
_cell_length_c 8.257695
_cell_angle_alpha 90.000000
_cell_angle_beta 135.375070
_cell_angle_gamma 90.000000
_cell_volume 1271.279063
_symmetry_space_group_name_H-M "C C"
_symmetry_group_IT_number 9
_symmetry_cell_setting 'monoclinic'
loop_
_space_group_symop_operation_xyz
x,y,z
x,-y,1/2+z
1/2+x,1/2+y,z
1/2+x,1/2-y,1/2+z
loop_
_atom_site_type_symbol
_atom_site_label
_atom_site_fract_x
_atom_site_fract_y
_atom_site_fract_z
Si Si1 0.869330 0.028414 0.767870
Si Si2 0.580174 0.118984 0.372551
Si Si3 0.612157 0.792489 0.199437
Si Si4 0.730143 0.659972 0.448045
Si Si5 0.729663 0.914115 0.471671
Si Si6 0.749586 0.545174 0.233965
Si Si7 0.893499 0.402494 0.372314
O O1 0.750743 0.071624 0.534083
O O2 0.849332 0.950825 0.713412
O O3 0.774817 0.047880 0.848114
O O4 0.074064 0.045465 0.961891
O O5 0.629767 0.183180 0.529073
O O6 0.418962 0.080173 0.311219
O O7 0.504565 0.128991 0.122270
O O8 0.618991 0.717164 0.260040
O O9 0.740957 0.837652 0.430839
O O10 0.421043 0.816987 0.068252
O O11 0.694051 0.589395 0.334973
O O12 0.753311 0.647397 0.660601
O O13 0.534673 0.922488 0.363897
O O14 0.802662 0.471371 0.333480
#
# Coordination Sequence:
#
# PCOD9137105 Si02
#       7
#     4   4   4   4   4   4   4
#     4  11  23  37  65  95 130 177 220 277 332 395
#     4  10  22  42  64  95 138 174 218 282 334 400
#     4   9  22  41  65  91 129 181 224 266 336 404
#     4  10  23  42  67  94 130 184 222 271 338 405
#     4  10  22  39  62  96 130 175 218 270 338 395
#     4  11  24  39  65 101 132 173 226 276 336 400
#     4  11  22  42  68  96 141 172 220 286 342 389
#
# _framework density 22.025061999999998
#
# number of rings (size 3 to 8) (size 9 to 14) (size 15 to 20)
#    0.000    1.714    1.429    2.571   12.000    0.000 
#    0.000    5.714    3.143    0.000    0.000    0.000 
#    0.000    0.000    0.000    0.000    0.000    0.000 
#
# Total GULP energy -78053.634365 kJ/mol
# GULP energy per Si atom -5575.259598 kJ/mol
# Density = 2.197493 g / cm^3
# Si number density = 22.025062 Si / 1000 Ang^3
#
#
#
# Elastic Constant Matrix: (Units=GPa)
#
#
# Indices 1 2 3 4 5 6 
#
# 1 49.8715 30.7056 25.7446 0.0000 -3.0305 0.0000
# 2 30.7056 102.0071 56.3045 0.0000 -6.8460 0.0000
# 3 25.7446 56.3045 121.3467 0.0000 10.9328 0.0000
# 4 0.0000 0.0000 0.0000 45.8167 0.0000 -2.2596
# 5 -3.0305 -6.8460 10.9328 0.0000 35.2252 0.0000
# 6 0.0000 0.0000 0.0000 -2.2596 0.0000 10.6046
#
#
#
# Elastic Compliance Matrix: (Units=1/GPa)
#
#
# Indices 1 2 3 4 5 6 
#
# 1 0.025257 -0.005950 -0.002767 0.000000 0.001875 0.000000
# 2 -0.005950 0.015342 -0.006254 0.000000 0.004411 0.000000
# 3 -0.002767 -0.006254 0.012202 0.000000 -0.005240 0.000000
# 4 0.000000 0.000000 0.000000 0.022058 0.000000 0.004700
# 5 0.001875 0.004411 -0.005240 0.000000 0.031034 0.000000
# 6 0.000000 0.000000 0.000000 0.004700 0.000000 0.095300
#
#
# Mechanical properties :
#
#
# Convention : Reuss Voigt Hill
#
# Bulk Modulus (GPa) = 43.74409 55.41497 49.57953
# Shear Modulus (GPa) = 20.94216 29.02735 24.98476
#
# Velocity S-wave (km/s) = 3.08690 3.63426 3.37171
# Velocity P-wave (km/s) = 5.71047 6.54408 6.14144
#
# Compressibility (1/GPa) = 0.02286023
#
# Stress axis : x y z
#
# Youngs Moduli (GPa) = 39.59316 65.18008 81.95552
#
# Poissons Ratio (x) = 0.38780 0.22675
# Poissons Ratio (y) = 0.23557 0.51254
# Poissons Ratio (z) = 0.10954 0.40763
#
# Static dielectric constant tensor:
#      x y z
#    x 1.830660 0.000000 -0.021750 
#    y 0.000000 1.880270 0.000000 
#    z -0.021750 0.000000 1.935650 
# 
# From -- ./inp_files/8242.got.cif
#   From: 2010.05.17/outbox.cif.g08.bks.cpg/sg9_5_cif.got.tgz:8242.got - 2010.06.03 20:04:27.
