data_PCOD9137731
_publ_section_title
;
Structure prediction by ZEFSAII (Michael W. Deem and Ramdas Pophale) SiO2 
 PCOD9137731
Probable space group: C C
;
_chemical_formula_sum "Si O2"
_cell_formula_units_Z 24
_cell_length_a 10.912366
_cell_length_b 7.299604
_cell_length_c 22.004267
_cell_angle_alpha 90.000000
_cell_angle_beta 146.631658
_cell_angle_gamma 90.000000
_cell_volume 964.057897
_symmetry_space_group_name_H-M "C C"
_symmetry_group_IT_number 9
_symmetry_cell_setting 'monoclinic'
loop_
_space_group_symop_operation_xyz
x,y,z
x,-y,1/2+z
1/2+x,1/2+y,z
1/2+x,1/2-y,1/2+z
loop_
_atom_site_type_symbol
_atom_site_label
_atom_site_fract_x
_atom_site_fract_y
_atom_site_fract_z
Si Si1 0.676000 0.651725 0.635410
Si Si2 0.795884 0.580315 0.807703
Si Si3 0.928434 0.810174 0.498818
Si Si4 0.920511 0.814233 0.623552
Si Si5 0.372582 0.330736 0.337257
Si Si6 0.807651 0.602510 0.948569
O O1 0.825080 0.683465 0.756436
O O2 0.640279 0.436506 0.605110
O O3 0.439120 0.751251 0.543063
O O4 0.775007 0.745610 0.617664
O O5 0.541766 0.501355 0.693139
O O6 0.798480 0.669081 0.874644
O O7 0.926523 0.387709 0.859886
O O8 0.796144 0.831460 0.508100
O O9 0.855774 0.879180 0.402091
O O10 0.936108 0.591106 0.497723
O O11 0.127116 0.668255 0.705759
O O12 0.566207 0.424422 0.379092
#
# Coordination Sequence:
#
# PCOD9137731 Si02
#       6
#     4   4   4   4   4   4
#     4  11  23  42  68  95 129 180 210 273 336 374
#     4   8  22  44  60 102 136 160 236 270 302 420
#     4  10  22  44  64  98 130 158 234 266 312 418
#     4   9  21  42  64  92 134 173 213 275 322 385
#     4   9  21  42  64  92 134 173 213 275 322 385
#     4  11  23  42  68  95 129 180 210 273 336 374
#
# _framework density 24.894770999999999
#
# number of rings (size 3 to 8) (size 9 to 14) (size 15 to 20)
#    1.000    1.333    0.000    1.000    0.000   10.667 
#    9.000    0.000    0.000    0.000    0.000    0.000 
#    0.000    0.000    0.000    0.000    0.000    0.000 
#
# Total GULP energy -66887.091060 kJ/mol
# GULP energy per Si atom -5573.924255 kJ/mol
# Density = 2.483811 g / cm^3
# Si number density = 24.894771 Si / 1000 Ang^3
#
#
#
# Elastic Constant Matrix: (Units=GPa)
#
#
# Indices 1 2 3 4 5 6 
#
# 1 83.9830 28.2280 29.5899 0.0000 -20.3726 0.0000
# 2 28.2280 88.0275 40.0590 0.0000 -6.3049 0.0000
# 3 29.5899 40.0590 129.8371 0.0002 -32.1256 0.0001
# 4 0.0000 0.0000 0.0002 35.7613 0.0000 -1.0326
# 5 -20.3726 -6.3049 -32.1256 0.0000 54.2830 0.0000
# 6 0.0000 0.0000 0.0001 -1.0326 0.0000 15.3447
#
#
#
# Elastic Compliance Matrix: (Units=1/GPa)
#
#
# Indices 1 2 3 4 5 6 
#
# 1 0.014664 -0.003912 -0.001037 0.000000 0.004435 0.000000
# 2 -0.003912 0.014309 -0.004071 0.000000 -0.002216 0.000000
# 3 -0.001037 -0.004071 0.010522 0.000000 0.005365 0.000000
# 4 0.000000 0.000000 0.000000 0.028018 0.000000 0.001885
# 5 0.004435 -0.002216 0.005365 0.000000 0.023004 0.000000
# 6 0.000000 0.000000 0.000000 0.001885 0.000000 0.065296
#
#
# Mechanical properties :
#
#
# Convention : Reuss Voigt Hill
#
# Bulk Modulus (GPa) = 46.61599 55.28903 50.95251
# Shear Modulus (GPa) = 27.62356 34.67585 31.14970
#
# Velocity S-wave (km/s) = 3.33470 3.73620 3.54115
# Velocity P-wave (km/s) = 5.79593 6.39293 6.10174
#
# Compressibility (1/GPa) = 0.02145187
#
# Stress axis : x y z
#
# Youngs Moduli (GPa) = 68.19640 69.88730 95.03949
#
# Poissons Ratio (x) = 0.27343 0.09859
# Poissons Ratio (y) = 0.26682 0.38694
# Poissons Ratio (z) = 0.07074 0.28454
#
# Static dielectric constant tensor:
#      x y z
#    x 2.034570 0.000000 -0.015050 
#    y 0.000000 1.962850 0.000000 
#    z -0.015050 0.000000 1.981510 
# 
# From -- ./inp_files/32337.got.cif
#   From: 2010.05.17/outbox.cif.g08.bks.cpg/sg9_17_cif.got.tgz:32337.got - 2010.06.03 20:04:27.
