data_PCOD9137074
_publ_section_title
;
Structure prediction by ZEFSAII (Michael W. Deem and Ramdas Pophale) SiO2 
 PCOD9137074
Probable space group: C C
;
_chemical_formula_sum "Si O2"
_cell_formula_units_Z 28
_cell_length_a 4.990333
_cell_length_b 24.691070
_cell_length_c 9.115105
_cell_angle_alpha 90.000000
_cell_angle_beta 94.248940
_cell_angle_gamma 90.000000
_cell_volume 1120.045939
_symmetry_space_group_name_H-M "C C"
_symmetry_group_IT_number 9
_symmetry_cell_setting 'monoclinic'
loop_
_space_group_symop_operation_xyz
x,y,z
x,-y,1/2+z
1/2+x,1/2+y,z
1/2+x,1/2-y,1/2+z
loop_
_atom_site_type_symbol
_atom_site_label
_atom_site_fract_x
_atom_site_fract_y
_atom_site_fract_z
Si Si1 0.230020 0.065307 0.487180
Si Si2 0.937215 0.000440 0.728741
Si Si3 0.250380 0.872559 0.458728
Si Si4 0.232461 0.173213 0.630031
Si Si5 0.781693 0.808050 0.536516
Si Si6 0.728260 0.234059 0.703153
Si Si7 0.586854 0.974302 0.467558
O O1 0.178166 0.128472 0.505463
O O2 0.120089 0.036146 0.629655
O O3 0.524464 0.038943 0.478079
O O4 0.092821 0.039676 0.340656
O O5 0.746239 0.035810 0.825457
O O6 0.753554 0.964486 0.618384
O O7 0.224001 0.853250 0.290055
O O8 0.482156 0.833993 0.542770
O O9 0.334954 0.934776 0.464972
O O10 0.960218 0.860798 0.509196
O O11 0.548942 0.185555 0.630446
O O12 0.020081 0.224034 0.635538
O O13 0.771739 0.773288 0.380718
O O14 0.000256 0.779680 0.657320
#
# Coordination Sequence:
#
# PCOD9137074 Si02
#       7
#     4   4   4   4   4   4   4
#     4  11  23  41  62  95 133 173 218 267 321 388
#     4  10  24  38  64  88 136 170 218 262 324 378
#     4  10  22  38  67  90 125 171 215 257 332 395
#     4  10  22  38  67  90 125 171 215 257 332 395
#     4  10  22  42  63  92 122 165 216 273 331 393
#     4  10  22  42  63  92 122 165 216 273 331 393
#     4  11  23  41  62  95 133 173 218 267 321 388
#
# _framework density 24.998971999999998
#
# number of rings (size 3 to 8) (size 9 to 14) (size 15 to 20)
#    0.000    1.714    0.000    3.429   14.000    0.000 
#    5.143    0.000    0.000    0.000    0.000    0.000 
#    0.000    0.000    0.000    0.000    0.000    0.000 
#
# Total GULP energy -78075.332749 kJ/mol
# GULP energy per Si atom -5576.809482 kJ/mol
# Density = 2.494207 g / cm^3
# Si number density = 24.998972 Si / 1000 Ang^3
#
#
#
# Elastic Constant Matrix: (Units=GPa)
#
#
# Indices 1 2 3 4 5 6 
#
# 1 100.4411 -15.5448 27.8644 0.0000 16.0076 0.0000
# 2 -15.5448 42.1541 4.6654 0.0000 18.1955 0.0000
# 3 27.8644 4.6654 91.8303 0.0000 17.2453 0.0000
# 4 0.0000 0.0000 0.0000 22.7597 0.0000 9.5705
# 5 16.0076 18.1955 17.2453 0.0000 26.4630 0.0000
# 6 0.0000 0.0000 0.0000 9.5705 0.0000 34.3868
#
#
#
# Elastic Compliance Matrix: (Units=1/GPa)
#
#
# Indices 1 2 3 4 5 6 
#
# 1 0.015280 0.013170 -0.002130 0.000000 -0.016910 0.000000
# 2 0.013170 0.045832 0.001241 0.000000 -0.040289 0.000000
# 3 -0.002130 0.001241 0.012980 0.000000 -0.008024 0.000000
# 4 0.000000 0.000000 0.000000 0.049761 0.000000 -0.013849
# 5 -0.016910 -0.040289 -0.008024 0.000000 0.080948 0.000000
# 6 0.000000 0.000000 0.000000 -0.013849 0.000000 0.032935
#
#
# Mechanical properties :
#
#
# Convention : Reuss Voigt Hill
#
# Bulk Modulus (GPa) = 10.13644 29.82173 19.97908
# Shear Modulus (GPa) = 20.32033 31.21794 25.76914
#
# Velocity S-wave (km/s) = 2.85414 3.53763 3.21410
# Velocity P-wave (km/s) = 3.86329 5.35177 4.66725
#
# Compressibility (1/GPa) = 0.09865399
#
# Stress axis : x y z
#
# Youngs Moduli (GPa) = 65.44410 21.81889 77.04347
#
# Poissons Ratio (x) = -0.28735 0.16410
# Poissons Ratio (y) = -0.86188 -0.09564
# Poissons Ratio (z) = 0.13939 -0.02709
#
# Static dielectric constant tensor:
#      x y z
#    x 2.025280 0.000000 -0.000560 
#    y 0.000000 2.068200 0.000000 
#    z -0.000560 0.000000 1.951810 
# 
# From -- ./inp_files/4182.got.cif
#   From: 2010.05.17/outbox.cif.g08.bks.cpg/sg9_3_cif.got.tgz:4182.got - 2010.06.03 20:04:27.
