data_PCOD9137264
_publ_section_title
;
Structure prediction by ZEFSAII (Michael W. Deem and Ramdas Pophale) SiO2 
 PCOD9137264
Probable space group: C C
;
_chemical_formula_sum "Si O2"
_cell_formula_units_Z 28
_cell_length_a 11.519587
_cell_length_b 8.717454
_cell_length_c 26.621721
_cell_angle_alpha 90.000000
_cell_angle_beta 29.551415
_cell_angle_gamma 90.000000
_cell_volume 1318.528830
_symmetry_space_group_name_H-M "C C"
_symmetry_group_IT_number 9
_symmetry_cell_setting 'monoclinic'
loop_
_space_group_symop_operation_xyz
x,y,z
x,-y,1/2+z
1/2+x,1/2+y,z
1/2+x,1/2-y,1/2+z
loop_
_atom_site_type_symbol
_atom_site_label
_atom_site_fract_x
_atom_site_fract_y
_atom_site_fract_z
Si Si1 0.678150 0.958786 0.418540
Si Si2 0.265794 0.498480 0.274699
Si Si3 0.752686 0.438599 0.451476
Si Si4 0.489284 0.569863 0.949273
Si Si5 0.134669 0.171573 0.784951
Si Si6 0.594583 0.127533 0.555030
Si Si7 0.736558 0.606455 0.551740
O O1 0.878002 0.832564 0.354993
O O2 0.776986 0.034636 0.329978
O O3 0.657377 0.046137 0.478880
O O4 0.401813 0.962999 0.507131
O O5 0.225411 0.657385 0.261256
O O6 0.493246 0.408854 0.171490
O O7 0.029865 0.402829 0.351587
O O8 0.669795 0.459495 0.426147
O O9 0.614222 0.304438 0.532222
O O10 0.708957 0.587300 0.502356
O O11 0.607231 0.593176 0.850150
O O12 0.293106 0.437034 0.018019
O O13 0.362359 0.730957 0.011562
O O14 0.336199 0.094663 0.674631
#
# Coordination Sequence:
#
# PCOD9137264 Si02
#       7
#     4   4   4   4   4   4   4
#     4  10  22  40  68  95 132 175 216 279 326 398
#     4  11  23  41  71  99 132 178 227 274 340 400
#     4  11  23  43  66  96 134 172 220 276 322 409
#     4  11  25  45  62 100 139 166 226 282 323 410
#     4  11  22  43  66  99 131 176 224 274 340 398
#     4  11  23  43  69  96 136 175 224 277 338 398
#     4  11  22  43  68  97 134 176 221 276 339 393
#
# _framework density 21.235789
#
# number of rings (size 3 to 8) (size 9 to 14) (size 15 to 20)
#    0.000    1.143    5.714    0.857    0.000    5.714 
#    0.000    1.429    0.000    0.000    0.000    0.000 
#    0.000    0.000    0.000    0.000    0.000    0.000 
#
# Total GULP energy -78025.721693 kJ/mol
# GULP energy per Si atom -5573.265835 kJ/mol
# Density = 2.118746 g / cm^3
# Si number density = 21.235789 Si / 1000 Ang^3
#
#
#
# Elastic Constant Matrix: (Units=GPa)
#
#
# Indices 1 2 3 4 5 6 
#
# 1 133.2450 23.8038 47.2072 -0.0001 4.1017 0.0001
# 2 23.8038 31.7660 5.9435 -0.0009 5.0582 0.0002
# 3 47.2072 5.9435 138.1275 -0.0064 0.5327 -0.0012
# 4 -0.0001 -0.0009 -0.0064 -1.4472 -0.0003 -3.2481
# 5 4.1017 5.0582 0.5327 -0.0003 12.8768 0.0002
# 6 0.0001 0.0002 -0.0012 -3.2481 0.0002 28.3260
#
#
#
# Elastic Compliance Matrix: (Units=1/GPa)
#
#
# Indices 1 2 3 4 5 6 
#
# 1 0.009799 -0.006714 -0.003059 0.000013 -0.000358 0.000001
# 2 -0.006714 0.038451 0.000690 -0.000018 -0.012994 -0.000002
# 3 -0.003059 0.000690 0.008254 -0.000030 0.000362 -0.000003
# 4 0.000013 -0.000018 -0.000030 -0.549565 -0.000009 -0.063017
# 5 -0.000358 -0.012994 0.000362 -0.000009 0.082862 -0.000001
# 6 0.000001 -0.000002 -0.000003 -0.063017 -0.000001 0.028077
#
#
# Mechanical properties :
#
#
# Convention : Reuss Voigt Hill
#
# Bulk Modulus (GPa) = 26.08278 50.78307 38.43292
# Shear Modulus (GPa) = -14.23784 23.03007 4.39611
#
# Velocity S-wave (km/s) = -2.59214 3.29674 1.44036
# Velocity P-wave (km/s) = 1.83035 6.20138 4.57205
#
# Compressibility (1/GPa) = 0.03833947
#
# Stress axis : x y z
#
# Youngs Moduli (GPa) = 102.05103 26.00711 121.15408
#
# Poissons Ratio (x) = 0.17460 0.37057
# Poissons Ratio (y) = 0.68514 -0.08361
# Poissons Ratio (z) = 0.31214 -0.01795
#
# Static dielectric constant tensor:
#      x y z
#    x 1.799710 0.000000 -0.002730 
#    y 0.000000 1.818690 0.000000 
#    z -0.002730 0.000000 1.765750 
# 
# From -- ./inp_files/29772.got.cif
#   From: 2010.05.17/outbox.cif.g08.bks.cpg/sg9_15_cif.got.tgz:29772.got - 2010.06.03 20:04:27.
