data_PCOD9137382
_publ_section_title
;
Structure prediction by ZEFSAII (Michael W. Deem and Ramdas Pophale) SiO2 
 PCOD9137382
Probable space group: C C
;
_chemical_formula_sum "Si O2"
_cell_formula_units_Z 32
_cell_length_a 26.505073
_cell_length_b 5.269721
_cell_length_c 13.411403
_cell_angle_alpha 90.000000
_cell_angle_beta 41.012388
_cell_angle_gamma 90.000000
_cell_volume 1229.254346
_symmetry_space_group_name_H-M "C C"
_symmetry_group_IT_number 9
_symmetry_cell_setting 'monoclinic'
loop_
_space_group_symop_operation_xyz
x,y,z
x,-y,1/2+z
1/2+x,1/2+y,z
1/2+x,1/2-y,1/2+z
loop_
_atom_site_type_symbol
_atom_site_label
_atom_site_fract_x
_atom_site_fract_y
_atom_site_fract_z
Si Si1 0.425990 0.128389 0.261340
Si Si2 0.970169 0.408288 0.915152
Si Si3 0.246445 0.693749 0.169348
Si Si4 0.141361 0.608040 0.696222
Si Si5 0.076244 0.182753 0.490052
Si Si6 0.693686 0.551765 0.937131
Si Si7 0.931558 0.127584 0.170028
Si Si8 0.322839 0.820965 0.626561
O O1 0.511379 0.101069 0.083106
O O2 0.388402 0.367037 0.262598
O O3 0.451285 0.199758 0.334572
O O4 0.394147 0.851724 0.289230
O O5 0.939385 0.217651 0.045286
O O6 0.913200 0.650282 0.008249
O O7 0.057805 0.496223 0.793065
O O8 0.198230 0.616536 0.145065
O O9 0.190692 0.755342 0.346242
O O10 0.296065 0.450318 0.128452
O O11 0.296916 0.949426 0.089519
O O12 0.176991 0.787271 0.558978
O O13 0.128488 0.776453 0.815634
O O14 0.128452 0.154389 0.508947
O O15 0.018599 0.944733 0.571676
O O16 0.774481 0.411723 0.796187
#
# Coordination Sequence:
#
# PCOD9137382 Si02
#       8
#     4   4   4   4   4   4   4   4
#     4  10  25  41  66 106 147 179 227 306 365 413
#     4  12  25  45  76 111 144 194 245 308 361 438
#     4  10  24  53  66 103 147 192 236 301 355 449
#     4  12  23  44  81 106 138 199 253 292 366 437
#     4  10  22  41  69 105 143 174 239 309 341 432
#     4  10  24  45  72 102 146 195 239 301 364 435
#     4  10  23  43  63 105 146 179 233 300 357 423
#     4  10  26  50  71  98 161 184 238 305 375 419
#
# _framework density 26.032041
#
# number of rings (size 3 to 8) (size 9 to 14) (size 15 to 20)
#    1.500    0.000    2.500    1.500    3.500    4.000 
#    9.000    0.000    0.000    0.000    0.000    0.000 
#    0.000    0.000    0.000    0.000    0.000    0.000 
#
# Total GULP energy -89468.349236 kJ/mol
# GULP energy per Si atom -5591.771827 kJ/mol
# Density = 2.597279 g / cm^3
# Si number density = 26.032041 Si / 1000 Ang^3
#
#
#
# Elastic Constant Matrix: (Units=GPa)
#
#
# Indices 1 2 3 4 5 6 
#
# 1 106.2443 40.3524 46.7768 -0.0315 -1.9662 0.0020
# 2 40.3524 162.1546 26.9865 -0.0635 2.8819 -0.0006
# 3 46.7768 26.9865 92.4480 -0.0192 8.6873 0.0006
# 4 -0.0315 -0.0635 -0.0192 24.1992 -0.0117 5.8671
# 5 -1.9662 2.8819 8.6873 -0.0117 54.3831 -0.0003
# 6 0.0020 -0.0006 0.0006 5.8671 -0.0003 41.3766
#
#
#
# Elastic Compliance Matrix: (Units=1/GPa)
#
#
# Indices 1 2 3 4 5 6 
#
# 1 0.012956 -0.002245 -0.006046 0.000007 0.001553 -0.000002
# 2 -0.002245 0.006871 -0.000840 0.000015 -0.000311 -0.000002
# 3 -0.006046 -0.000840 0.014353 0.000000 -0.002467 0.000000
# 4 0.000007 0.000015 0.000000 0.042795 0.000009 -0.006068
# 5 0.001553 -0.000311 -0.002467 0.000009 0.018855 -0.000001
# 6 -0.000002 -0.000002 0.000000 -0.006068 -0.000001 0.025029
#
#
# Mechanical properties :
#
#
# Convention : Reuss Voigt Hill
#
# Bulk Modulus (GPa) = 62.82733 65.45315 64.14024
# Shear Modulus (GPa) = 34.61956 40.44052 37.53004
#
# Velocity S-wave (km/s) = 3.65071 3.94571 3.80107
# Velocity P-wave (km/s) = 6.47744 6.77909 6.62998
#
# Compressibility (1/GPa) = 0.01591664
#
# Stress axis : x y z
#
# Youngs Moduli (GPa) = 77.18622 145.53641 69.67157
#
# Poissons Ratio (x) = 0.32680 0.42122
# Poissons Ratio (y) = 0.17332 0.05855
# Poissons Ratio (z) = 0.46665 0.12230
#
# Static dielectric constant tensor:
#      x y z
#    x 2.026670 0.000000 0.033800 
#    y 0.000000 2.086240 0.000010 
#    z 0.033800 0.000010 2.164140 
# 
# From -- ./inp_files/28200.got.cif
#   From: 2010.05.17/outbox.cif.g08.bks.cpg/sg9_15_cif.got.tgz:28200.got - 2010.06.03 20:04:27.
