data_PCOD9137930
_publ_section_title
;
Structure prediction by ZEFSAII (Michael W. Deem and Ramdas Pophale) SiO2 
 PCOD9137930
Probable space group: C C
;
_chemical_formula_sum "Si O2"
_cell_formula_units_Z 32
_cell_length_a 7.465363
_cell_length_b 14.597150
_cell_length_c 13.734321
_cell_angle_alpha 90.000000
_cell_angle_beta 118.834002
_cell_angle_gamma 90.000000
_cell_volume 1311.114222
_symmetry_space_group_name_H-M "C C"
_symmetry_group_IT_number 9
_symmetry_cell_setting 'monoclinic'
loop_
_space_group_symop_operation_xyz
x,y,z
x,-y,1/2+z
1/2+x,1/2+y,z
1/2+x,1/2-y,1/2+z
loop_
_atom_site_type_symbol
_atom_site_label
_atom_site_fract_x
_atom_site_fract_y
_atom_site_fract_z
Si Si1 0.955990 0.231312 0.515320
Si Si2 0.115773 0.874715 0.707211
Si Si3 0.442571 0.569847 0.362626
Si Si4 0.304116 0.696703 0.674833
Si Si5 0.080414 0.522573 0.641673
Si Si6 0.128646 0.116992 0.881835
Si Si7 0.393686 0.040535 0.778047
Si Si8 0.187760 0.395712 0.510542
O O1 0.915887 0.138273 0.445435
O O2 0.967427 0.218562 0.633829
O O3 0.764460 0.300861 0.456983
O O4 0.142357 0.288791 0.517422
O O5 0.163675 0.780924 0.666241
O O6 0.049437 0.872743 0.802690
O O7 0.919956 0.918037 0.599667
O O8 0.320032 0.935658 0.757186
O O9 0.238573 0.530397 0.255847
O O10 0.578718 0.479398 0.420708
O O11 0.178943 0.607351 0.610791
O O12 0.414159 0.664307 0.801599
O O13 0.039122 0.447962 0.548891
O O14 0.911013 0.563889 0.669033
O O15 0.226054 0.087564 0.803098
O O16 0.604016 0.068895 0.886456
#
# Coordination Sequence:
#
# PCOD9137930 Si02
#       8
#     4   4   4   4   4   4   4   4
#     4  11  24  43  72  96 138 186 237 292 355 433
#     4  10  23  44  69 102 143 177 237 293 350 426
#     4   9  22  45  67  96 138 188 227 298 350 419
#     4  11  25  41  67 105 133 180 231 293 357 426
#     4  10  23  43  68 100 143 175 232 295 355 420
#     4   9  23  46  64 100 137 180 237 282 365 423
#     4  10  22  45  72  93 140 189 220 300 346 421
#     4  10  24  45  69 104 136 187 241 277 362 430
#
# _framework density 24.40672
#
# number of rings (size 3 to 8) (size 9 to 14) (size 15 to 20)
#    0.000    2.000    0.000    1.500   10.500    2.000 
#   20.250    1.250    0.000    0.000    0.000    0.000 
#    0.000    0.000    0.000    0.000    0.000    0.000 
#
# Total GULP energy -89371.317874 kJ/mol
# GULP energy per Si atom -5585.707367 kJ/mol
# Density = 2.435117 g / cm^3
# Si number density = 24.406720 Si / 1000 Ang^3
#
#
#
# Elastic Constant Matrix: (Units=GPa)
#
#
# Indices 1 2 3 4 5 6 
#
# 1 65.0905 28.5573 29.1496 0.0000 -14.4931 0.0000
# 2 28.5573 131.3151 47.6865 0.0000 -1.8837 0.0000
# 3 29.1496 47.6865 63.4039 0.0000 -8.9025 0.0000
# 4 0.0000 0.0000 0.0000 33.1340 0.0000 -3.6487
# 5 -14.4931 -1.8837 -8.9025 0.0000 29.0091 0.0000
# 6 0.0000 0.0000 0.0000 -3.6487 0.0000 30.7278
#
#
#
# Elastic Compliance Matrix: (Units=1/GPa)
#
#
# Indices 1 2 3 4 5 6 
#
# 1 0.021258 -0.001896 -0.007183 0.000000 0.008293 0.000000
# 2 -0.001896 0.010738 -0.007566 0.000000 -0.002572 0.000000
# 3 -0.007183 -0.007566 0.025281 0.000000 0.003678 0.000000
# 4 0.000000 0.000000 0.000000 0.030580 0.000000 0.003631
# 5 0.008293 -0.002572 0.003678 0.000000 0.039577 0.000000
# 6 0.000000 0.000000 0.000000 0.003631 0.000000 0.032975
#
#
# Mechanical properties :
#
#
# Convention : Reuss Voigt Hill
#
# Bulk Modulus (GPa) = 41.68702 52.28847 46.98775
# Shear Modulus (GPa) = 24.78986 28.86861 26.82923
#
# Velocity S-wave (km/s) = 3.19046 3.44294 3.31910
# Velocity P-wave (km/s) = 5.53979 6.10536 5.82944
#
# Compressibility (1/GPa) = 0.02398828
#
# Stress axis : x y z
#
# Youngs Moduli (GPa) = 47.04038 93.12645 39.55517
#
# Poissons Ratio (x) = 0.17652 0.28414
# Poissons Ratio (y) = 0.08917 0.29927
# Poissons Ratio (z) = 0.33791 0.70458
#
# Static dielectric constant tensor:
#      x y z
#    x 2.018930 0.000000 0.024650 
#    y 0.000000 1.929980 0.000000 
#    z 0.024650 0.000000 1.908540 
# 
# From -- ./inp_files/22953.got.cif
#   From: 2010.05.17/outbox.cif.g08.bks.cpg/sg9_12_cif.got.tgz:22953.got - 2010.06.03 20:04:27.
