data_PCOD9137750
_publ_section_title
;
Structure prediction by ZEFSAII (Michael W. Deem and Ramdas Pophale) SiO2 
 PCOD9137750
Probable space group: C C
;
_chemical_formula_sum "Si O2"
_cell_formula_units_Z 28
_cell_length_a 10.816017
_cell_length_b 20.349699
_cell_length_c 11.269768
_cell_angle_alpha 90.000000
_cell_angle_beta 153.366707
_cell_angle_gamma 90.000000
_cell_volume 1111.957824
_symmetry_space_group_name_H-M "C C"
_symmetry_group_IT_number 9
_symmetry_cell_setting 'monoclinic'
loop_
_space_group_symop_operation_xyz
x,y,z
x,-y,1/2+z
1/2+x,1/2+y,z
1/2+x,1/2-y,1/2+z
loop_
_atom_site_type_symbol
_atom_site_label
_atom_site_fract_x
_atom_site_fract_y
_atom_site_fract_z
Si Si1 0.783530 0.706450 0.139430
Si Si2 0.411013 0.868863 0.527296
Si Si3 0.074250 0.703901 0.733691
Si Si4 0.973107 0.033598 0.726114
Si Si5 0.527528 0.100768 0.488225
Si Si6 0.282297 0.477433 0.797528
Si Si7 0.729938 0.295097 0.154318
O O1 0.777629 0.639653 0.212021
O O2 0.995756 0.757873 0.377594
O O3 0.917693 0.688322 0.128462
O O4 0.228108 0.843398 0.262724
O O5 0.684544 0.902525 0.714368
O O6 0.258350 0.929342 0.458828
O O7 0.863378 0.763066 0.517271
O O8 0.108090 0.649639 0.662583
O O9 0.902514 0.672617 0.695150
O O10 0.752278 0.090272 0.576281
O O11 0.973620 0.988389 0.844877
O O12 0.889680 0.007068 0.523427
O O13 0.532936 0.028277 0.549465
O O14 0.937012 0.234910 0.367660
#
# Coordination Sequence:
#
# PCOD9137750 Si02
#       7
#     4   4   4   4   4   4   4
#     4  12  25  43  76 108 148 195 246 324 395 458
#     4  12  24  44  73 105 148 195 253 319 388 461
#     4  10  22  44  67 102 143 190 245 309 378 454
#     4  10  25  46  70 106 151 197 264 311 392 460
#     4  10  23  45  69 102 148 190 261 306 385 457
#     4  10  25  47  70 107 147 197 261 315 378 482
#     4  10  24  43  71 106 145 192 246 308 386 464
#
# _framework density 25.180812
#
# number of rings (size 3 to 8) (size 9 to 14) (size 15 to 20)
#    0.857    0.571    1.429    2.571    4.000    3.429 
#    2.571    0.000    0.000    0.000    0.000    0.000 
#    0.000    0.000    0.000    0.000    0.000    0.000 
#
# Total GULP energy -78231.998271 kJ/mol
# GULP energy per Si atom -5587.999877 kJ/mol
# Density = 2.512350 g / cm^3
# Si number density = 25.180812 Si / 1000 Ang^3
#
#
#
# Elastic Constant Matrix: (Units=GPa)
#
#
# Indices 1 2 3 4 5 6 
#
# 1 91.6955 38.1319 25.5873 0.0036 -25.9898 0.0034
# 2 38.1319 66.0537 28.1677 0.0012 -3.2303 0.0003
# 3 25.5873 28.1677 97.2139 0.0059 -14.9375 0.0033
# 4 0.0036 0.0012 0.0059 39.2509 0.0009 -16.3452
# 5 -25.9898 -3.2303 -14.9375 0.0009 40.7355 0.0004
# 6 0.0034 0.0003 0.0033 -16.3452 0.0004 57.0396
#
#
#
# Elastic Compliance Matrix: (Units=1/GPa)
#
#
# Indices 1 2 3 4 5 6 
#
# 1 0.018077 -0.009794 -0.000283 -0.000002 0.010653 -0.000002
# 2 -0.009794 0.022589 -0.004930 0.000002 -0.006265 0.000001
# 3 -0.000283 -0.004930 0.012401 -0.000002 0.003975 -0.000001
# 4 -0.000002 0.000002 -0.000002 0.028929 -0.000003 0.008290
# 5 0.010653 -0.006265 0.003975 -0.000003 0.032306 -0.000002
# 6 -0.000002 0.000001 -0.000001 0.008290 -0.000002 0.019907
#
#
# Mechanical properties :
#
#
# Convention : Reuss Voigt Hill
#
# Bulk Modulus (GPa) = 43.38005 48.74854 46.06429
# Shear Modulus (GPa) = 29.08543 38.27695 33.68119
#
# Velocity S-wave (km/s) = 3.40231 3.90306 3.66125
# Velocity P-wave (km/s) = 5.71831 6.30184 6.01716
#
# Compressibility (1/GPa) = 0.02305207
#
# Stress axis : x y z
#
# Youngs Moduli (GPa) = 55.31929 44.26940 80.64185
#
# Poissons Ratio (x) = 0.43356 0.02285
# Poissons Ratio (y) = 0.54178 0.39757
# Poissons Ratio (z) = 0.01568 0.21825
#
# Static dielectric constant tensor:
#      x y z
#    x 2.077070 0.000000 -0.014670 
#    y 0.000000 1.941550 0.000000 
#    z -0.014670 0.000000 1.986920 
# 
# From -- ./inp_files/17152.got.cif
#   From: 2010.05.17/outbox.cif.g08.bks.cpg/sg9_9_cif.got.tgz:17152.got - 2010.06.03 20:04:27.
