data_PCOD9137432
_publ_section_title
;
Structure prediction by ZEFSAII (Michael W. Deem and Ramdas Pophale) SiO2 
 PCOD9137432
Probable space group: C C
;
_chemical_formula_sum "Si O2"
_cell_formula_units_Z 28
_cell_length_a 11.587422
_cell_length_b 7.813255
_cell_length_c 27.594654
_cell_angle_alpha 90.000000
_cell_angle_beta 150.555147
_cell_angle_gamma 90.000000
_cell_volume 1228.126050
_symmetry_space_group_name_H-M "C C"
_symmetry_group_IT_number 9
_symmetry_cell_setting 'monoclinic'
loop_
_space_group_symop_operation_xyz
x,y,z
x,-y,1/2+z
1/2+x,1/2+y,z
1/2+x,1/2-y,1/2+z
loop_
_atom_site_type_symbol
_atom_site_label
_atom_site_fract_x
_atom_site_fract_y
_atom_site_fract_z
Si Si1 0.653540 0.730315 0.097530
Si Si2 0.107399 0.327932 0.277692
Si Si3 0.453972 0.374146 0.916646
Si Si4 0.890279 0.366824 0.589473
Si Si5 0.175278 0.867969 0.902773
Si Si6 0.805576 0.144635 0.753605
Si Si7 0.552183 0.342744 0.057395
O O1 0.828844 0.734103 0.116294
O O2 0.779064 0.752125 0.194680
O O3 0.519322 0.548039 0.047373
O O4 0.448281 0.869729 0.016583
O O5 0.215917 0.518093 0.323910
O O6 0.152414 0.231032 0.343956
O O7 0.242214 0.256100 0.279668
O O8 0.833183 0.322600 0.165338
O O9 0.527622 0.283210 0.893508
O O10 0.662337 0.516034 0.996953
O O11 0.470457 0.281717 0.974277
O O12 0.110285 0.492654 0.678207
O O13 0.936202 0.246580 0.560748
O O14 0.050658 0.049343 0.849167
#
# Coordination Sequence:
#
# PCOD9137432 Si02
#       7
#     4   4   4   4   4   4   4
#     4  11  23  45  62  96 132 166 211 270 316 378
#     4  11  20  40  67  91 126 170 209 259 322 372
#     4  10  22  42  63  89 130 171 205 264 319 378
#     4  11  21  41  66  91 127 169 209 256 322 380
#     4  11  21  40  69  92 125 172 214 260 318 381
#     4  11  23  41  67  91 130 172 212 259 323 379
#     4  11  22  41  68  94 130 168 210 266 324 376
#
# _framework density 22.798962
#
# number of rings (size 3 to 8) (size 9 to 14) (size 15 to 20)
#    0.000    1.143    8.571    0.000    0.000    1.143 
#    7.714    2.857    3.143    0.000    0.000    0.000 
#    0.000    0.000    0.000    0.000    0.000    0.000 
#
# Total GULP energy -78282.038237 kJ/mol
# GULP energy per Si atom -5591.574160 kJ/mol
# Density = 2.274707 g / cm^3
# Si number density = 22.798962 Si / 1000 Ang^3
#
#
#
# Elastic Constant Matrix: (Units=GPa)
#
#
# Indices 1 2 3 4 5 6 
#
# 1 223.9250 56.3660 51.1280 0.0000 -42.7470 0.0000
# 2 56.3660 29.1478 15.2247 0.0000 -1.2699 0.0000
# 3 51.1280 15.2247 91.4527 0.0001 -21.1622 0.0000
# 4 0.0000 0.0000 0.0001 35.6087 0.0000 -4.8074
# 5 -42.7470 -1.2699 -21.1622 0.0000 55.4486 0.0000
# 6 0.0000 0.0000 0.0000 -4.8074 0.0000 48.1582
#
#
#
# Elastic Compliance Matrix: (Units=1/GPa)
#
#
# Indices 1 2 3 4 5 6 
#
# 1 0.011763 -0.021843 -0.001050 0.000000 0.008167 0.000000
# 2 -0.021843 0.078278 -0.004718 0.000000 -0.016847 0.000000
# 3 -0.001050 -0.004718 0.013266 0.000000 0.004146 0.000000
# 4 0.000000 0.000000 0.000000 0.028467 0.000000 0.002842
# 5 0.008167 -0.016847 0.004146 0.000000 0.025528 0.000000
# 6 0.000000 0.000000 0.000000 0.002842 0.000000 0.021049
#
#
# Mechanical properties :
#
#
# Convention : Reuss Voigt Hill
#
# Bulk Modulus (GPa) = 20.79639 65.55143 43.17391
# Shear Modulus (GPa) = 20.03192 42.63021 31.33106
#
# Velocity S-wave (km/s) = 2.96739 4.32885 3.71109
# Velocity P-wave (km/s) = 4.56968 7.33482 6.11071
#
# Compressibility (1/GPa) = 0.04808528
#
# Stress axis : x y z
#
# Youngs Moduli (GPa) = 85.01277 12.77491 75.37826
#
# Poissons Ratio (x) = 0.27904 0.07915
# Poissons Ratio (y) = 1.85693 0.35566
# Poissons Ratio (z) = 0.08926 0.06028
#
# Static dielectric constant tensor:
#      x y z
#    x 1.892740 0.000000 -0.028300 
#    y 0.000000 1.885780 0.000000 
#    z -0.028300 0.000000 1.873680 
# 
# From -- ./inp_files/24047.got.cif
#   From: 2010.05.17/outbox.cif.g08.bks.cpg/sg9_13_cif.got.tgz:24047.got - 2010.06.03 20:04:27.
