data_PCOD9137574
_publ_section_title
;
Structure prediction by ZEFSAII (Michael W. Deem and Ramdas Pophale) SiO2 
 PCOD9137574
Probable space group: C C
;
_chemical_formula_sum "Si O2"
_cell_formula_units_Z 32
_cell_length_a 24.232706
_cell_length_b 9.964206
_cell_length_c 15.026912
_cell_angle_alpha 90.000000
_cell_angle_beta 20.301723
_cell_angle_gamma 90.000000
_cell_volume 1258.921322
_symmetry_space_group_name_H-M "C C"
_symmetry_group_IT_number 9
_symmetry_cell_setting 'monoclinic'
loop_
_space_group_symop_operation_xyz
x,y,z
x,-y,1/2+z
1/2+x,1/2+y,z
1/2+x,1/2-y,1/2+z
loop_
_atom_site_type_symbol
_atom_site_label
_atom_site_fract_x
_atom_site_fract_y
_atom_site_fract_z
Si Si1 0.423750 0.177274 0.705780
Si Si2 0.334569 0.636146 0.182262
Si Si3 0.973046 0.191868 0.799956
Si Si4 0.454925 0.291411 0.132373
Si Si5 0.442498 0.616940 0.334484
Si Si6 0.071436 0.547318 0.866866
Si Si7 0.161137 0.445327 0.548600
Si Si8 0.113326 0.070456 0.250655
O O1 0.332724 0.269457 0.770318
O O2 0.483230 0.277685 0.694575
O O3 0.536068 0.088263 0.473674
O O4 0.292413 0.077979 0.947102
O O5 0.190880 0.529786 0.414303
O O6 0.338541 0.701757 0.079014
O O7 0.510869 0.565555 0.912788
O O8 0.110065 0.291285 0.623163
O O9 0.937796 0.255734 0.758178
O O10 0.011221 0.035889 0.722000
O O11 0.342496 0.421333 0.301408
O O12 0.609425 0.358428 0.852733
O O13 0.444710 0.158910 0.087819
O O14 0.251478 0.594761 0.618435
O O15 0.507325 0.650866 0.335694
O O16 0.067964 0.518760 0.766964
#
# Coordination Sequence:
#
# PCOD9137574 Si02
#       8
#     4   4   4   4   4   4   4   4
#     4  12  24  47  71 104 146 188 243 304 364 435
#     4  10  22  42  74 100 140 181 239 301 356 424
#     4  11  24  42  74 101 138 196 238 290 372 425
#     4  11  24  43  70 100 143 187 243 296 361 435
#     4  11  24  48  68 106 148 189 245 301 363 428
#     4  12  25  44  72 104 144 190 240 306 363 432
#     4  11  23  45  73 101 142 188 238 305 362 432
#     4  10  24  43  74 102 139 195 238 299 365 433
#
# _framework density 25.418586999999999
#
# number of rings (size 3 to 8) (size 9 to 14) (size 15 to 20)
#    0.000    1.000    5.000    0.750    8.750    2.000 
#    2.250    0.000    2.750    0.000    0.000    0.000 
#    0.000    0.000    0.000    0.000    0.000    0.000 
#
# Total GULP energy -89227.957307 kJ/mol
# GULP energy per Si atom -5576.747332 kJ/mol
# Density = 2.536073 g / cm^3
# Si number density = 25.418587 Si / 1000 Ang^3
#
#
#
# Elastic Constant Matrix: (Units=GPa)
#
#
# Indices 1 2 3 4 5 6 
#
# 1 64.6067 9.2915 21.3978 0.0000 35.9628 0.0000
# 2 9.2915 107.5431 50.4582 0.0000 21.1873 0.0000
# 3 21.3978 50.4582 100.1475 0.0000 39.5354 0.0000
# 4 0.0000 0.0000 0.0000 48.2771 0.0000 11.4857
# 5 35.9628 21.1873 39.5354 0.0000 41.6279 0.0000
# 6 0.0000 0.0000 0.0000 11.4857 0.0000 28.1213
#
#
#
# Elastic Compliance Matrix: (Units=1/GPa)
#
#
# Indices 1 2 3 4 5 6 
#
# 1 0.032425 0.001118 0.006066 0.000000 -0.034342 0.000000
# 2 0.001118 0.012225 -0.005696 0.000000 -0.001778 0.000000
# 3 0.006066 -0.005696 0.019971 0.000000 -0.021309 0.000000
# 4 0.000000 0.000000 0.000000 0.022943 0.000000 -0.009371
# 5 -0.034342 -0.001778 -0.021309 0.000000 0.074833 0.000000
# 6 0.000000 0.000000 0.000000 -0.009371 0.000000 0.039388
#
#
# Mechanical properties :
#
#
# Convention : Reuss Voigt Hill
#
# Bulk Modulus (GPa) = 14.79361 48.28806 31.54083
# Shear Modulus (GPa) = 22.58950 36.34859 29.46904
#
# Velocity S-wave (km/s) = 2.98434 3.78564 3.40862
# Velocity P-wave (km/s) = 4.20805 6.17628 5.28461
#
# Compressibility (1/GPa) = 0.06759677
#
# Stress axis : x y z
#
# Youngs Moduli (GPa) = 30.84065 81.79961 50.07189
#
# Poissons Ratio (x) = -0.09148 -0.30373
# Poissons Ratio (y) = -0.03449 0.28523
# Poissons Ratio (z) = -0.18708 0.46596
#
# Static dielectric constant tensor:
#      x y z
#    x 2.342970 0.000000 -0.064820 
#    y 0.000000 2.130460 0.000000 
#    z -0.064820 0.000000 1.999150 
# 
# From -- ./inp_files/28081.got.cif
#   From: 2010.05.17/outbox.cif.g08.bks.cpg/sg9_15_cif.got.tgz:28081.got - 2010.06.03 20:04:27.
