data_PCOD9137521
_publ_section_title
;
Structure prediction by ZEFSAII (Michael W. Deem and Ramdas Pophale) SiO2 
 PCOD9137521
Probable space group: C C
;
_chemical_formula_sum "Si O2"
_cell_formula_units_Z 32
_cell_length_a 9.446701
_cell_length_b 17.334979
_cell_length_c 15.437200
_cell_angle_alpha 90.000000
_cell_angle_beta 33.198342
_cell_angle_gamma 90.000000
_cell_volume 1384.162523
_symmetry_space_group_name_H-M "C C"
_symmetry_group_IT_number 9
_symmetry_cell_setting 'monoclinic'
loop_
_space_group_symop_operation_xyz
x,y,z
x,-y,1/2+z
1/2+x,1/2+y,z
1/2+x,1/2-y,1/2+z
loop_
_atom_site_type_symbol
_atom_site_label
_atom_site_fract_x
_atom_site_fract_y
_atom_site_fract_z
Si Si1 0.731670 0.216481 0.935930
Si Si2 0.921096 0.369511 0.342740
Si Si3 0.494955 0.147376 0.506691
Si Si4 0.264930 0.995873 0.560619
Si Si5 0.263520 0.459578 0.409172
Si Si6 0.305659 0.579099 0.505626
Si Si7 0.682062 0.281246 0.786975
Si Si8 0.182524 0.227152 0.815464
O O1 0.824576 0.130139 0.872211
O O2 0.803455 0.268656 0.818983
O O3 0.883716 0.239547 0.943746
O O4 0.423351 0.218892 0.099732
O O5 0.002901 0.292987 0.355493
O O6 0.807732 0.439536 0.457144
O O7 0.742599 0.337698 0.356075
O O8 0.176971 0.401339 0.162617
O O9 0.352947 0.086592 0.515599
O O10 0.610027 0.096980 0.526710
O O11 0.332081 0.207714 0.650231
O O12 0.730998 0.191523 0.338239
O O13 0.967242 0.997115 0.742283
O O14 0.468037 0.963330 0.527787
O O15 0.340569 0.489361 0.466018
O O16 0.534319 0.638237 0.369334
#
# Coordination Sequence:
#
# PCOD9137521 Si02
#       8
#     4   4   4   4   4   4   4   4
#     4  12  25  43  69 103 149 184 237 302 382 421
#     4  11  24  46  74 103 137 190 254 296 356 451
#     4  10  22  42  69 100 140 181 232 302 356 429
#     4  11  24  46  72 102 145 191 242 302 374 437
#     4  11  24  46  70 100 147 194 232 303 373 434
#     4  10  23  43  69 104 134 182 246 292 352 433
#     4  12  23  45  74 105 141 194 243 306 358 450
#     4  11  23  43  69 101 141 186 242 293 365 437
#
# _framework density 23.118672
#
# number of rings (size 3 to 8) (size 9 to 14) (size 15 to 20)
#    0.000    1.000    5.000    1.500    0.000    2.000 
#    6.750    0.000    0.000    0.000    0.000    0.000 
#    0.000    0.000    0.000    0.000    0.000    0.000 
#
# Total GULP energy -89205.981248 kJ/mol
# GULP energy per Si atom -5575.373828 kJ/mol
# Density = 2.306605 g / cm^3
# Si number density = 23.118672 Si / 1000 Ang^3
#
#
#
# Elastic Constant Matrix: (Units=GPa)
#
#
# Indices 1 2 3 4 5 6 
#
# 1 73.0449 20.5412 8.5043 -0.0018 17.4495 0.0017
# 2 20.5412 74.1239 20.3329 0.0072 11.8594 -0.0012
# 3 8.5043 20.3329 79.1359 -0.0138 10.0886 -0.0053
# 4 -0.0018 0.0072 -0.0138 21.6148 0.0005 11.6794
# 5 17.4495 11.8594 10.0886 0.0005 22.7416 -0.0014
# 6 0.0017 -0.0012 -0.0053 11.6794 -0.0014 39.1034
#
#
#
# Elastic Compliance Matrix: (Units=1/GPa)
#
#
# Indices 1 2 3 4 5 6 
#
# 1 0.017336 -0.003015 0.000431 0.000004 -0.011920 -0.000003
# 2 -0.003015 0.015933 -0.003186 -0.000009 -0.004582 0.000003
# 3 0.000431 -0.003186 0.014033 0.000011 -0.004895 -0.000002
# 4 0.000004 -0.000009 0.000011 0.055168 -0.000006 -0.016478
# 5 -0.011920 -0.004582 -0.004895 -0.000006 0.057680 0.000004
# 6 -0.000003 0.000003 -0.000002 -0.016478 0.000004 0.030495
#
#
# Mechanical properties :
#
#
# Convention : Reuss Voigt Hill
#
# Bulk Modulus (GPa) = 27.96195 36.11793 32.03994
# Shear Modulus (GPa) = 23.35309 28.48704 25.92006
#
# Velocity S-wave (km/s) = 3.18172 3.51409 3.35203
# Velocity P-wave (km/s) = 5.06152 5.66762 5.37312
#
# Compressibility (1/GPa) = 0.03576289
#
# Stress axis : x y z
#
# Youngs Moduli (GPa) = 57.68504 62.76089 71.26219
#
# Poissons Ratio (x) = 0.18923 -0.03075
# Poissons Ratio (y) = 0.17393 0.22702
# Poissons Ratio (z) = -0.02489 0.19994
#
# Static dielectric constant tensor:
#      x y z
#    x 1.979420 -0.000040 -0.015600 
#    y -0.000040 2.054660 -0.000080 
#    z -0.015600 -0.000080 1.898080 
# 
# From -- ./inp_files/23659.got.cif
#   From: 2010.05.17/outbox.cif.g08.bks.cpg/sg9_12_cif.got.tgz:23659.got - 2010.06.03 20:04:27.
