data_PCOD9137016
_publ_section_title
;
Structure prediction by ZEFSAII (Michael W. Deem and Ramdas Pophale) SiO2 
 PCOD9137016
Probable space group: C C
;
_chemical_formula_sum "Si O2"
_cell_formula_units_Z 20
_cell_length_a 10.302061
_cell_length_b 9.419758
_cell_length_c 14.180824
_cell_angle_alpha 90.000000
_cell_angle_beta 140.632329
_cell_angle_gamma 90.000000
_cell_volume 872.883343
_symmetry_space_group_name_H-M "C C"
_symmetry_group_IT_number 9
_symmetry_cell_setting 'monoclinic'
loop_
_space_group_symop_operation_xyz
x,y,z
x,-y,1/2+z
1/2+x,1/2+y,z
1/2+x,1/2-y,1/2+z
loop_
_atom_site_type_symbol
_atom_site_label
_atom_site_fract_x
_atom_site_fract_y
_atom_site_fract_z
Si Si1 0.484750 0.094563 0.412700
Si Si2 0.384869 0.636454 0.746013
Si Si3 0.649992 0.080775 0.232732
Si Si4 0.994629 0.279116 0.455224
Si Si5 0.755020 0.434098 0.974970
O O1 0.416871 0.202970 0.295201
O O2 0.724263 0.118960 0.571217
O O3 0.367443 0.127437 0.445586
O O4 0.446325 0.927519 0.375262
O O5 0.284137 0.554932 0.778604
O O6 0.591611 0.549175 0.846246
O O7 0.796390 0.185836 0.371573
O O8 0.608982 0.169043 0.113223
O O9 0.429249 0.016524 0.132289
O O10 0.137978 0.182631 0.470172
#
# Coordination Sequence:
#
# PCOD9137016 Si02
#       5
#     4   4   4   4   4
#     4  10  22  37  55  83 111 141 185 223 264 326
#     4   9  20  36  55  82 110 140 184 226 265 323
#     4   9  20  36  56  83 110 141 184 223 265 326
#     4   9  19  37  58  81 109 143 183 221 267 327
#     4   9  19  38  58  77 112 143 174 231 275 308
#
# _framework density 22.912568
#
# number of rings (size 3 to 8) (size 9 to 14) (size 15 to 20)
#    0.000    3.200    0.000    0.000    0.000   16.000 
#    0.000    8.000    0.000    0.000    0.000    0.000 
#    0.000    0.000    0.000    0.000    0.000    0.000 
#
# Total GULP energy -55847.009116 kJ/mol
# GULP energy per Si atom -5584.700912 kJ/mol
# Density = 2.286042 g / cm^3
# Si number density = 22.912568 Si / 1000 Ang^3
#
#
#
# Elastic Constant Matrix: (Units=GPa)
#
#
# Indices 1 2 3 4 5 6 
#
# 1 55.9798 30.1843 15.0318 0.0000 3.1242 0.0000
# 2 30.1843 144.0953 34.8927 0.0000 5.1223 0.0000
# 3 15.0318 34.8927 55.9551 0.0000 29.4180 0.0000
# 4 0.0000 0.0000 0.0000 42.4585 0.0000 3.8883
# 5 3.1242 5.1223 29.4180 0.0000 25.8460 0.0000
# 6 0.0000 0.0000 0.0000 3.8883 0.0000 35.3806
#
#
#
# Elastic Compliance Matrix: (Units=1/GPa)
#
#
# Indices 1 2 3 4 5 6 
#
# 1 0.020970 -0.002927 -0.006924 0.000000 0.005926 0.000000
# 2 -0.002927 0.009888 -0.011293 0.000000 0.011248 0.000000
# 3 -0.006924 -0.011293 0.062643 0.000000 -0.068225 0.000000
# 4 0.000000 0.000000 0.000000 0.023792 0.000000 -0.002615
# 5 0.005926 0.011248 -0.068225 0.000000 0.113400 0.000000
# 6 0.000000 0.000000 0.000000 -0.002615 0.000000 0.028551
#
#
# Mechanical properties :
#
#
# Convention : Reuss Voigt Hill
#
# Bulk Modulus (GPa) = 19.52639 46.24978 32.88809
# Shear Modulus (GPa) = 15.69351 32.46510 24.07931
#
# Velocity S-wave (km/s) = 2.61996 3.76827 3.24531
# Velocity P-wave (km/s) = 4.20629 6.25798 5.33175
#
# Compressibility (1/GPa) = 0.05121273
#
# Stress axis : x y z
#
# Youngs Moduli (GPa) = 47.68668 101.13519 15.96347
#
# Poissons Ratio (x) = 0.29600 0.11053
# Poissons Ratio (y) = 0.13957 0.18028
# Poissons Ratio (z) = 0.33019 1.14215
#
# Static dielectric constant tensor:
#      x y z
#    x 1.900070 0.000000 0.004360 
#    y 0.000000 1.833170 0.000000 
#    z 0.004360 0.000000 1.853130 
# 
# From -- ./inp_files/6647.got.cif
#   From: 2010.05.17/outbox.cif.g08.bks.cpg/sg9_4_cif.got.tgz:6647.got - 2010.06.03 20:04:27.
