data_PCOD9137048
_publ_section_title
;
Structure prediction by ZEFSAII (Michael W. Deem and Ramdas Pophale) SiO2 
 PCOD9137048
Probable space group: C C
;
_chemical_formula_sum "Si O2"
_cell_formula_units_Z 24
_cell_length_a 9.624900
_cell_length_b 16.158525
_cell_length_c 10.258420
_cell_angle_alpha 90.000000
_cell_angle_beta 41.866914
_cell_angle_gamma 90.000000
_cell_volume 1064.795809
_symmetry_space_group_name_H-M "C C"
_symmetry_group_IT_number 9
_symmetry_cell_setting 'monoclinic'
loop_
_space_group_symop_operation_xyz
x,y,z
x,-y,1/2+z
1/2+x,1/2+y,z
1/2+x,1/2-y,1/2+z
loop_
_atom_site_type_symbol
_atom_site_label
_atom_site_fract_x
_atom_site_fract_y
_atom_site_fract_z
Si Si1 0.809900 0.574846 0.576630
Si Si2 0.322989 0.629870 0.610744
Si Si3 0.614730 0.876950 0.512593
Si Si4 0.235422 0.567168 0.402426
Si Si5 0.611754 0.525752 0.988777
Si Si6 0.224975 0.797194 0.934874
O O1 0.722203 0.555766 0.781279
O O2 0.759446 0.506219 0.502178
O O3 0.714568 0.655774 0.578695
O O4 0.053664 0.583312 0.427756
O O5 0.130504 0.628167 0.844689
O O6 0.238004 0.624899 0.525972
O O7 0.461146 0.548606 0.545772
O O8 0.500782 0.697864 0.518152
O O9 0.397665 0.850318 0.732236
O O10 0.764218 0.798921 0.439477
O O11 0.698260 0.970708 0.479021
O O12 0.450186 0.582640 0.177724
#
# Coordination Sequence:
#
# PCOD9137048 Si02
#       6
#     4   4   4   4   4   4
#     4  11  24  40  68 105 135 176 225 286 340 402
#     4  10  22  41  67 101 132 177 223 281 333 400
#     4  11  24  41  69  99 135 180 228 270 343 411
#     4  11  24  40  72 105 132 173 231 286 336 392
#     4  10  22  38  62 104 137 169 222 281 334 396
#     4  11  24  44  68  98 135 185 229 274 340 415
#
# _framework density 22.539531
#
# number of rings (size 3 to 8) (size 9 to 14) (size 15 to 20)
#    0.000    1.333    3.333    2.000    9.333    0.000 
#    0.000    0.000    3.667    4.000    0.000    0.000 
#    0.000    0.000    0.000    0.000    0.000    0.000 
#
# Total GULP energy -66908.561307 kJ/mol
# GULP energy per Si atom -5575.713442 kJ/mol
# Density = 2.248823 g / cm^3
# Si number density = 22.539531 Si / 1000 Ang^3
#
#
#
# Elastic Constant Matrix: (Units=GPa)
#
#
# Indices 1 2 3 4 5 6 
#
# 1 151.9682 12.6405 38.1590 0.0002 12.8609 -0.0002
# 2 12.6405 57.3665 1.7996 0.0001 5.0715 -0.0001
# 3 38.1590 1.7996 128.7532 0.0001 14.1701 -0.0001
# 4 0.0002 0.0001 0.0001 29.4495 -0.0002 -2.0990
# 5 12.8609 5.0715 14.1701 -0.0002 35.4166 0.0002
# 6 -0.0002 -0.0001 -0.0001 -2.0990 0.0002 15.2521
#
#
#
# Elastic Compliance Matrix: (Units=1/GPa)
#
#
# Indices 1 2 3 4 5 6 
#
# 1 0.007333 -0.001406 -0.001970 0.000000 -0.001674 0.000000
# 2 -0.001406 0.017925 0.000411 0.000000 -0.002220 0.000000
# 3 -0.001970 0.000411 0.008654 0.000000 -0.002806 0.000000
# 4 0.000000 0.000000 0.000000 0.034293 0.000000 0.004719
# 5 -0.001674 -0.002220 -0.002806 0.000000 0.030284 0.000000
# 6 0.000000 0.000000 0.000000 0.004719 0.000000 0.066214
#
#
# Mechanical properties :
#
#
# Convention : Reuss Voigt Hill
#
# Bulk Modulus (GPa) = 35.73758 49.25403 42.49581
# Shear Modulus (GPa) = 27.78388 35.05622 31.42005
#
# Velocity S-wave (km/s) = 3.51475 3.94804 3.73768
# Velocity P-wave (km/s) = 5.68870 6.53317 6.12551
#
# Compressibility (1/GPa) = 0.02798175
#
# Stress axis : x y z
#
# Youngs Moduli (GPa) = 136.36076 55.78788 115.55894
#
# Poissons Ratio (x) = 0.07845 0.22761
# Poissons Ratio (y) = 0.19174 -0.04745
# Poissons Ratio (z) = 0.26858 -0.02291
#
# Static dielectric constant tensor:
#      x y z
#    x 1.807880 0.000000 -0.040520 
#    y 0.000000 1.926050 0.000000 
#    z -0.040520 0.000000 1.922730 
# 
# From -- ./inp_files/5313.got.cif
#   From: 2010.05.17/outbox.cif.g08.bks.cpg/sg9_3_cif.got.tgz:5313.got - 2010.06.03 20:04:27.
