data_PCOD9137190
_publ_section_title
;
Structure prediction by ZEFSAII (Michael W. Deem and Ramdas Pophale) SiO2 
 PCOD9137190
Probable space group: C C
;
_chemical_formula_sum "Si O2"
_cell_formula_units_Z 28
_cell_length_a 7.532942
_cell_length_b 9.711421
_cell_length_c 23.534735
_cell_angle_alpha 90.000000
_cell_angle_beta 42.195596
_cell_angle_gamma 90.000000
_cell_volume 1156.401271
_symmetry_space_group_name_H-M "C C"
_symmetry_group_IT_number 9
_symmetry_cell_setting 'monoclinic'
loop_
_space_group_symop_operation_xyz
x,y,z
x,-y,1/2+z
1/2+x,1/2+y,z
1/2+x,1/2-y,1/2+z
loop_
_atom_site_type_symbol
_atom_site_label
_atom_site_fract_x
_atom_site_fract_y
_atom_site_fract_z
Si Si1 0.244280 0.575093 0.142880
Si Si2 0.762194 0.544082 0.476392
Si Si3 0.392234 0.752667 0.411485
Si Si4 0.128867 0.235910 0.850044
Si Si5 0.396450 0.121651 0.570458
Si Si6 0.489453 0.421411 0.705297
Si Si7 0.649135 0.530910 0.288718
O O1 0.270958 0.741449 0.129195
O O2 0.322339 0.536081 0.189547
O O3 0.953426 0.523290 0.199898
O O4 0.458228 0.504638 0.050184
O O5 0.917277 0.399474 0.434674
O O6 0.804885 0.615973 0.526793
O O7 0.897466 0.650315 0.400960
O O8 0.238378 0.775039 0.387913
O O9 0.637990 0.669577 0.329125
O O10 0.206724 0.655914 0.494454
O O11 0.370139 0.272214 0.749299
O O12 0.036348 0.087348 0.854562
O O13 0.282764 0.975701 0.619716
O O14 0.472922 0.476307 0.773720
#
# Coordination Sequence:
#
# PCOD9137190 Si02
#       7
#     4   4   4   4   4   4   4
#     4  10  22  41  71  97 131 182 221 274 342 395
#     4   9  20  41  70  92 139 178 218 283 338 389
#     4   9  21  42  63  94 138 177 224 281 333 399
#     4  10  22  40  63 100 135 176 228 275 335 407
#     4   9  19  42  66  97 130 178 223 270 342 400
#     4  10  22  40  67  95 140 169 217 284 332 387
#     4  11  24  42  66 103 133 172 235 271 328 415
#
# _framework density 24.213048000000001
#
# number of rings (size 3 to 8) (size 9 to 14) (size 15 to 20)
#    0.000    2.286    0.000    0.857    4.000    3.429 
#   12.857    0.000    6.286    0.000    0.000    0.000 
#    0.000    0.000    0.000    0.000    0.000    0.000 
#
# Total GULP energy -77970.352046 kJ/mol
# GULP energy per Si atom -5569.310860 kJ/mol
# Density = 2.415794 g / cm^3
# Si number density = 24.213048 Si / 1000 Ang^3
#
#
#
# Elastic Constant Matrix: (Units=GPa)
#
#
# Indices 1 2 3 4 5 6 
#
# 1 79.6725 21.8068 25.4368 0.0000 9.1124 -0.0001
# 2 21.8068 84.5549 54.4753 0.0000 -7.7202 0.0000
# 3 25.4368 54.4753 100.9826 -0.0001 -12.8185 -0.0001
# 4 0.0000 0.0000 -0.0001 36.2007 0.0001 7.5225
# 5 9.1124 -7.7202 -12.8185 0.0001 32.7465 0.0001
# 6 -0.0001 0.0000 -0.0001 7.5225 0.0001 18.0286
#
#
#
# Elastic Compliance Matrix: (Units=1/GPa)
#
#
# Indices 1 2 3 4 5 6 
#
# 1 0.014905 -0.002272 -0.003287 0.000000 -0.005970 0.000000
# 2 -0.002272 0.018479 -0.009222 0.000000 0.001379 0.000000
# 3 -0.003287 -0.009222 0.016358 0.000000 0.005144 0.000000
# 4 0.000000 0.000000 0.000000 0.030246 0.000000 -0.012620
# 5 -0.005970 0.001379 0.005144 0.000000 0.034538 0.000000
# 6 0.000000 0.000000 0.000000 -0.012620 0.000000 0.060733
#
#
# Mechanical properties :
#
#
# Convention : Reuss Voigt Hill
#
# Bulk Modulus (GPa) = 49.54689 52.07197 50.80943
# Shear Modulus (GPa) = 23.63532 28.29457 25.96494
#
# Velocity S-wave (km/s) = 3.12771 3.42214 3.27823
# Velocity P-wave (km/s) = 5.79230 6.09649 5.94634
#
# Compressibility (1/GPa) = 0.02018290
#
# Stress axis : x y z
#
# Youngs Moduli (GPa) = 67.09009 54.11419 61.13137
#
# Poissons Ratio (x) = 0.12292 0.20094
# Poissons Ratio (y) = 0.15240 0.56373
# Poissons Ratio (z) = 0.22052 0.49902
#
# Static dielectric constant tensor:
#      x y z
#    x 1.922550 0.000000 -0.011550 
#    y 0.000000 1.945570 0.000000 
#    z -0.011550 0.000000 1.963680 
# 
# From -- ./inp_files/28980.got.cif
#   From: 2010.05.17/outbox.cif.g08.bks.cpg/sg9_15_cif.got.tgz:28980.got - 2010.06.03 20:04:27.
