data_PCOD9137544
_publ_section_title
;
Structure prediction by ZEFSAII (Michael W. Deem and Ramdas Pophale) SiO2 
 PCOD9137544
Probable space group: C C
;
_chemical_formula_sum "Si O2"
_cell_formula_units_Z 20
_cell_length_a 13.654896
_cell_length_b 6.265112
_cell_length_c 18.188595
_cell_angle_alpha 90.000000
_cell_angle_beta 149.268729
_cell_angle_gamma 90.000000
_cell_volume 795.147323
_symmetry_space_group_name_H-M "C C"
_symmetry_group_IT_number 9
_symmetry_cell_setting 'monoclinic'
loop_
_space_group_symop_operation_xyz
x,y,z
x,-y,1/2+z
1/2+x,1/2+y,z
1/2+x,1/2-y,1/2+z
loop_
_atom_site_type_symbol
_atom_site_label
_atom_site_fract_x
_atom_site_fract_y
_atom_site_fract_z
Si Si1 0.871620 0.154339 0.424180
Si Si2 0.755383 0.519500 0.460063
Si Si3 0.940809 0.534181 0.372538
Si Si4 0.211907 0.863094 0.596757
Si Si5 0.602905 0.228270 0.740452
O O1 0.851691 0.327360 0.476174
O O2 0.897524 0.292729 0.366364
O O3 0.682133 0.010121 0.304311
O O4 0.056211 0.002115 0.541550
O O5 0.711521 0.448795 0.513734
O O6 0.588921 0.625037 0.303684
O O7 0.909288 0.708809 0.570480
O O8 0.909777 0.597251 0.267587
O O9 0.773056 0.668092 0.303678
O O10 0.134075 0.622306 0.535445
#
# Coordination Sequence:
#
# PCOD9137544 Si02
#       5
#     4   4   4   4   4
#     4  10  22  42  70  94 126 176 206 278 330 382
#     4  11  25  41  66  98 131 169 219 269 322 399
#     4  10  22  44  65  94 129 167 216 265 327 389
#     4  11  25  41  66  98 131 169 219 269 322 399
#     4  10  22  44  65  94 129 167 216 265 327 389
#
# _framework density 25.152571999999999
#
# number of rings (size 3 to 8) (size 9 to 14) (size 15 to 20)
#    0.000    1.600    0.000    4.800    5.600    3.200 
#    0.000    0.000    0.000    0.000    0.000    0.000 
#    0.000    0.000    0.000    0.000    0.000    0.000 
#
# Total GULP energy -55938.450913 kJ/mol
# GULP energy per Si atom -5593.845091 kJ/mol
# Density = 2.509532 g / cm^3
# Si number density = 25.152572 Si / 1000 Ang^3
#
#
#
# Elastic Constant Matrix: (Units=GPa)
#
#
# Indices 1 2 3 4 5 6 
#
# 1 106.4293 31.1087 11.9455 0.0000 -27.9627 0.0000
# 2 31.1087 69.7171 23.7655 0.0000 -14.7330 0.0000
# 3 11.9455 23.7655 72.4809 -0.0002 -22.8984 0.0000
# 4 0.0000 0.0000 -0.0002 37.3520 -0.0001 -7.4622
# 5 -27.9627 -14.7330 -22.8984 -0.0001 38.7581 0.0000
# 6 0.0000 0.0000 0.0000 -7.4622 0.0000 31.3904
#
#
#
# Elastic Compliance Matrix: (Units=1/GPa)
#
#
# Indices 1 2 3 4 5 6 
#
# 1 0.012800 -0.004598 0.002168 0.000000 0.008768 0.000000
# 2 -0.004598 0.018244 -0.005018 0.000000 0.000653 0.000000
# 3 0.002168 -0.005018 0.018413 0.000000 0.010535 0.000000
# 4 0.000000 0.000000 0.000000 0.028107 0.000000 0.006682
# 5 0.008768 0.000653 0.010535 0.000000 0.038600 0.000000
# 6 0.000000 0.000000 0.000000 0.006682 0.000000 0.033445
#
#
# Mechanical properties :
#
#
# Convention : Reuss Voigt Hill
#
# Bulk Modulus (GPa) = 28.93351 42.47407 35.70379
# Shear Modulus (GPa) = 28.40513 33.62059 31.01286
#
# Velocity S-wave (km/s) = 3.36417 3.66001 3.51520
# Velocity P-wave (km/s) = 5.15930 5.89781 5.54087
#
# Compressibility (1/GPa) = 0.03456200
#
# Stress axis : x y z
#
# Youngs Moduli (GPa) = 78.12416 54.81324 54.30947
#
# Poissons Ratio (x) = 0.25202 -0.11774
# Poissons Ratio (y) = 0.35919 0.27251
# Poissons Ratio (z) = -0.16937 0.27504
#
# Static dielectric constant tensor:
#      x y z
#    x 2.014900 0.000000 -0.016670 
#    y 0.000000 2.002490 0.000000 
#    z -0.016670 0.000000 2.028580 
# 
# From -- ./inp_files/3571.got.cif
#   From: 2010.05.17/outbox.cif.g08.bks.cpg/sg9_2_cif.got.tgz:3571.got - 2010.06.03 20:04:27.
