data_PCOD9137812
_publ_section_title
;
Structure prediction by ZEFSAII (Michael W. Deem and Ramdas Pophale) SiO2 
 PCOD9137812
Probable space group: C C
;
_chemical_formula_sum "Si O2"
_cell_formula_units_Z 32
_cell_length_a 13.131831
_cell_length_b 12.565643
_cell_length_c 9.200802
_cell_angle_alpha 90.000000
_cell_angle_beta 68.218322
_cell_angle_gamma 90.000000
_cell_volume 1409.829154
_symmetry_space_group_name_H-M "C C"
_symmetry_group_IT_number 9
_symmetry_cell_setting 'monoclinic'
loop_
_space_group_symop_operation_xyz
x,y,z
x,-y,1/2+z
1/2+x,1/2+y,z
1/2+x,1/2-y,1/2+z
loop_
_atom_site_type_symbol
_atom_site_label
_atom_site_fract_x
_atom_site_fract_y
_atom_site_fract_z
Si Si1 0.247660 0.854905 0.063950
Si Si2 0.496979 0.340062 0.218900
Si Si3 0.271545 0.417756 0.247063
Si Si4 0.892404 0.607425 0.223329
Si Si5 0.412892 0.121146 0.714323
Si Si6 0.204740 0.621222 0.100784
Si Si7 0.583148 0.245621 0.431132
Si Si8 0.782416 0.710577 0.034656
O O1 0.119027 0.866355 0.096612
O O2 0.296165 0.888736 0.192681
O O3 0.274421 0.728782 0.039635
O O4 0.321719 0.906785 0.904500
O O5 0.397556 0.416953 0.234591
O O6 0.457906 0.220127 0.188826
O O7 0.520707 0.337624 0.377759
O O8 0.249739 0.518930 0.158612
O O9 0.193312 0.410153 0.433163
O O10 0.266744 0.315381 0.142851
O O11 0.961117 0.498992 0.192896
O O12 0.806024 0.618421 0.138137
O O13 0.496680 0.183009 0.570738
O O14 0.386199 0.190044 0.871760
O O15 0.128283 0.671574 0.273456
O O16 0.677599 0.286923 0.486473
#
# Coordination Sequence:
#
# PCOD9137812 Si02
#       8
#     4   4   4   4   4   4   4   4
#     4  11  22  47  71  95 148 186 229 295 359 424
#     4  10  22  44  70  97 136 191 229 283 361 413
#     4  11  24  45  71 108 143 186 239 303 356 423
#     4  11  24  45  70 105 142 186 232 303 352 426
#     4  12  24  46  71 106 143 181 242 291 357 436
#     4  11  22  44  72 100 142 179 241 295 354 414
#     4  11  24  44  75 101 140 194 230 302 357 420
#     4  11  24  43  68 106 144 183 238 294 362 420
#
# _framework density 22.697786000000001
#
# number of rings (size 3 to 8) (size 9 to 14) (size 15 to 20)
#    0.000    1.000    6.250    1.500    0.000    6.000 
#    2.250    1.250    0.000    0.000    0.000    0.000 
#    0.000    0.000    0.000    0.000    0.000    0.000 
#
# Total GULP energy -89069.759988 kJ/mol
# GULP energy per Si atom -5566.859999 kJ/mol
# Density = 2.264613 g / cm^3
# Si number density = 22.697786 Si / 1000 Ang^3
#
#
#
# Elastic Constant Matrix: (Units=GPa)
#
#
# Indices 1 2 3 4 5 6 
#
# 1 74.7896 -5.5693 31.2427 0.0000 10.9133 0.0000
# 2 -5.5693 45.8498 15.7072 0.0000 17.5546 0.0000
# 3 31.2427 15.7072 111.4862 0.0000 26.6500 0.0000
# 4 0.0000 0.0000 0.0000 33.0812 0.0000 9.5365
# 5 10.9133 17.5546 26.6500 0.0000 30.7014 0.0000
# 6 0.0000 0.0000 0.0000 9.5365 0.0000 19.4596
#
#
#
# Elastic Compliance Matrix: (Units=1/GPa)
#
#
# Indices 1 2 3 4 5 6 
#
# 1 0.016240 0.005408 -0.004030 0.000000 -0.005367 0.000000
# 2 0.005408 0.029726 -0.001490 0.000000 -0.017626 0.000000
# 3 -0.004030 -0.001490 0.012319 0.000000 -0.008409 0.000000
# 4 0.000000 0.000000 0.000000 0.035202 0.000000 -0.017251
# 5 -0.005367 -0.017626 -0.008409 0.000000 0.051857 0.000000
# 6 0.000000 0.000000 0.000000 -0.017251 0.000000 0.059843
#
#
# Mechanical properties :
#
#
# Convention : Reuss Voigt Hill
#
# Bulk Modulus (GPa) = 17.22331 34.98744 26.10537
# Shear Modulus (GPa) = 22.24541 29.36477 25.80509
#
# Velocity S-wave (km/s) = 3.13400 3.60075 3.37545
# Velocity P-wave (km/s) = 4.54978 5.72146 5.16893
#
# Compressibility (1/GPa) = 0.05806084
#
# Stress axis : x y z
#
# Youngs Moduli (GPa) = 61.57536 33.64030 81.17427
#
# Poissons Ratio (x) = -0.18193 0.32715
# Poissons Ratio (y) = -0.33301 0.12098
# Poissons Ratio (z) = 0.24816 0.05014
#
# Static dielectric constant tensor:
#      x y z
#    x 1.919440 0.000000 0.009400 
#    y 0.000000 1.888380 0.000000 
#    z 0.009400 0.000000 1.907840 
# 
# From -- ./inp_files/9543.got.cif
#   From: 2010.05.17/outbox.cif.g08.bks.cpg/sg9_5_cif.got.tgz:9543.got - 2010.06.03 20:04:27.
