data_PCOD9137794
_publ_section_title
;
Structure prediction by ZEFSAII (Michael W. Deem and Ramdas Pophale) SiO2 
 PCOD9137794
Probable space group: C C
;
_chemical_formula_sum "Si O2"
_cell_formula_units_Z 28
_cell_length_a 12.303139
_cell_length_b 6.715630
_cell_length_c 15.539184
_cell_angle_alpha 90.000000
_cell_angle_beta 116.391707
_cell_angle_gamma 90.000000
_cell_volume 1150.086154
_symmetry_space_group_name_H-M "C C"
_symmetry_group_IT_number 9
_symmetry_cell_setting 'monoclinic'
loop_
_space_group_symop_operation_xyz
x,y,z
x,-y,1/2+z
1/2+x,1/2+y,z
1/2+x,1/2-y,1/2+z
loop_
_atom_site_type_symbol
_atom_site_label
_atom_site_fract_x
_atom_site_fract_y
_atom_site_fract_z
Si Si1 0.754550 0.711864 0.473640
Si Si2 0.108445 0.356107 0.705893
Si Si3 0.442982 0.487488 0.075532
Si Si4 0.346402 0.447186 0.214250
Si Si5 0.803375 0.609447 0.851559
Si Si6 0.996111 0.935178 0.926455
Si Si7 0.371408 0.996209 0.181002
O O1 0.808094 0.935121 0.497126
O O2 0.796780 0.590591 0.404077
O O3 0.611977 0.678906 0.431904
O O4 0.807925 0.598658 0.576131
O O5 0.215933 0.458970 0.689921
O O6 0.174001 0.219503 0.800431
O O7 0.016034 0.507088 0.717452
O O8 0.021704 0.213892 0.619189
O O9 0.427001 0.555807 0.169365
O O10 0.518589 0.568251 0.019617
O O11 0.425977 0.446637 0.328155
O O12 0.331175 0.227338 0.171825
O O13 0.900809 0.764285 0.922857
O O14 0.837570 0.583152 0.763204
#
# Coordination Sequence:
#
# PCOD9137794 Si02
#       7
#     4   4   4   4   4   4   4
#     4  12  25  40  66  99 131 171 218 272 332 396
#     4  10  23  44  66  92 131 174 218 270 326 398
#     4  11  22  41  65  94 131 171 213 264 327 392
#     4  10  22  44  69  92 129 174 218 274 330 393
#     4  11  24  43  66  95 128 167 217 269 327 392
#     4  11  24  43  65  94 131 172 218 269 329 397
#     4  11  24  41  65  98 129 169 218 272 337 392
#
# _framework density 24.346003
#
# number of rings (size 3 to 8) (size 9 to 14) (size 15 to 20)
#    0.000    1.143    0.000    7.714    0.000    5.714 
#    0.000    8.571    0.000    0.000    0.000    0.000 
#    0.000    0.000    0.000    0.000    0.000    0.000 
#
# Total GULP energy -78070.072891 kJ/mol
# GULP energy per Si atom -5576.433778 kJ/mol
# Density = 2.429059 g / cm^3
# Si number density = 24.346003 Si / 1000 Ang^3
#
#
#
# Elastic Constant Matrix: (Units=GPa)
#
#
# Indices 1 2 3 4 5 6 
#
# 1 161.0942 50.0583 54.2630 0.0000 -4.4560 0.0000
# 2 50.0583 81.6947 25.0886 0.0000 12.5689 0.0000
# 3 54.2630 25.0886 111.3764 0.0000 -14.3911 0.0000
# 4 0.0000 0.0000 0.0000 34.6073 0.0000 2.8618
# 5 -4.4560 12.5689 -14.3911 0.0000 46.3485 0.0000
# 6 0.0000 0.0000 0.0000 2.8618 0.0000 36.0563
#
#
#
# Elastic Compliance Matrix: (Units=1/GPa)
#
#
# Indices 1 2 3 4 5 6 
#
# 1 0.008684 -0.004554 -0.003061 0.000000 0.001119 0.000000
# 2 -0.004554 0.016587 -0.002246 0.000000 -0.005633 0.000000
# 3 -0.003061 -0.002246 0.011477 0.000000 0.003878 0.000000
# 4 0.000000 0.000000 0.000000 0.029087 0.000000 -0.002309
# 5 0.001119 -0.005633 0.003878 0.000000 0.024415 0.000000
# 6 0.000000 0.000000 0.000000 -0.002309 0.000000 0.027918
#
#
# Mechanical properties :
#
#
# Convention : Reuss Voigt Hill
#
# Bulk Modulus (GPa) = 58.72596 68.10946 63.41771
# Shear Modulus (GPa) = 34.82762 38.38613 36.60687
#
# Velocity S-wave (km/s) = 3.78633 3.97506 3.88185
# Velocity P-wave (km/s) = 6.57943 7.00746 6.79682
#
# Compressibility (1/GPa) = 0.01702824
#
# Stress axis : x y z
#
# Youngs Moduli (GPa) = 115.14771 60.28699 87.13276
#
# Poissons Ratio (x) = 0.27453 0.26669
# Poissons Ratio (y) = 0.52435 0.19568
# Poissons Ratio (z) = 0.35243 0.13539
#
# Static dielectric constant tensor:
#      x y z
#    x 1.944700 0.000000 -0.065890 
#    y 0.000000 2.110670 0.000000 
#    z -0.065890 0.000000 2.017850 
# 
# From -- ./inp_files/24311.got.cif
#   From: 2010.05.17/outbox.cif.g08.bks.cpg/sg9_13_cif.got.tgz:24311.got - 2010.06.03 20:04:27.
