data_PCOD9137276
_publ_section_title
;
Structure prediction by ZEFSAII (Michael W. Deem and Ramdas Pophale) SiO2 
 PCOD9137276
Probable space group: C C
;
_chemical_formula_sum "Si O2"
_cell_formula_units_Z 28
_cell_length_a 5.098654
_cell_length_b 13.212370
_cell_length_c 16.158790
_cell_angle_alpha 90.000000
_cell_angle_beta 105.587658
_cell_angle_gamma 90.000000
_cell_volume 1048.505734
_symmetry_space_group_name_H-M "C C"
_symmetry_group_IT_number 9
_symmetry_cell_setting 'monoclinic'
loop_
_space_group_symop_operation_xyz
x,y,z
x,-y,1/2+z
1/2+x,1/2+y,z
1/2+x,1/2-y,1/2+z
loop_
_atom_site_type_symbol
_atom_site_label
_atom_site_fract_x
_atom_site_fract_y
_atom_site_fract_z
Si Si1 0.397610 0.367940 0.138600
Si Si2 0.194528 0.519712 0.357697
Si Si3 0.480305 0.265309 0.494766
Si Si4 0.301303 0.396838 0.628278
Si Si5 0.885905 0.678399 0.220262
Si Si6 0.644044 0.592866 0.499816
Si Si7 0.730908 0.416729 0.397948
O O1 0.172955 0.301803 0.070220
O O2 0.310744 0.483189 0.141143
O O3 0.443514 0.298494 0.222994
O O4 0.652686 0.377603 0.096681
O O5 0.332036 0.567221 0.451199
O O6 0.464206 0.473409 0.339185
O O7 0.043844 0.608878 0.298170
O O8 0.982493 0.430446 0.358925
O O9 0.567982 0.349289 0.696328
O O10 0.242989 0.186575 0.453304
O O11 0.640499 0.313251 0.432214
O O12 0.026143 0.356220 0.645460
O O13 0.795626 0.492307 0.482059
O O14 0.348337 0.355074 0.539160
#
# Coordination Sequence:
#
# PCOD9137276 Si02
#       7
#     4   4   4   4   4   4   4
#     4  11  24  41  72 104 134 176 233 291 348 410
#     4  10  23  46  66  97 149 183 235 287 349 425
#     4  11  23  40  72 102 137 178 231 294 365 401
#     4  11  24  42  69 100 134 175 234 283 346 417
#     4  11  25  45  69  95 141 191 224 284 349 416
#     4  10  22  40  70 103 136 175 232 294 347 410
#     4  10  23  42  70  95 141 180 227 291 348 419
#
# _framework density 26.704671999999999
#
# number of rings (size 3 to 8) (size 9 to 14) (size 15 to 20)
#    0.857    0.571    2.857    1.714    4.000    2.286 
#    2.571    2.857    0.000    0.000    0.000    0.000 
#    0.000    0.000    0.000    0.000    0.000    0.000 
#
# Total GULP energy -78360.121234 kJ/mol
# GULP energy per Si atom -5597.151517 kJ/mol
# Density = 2.664389 g / cm^3
# Si number density = 26.704672 Si / 1000 Ang^3
#
#
#
# Elastic Constant Matrix: (Units=GPa)
#
#
# Indices 1 2 3 4 5 6 
#
# 1 115.0947 28.4757 3.6511 0.0000 3.7118 0.0000
# 2 28.4757 179.9717 10.9023 0.0000 -8.4692 0.0000
# 3 3.6511 10.9023 47.8441 0.0000 -2.3211 0.0000
# 4 0.0000 0.0000 0.0000 36.6132 0.0000 -16.4944
# 5 3.7118 -8.4692 -2.3211 0.0000 20.6156 0.0000
# 6 0.0000 0.0000 0.0000 -16.4944 0.0000 54.4789
#
#
#
# Elastic Compliance Matrix: (Units=1/GPa)
#
#
# Indices 1 2 3 4 5 6 
#
# 1 0.009157 -0.001530 -0.000463 0.000000 -0.002330 0.000000
# 2 -0.001530 0.005989 -0.001121 0.000000 0.002610 0.000000
# 3 -0.000463 -0.001121 0.021290 0.000000 0.002020 0.000000
# 4 0.000000 0.000000 0.000000 0.031626 0.000000 0.009575
# 5 -0.002330 0.002610 0.002020 0.000000 0.050226 0.000000
# 6 0.000000 0.000000 0.000000 0.009575 0.000000 0.021255
#
#
# Mechanical properties :
#
#
# Convention : Reuss Voigt Hill
#
# Bulk Modulus (GPa) = 33.10537 47.66321 40.38429
# Shear Modulus (GPa) = 32.08378 42.33365 37.20871
#
# Velocity S-wave (km/s) = 3.46992 3.98584 3.73680
# Velocity P-wave (km/s) = 5.33644 6.25057 5.81151
#
# Compressibility (1/GPa) = 0.03020658
#
# Stress axis : x y z
#
# Youngs Moduli (GPa) = 109.20662 166.96379 46.97023
#
# Poissons Ratio (x) = 0.25552 0.02175
# Poissons Ratio (y) = 0.16713 0.05267
# Poissons Ratio (z) = 0.05057 0.18723
#
# Static dielectric constant tensor:
#      x y z
#    x 2.096790 0.000000 0.008880 
#    y 0.000000 2.092230 0.000000 
#    z 0.008880 0.000000 2.229870 
# 
# From -- ./inp_files/28631.got.cif
#   From: 2010.05.17/outbox.cif.g08.bks.cpg/sg9_15_cif.got.tgz:28631.got - 2010.06.03 20:04:27.
