data_PCOD9137304
_publ_section_title
;
Structure prediction by ZEFSAII (Michael W. Deem and Ramdas Pophale) SiO2 
 PCOD9137304
Probable space group: C C
;
_chemical_formula_sum "Si O2"
_cell_formula_units_Z 28
_cell_length_a 14.226585
_cell_length_b 5.018109
_cell_length_c 19.133544
_cell_angle_alpha 90.000000
_cell_angle_beta 81.864929
_cell_angle_gamma 90.000000
_cell_volume 1352.209021
_symmetry_space_group_name_H-M "C C"
_symmetry_group_IT_number 9
_symmetry_cell_setting 'monoclinic'
loop_
_space_group_symop_operation_xyz
x,y,z
x,-y,1/2+z
1/2+x,1/2+y,z
1/2+x,1/2-y,1/2+z
loop_
_atom_site_type_symbol
_atom_site_label
_atom_site_fract_x
_atom_site_fract_y
_atom_site_fract_z
Si Si1 0.037930 0.647269 0.876580
Si Si2 0.984527 0.774985 0.143709
Si Si3 0.385417 0.768495 0.091127
Si Si4 0.180418 0.607214 0.173581
Si Si5 0.692588 0.595216 0.265846
Si Si6 0.952110 0.849992 0.435156
Si Si7 0.401584 0.148758 0.297863
O O1 0.129523 0.782680 0.834325
O O2 0.038715 0.359338 0.913221
O O3 0.967064 0.593425 0.818302
O O4 0.894763 0.174877 0.868484
O O5 0.092318 0.668205 0.131816
O O6 0.916350 0.558301 0.114300
O O7 0.953505 0.788363 0.228066
O O8 0.962955 0.059533 0.112718
O O9 0.281975 0.686445 0.130441
O O10 0.392101 0.742050 0.007200
O O11 0.184434 0.307768 0.203028
O O12 0.163232 0.806369 0.240997
O O13 0.799571 0.569500 0.281011
O O14 0.490623 0.646962 0.435147
#
# Coordination Sequence:
#
# PCOD9137304 Si02
#       7
#     4   4   4   4   4   4   4
#     4  10  22  41  63  90 131 165 220 259 322 378
#     4  12  24  42  72  93 131 173 222 269 324 381
#     4  12  25  46  63  99 136 173 212 269 334 389
#     4  12  24  40  67 101 129 166 220 270 322 389
#     4  12  22  38  69 100 126 163 222 276 315 376
#     4  10  24  44  64  89 141 168 210 268 328 389
#     4  10  23  39  68  94 126 170 216 265 321 370
#
# _framework density 20.706858
#
# number of rings (size 3 to 8) (size 9 to 14) (size 15 to 20)
#    0.857    0.000    4.286    3.429    4.000    0.000 
#    5.143    0.000    0.000    0.000    0.000    0.000 
#    0.000    0.000    0.000    0.000    0.000    0.000 
#
# Total GULP energy -78165.060319 kJ/mol
# GULP energy per Si atom -5583.218594 kJ/mol
# Density = 2.065973 g / cm^3
# Si number density = 20.706858 Si / 1000 Ang^3
#
#
#
# Elastic Constant Matrix: (Units=GPa)
#
#
# Indices 1 2 3 4 5 6 
#
# 1 72.7750 -23.5723 -10.0521 0.0000 5.6632 0.0000
# 2 -23.5723 70.5701 1.5784 0.0000 9.8619 0.0000
# 3 -10.0521 1.5784 70.6287 0.0000 -9.7065 0.0000
# 4 0.0000 0.0000 0.0000 18.7382 0.0000 -5.4966
# 5 5.6632 9.8619 -9.7065 0.0000 17.7941 0.0000
# 6 0.0000 0.0000 0.0000 -5.4966 0.0000 14.5636
#
#
#
# Elastic Compliance Matrix: (Units=1/GPa)
#
#
# Indices 1 2 3 4 5 6 
#
# 1 0.016736 0.006753 0.001064 0.000000 -0.008488 0.000000
# 2 0.006753 0.018261 -0.001225 0.000000 -0.012938 0.000000
# 3 0.001064 -0.001225 0.015550 0.000000 0.008823 0.000000
# 4 0.000000 0.000000 0.000000 0.060011 0.000000 0.022649
# 5 -0.008488 -0.012938 0.008823 0.000000 0.070883 0.000000
# 6 0.000000 0.000000 0.000000 0.022649 0.000000 0.077213
#
#
# Mechanical properties :
#
#
# Convention : Reuss Voigt Hill
#
# Bulk Modulus (GPa) = 15.69103 16.65354 16.17229
# Shear Modulus (GPa) = 18.74670 26.62049 22.68360
#
# Velocity S-wave (km/s) = 3.01215 3.58940 3.31337
# Velocity P-wave (km/s) = 4.43751 5.02378 4.73972
#
# Compressibility (1/GPa) = 0.06373066
#
# Stress axis : x y z
#
# Youngs Moduli (GPa) = 59.75238 54.76058 64.30904
#
# Poissons Ratio (x) = -0.36977 -0.06845
# Poissons Ratio (y) = -0.40348 0.07879
# Poissons Ratio (z) = -0.06360 0.06709
#
# Static dielectric constant tensor:
#      x y z
#    x 1.738770 0.000000 0.003160 
#    y 0.000000 1.729330 0.000000 
#    z 0.003160 0.000000 1.750230 
# 
# From -- ./inp_files/32915.got.cif
#   From: 2010.05.17/outbox.cif.g08.bks.cpg/sg9_17_cif.got.tgz:32915.got - 2010.06.03 20:04:27.
