data_PCOD9137335
_publ_section_title
;
Structure prediction by ZEFSAII (Michael W. Deem and Ramdas Pophale) SiO2 
 PCOD9137335
Probable space group: C C
;
_chemical_formula_sum "Si O2"
_cell_formula_units_Z 32
_cell_length_a 17.319657
_cell_length_b 9.114213
_cell_length_c 11.210443
_cell_angle_alpha 90.000000
_cell_angle_beta 121.352492
_cell_angle_gamma 90.000000
_cell_volume 1511.228766
_symmetry_space_group_name_H-M "C C"
_symmetry_group_IT_number 9
_symmetry_cell_setting 'monoclinic'
loop_
_space_group_symop_operation_xyz
x,y,z
x,-y,1/2+z
1/2+x,1/2+y,z
1/2+x,1/2-y,1/2+z
loop_
_atom_site_type_symbol
_atom_site_label
_atom_site_fract_x
_atom_site_fract_y
_atom_site_fract_z
Si Si1 0.039150 0.452817 0.844820
Si Si2 0.800891 0.725376 0.598817
Si Si3 0.971201 0.723163 0.901336
Si Si4 0.715669 0.958686 0.357891
Si Si5 0.226318 0.240778 0.892763
Si Si6 0.631744 0.413688 0.110456
Si Si7 0.649712 0.755922 0.093082
Si Si8 0.891850 0.535257 0.045173
O O1 0.123305 0.455674 0.821282
O O2 0.033958 0.625667 0.866091
O O3 0.945177 0.414929 0.706780
O O4 0.063251 0.346819 0.973648
O O5 0.878163 0.758341 0.758796
O O6 0.758335 0.866038 0.499405
O O7 0.716329 0.637858 0.592703
O O8 0.856952 0.628890 0.545798
O O9 0.953403 0.598781 0.988392
O O10 0.033648 0.858710 0.987705
O O11 0.695948 0.852802 0.232428
O O12 0.769917 0.107950 0.377876
O O13 0.147932 0.172112 0.747433
O O14 0.208199 0.249391 0.019538
O O15 0.300927 0.117217 0.944254
O O16 0.633064 0.589797 0.121290
#
# Coordination Sequence:
#
# PCOD9137335 Si02
#       8
#     4   4   4   4   4   4   4   4
#     4  10  22  41  65  98 136 181 229 279 355 418
#     4  11  24  42  70  98 136 188 235 285 354 428
#     4  11  23  41  70  96 142 182 228 289 353 421
#     4  11  24  43  68  99 136 184 233 285 354 424
#     4  11  24  41  69 100 137 181 234 287 356 412
#     4  12  23  44  71 101 139 182 237 290 355 419
#     4  11  24  41  68 100 134 186 228 290 350 427
#     4  11  22  41  65 104 136 182 228 293 347 431
#
# _framework density 21.174823
#
# number of rings (size 3 to 8) (size 9 to 14) (size 15 to 20)
#    0.000    1.000    3.750    3.750    1.750    1.000 
#    0.000    3.750    0.000    0.000    0.000    0.000 
#    0.000    0.000    0.000    0.000    0.000    0.000 
#
# Total GULP energy -89113.566182 kJ/mol
# GULP energy per Si atom -5569.597886 kJ/mol
# Density = 2.112663 g / cm^3
# Si number density = 21.174823 Si / 1000 Ang^3
#
#
#
# Elastic Constant Matrix: (Units=GPa)
#
#
# Indices 1 2 3 4 5 6 
#
# 1 32.4440 14.2422 12.4450 0.0000 -1.5225 0.0000
# 2 14.2422 148.6122 73.5948 0.0000 -2.6756 0.0000
# 3 12.4450 73.5948 129.2643 0.0000 12.5034 0.0000
# 4 0.0000 0.0000 0.0000 41.9678 0.0000 -5.4620
# 5 -1.5225 -2.6756 12.5034 0.0000 31.5808 0.0000
# 6 0.0000 0.0000 0.0000 -5.4620 0.0000 10.4460
#
#
#
# Elastic Compliance Matrix: (Units=1/GPa)
#
#
# Indices 1 2 3 4 5 6 
#
# 1 0.032658 -0.001980 -0.002239 0.000000 0.002293 0.000000
# 2 -0.001980 0.009777 -0.005663 0.000000 0.002975 0.000000
# 3 -0.002239 -0.005663 0.011680 0.000000 -0.005212 0.000000
# 4 0.000000 0.000000 0.000000 0.025568 0.000000 0.013369
# 5 0.002293 0.002975 -0.005212 0.000000 0.034091 0.000000
# 6 0.000000 0.000000 0.000000 0.013369 0.000000 0.102721
#
#
# Mechanical properties :
#
#
# Convention : Reuss Voigt Hill
#
# Bulk Modulus (GPa) = 29.11142 56.76491 42.93816
# Shear Modulus (GPa) = 20.18502 30.80151 25.49326
#
# Velocity S-wave (km/s) = 3.09083 3.81810 3.47355
# Velocity P-wave (km/s) = 5.14933 6.80464 6.03402
#
# Compressibility (1/GPa) = 0.03435079
#
# Stress axis : x y z
#
# Youngs Moduli (GPa) = 30.62053 102.28248 85.61490
#
# Poissons Ratio (x) = 0.20250 0.19167
# Poissons Ratio (y) = 0.06062 0.48488
# Poissons Ratio (z) = 0.06855 0.57927
#
# Static dielectric constant tensor:
#      x y z
#    x 1.948670 0.000000 -0.020040 
#    y 0.000000 1.869670 0.000000 
#    z -0.020040 0.000000 1.766980 
# 
# From -- ./inp_files/19120.got.cif
#   From: 2010.05.17/outbox.cif.g08.bks.cpg/sg9_10_cif.got.tgz:19120.got - 2010.06.03 20:04:27.
