data_PCOD9137508
_publ_section_title
;
Structure prediction by ZEFSAII (Michael W. Deem and Ramdas Pophale) SiO2 
 PCOD9137508
Probable space group: C C
;
_chemical_formula_sum "Si O2"
_cell_formula_units_Z 28
_cell_length_a 11.814651
_cell_length_b 7.631799
_cell_length_c 24.550741
_cell_angle_alpha 90.000000
_cell_angle_beta 145.657437
_cell_angle_gamma 90.000000
_cell_volume 1248.817543
_symmetry_space_group_name_H-M "C C"
_symmetry_group_IT_number 9
_symmetry_cell_setting 'monoclinic'
loop_
_space_group_symop_operation_xyz
x,y,z
x,-y,1/2+z
1/2+x,1/2+y,z
1/2+x,1/2-y,1/2+z
loop_
_atom_site_type_symbol
_atom_site_label
_atom_site_fract_x
_atom_site_fract_y
_atom_site_fract_z
Si Si1 0.772670 0.009557 0.360570
Si Si2 0.385794 0.755714 0.052200
Si Si3 0.959163 0.655793 0.891318
Si Si4 0.722153 0.383260 0.870154
Si Si5 0.452351 0.921912 0.653003
Si Si6 0.799629 0.752399 0.721338
Si Si7 0.594374 0.496031 0.568101
O O1 0.768081 0.799108 0.356189
O O2 0.557726 0.072900 0.254096
O O3 0.913987 0.134798 0.380088
O O4 0.873412 0.044453 0.458947
O O5 0.453485 0.892193 0.123593
O O6 0.563499 0.627240 0.106995
O O7 0.316229 0.854013 0.968170
O O8 0.194347 0.643328 0.995325
O O9 0.823667 0.542751 0.878174
O O10 0.908014 0.622171 0.807764
O O11 0.478955 0.388935 0.779121
O O12 0.218150 0.889282 0.571346
O O13 0.596551 0.808625 0.672019
O O14 0.720470 0.663245 0.635344
#
# Coordination Sequence:
#
# PCOD9137508 Si02
#       7
#     4   4   4   4   4   4   4
#     4  10  22  42  68  94 138 174 216 286 322 390
#     4  10  24  41  64 101 130 176 231 267 340 411
#     4  10  22  44  68  98 133 174 229 280 335 400
#     4  10  22  44  68  98 133 174 229 280 335 400
#     4  11  23  42  66  95 138 173 222 281 330 398
#     4  10  24  41  64 101 130 176 231 267 340 411
#     4  11  23  42  66  95 138 173 222 281 330 398
#
# _framework density 22.421208
#
# number of rings (size 3 to 8) (size 9 to 14) (size 15 to 20)
#    0.000    1.714    2.857    0.000    4.000    4.571 
#    0.000    5.714    0.000    0.000    0.000    0.000 
#    0.000    0.000    0.000    0.000    0.000    0.000 
#
# Total GULP energy -77963.249053 kJ/mol
# GULP energy per Si atom -5568.803504 kJ/mol
# Density = 2.237018 g / cm^3
# Si number density = 22.421208 Si / 1000 Ang^3
#
#
#
# Elastic Constant Matrix: (Units=GPa)
#
#
# Indices 1 2 3 4 5 6 
#
# 1 84.3653 22.6782 7.9034 0.0000 16.7485 0.0000
# 2 22.6782 34.4920 3.5928 0.0000 5.7162 0.0000
# 3 7.9034 3.5928 68.8615 0.0000 -0.6016 0.0000
# 4 0.0000 0.0000 0.0000 19.5240 0.0000 6.8068
# 5 16.7485 5.7162 -0.6016 0.0000 30.8557 0.0000
# 6 0.0000 0.0000 0.0000 6.8068 0.0000 49.9839
#
#
#
# Elastic Compliance Matrix: (Units=1/GPa)
#
#
# Indices 1 2 3 4 5 6 
#
# 1 0.015804 -0.009098 -0.001400 0.000000 -0.006920 0.000000
# 2 -0.009098 0.035328 -0.000813 0.000000 -0.001622 0.000000
# 3 -0.001400 -0.000813 0.014735 0.000000 0.001198 0.000000
# 4 0.000000 0.000000 0.000000 0.053772 0.000000 -0.007323
# 5 -0.006920 -0.001622 0.001198 0.000000 0.036489 0.000000
# 6 0.000000 0.000000 0.000000 -0.007323 0.000000 0.021004
#
#
# Mechanical properties :
#
#
# Convention : Reuss Voigt Hill
#
# Bulk Modulus (GPa) = 23.12408 28.45196 25.78802
# Shear Modulus (GPa) = 23.34609 30.30902 26.82755
#
# Velocity S-wave (km/s) = 3.23034 3.68067 3.46284
# Velocity P-wave (km/s) = 4.92436 5.54801 5.24546
#
# Compressibility (1/GPa) = 0.04324497
#
# Stress axis : x y z
#
# Youngs Moduli (GPa) = 63.27571 28.30636 67.86368
#
# Poissons Ratio (x) = 0.25754 0.09498
# Poissons Ratio (y) = 0.57570 0.05518
# Poissons Ratio (z) = 0.08856 0.02302
#
# Static dielectric constant tensor:
#      x y z
#    x 1.888070 0.000000 -0.017060 
#    y 0.000000 1.859340 0.000000 
#    z -0.017060 0.000000 1.879870 
# 
# From -- ./inp_files/24103.got.cif
#   From: 2010.05.17/outbox.cif.g08.bks.cpg/sg9_13_cif.got.tgz:24103.got - 2010.06.03 20:04:27.
