data_PCOD9137762
_publ_section_title
;
Structure prediction by ZEFSAII (Michael W. Deem and Ramdas Pophale) SiO2 
 PCOD9137762
Probable space group: C C
;
_chemical_formula_sum "Si O2"
_cell_formula_units_Z 28
_cell_length_a 10.494100
_cell_length_b 10.770228
_cell_length_c 24.754487
_cell_angle_alpha 90.000000
_cell_angle_beta 157.362137
_cell_angle_gamma 90.000000
_cell_volume 1076.906376
_symmetry_space_group_name_H-M "C C"
_symmetry_group_IT_number 9
_symmetry_cell_setting 'monoclinic'
loop_
_space_group_symop_operation_xyz
x,y,z
x,-y,1/2+z
1/2+x,1/2+y,z
1/2+x,1/2-y,1/2+z
loop_
_atom_site_type_symbol
_atom_site_label
_atom_site_fract_x
_atom_site_fract_y
_atom_site_fract_z
Si Si1 0.730880 0.074185 0.145220
Si Si2 0.805653 0.733374 0.223340
Si Si3 0.168437 0.423984 0.502836
Si Si4 0.148612 0.736688 0.256434
Si Si5 0.290153 0.531572 0.446156
Si Si6 0.854738 0.656160 0.721451
Si Si7 0.479628 0.521476 0.847932
O O1 0.726096 0.021288 0.083729
O O2 0.836082 0.217129 0.181369
O O3 0.989793 0.022940 0.289347
O O4 0.348434 0.049327 0.015000
O O5 0.502351 0.645551 0.116751
O O6 0.805356 0.846562 0.266268
O O7 0.817035 0.753613 0.162599
O O8 0.136501 0.653550 0.360758
O O9 0.099432 0.520536 0.428664
O O10 0.898930 0.317816 0.390523
O O11 0.169827 0.800697 0.205100
O O12 0.290535 0.594739 0.302548
O O13 0.662588 0.557362 0.609209
O O14 0.189847 0.411799 0.371718
#
# Coordination Sequence:
#
# PCOD9137762 Si02
#       7
#     4   4   4   4   4   4   4
#     4  11  24  44  73 100 141 184 249 296 365 439
#     4  12  24  43  70 103 142 193 233 302 369 432
#     4  11  24  43  71 100 138 187 241 298 362 439
#     4  10  24  46  67 103 148 178 248 298 354 445
#     4  11  22  41  68  98 137 181 238 286 366 422
#     4  10  22  44  67  99 138 184 234 306 353 435
#     4  11  24  45  72 101 140 193 235 306 363 430
#
# _framework density 26.000406000000002
#
# number of rings (size 3 to 8) (size 9 to 14) (size 15 to 20)
#    0.000    1.143    4.286    0.857    4.000    1.143 
#    7.714    1.429    0.000    0.000    0.000    0.000 
#    0.000    0.000    0.000    0.000    0.000    0.000 
#
# Total GULP energy -78175.973273 kJ/mol
# GULP energy per Si atom -5583.998091 kJ/mol
# Density = 2.594123 g / cm^3
# Si number density = 26.000406 Si / 1000 Ang^3
#
#
#
# Elastic Constant Matrix: (Units=GPa)
#
#
# Indices 1 2 3 4 5 6 
#
# 1 78.1782 13.2553 10.3014 0.0026 -10.6860 0.0009
# 2 13.2553 128.2609 43.8596 0.0050 -14.3051 0.0013
# 3 10.3014 43.8596 113.8602 0.0101 -14.3980 0.0027
# 4 0.0026 0.0050 0.0101 38.0838 -0.0003 -12.3732
# 5 -10.6860 -14.3051 -14.3980 -0.0003 24.9418 0.0001
# 6 0.0009 0.0013 0.0027 -12.3732 0.0001 44.3504
#
#
#
# Elastic Compliance Matrix: (Units=1/GPa)
#
#
# Indices 1 2 3 4 5 6 
#
# 1 0.013674 -0.000725 -0.000291 -0.000001 0.005274 0.000000
# 2 -0.000725 0.009294 -0.003106 0.000000 0.003226 0.000000
# 3 -0.000291 -0.003106 0.010533 -0.000003 0.004174 -0.000001
# 4 -0.000001 0.000000 -0.000003 0.028875 -0.000002 0.008056
# 5 0.005274 0.003226 0.004174 -0.000002 0.046613 -0.000001
# 6 0.000000 0.000000 -0.000001 0.008056 -0.000001 0.024795
#
#
# Mechanical properties :
#
#
# Convention : Reuss Voigt Hill
#
# Bulk Modulus (GPa) = 39.59506 50.57019 45.08262
# Shear Modulus (GPa) = 33.23412 38.33407 35.78409
#
# Velocity S-wave (km/s) = 3.57909 3.84391 3.71386
# Velocity P-wave (km/s) = 5.68696 6.26042 5.98057
#
# Compressibility (1/GPa) = 0.02525568
#
# Stress axis : x y z
#
# Youngs Moduli (GPa) = 73.13393 107.60035 94.93554
#
# Poissons Ratio (x) = 0.07806 0.02760
# Poissons Ratio (y) = 0.05305 0.29490
# Poissons Ratio (z) = 0.02126 0.33425
#
# Static dielectric constant tensor:
#      x y z
#    x 2.193080 0.000000 0.066970 
#    y 0.000000 2.103550 0.000000 
#    z 0.066970 0.000000 2.052190 
# 
# From -- ./inp_files/27427.got.cif
#   From: 2010.05.17/outbox.cif.g08.bks.cpg/sg9_14_cif.got.tgz:27427.got - 2010.06.03 20:04:27.
