data_PCOD9137429
_publ_section_title
;
Structure prediction by ZEFSAII (Michael W. Deem and Ramdas Pophale) SiO2 
 PCOD9137429
Probable space group: C C
;
_chemical_formula_sum "Si O2"
_cell_formula_units_Z 32
_cell_length_a 14.501060
_cell_length_b 10.211339
_cell_length_c 9.504136
_cell_angle_alpha 90.000000
_cell_angle_beta 69.421629
_cell_angle_gamma 90.000000
_cell_volume 1317.528885
_symmetry_space_group_name_H-M "C C"
_symmetry_group_IT_number 9
_symmetry_cell_setting 'monoclinic'
loop_
_space_group_symop_operation_xyz
x,y,z
x,-y,1/2+z
1/2+x,1/2+y,z
1/2+x,1/2-y,1/2+z
loop_
_atom_site_type_symbol
_atom_site_label
_atom_site_fract_x
_atom_site_fract_y
_atom_site_fract_z
Si Si1 0.533170 0.044391 0.742110
Si Si2 0.397413 0.065407 0.549748
Si Si3 0.562596 0.439924 0.660905
Si Si4 0.502217 0.409563 0.965947
Si Si5 0.655385 0.787359 0.400082
Si Si6 0.188774 0.799193 0.172612
Si Si7 0.183388 0.305546 0.990515
Si Si8 0.337137 0.236569 0.116483
O O1 0.580108 0.126219 0.848738
O O2 0.626378 0.067827 0.582019
O O3 0.451323 0.091781 0.671067
O O4 0.470780 0.938145 0.872549
O O5 0.354375 0.917198 0.588843
O O6 0.301947 0.157194 0.586766
O O7 0.477862 0.416817 0.818598
O O8 0.505422 0.458247 0.546163
O O9 0.621836 0.569337 0.683968
O O10 0.632602 0.318489 0.595553
O O11 0.614919 0.360386 0.900754
O O12 0.441492 0.304119 0.083300
O O13 0.656532 0.799398 0.566610
O O14 0.763048 0.784795 0.276379
O O15 0.178706 0.727629 0.328315
O O16 0.291495 0.296674 0.998104
#
# Coordination Sequence:
#
# PCOD9137429 Si02
#       8
#     4   4   4   4   4   4   4   4
#     4  11  25  41  65  98 145 174 222 286 355 400
#     4  12  22  40  68 106 130 184 234 287 332 424
#     4  11  20  38  63  97 130 170 221 276 334 400
#     4  11  21  39  66  95 133 170 220 276 334 399
#     4  10  22  42  61  97 135 175 211 290 344 394
#     4  11  23  37  70 101 132 168 235 283 338 404
#     4  11  22  43  66  98 137 181 219 287 347 400
#     4  11  21  40  67  94 138 174 224 281 346 395
#
# _framework density 24.287891999999999
#
# number of rings (size 3 to 8) (size 9 to 14) (size 15 to 20)
#    0.000    1.000    6.250    1.500    1.750    1.000 
#    4.500    6.250    0.000    0.000    0.000    0.000 
#    0.000    0.000    0.000    0.000    0.000    0.000 
#
# Total GULP energy -89102.565914 kJ/mol
# GULP energy per Si atom -5568.910370 kJ/mol
# Density = 2.423261 g / cm^3
# Si number density = 24.287892 Si / 1000 Ang^3
#
#
#
# Elastic Constant Matrix: (Units=GPa)
#
#
# Indices 1 2 3 4 5 6 
#
# 1 98.5872 33.5733 51.6899 0.0000 0.2000 0.0000
# 2 33.5733 75.4008 36.6213 0.0000 -8.6486 0.0000
# 3 51.6899 36.6213 186.6983 0.0000 14.4257 0.0000
# 4 0.0000 0.0000 0.0000 15.5978 0.0000 3.0869
# 5 0.2000 -8.6486 14.4257 0.0000 41.6775 0.0000
# 6 0.0000 0.0000 0.0000 3.0869 0.0000 24.2697
#
#
#
# Elastic Compliance Matrix: (Units=1/GPa)
#
#
# Indices 1 2 3 4 5 6 
#
# 1 0.013119 -0.004515 -0.002743 0.000000 -0.000051 0.000000
# 2 -0.004515 0.016946 -0.002412 0.000000 0.004373 0.000000
# 3 -0.002743 -0.002412 0.006808 0.000000 -0.002844 0.000000
# 4 0.000000 0.000000 0.000000 0.065767 0.000000 -0.008365
# 5 -0.000051 0.004373 -0.002844 0.000000 0.025886 0.000000
# 6 0.000000 0.000000 0.000000 -0.008365 0.000000 0.042268
#
#
# Mechanical properties :
#
#
# Convention : Reuss Voigt Hill
#
# Bulk Modulus (GPa) = 57.03160 67.16171 62.09665
# Shear Modulus (GPa) = 25.51314 32.22912 28.87113
#
# Velocity S-wave (km/s) = 3.24458 3.64670 3.45150
# Velocity P-wave (km/s) = 6.12934 6.74119 6.44253
#
# Compressibility (1/GPa) = 0.01753414
#
# Stress axis : x y z
#
# Youngs Moduli (GPa) = 76.22541 59.01145 146.87807
#
# Poissons Ratio (x) = 0.26645 0.40283
# Poissons Ratio (y) = 0.34417 0.35423
# Poissons Ratio (z) = 0.20906 0.14232
#
# Static dielectric constant tensor:
#      x y z
#    x 1.962850 0.000000 0.067380 
#    y 0.000000 1.951950 0.000000 
#    z 0.067380 0.000000 2.058530 
# 
# From -- ./inp_files/9190.got.cif
#   From: 2010.05.17/outbox.cif.g08.bks.cpg/sg9_5_cif.got.tgz:9190.got - 2010.06.03 20:04:27.
