data_PCOD9137548
_publ_section_title
;
Structure prediction by ZEFSAII (Michael W. Deem and Ramdas Pophale) SiO2 
 PCOD9137548
Probable space group: C C
;
_chemical_formula_sum "Si O2"
_cell_formula_units_Z 32
_cell_length_a 28.358478
_cell_length_b 10.938451
_cell_length_c 9.310900
_cell_angle_alpha 90.000000
_cell_angle_beta 30.196334
_cell_angle_gamma 90.000000
_cell_volume 1452.673003
_symmetry_space_group_name_H-M "C C"
_symmetry_group_IT_number 9
_symmetry_cell_setting 'monoclinic'
loop_
_space_group_symop_operation_xyz
x,y,z
x,-y,1/2+z
1/2+x,1/2+y,z
1/2+x,1/2-y,1/2+z
loop_
_atom_site_type_symbol
_atom_site_label
_atom_site_fract_x
_atom_site_fract_y
_atom_site_fract_z
Si Si1 0.392060 0.607897 0.190660
Si Si2 0.505928 0.529507 0.156886
Si Si3 0.679704 0.613511 0.146901
Si Si4 0.590456 0.986114 0.107574
Si Si5 0.121900 0.261581 0.813970
Si Si6 0.189366 0.389937 0.115131
Si Si7 0.946012 0.636508 0.607597
Si Si8 0.258924 0.889500 0.764686
O O1 0.424540 0.580041 0.267013
O O2 0.286971 0.572252 0.428948
O O3 0.403259 0.752545 0.127534
O O4 0.460966 0.529528 0.913068
O O5 0.571898 0.426803 0.912276
O O6 0.578498 0.638600 0.996544
O O7 0.694628 0.750240 0.053393
O O8 0.706846 0.610556 0.245759
O O9 0.738988 0.514082 0.902950
O O10 0.655481 0.975272 0.075869
O O11 0.482972 0.011115 0.438709
O O12 0.619318 0.867288 0.939280
O O13 0.613901 0.097663 0.940449
O O14 0.213900 0.218363 0.482764
O O15 0.042139 0.305640 0.913344
O O16 0.868233 0.619346 0.935593
#
# Coordination Sequence:
#
# PCOD9137548 Si02
#       8
#     4   4   4   4   4   4   4   4
#     4  11  23  43  70 102 138 187 239 296 361 425
#     4  10  22  42  70  96 136 184 241 290 356 428
#     4  11  24  44  73 104 141 191 242 305 356 439
#     4  12  26  44  70 102 150 188 242 293 381 427
#     4  10  24  44  70 100 142 193 236 305 366 427
#     4  12  26  44  70 104 147 189 239 300 371 435
#     4  11  24  46  71 102 147 197 234 305 363 442
#     4  11  25  45  74 104 149 187 253 298 372 429
#
# _framework density 22.028357
#
# number of rings (size 3 to 8) (size 9 to 14) (size 15 to 20)
#    0.000    1.000    2.500    4.500    7.000    2.000 
#    2.250    1.250    0.000    0.000    0.000    0.000 
#    0.000    0.000    0.000    0.000    0.000    0.000 
#
# Total GULP energy -89336.757731 kJ/mol
# GULP energy per Si atom -5583.547358 kJ/mol
# Density = 2.197822 g / cm^3
# Si number density = 22.028357 Si / 1000 Ang^3
#
#
#
# Elastic Constant Matrix: (Units=GPa)
#
#
# Indices 1 2 3 4 5 6 
#
# 1 59.0925 10.3758 12.0594 0.0000 7.9258 0.0000
# 2 10.3758 83.9333 43.0743 0.0000 12.5791 0.0000
# 3 12.0594 43.0743 146.1268 0.0000 5.8186 0.0000
# 4 0.0000 0.0000 0.0000 39.4325 0.0000 10.1159
# 5 7.9258 12.5791 5.8186 0.0000 28.4583 0.0000
# 6 0.0000 0.0000 0.0000 10.1159 0.0000 32.7201
#
#
#
# Elastic Compliance Matrix: (Units=1/GPa)
#
#
# Indices 1 2 3 4 5 6 
#
# 1 0.017889 -0.001055 -0.000994 0.000000 -0.004313 0.000000
# 2 -0.001055 0.014975 -0.004109 0.000000 -0.005485 0.000000
# 3 -0.000994 -0.004109 0.008119 0.000000 0.000433 0.000000
# 4 0.000000 0.000000 0.000000 0.027544 0.000000 -0.008516
# 5 -0.004313 -0.005485 0.000433 0.000000 0.038676 0.000000
# 6 0.000000 0.000000 0.000000 -0.008516 0.000000 0.033195
#
#
# Mechanical properties :
#
#
# Convention : Reuss Voigt Hill
#
# Bulk Modulus (GPa) = 34.88138 46.68574 40.78356
# Shear Modulus (GPa) = 30.81264 35.03172 32.92218
#
# Velocity S-wave (km/s) = 3.74407 3.99218 3.87012
# Velocity P-wave (km/s) = 5.87877 6.51840 6.20683
#
# Compressibility (1/GPa) = 0.02866859
#
# Stress axis : x y z
#
# Youngs Moduli (GPa) = 55.89998 66.77612 123.16308
#
# Poissons Ratio (x) = 0.07046 0.12237
# Poissons Ratio (y) = 0.05899 0.50606
# Poissons Ratio (z) = 0.05554 0.27437
#
# Static dielectric constant tensor:
#      x y z
#    x 1.806990 0.000000 0.000890 
#    y 0.000000 1.868940 0.000000 
#    z 0.000890 0.000000 1.807220 
# 
# From -- ./inp_files/10749.got.cif
#   From: 2010.05.17/outbox.cif.g08.bks.cpg/sg9_6_cif.got.tgz:10749.got - 2010.06.03 20:04:27.
