data_PCOD9137362
_publ_section_title
;
Structure prediction by ZEFSAII (Michael W. Deem and Ramdas Pophale) SiO2 
 PCOD9137362
Probable space group: C C
;
_chemical_formula_sum "Si O2"
_cell_formula_units_Z 32
_cell_length_a 18.297335
_cell_length_b 8.915532
_cell_length_c 14.799313
_cell_angle_alpha 90.000000
_cell_angle_beta 38.757582
_cell_angle_gamma 90.000000
_cell_volume 1511.365461
_symmetry_space_group_name_H-M "C C"
_symmetry_group_IT_number 9
_symmetry_cell_setting 'monoclinic'
loop_
_space_group_symop_operation_xyz
x,y,z
x,-y,1/2+z
1/2+x,1/2+y,z
1/2+x,1/2-y,1/2+z
loop_
_atom_site_type_symbol
_atom_site_label
_atom_site_fract_x
_atom_site_fract_y
_atom_site_fract_z
Si Si1 0.750000 0.685688 0.105620
Si Si2 0.849888 0.848512 0.867963
Si Si3 0.513644 0.517682 0.356493
Si Si4 0.697463 0.940203 0.284973
Si Si5 0.454259 0.025564 0.466324
Si Si6 0.004449 0.284620 0.749362
Si Si7 0.386852 0.664515 0.125708
Si Si8 0.756750 0.175383 0.916015
O O1 0.639500 0.588956 0.240441
O O2 0.729600 0.851566 0.164236
O O3 0.769813 0.711650 0.979511
O O4 0.857800 0.598949 0.044594
O O5 0.904673 0.825343 0.716107
O O6 0.782073 0.006118 0.926054
O O7 0.941361 0.870277 0.861363
O O8 0.514751 0.364042 0.299778
O O9 0.461828 0.465993 0.503078
O O10 0.747785 0.840831 0.317329
O O11 0.559980 0.960423 0.422260
O O12 0.756100 0.103564 0.234172
O O13 0.500760 0.076959 0.322736
O O14 0.407181 0.176469 0.559129
O O15 0.126074 0.284047 0.576208
O O16 0.874006 0.269525 0.829874
#
# Coordination Sequence:
#
# PCOD9137362 Si02
#       8
#     4   4   4   4   4   4   4   4
#     4  12  24  41  67 102 137 180 229 296 355 421
#     4  10  22  43  67  98 134 185 229 293 357 420
#     4  10  22  41  67  94 141 176 233 289 359 415
#     4  11  25  42  68  97 143 176 228 296 358 417
#     4  11  26  41  71  96 138 186 234 282 359 428
#     4  10  22  42  68  97 133 186 238 287 353 434
#     4  10  24  45  69  97 136 187 238 282 351 430
#     4  10  23  41  69  97 138 180 235 293 356 427
#
# _framework density 21.172906000000001
#
# number of rings (size 3 to 8) (size 9 to 14) (size 15 to 20)
#    0.000    1.500    1.250    2.250    8.750    5.000 
#    2.250    0.000    0.000    0.000    0.000    0.000 
#    0.000    0.000    0.000    0.000    0.000    0.000 
#
# Total GULP energy -89266.850620 kJ/mol
# GULP energy per Si atom -5579.178164 kJ/mol
# Density = 2.112472 g / cm^3
# Si number density = 21.172906 Si / 1000 Ang^3
#
#
#
# Elastic Constant Matrix: (Units=GPa)
#
#
# Indices 1 2 3 4 5 6 
#
# 1 91.1254 20.5391 48.0368 0.0000 -3.0933 0.0000
# 2 20.5391 47.6250 18.8984 0.0000 3.4570 0.0000
# 3 48.0368 18.8984 118.2997 0.0000 7.0770 0.0000
# 4 0.0000 0.0000 0.0000 36.2602 0.0000 -1.8603
# 5 -3.0933 3.4570 7.0770 0.0000 38.2035 0.0000
# 6 0.0000 0.0000 0.0000 -1.8603 0.0000 11.3191
#
#
#
# Elastic Compliance Matrix: (Units=1/GPa)
#
#
# Indices 1 2 3 4 5 6 
#
# 1 0.014984 -0.004459 -0.005530 0.000000 0.002641 0.000000
# 2 -0.004459 0.023818 -0.001864 0.000000 -0.002171 0.000000
# 3 -0.005530 -0.001864 0.011137 0.000000 -0.002342 0.000000
# 4 0.000000 0.000000 0.000000 0.027813 0.000000 0.004571
# 5 0.002641 -0.002171 -0.002342 0.000000 0.027020 0.000000
# 6 0.000000 0.000000 0.000000 0.004571 0.000000 0.089097
#
#
# Mechanical properties :
#
#
# Convention : Reuss Voigt Hill
#
# Bulk Modulus (GPa) = 38.12270 47.99985 43.06128
# Shear Modulus (GPa) = 22.09271 28.46162 25.27717
#
# Velocity S-wave (km/s) = 3.23374 3.67038 3.45895
# Velocity P-wave (km/s) = 5.65573 6.37823 6.02782
#
# Compressibility (1/GPa) = 0.02623109
#
# Stress axis : x y z
#
# Youngs Moduli (GPa) = 66.73901 41.98519 89.79468
#
# Poissons Ratio (x) = 0.18723 0.49656
# Poissons Ratio (y) = 0.29761 0.16740
# Poissons Ratio (z) = 0.36906 0.07827
#
# Static dielectric constant tensor:
#      x y z
#    x 1.771190 0.000000 -0.000930 
#    y 0.000000 1.760010 0.000000 
#    z -0.000930 0.000000 1.821370 
# 
# From -- ./inp_files/20053.got.cif
#   From: 2010.05.17/outbox.cif.g08.bks.cpg/sg9_11_cif.got.tgz:20053.got - 2010.06.03 20:04:27.
