data_PCOD9137347
_publ_section_title
;
Structure prediction by ZEFSAII (Michael W. Deem and Ramdas Pophale) SiO2 
 PCOD9137347
Probable space group: C C
;
_chemical_formula_sum "Si O2"
_cell_formula_units_Z 24
_cell_length_a 7.402829
_cell_length_b 24.715081
_cell_length_c 7.667519
_cell_angle_alpha 90.000000
_cell_angle_beta 45.636030
_cell_angle_gamma 90.000000
_cell_volume 1002.922829
_symmetry_space_group_name_H-M "C C"
_symmetry_group_IT_number 9
_symmetry_cell_setting 'monoclinic'
loop_
_space_group_symop_operation_xyz
x,y,z
x,-y,1/2+z
1/2+x,1/2+y,z
1/2+x,1/2-y,1/2+z
loop_
_atom_site_type_symbol
_atom_site_label
_atom_site_fract_x
_atom_site_fract_y
_atom_site_fract_z
Si Si1 0.220370 0.568746 0.562680
Si Si2 0.517487 0.636856 0.811658
Si Si3 0.730084 0.599163 0.309450
Si Si4 0.880054 0.274002 0.203862
Si Si5 0.165352 0.550778 0.217697
Si Si6 0.072501 0.327152 0.397297
O O1 0.519041 0.577119 0.323982
O O2 0.081788 0.563420 0.471441
O O3 0.216772 0.512626 0.669278
O O4 0.127508 0.619776 0.738067
O O5 0.604989 0.605873 0.581251
O O6 0.746197 0.670389 0.736785
O O7 0.301358 0.677392 0.879607
O O8 0.388548 0.593226 0.024300
O O9 0.968352 0.562824 0.195278
O O10 0.828498 0.656236 0.173088
O O11 0.620796 0.238563 0.413715
O O12 0.010858 0.280196 0.304907
#
# Coordination Sequence:
#
# PCOD9137347 Si02
#       6
#     4   4   4   4   4   4
#     4  11  23  39  66 100 137 181 230 282 355 427
#     4  10  24  44  70  97 138 182 229 301 352 422
#     4  10  22  41  66  92 134 180 225 282 362 408
#     4  12  30  47  74 108 140 192 247 296 368 422
#     4  11  23  39  66 100 137 181 230 282 355 427
#     4  10  24  44  70  97 138 182 229 301 352 422
#
# _framework density 23.930056
#
# number of rings (size 3 to 8) (size 9 to 14) (size 15 to 20)
#    0.000    1.333    0.000    5.000   11.667    8.000 
#    0.000    0.000    0.000    0.000    0.000    0.000 
#    0.000    0.000    0.000    0.000    0.000    0.000 
#
# Total GULP energy -66981.711089 kJ/mol
# GULP energy per Si atom -5581.809257 kJ/mol
# Density = 2.387559 g / cm^3
# Si number density = 23.930056 Si / 1000 Ang^3
#
#
#
# Elastic Constant Matrix: (Units=GPa)
#
#
# Indices 1 2 3 4 5 6 
#
# 1 102.2952 23.3502 18.8006 0.0000 -0.6092 0.0000
# 2 23.3502 50.3920 19.6552 0.0000 -18.7469 0.0000
# 3 18.8006 19.6552 68.2692 0.0000 4.7856 0.0000
# 4 0.0000 0.0000 0.0000 30.6778 0.0000 13.0642
# 5 -0.6092 -18.7469 4.7856 0.0000 33.8020 0.0000
# 6 0.0000 0.0000 0.0000 13.0642 0.0000 24.4168
#
#
#
# Elastic Compliance Matrix: (Units=1/GPa)
#
#
# Indices 1 2 3 4 5 6 
#
# 1 0.011315 -0.005818 -0.001241 0.000000 -0.002847 0.000000
# 2 -0.005818 0.033637 -0.009476 0.000000 0.019892 0.000000
# 3 -0.001241 -0.009476 0.018269 0.000000 -0.007865 0.000000
# 4 0.000000 0.000000 0.000000 0.042216 0.000000 -0.022588
# 5 -0.002847 0.019892 -0.007865 0.000000 0.041679 0.000000
# 6 0.000000 0.000000 0.000000 -0.022588 0.000000 0.053041
#
#
# Mechanical properties :
#
#
# Convention : Reuss Voigt Hill
#
# Bulk Modulus (GPa) = 33.16809 38.28537 35.72673
# Shear Modulus (GPa) = 20.55264 28.38934 24.47099
#
# Velocity S-wave (km/s) = 2.93382 3.44807 3.20129
# Velocity P-wave (km/s) = 5.03656 5.64676 5.35036
#
# Compressibility (1/GPa) = 0.03014946
#
# Stress axis : x y z
#
# Youngs Moduli (GPa) = 88.37950 29.72936 54.73635
#
# Poissons Ratio (x) = 0.17296 0.06795
# Poissons Ratio (y) = 0.51418 0.51871
# Poissons Ratio (z) = 0.10971 0.28173
#
# Static dielectric constant tensor:
#      x y z
#    x 1.959020 0.000000 -0.074970 
#    y 0.000000 1.910520 0.000000 
#    z -0.074970 0.000000 1.936340 
# 
# From -- ./inp_files/5692.got.cif
#   From: 2010.05.17/outbox.cif.g08.bks.cpg/sg9_3_cif.got.tgz:5692.got - 2010.06.03 20:04:27.
