data_PCOD9137080
_publ_section_title
;
Structure prediction by ZEFSAII (Michael W. Deem and Ramdas Pophale) SiO2 
 PCOD9137080
Probable space group: C C
;
_chemical_formula_sum "Si O2"
_cell_formula_units_Z 28
_cell_length_a 13.288712
_cell_length_b 14.044048
_cell_length_c 13.721528
_cell_angle_alpha 90.000000
_cell_angle_beta 31.977361
_cell_angle_gamma 90.000000
_cell_volume 1356.165335
_symmetry_space_group_name_H-M "C C"
_symmetry_group_IT_number 9
_symmetry_cell_setting 'monoclinic'
loop_
_space_group_symop_operation_xyz
x,y,z
x,-y,1/2+z
1/2+x,1/2+y,z
1/2+x,1/2-y,1/2+z
loop_
_atom_site_type_symbol
_atom_site_label
_atom_site_fract_x
_atom_site_fract_y
_atom_site_fract_z
Si Si1 0.853180 0.879917 0.829490
Si Si2 0.034564 0.388434 0.684554
Si Si3 0.076165 0.132813 0.870487
Si Si4 0.283951 0.580785 0.803332
Si Si5 0.293171 0.536131 0.583070
Si Si6 0.639052 0.678042 0.596048
Si Si7 0.460352 0.785720 0.110255
O O1 0.970971 0.792433 0.688114
O O2 0.886360 0.981962 0.752419
O O3 0.858318 0.896435 0.940883
O O4 0.642789 0.850821 0.967491
O O5 0.094409 0.413861 0.525067
O O6 0.125605 0.470304 0.676870
O O7 0.152174 0.290881 0.601824
O O8 0.819268 0.365949 0.891747
O O9 0.116583 0.136930 0.722621
O O10 0.275120 0.148330 0.762712
O O11 0.960732 0.036110 0.977002
O O12 0.959653 0.222040 0.012136
O O13 0.234779 0.585633 0.730708
O O14 0.443347 0.658449 0.699181
#
# Coordination Sequence:
#
# PCOD9137080 Si02
#       7
#     4   4   4   4   4   4   4
#     4  10  22  44  61  94 128 169 213 271 308 387
#     4  11  23  42  68  93 129 171 214 265 317 388
#     4  11  20  35  68  99 120 167 211 275 314 379
#     4  11  24  43  64  95 137 165 211 273 316 383
#     4  11  23  43  63  93 137 162 214 268 323 374
#     4  12  22  41  68 100 128 166 215 268 327 374
#     4  10  22  38  68  90 129 168 220 256 329 375
#
# _framework density 20.646450000000002
#
# number of rings (size 3 to 8) (size 9 to 14) (size 15 to 20)
#    0.000    1.143    5.714    1.714    4.000    2.286 
#    2.571    0.000    0.000    0.000    0.000    0.000 
#    0.000    0.000    0.000    0.000    0.000    0.000 
#
# Total GULP energy -78134.682916 kJ/mol
# GULP energy per Si atom -5581.048780 kJ/mol
# Density = 2.059946 g / cm^3
# Si number density = 20.646450 Si / 1000 Ang^3
#
#
#
# Elastic Constant Matrix: (Units=GPa)
#
#
# Indices 1 2 3 4 5 6 
#
# 1 86.9576 14.6001 45.8749 -0.0007 39.8121 0.0007
# 2 14.6001 30.0134 8.2345 -0.0003 3.2443 0.0004
# 3 45.8749 8.2345 115.9677 -0.0012 23.7740 0.0015
# 4 -0.0007 -0.0003 -0.0012 20.5488 0.0009 1.7519
# 5 39.8121 3.2443 23.7740 0.0009 42.7886 -0.0010
# 6 0.0007 0.0004 0.0015 1.7519 -0.0010 30.7250
#
#
#
# Elastic Compliance Matrix: (Units=1/GPa)
#
#
# Indices 1 2 3 4 5 6 
#
# 1 0.024418 -0.008394 -0.005119 0.000001 -0.019239 -0.000001
# 2 -0.008394 0.036940 -0.000372 0.000000 0.005216 0.000000
# 3 -0.005119 -0.000372 0.010938 0.000001 -0.001286 0.000000
# 4 0.000001 0.000000 0.000001 0.048902 -0.000003 -0.002788
# 5 -0.019239 0.005216 -0.001286 -0.000003 0.041590 0.000002
# 6 -0.000001 0.000000 0.000000 -0.002788 0.000002 0.032706
#
#
# Mechanical properties :
#
#
# Convention : Reuss Voigt Hill
#
# Bulk Modulus (GPa) = 22.45877 41.15083 31.80480
# Shear Modulus (GPa) = 20.99902 29.76111 25.38006
#
# Velocity S-wave (km/s) = 3.19262 3.80078 3.50990
# Velocity P-wave (km/s) = 4.94893 6.26384 5.64480
#
# Compressibility (1/GPa) = 0.04452604
#
# Stress axis : x y z
#
# Youngs Moduli (GPa) = 40.95342 27.07099 91.42224
#
# Poissons Ratio (x) = 0.22724 0.46802
# Poissons Ratio (y) = 0.34376 0.03398
# Poissons Ratio (z) = 0.20965 0.01006
#
# Static dielectric constant tensor:
#      x y z
#    x 1.717700 0.000000 0.027430 
#    y 0.000000 1.764420 0.000000 
#    z 0.027430 0.000000 1.802820 
# 
# From -- ./inp_files/7194.got.cif
#   From: 2010.05.17/outbox.cif.g08.bks.cpg/sg9_4_cif.got.tgz:7194.got - 2010.06.03 20:04:27.
