data_PCOD9137693
_publ_section_title
;
Structure prediction by ZEFSAII (Michael W. Deem and Ramdas Pophale) SiO2 
 PCOD9137693
Probable space group: C C
;
_chemical_formula_sum "Si O2"
_cell_formula_units_Z 32
_cell_length_a 21.947373
_cell_length_b 8.764086
_cell_length_c 15.762798
_cell_angle_alpha 90.000000
_cell_angle_beta 155.508343
_cell_angle_gamma 90.000000
_cell_volume 1256.928727
_symmetry_space_group_name_H-M "C C"
_symmetry_group_IT_number 9
_symmetry_cell_setting 'monoclinic'
loop_
_space_group_symop_operation_xyz
x,y,z
x,-y,1/2+z
1/2+x,1/2+y,z
1/2+x,1/2-y,1/2+z
loop_
_atom_site_type_symbol
_atom_site_label
_atom_site_fract_x
_atom_site_fract_y
_atom_site_fract_z
Si Si1 0.055430 0.809066 0.794210
Si Si2 0.900461 0.437064 0.009838
Si Si3 0.745385 0.853366 0.230262
Si Si4 0.589159 0.171454 0.014114
Si Si5 0.875350 0.915250 0.062580
Si Si6 0.930884 0.206945 0.807933
Si Si7 0.318299 0.990156 0.590205
Si Si8 0.546970 0.216958 0.137966
O O1 0.120414 0.768737 0.969153
O O2 0.042024 0.656231 0.722646
O O3 0.900697 0.902142 0.585037
O O4 0.169786 0.920373 0.898452
O O5 0.795614 0.304307 0.843040
O O6 0.857381 0.527356 0.040839
O O7 0.943955 0.566185 0.998927
O O8 0.871647 0.864235 0.318705
O O9 0.581448 0.798181 0.001856
O O10 0.704336 0.037217 0.189967
O O11 0.440824 0.091422 0.791854
O O12 0.561954 0.277959 0.061186
O O13 0.944097 0.898319 0.243340
O O14 0.970499 0.823754 0.111690
O O15 0.709956 0.850055 0.863798
O O16 0.809876 0.334569 0.630170
#
# Coordination Sequence:
#
# PCOD9137693 Si02
#       8
#     4   4   4   4   4   4   4   4
#     4  11  26  44  74 110 151 201 255 311 389 459
#     4  11  25  44  76 108 151 200 255 323 372 463
#     4  11  24  44  75 110 151 201 257 317 385 453
#     4  10  26  45  71 111 152 200 252 323 380 453
#     4  12  27  48  77 110 152 205 255 314 389 454
#     4  11  23  45  72 106 147 197 257 310 385 458
#     4  10  22  43  71 105 153 196 251 311 390 447
#     4  12  27  51  78 110 157 198 262 319 382 461
#
# _framework density 25.458881999999999
#
# number of rings (size 3 to 8) (size 9 to 14) (size 15 to 20)
#    0.000    1.000    1.250    4.500   12.250    0.000 
#    2.250    0.000    0.000    0.000    0.000    0.000 
#    0.000    0.000    0.000    0.000    0.000    0.000 
#
# Total GULP energy -89216.878477 kJ/mol
# GULP energy per Si atom -5576.054905 kJ/mol
# Density = 2.540094 g / cm^3
# Si number density = 25.458882 Si / 1000 Ang^3
#
#
#
# Elastic Constant Matrix: (Units=GPa)
#
#
# Indices 1 2 3 4 5 6 
#
# 1 -270.4348 -26.3106 -18.8395 0.0000 -30.5825 0.0000
# 2 -26.3106 74.6496 3.2222 0.0000 0.4809 0.0000
# 3 -18.8395 3.2222 53.0191 0.0000 10.1461 0.0000
# 4 0.0000 0.0000 0.0000 24.5660 0.0000 -12.8667
# 5 -30.5825 0.4809 10.1461 0.0000 19.6182 0.0000
# 6 0.0000 0.0000 0.0000 -12.8667 0.0000 8.9703
#
#
#
# Elastic Compliance Matrix: (Units=1/GPa)
#
#
# Indices 1 2 3 4 5 6 
#
# 1 -0.003059 -0.001042 -0.000129 0.000000 -0.004676 0.000000
# 2 -0.001042 0.013076 -0.000880 0.000000 -0.001490 0.000000
# 3 -0.000129 -0.000880 0.020979 0.000000 -0.011029 0.000000
# 4 0.000000 0.000000 0.000000 0.163660 0.000000 0.234750
# 5 -0.004676 -0.001490 -0.011029 0.000000 0.049424 0.000000
# 6 0.000000 0.000000 0.000000 0.234750 0.000000 0.448200
#
#
# Mechanical properties :
#
#
# Convention : Reuss Voigt Hill
#
# Bulk Modulus (GPa) = 37.18122 -25.18021 6.00050
# Shear Modulus (GPa) = 7.08870 3.90834 5.49852
#
# Velocity S-wave (km/s) = 1.67045 1.24036 1.47121
# Velocity P-wave (km/s) = 4.28447 2.80369 2.29085
#
# Compressibility (1/GPa) = 0.02689530
#
# Stress axis : x y z
#
# Youngs Moduli (GPa) = -326.94747 76.47526 47.66560
#
# Poissons Ratio (x) = 0.07971 0.00613
# Poissons Ratio (y) = -0.34079 0.04194
# Poissons Ratio (z) = -0.04207 0.06729
#
# Static dielectric constant tensor:
#      x y z
#    x 1.974270 0.000000 -0.045450 
#    y 0.000000 2.066760 0.000000 
#    z -0.045450 0.000000 2.345850 
# 
# From -- ./inp_files/27357.got.cif
#   From: 2010.05.17/outbox.cif.g08.bks.cpg/sg9_14_cif.got.tgz:27357.got - 2010.06.03 20:04:27.
