data_PCOD9137379
_publ_section_title
;
Structure prediction by ZEFSAII (Michael W. Deem and Ramdas Pophale) SiO2 
 PCOD9137379
Probable space group: C C
;
_chemical_formula_sum "Si O2"
_cell_formula_units_Z 32
_cell_length_a 10.148045
_cell_length_b 9.196890
_cell_length_c 14.593849
_cell_angle_alpha 90.000000
_cell_angle_beta 73.560126
_cell_angle_gamma 90.000000
_cell_volume 1306.366177
_symmetry_space_group_name_H-M "C C"
_symmetry_group_IT_number 9
_symmetry_cell_setting 'monoclinic'
loop_
_space_group_symop_operation_xyz
x,y,z
x,-y,1/2+z
1/2+x,1/2+y,z
1/2+x,1/2-y,1/2+z
loop_
_atom_site_type_symbol
_atom_site_label
_atom_site_fract_x
_atom_site_fract_y
_atom_site_fract_z
Si Si1 0.679070 0.285794 0.860390
Si Si2 0.507597 0.168142 0.733582
Si Si3 0.122541 0.826286 0.541009
Si Si4 0.407347 0.668458 0.534369
Si Si5 0.203110 0.876748 0.332399
Si Si6 0.208806 0.098287 0.628909
Si Si7 0.979563 0.417776 0.629443
Si Si8 0.763262 0.884497 0.502549
O O1 0.629133 0.227953 0.772439
O O2 0.729672 0.451141 0.845001
O O3 0.778077 0.177556 0.897007
O O4 0.536596 0.296685 0.945014
O O5 0.525217 0.243115 0.630999
O O6 0.354303 0.196871 0.800903
O O7 0.522402 0.994343 0.715558
O O8 0.273481 0.757287 0.527476
O O9 0.108865 0.820612 0.433859
O O10 0.126914 0.992048 0.577111
O O11 0.444837 0.747638 0.623679
O O12 0.363553 0.502506 0.526581
O O13 0.144787 0.868032 0.241014
O O14 0.252175 0.243549 0.568931
O O15 0.344563 0.005109 0.626917
O O16 0.109123 0.450884 0.538576
#
# Coordination Sequence:
#
# PCOD9137379 Si02
#       8
#     4   4   4   4   4   4   4   4
#     4  11  23  41  70 102 141 185 240 302 355 440
#     4  11  22  42  73 103 142 194 243 295 374 433
#     4  11  20  42  73  95 148 187 231 306 357 425
#     4  10  22  43  68 100 140 180 242 297 357 427
#     4  11  23  42  71 105 141 191 247 293 369 435
#     4  10  22  41  69 102 136 188 239 285 365 432
#     4   9  22  41  65  97 134 182 227 296 352 425
#     4  11  22  44  69 102 138 185 237 298 363 427
#
# _framework density 24.495429999999999
#
# number of rings (size 3 to 8) (size 9 to 14) (size 15 to 20)
#    0.000    1.500    5.000    0.000    0.000    2.000 
#    2.250    2.500    5.500    0.000    0.000    0.000 
#    0.000    0.000    0.000    0.000    0.000    0.000 
#
# Total GULP energy -89384.079202 kJ/mol
# GULP energy per Si atom -5586.504950 kJ/mol
# Density = 2.443968 g / cm^3
# Si number density = 24.495430 Si / 1000 Ang^3
#
#
#
# Elastic Constant Matrix: (Units=GPa)
#
#
# Indices 1 2 3 4 5 6 
#
# 1 76.0414 26.5400 41.9117 0.0000 4.6551 0.0000
# 2 26.5400 136.3028 43.4119 0.0000 4.7245 0.0000
# 3 41.9117 43.4119 152.6269 0.0000 12.8678 0.0000
# 4 0.0000 0.0000 0.0000 37.9402 0.0000 3.8888
# 5 4.6551 4.7245 12.8678 0.0000 36.3054 0.0000
# 6 0.0000 0.0000 0.0000 3.8888 0.0000 44.0993
#
#
#
# Elastic Compliance Matrix: (Units=1/GPa)
#
#
# Indices 1 2 3 4 5 6 
#
# 1 0.015929 -0.001875 -0.003803 0.000000 -0.000451 0.000000
# 2 -0.001875 0.008290 -0.001827 0.000000 -0.000191 0.000000
# 3 -0.003803 -0.001827 0.008303 0.000000 -0.002217 0.000000
# 4 0.000000 0.000000 0.000000 0.026598 0.000000 -0.002345
# 5 -0.000451 -0.000191 -0.002217 0.000000 0.028413 0.000000
# 6 0.000000 0.000000 0.000000 -0.002345 0.000000 0.022883
#
#
# Mechanical properties :
#
#
# Convention : Reuss Voigt Hill
#
# Bulk Modulus (GPa) = 57.10255 65.41092 61.25673
# Shear Modulus (GPa) = 38.09189 40.54282 39.31736
#
# Velocity S-wave (km/s) = 3.94770 4.07273 4.01070
# Velocity P-wave (km/s) = 6.64389 6.99124 6.81978
#
# Compressibility (1/GPa) = 0.01751235
#
# Stress axis : x y z
#
# Youngs Moduli (GPa) = 62.78009 120.62466 120.44105
#
# Poissons Ratio (x) = 0.22614 0.45802
# Poissons Ratio (y) = 0.11770 0.22006
# Poissons Ratio (z) = 0.23874 0.22039
#
# Static dielectric constant tensor:
#      x y z
#    x 1.988580 0.000000 0.015970 
#    y 0.000000 1.986890 0.000000 
#    z 0.015970 0.000000 1.974030 
# 
# From -- ./inp_files/24188.got.cif
#   From: 2010.05.17/outbox.cif.g08.bks.cpg/sg9_13_cif.got.tgz:24188.got - 2010.06.03 20:04:27.
