data_PCOD9137705
_publ_section_title
;
Structure prediction by ZEFSAII (Michael W. Deem and Ramdas Pophale) SiO2 
 PCOD9137705
Probable space group: C C
;
_chemical_formula_sum "Si O2"
_cell_formula_units_Z 28
_cell_length_a 21.245622
_cell_length_b 9.832265
_cell_length_c 14.643858
_cell_angle_alpha 90.000000
_cell_angle_beta 20.123786
_cell_angle_gamma 90.000000
_cell_volume 1052.445211
_symmetry_space_group_name_H-M "C C"
_symmetry_group_IT_number 9
_symmetry_cell_setting 'monoclinic'
loop_
_space_group_symop_operation_xyz
x,y,z
x,-y,1/2+z
1/2+x,1/2+y,z
1/2+x,1/2-y,1/2+z
loop_
_atom_site_type_symbol
_atom_site_label
_atom_site_fract_x
_atom_site_fract_y
_atom_site_fract_z
Si Si1 0.344860 0.551361 0.542360
Si Si2 0.626480 0.095755 0.499883
Si Si3 0.079496 0.787467 0.841711
Si Si4 0.490127 0.912203 0.844648
Si Si5 0.316059 0.884140 0.275604
Si Si6 0.685456 0.353547 0.885188
Si Si7 0.823333 0.222375 0.954470
O O1 0.226139 0.665239 0.649867
O O2 0.534734 0.624472 0.312939
O O3 0.341314 0.415308 0.488082
O O4 0.250688 0.503217 0.766986
O O5 0.443258 0.117787 0.690590
O O6 0.728642 0.238262 0.375244
O O7 0.570899 0.032502 0.673406
O O8 0.149874 0.884858 0.826925
O O9 0.879778 0.719533 0.130421
O O10 0.648796 0.796675 0.629547
O O11 0.315395 0.848197 0.032707
O O12 0.443008 0.924341 0.014727
O O13 0.180882 0.011676 0.451937
O O14 0.509810 0.260604 0.144800
#
# Coordination Sequence:
#
# PCOD9137705 Si02
#       7
#     4   4   4   4   4   4   4
#     4  11  22  46  71 111 151 196 266 322 384 480
#     4  12  27  49  79 112 160 205 265 332 394 477
#     4  10  22  43  72  98 148 199 250 322 391 453
#     4  12  26  50  82 109 154 212 259 329 400 475
#     4  12  27  52  73 115 158 202 267 332 398 473
#     4  11  23  44  67 105 145 193 255 320 384 469
#     4  12  25  44  76 112 146 201 270 311 401 473
#
# _framework density 26.604707999999999
#
# number of rings (size 3 to 8) (size 9 to 14) (size 15 to 20)
#    0.000    0.571    4.286    3.429    6.000    1.143 
#    7.714    0.000    0.000    0.000    0.000    0.000 
#    0.000    0.000    0.000    0.000    0.000    0.000 
#
# Total GULP energy -78451.013192 kJ/mol
# GULP energy per Si atom -5603.643799 kJ/mol
# Density = 2.654415 g / cm^3
# Si number density = 26.604708 Si / 1000 Ang^3
#
#
#
# Elastic Constant Matrix: (Units=GPa)
#
#
# Indices 1 2 3 4 5 6 
#
# 1 151.5469 41.2411 37.5875 0.0000 -32.1396 0.0000
# 2 41.2411 129.6528 20.9746 0.0000 -18.4705 0.0000
# 3 37.5875 20.9746 73.7949 0.0001 -3.8550 0.0000
# 4 0.0000 0.0000 0.0001 43.7123 0.0000 -1.7809
# 5 -32.1396 -18.4705 -3.8550 0.0000 39.9442 0.0000
# 6 0.0000 0.0000 0.0000 -1.7809 0.0000 62.2291
#
#
#
# Elastic Compliance Matrix: (Units=1/GPa)
#
#
# Indices 1 2 3 4 5 6 
#
# 1 0.009355 -0.001399 -0.004028 0.000000 0.006491 0.000000
# 2 -0.001399 0.008823 -0.001649 0.000000 0.002795 0.000000
# 3 -0.004028 -0.001649 0.015943 0.000000 -0.002465 0.000000
# 4 0.000000 0.000000 0.000000 0.022904 0.000000 0.000655
# 5 0.006491 0.002795 -0.002465 0.000000 0.031312 0.000000
# 6 0.000000 0.000000 0.000000 0.000655 0.000000 0.016088
#
#
# Mechanical properties :
#
#
# Convention : Reuss Voigt Hill
#
# Bulk Modulus (GPa) = 50.08062 61.62233 55.85147
# Shear Modulus (GPa) = 39.92513 46.18988 43.05751
#
# Velocity S-wave (km/s) = 3.87806 4.17124 4.02732
# Velocity P-wave (km/s) = 6.23838 6.81260 6.53180
#
# Compressibility (1/GPa) = 0.01996780
#
# Stress axis : x y z
#
# Youngs Moduli (GPa) = 106.89210 113.34107 62.72428
#
# Poissons Ratio (x) = 0.15860 0.25267
# Poissons Ratio (y) = 0.14958 0.10343
# Poissons Ratio (z) = 0.43059 0.18690
#
# Static dielectric constant tensor:
#      x y z
#    x 2.082240 0.000000 0.083890 
#    y 0.000000 2.074360 0.000000 
#    z 0.083890 0.000000 2.179200 
# 
# From -- ./inp_files/11552.got.cif
#   From: 2010.05.17/outbox.cif.g08.bks.cpg/sg9_6_cif.got.tgz:11552.got - 2010.06.03 20:04:27.
