data_PCOD9137972
_publ_section_title
;
Structure prediction by ZEFSAII (Michael W. Deem and Ramdas Pophale) SiO2 
 PCOD9137972
Probable space group: C C
;
_chemical_formula_sum "Si O2"
_cell_formula_units_Z 32
_cell_length_a 17.253722
_cell_length_b 11.718631
_cell_length_c 11.534913
_cell_angle_alpha 90.000000
_cell_angle_beta 30.118256
_cell_angle_gamma 90.000000
_cell_volume 1170.288295
_symmetry_space_group_name_H-M "C C"
_symmetry_group_IT_number 9
_symmetry_cell_setting 'monoclinic'
loop_
_space_group_symop_operation_xyz
x,y,z
x,-y,1/2+z
1/2+x,1/2+y,z
1/2+x,1/2-y,1/2+z
loop_
_atom_site_type_symbol
_atom_site_label
_atom_site_fract_x
_atom_site_fract_y
_atom_site_fract_z
Si Si1 0.382110 0.243707 0.746590
Si Si2 0.558317 0.000599 0.696046
Si Si3 0.189786 0.232932 0.791271
Si Si4 0.729110 0.482229 0.672968
Si Si5 0.241729 0.357055 0.139866
Si Si6 0.451692 0.247975 0.298891
Si Si7 0.255103 0.821676 0.832454
Si Si8 0.880155 0.990866 0.631015
O O1 0.241823 0.197628 0.853496
O O2 0.543899 0.187646 0.504753
O O3 0.417319 0.368950 0.642209
O O4 0.339618 0.275250 0.929928
O O5 0.525389 0.865988 0.762271
O O6 0.714429 0.991152 0.415459
O O7 0.607540 0.091286 0.731901
O O8 0.378643 0.037044 0.893855
O O9 0.201702 0.116821 0.703927
O O10 0.323842 0.297681 0.549699
O O11 0.793515 0.434371 0.711203
O O12 0.548715 0.441758 0.912499
O O13 0.224116 0.277899 0.276651
O O14 0.329358 0.468089 0.070216
O O15 0.377784 0.216582 0.270033
O O16 0.590086 0.335818 0.106358
#
# Coordination Sequence:
#
# PCOD9137972 Si02
#       8
#     4   4   4   4   4   4   4   4
#     4  10  24  45  68  99 140 192 242 304 374 450
#     4  10  23  47  67 104 153 199 242 311 384 456
#     4  10  23  49  63 104 142 200 245 301 373 459
#     4  10  24  44  70 105 154 190 254 312 382 445
#     4  11  24  45  74 107 145 193 250 316 388 449
#     4  11  24  43  73 103 152 194 254 307 380 456
#     4  12  24  43  73 116 144 198 253 323 380 456
#     4  10  22  46  68 102 144 190 248 304 379 457
#
# _framework density 27.343689999999999
#
# number of rings (size 3 to 8) (size 9 to 14) (size 15 to 20)
#    0.000    1.500    1.250    2.250    0.000    7.000 
#   31.500    0.000    0.000    0.000    0.000    0.000 
#    0.000    0.000    0.000    0.000    0.000    0.000 
#
# Total GULP energy -89074.332770 kJ/mol
# GULP energy per Si atom -5567.145798 kJ/mol
# Density = 2.728145 g / cm^3
# Si number density = 27.343690 Si / 1000 Ang^3
#
#
#
# Elastic Constant Matrix: (Units=GPa)
#
#
# Indices 1 2 3 4 5 6 
#
# 1 116.9440 -6.5276 51.7603 0.0000 5.4443 0.0000
# 2 -6.5276 65.8397 6.2315 0.0000 5.8607 0.0000
# 3 51.7603 6.2315 188.1288 0.0000 -24.8442 0.0000
# 4 0.0000 0.0000 0.0000 8.2001 0.0000 14.5772
# 5 5.4443 5.8607 -24.8442 0.0000 39.6841 0.0000
# 6 0.0000 0.0000 0.0000 14.5772 0.0000 16.9854
#
#
#
# Elastic Compliance Matrix: (Units=1/GPa)
#
#
# Indices 1 2 3 4 5 6 
#
# 1 0.010325 0.001683 -0.003397 0.000000 -0.003792 0.000000
# 2 0.001683 0.015801 -0.001444 0.000000 -0.003469 0.000000
# 3 -0.003397 -0.001444 0.006963 0.000000 0.005039 0.000000
# 4 0.000000 0.000000 0.000000 -0.232005 0.000000 0.199111
# 5 -0.003792 -0.003469 0.005039 0.000000 0.029386 0.000000
# 6 0.000000 0.000000 0.000000 0.199111 0.000000 -0.112007
#
#
# Mechanical properties :
#
#
# Convention : Reuss Voigt Hill
#
# Bulk Modulus (GPa) = 37.35313 52.64897 45.00105
# Shear Modulus (GPa) = -18.77622 34.27046 7.74712
#
# Velocity S-wave (km/s) = -2.62329 3.54407 1.68505
# Velocity P-wave (km/s) = 2.12479 6.00363 4.50324
#
# Compressibility (1/GPa) = 0.02677152
#
# Stress axis : x y z
#
# Youngs Moduli (GPa) = 96.85005 63.28827 143.60595
#
# Poissons Ratio (x) = -0.10650 0.48787
# Poissons Ratio (y) = -0.16298 0.20743
# Poissons Ratio (z) = 0.32903 0.09142
#
# Static dielectric constant tensor:
#      x y z
#    x 2.276560 0.000000 -0.182310 
#    y 0.000000 2.251590 0.000000 
#    z -0.182310 0.000000 2.386370 
# 
# From -- ./inp_files/19383.got.cif
#   From: 2010.05.17/outbox.cif.g08.bks.cpg/sg9_10_cif.got.tgz:19383.got - 2010.06.03 20:04:27.
