data_PCOD9137042
_publ_section_title
;
Structure prediction by ZEFSAII (Michael W. Deem and Ramdas Pophale) SiO2 
 PCOD9137042
Probable space group: C C
;
_chemical_formula_sum "Si O2"
_cell_formula_units_Z 28
_cell_length_a 5.016306
_cell_length_b 23.753731
_cell_length_c 8.726778
_cell_angle_alpha 90.000000
_cell_angle_beta 88.171721
_cell_angle_gamma 90.000000
_cell_volume 1039.318464
_symmetry_space_group_name_H-M "C C"
_symmetry_group_IT_number 9
_symmetry_cell_setting 'monoclinic'
loop_
_space_group_symop_operation_xyz
x,y,z
x,-y,1/2+z
1/2+x,1/2+y,z
1/2+x,1/2-y,1/2+z
loop_
_atom_site_type_symbol
_atom_site_label
_atom_site_fract_x
_atom_site_fract_y
_atom_site_fract_z
Si Si1 0.801950 0.801004 0.184610
Si Si2 0.005617 0.685136 0.377251
Si Si3 0.817065 0.238137 0.122147
Si Si4 0.719051 0.542129 0.079145
Si Si5 0.344795 0.075784 0.493802
Si Si6 0.726058 0.022652 0.289426
Si Si7 0.517042 0.097677 0.822859
O O1 0.608989 0.745732 0.188253
O O2 0.689652 0.846492 0.304635
O O3 0.113336 0.788032 0.176675
O O4 0.718372 0.823134 0.013988
O O5 0.159660 0.688585 0.212242
O O6 0.808593 0.632004 0.394904
O O7 0.875279 0.744196 0.444842
O O8 0.687859 0.483365 0.984083
O O9 0.812433 0.591424 0.965968
O O10 0.966240 0.531536 0.187027
O O11 0.463219 0.547604 0.187521
O O12 0.644460 0.056301 0.442198
O O13 0.345234 0.091851 0.671121
O O14 0.716717 0.956126 0.325482
#
# Coordination Sequence:
#
# PCOD9137042 Si02
#       7
#     4   4   4   4   4   4   4
#     4   9  22  38  62  85 112 156 193 239 293 353
#     4   9  22  42  61  88 114 159 193 249 292 355
#     4  10  22  39  62  86 116 149 203 242 297 339
#     4  10  22  39  58  91 123 157 196 242 288 350
#     4   9  20  41  61  89 120 163 194 240 298 357
#     4  10  22  38  59  90 125 153 196 246 288 346
#     4   9  20  39  63  85 120 161 199 234 294 364
#
# _framework density 26.940731
#
# number of rings (size 3 to 8) (size 9 to 14) (size 15 to 20)
#    0.857    1.714    0.000    0.000    4.000   11.429 
#    7.714    0.000    0.000    0.000    0.000    0.000 
#    0.000    0.000    0.000    0.000    0.000    0.000 
#
# Total GULP energy -78142.559458 kJ/mol
# GULP energy per Si atom -5581.611390 kJ/mol
# Density = 2.687941 g / cm^3
# Si number density = 26.940731 Si / 1000 Ang^3
#
#
#
# Elastic Constant Matrix: (Units=GPa)
#
#
# Indices 1 2 3 4 5 6 
#
# 1 89.5653 -11.8852 28.4973 0.0000 -29.2555 0.0000
# 2 -11.8852 67.5078 -16.6206 0.0000 0.4047 0.0000
# 3 28.4973 -16.6206 90.2084 0.0000 -27.8667 0.0000
# 4 0.0000 0.0000 0.0000 44.3613 0.0000 -6.5039
# 5 -29.2555 0.4047 -27.8667 0.0000 46.9581 0.0000
# 6 0.0000 0.0000 0.0000 -6.5039 0.0000 26.6697
#
#
#
# Elastic Compliance Matrix: (Units=1/GPa)
#
#
# Indices 1 2 3 4 5 6 
#
# 1 0.014632 0.002098 -0.001745 0.000000 0.008062 0.000000
# 2 0.002098 0.015960 0.003231 0.000000 0.003087 0.000000
# 3 -0.001745 0.003231 0.014556 0.000000 0.007523 0.000000
# 4 0.000000 0.000000 0.000000 0.023378 0.000000 0.005701
# 5 0.008062 0.003087 0.007523 0.000000 0.030756 0.000000
# 6 0.000000 0.000000 0.000000 0.005701 0.000000 0.038886
#
#
# Mechanical properties :
#
#
# Convention : Reuss Voigt Hill
#
# Bulk Modulus (GPa) = 19.11453 27.47383 23.29418
# Shear Modulus (GPa) = 33.68395 40.08381 36.88388
#
# Velocity S-wave (km/s) = 3.53979 3.86145 3.70412
# Velocity P-wave (km/s) = 4.88029 5.48645 5.19222
#
# Compressibility (1/GPa) = 0.05231623
#
# Stress axis : x y z
#
# Youngs Moduli (GPa) = 68.34238 62.65840 68.69967
#
# Poissons Ratio (x) = -0.13146 0.11990
# Poissons Ratio (y) = -0.14339 -0.22200
# Poissons Ratio (z) = 0.11928 -0.20247
#
# Static dielectric constant tensor:
#      x y z
#    x 2.085140 0.000000 0.096270 
#    y 0.000000 2.204060 0.000000 
#    z 0.096270 0.000000 2.144950 
# 
# From -- ./inp_files/13832.got.cif
#   From: 2010.05.17/outbox.cif.g08.bks.cpg/sg9_7_cif.got.tgz:13832.got - 2010.06.03 20:04:27.
