data_PCOD9137809
_publ_section_title
;
Structure prediction by ZEFSAII (Michael W. Deem and Ramdas Pophale) SiO2 
 PCOD9137809
Probable space group: C C
;
_chemical_formula_sum "Si O2"
_cell_formula_units_Z 28
_cell_length_a 13.976149
_cell_length_b 5.840788
_cell_length_c 14.831584
_cell_angle_alpha 90.000000
_cell_angle_beta 68.285148
_cell_angle_gamma 90.000000
_cell_volume 1124.810520
_symmetry_space_group_name_H-M "C C"
_symmetry_group_IT_number 9
_symmetry_cell_setting 'monoclinic'
loop_
_space_group_symop_operation_xyz
x,y,z
x,-y,1/2+z
1/2+x,1/2+y,z
1/2+x,1/2-y,1/2+z
loop_
_atom_site_type_symbol
_atom_site_label
_atom_site_fract_x
_atom_site_fract_y
_atom_site_fract_z
Si Si1 0.932540 0.009752 0.920640
Si Si2 0.616066 0.336142 0.464234
Si Si3 0.464561 0.018269 0.831252
Si Si4 0.694128 0.970337 0.336102
Si Si5 0.950586 0.485280 0.123111
Si Si6 0.633122 0.256137 0.043635
Si Si7 0.787638 0.876192 0.632697
O O1 0.922489 0.262002 0.874453
O O2 0.049374 0.019854 0.916681
O O3 0.918198 0.761283 0.881197
O O4 0.857568 0.015733 0.031558
O O5 0.534625 0.162326 0.536884
O O6 0.657532 0.477350 0.532936
O O7 0.704039 0.221957 0.375756
O O8 0.580926 0.027576 0.830462
O O9 0.459110 0.037521 0.726411
O O10 0.688036 0.826580 0.431100
O O11 0.774484 0.966355 0.226239
O O12 0.842002 0.370497 0.134280
O O13 0.008933 0.726604 0.084630
O O14 0.679753 0.153936 0.117959
#
# Coordination Sequence:
#
# PCOD9137809 Si02
#       7
#     4   4   4   4   4   4   4
#     4  10  24  44  69 106 146 193 246 311 376 459
#     4   9  21  41  69  98 142 191 240 308 375 459
#     4  11  22  46  75 101 148 200 245 309 393 454
#     4  10  22  44  70 107 140 194 258 311 391 457
#     4  10  24  42  69 103 148 193 250 311 387 457
#     4  11  22  46  71 102 148 197 250 320 387 459
#     4  11  25  45  69 113 144 198 263 320 379 475
#
# _framework density 24.893080000000001
#
# number of rings (size 3 to 8) (size 9 to 14) (size 15 to 20)
#    0.000    1.714    2.857    0.857    4.000    1.143 
#    5.143    0.000    0.000    0.000    0.000    0.000 
#    0.000    0.000    0.000    0.000    0.000    0.000 
#
# Total GULP energy -77972.266740 kJ/mol
# GULP energy per Si atom -5569.447624 kJ/mol
# Density = 2.483642 g / cm^3
# Si number density = 24.893080 Si / 1000 Ang^3
#
#
#
# Elastic Constant Matrix: (Units=GPa)
#
#
# Indices 1 2 3 4 5 6 
#
# 1 104.7661 23.9378 29.8123 0.0000 5.8473 0.0000
# 2 23.9378 90.9668 34.8202 -0.0001 3.7207 0.0000
# 3 29.8123 34.8202 137.4655 0.0000 8.5012 0.0000
# 4 0.0000 -0.0001 0.0000 19.0350 0.0000 9.2262
# 5 5.8473 3.7207 8.5012 0.0000 34.8131 0.0000
# 6 0.0000 0.0000 0.0000 9.2262 0.0000 2.6661
#
#
#
# Elastic Compliance Matrix: (Units=1/GPa)
#
#
# Indices 1 2 3 4 5 6 
#
# 1 0.010567 -0.002086 -0.001693 0.000000 -0.001139 0.000000
# 2 -0.002086 0.012596 -0.002718 0.000000 -0.000332 0.000000
# 3 -0.001693 -0.002718 0.008422 0.000000 -0.001482 0.000000
# 4 0.000000 0.000000 0.000000 -0.077563 0.000000 0.268409
# 5 -0.001139 -0.000332 -0.001482 0.000000 0.029313 0.000000
# 6 0.000000 0.000000 0.000000 0.268409 0.000000 -0.553766
#
#
# Mechanical properties :
#
#
# Convention : Reuss Voigt Hill
#
# Bulk Modulus (GPa) = 53.78837 56.70432 55.24635
# Shear Modulus (GPa) = -9.07046 27.61138 9.27046
#
# Velocity S-wave (km/s) = -1.91094 3.33408 1.93189
# Velocity P-wave (km/s) = 4.09704 6.13596 5.21708
#
# Compressibility (1/GPa) = 0.01859138
#
# Stress axis : x y z
#
# Youngs Moduli (GPa) = 94.63436 79.39153 118.74117
#
# Poissons Ratio (x) = 0.16562 0.20101
# Poissons Ratio (y) = 0.19742 0.32269
# Poissons Ratio (z) = 0.16020 0.21575
#
# Static dielectric constant tensor:
#      x y z
#    x 2.019000 0.000000 0.013460 
#    y 0.000000 2.238850 0.000000 
#    z 0.013460 0.000000 1.916540 
# 
# From -- ./inp_files/26327.got.cif
#   From: 2010.05.17/outbox.cif.g08.bks.cpg/sg9_14_cif.got.tgz:26327.got - 2010.06.03 20:04:27.
