data_PCOD9137847
_publ_section_title
;
Structure prediction by ZEFSAII (Michael W. Deem and Ramdas Pophale) SiO2 
 PCOD9137847
Probable space group: C C
;
_chemical_formula_sum "Si O2"
_cell_formula_units_Z 28
_cell_length_a 11.445153
_cell_length_b 7.399031
_cell_length_c 13.880966
_cell_angle_alpha 90.000000
_cell_angle_beta 61.597522
_cell_angle_gamma 90.000000
_cell_volume 1033.987256
_symmetry_space_group_name_H-M "C C"
_symmetry_group_IT_number 9
_symmetry_cell_setting 'monoclinic'
loop_
_space_group_symop_operation_xyz
x,y,z
x,-y,1/2+z
1/2+x,1/2+y,z
1/2+x,1/2-y,1/2+z
loop_
_atom_site_type_symbol
_atom_site_label
_atom_site_fract_x
_atom_site_fract_y
_atom_site_fract_z
Si Si1 0.913320 0.529396 0.100790
Si Si2 0.637579 0.321234 0.643748
Si Si3 0.826979 0.149027 0.081277
Si Si4 0.362139 0.982181 0.346228
Si Si5 0.646578 0.051782 0.802475
Si Si6 0.776630 0.912248 0.941054
Si Si7 0.109957 0.847039 0.046459
O O1 0.780845 0.586778 0.096666
O O2 0.920553 0.316922 0.069541
O O3 0.890571 0.524905 0.224324
O O4 0.207879 0.528744 0.884386
O O5 0.617270 0.240305 0.757919
O O6 0.663479 0.156065 0.560554
O O7 0.551614 0.478062 0.626706
O O8 0.764864 0.036587 0.193060
O O9 0.691447 0.234266 0.092292
O O10 0.874446 0.025385 0.972570
O O11 0.497869 0.034548 0.350719
O O12 0.334658 0.768647 0.371516
O O13 0.224397 0.077125 0.430849
O O14 0.504657 0.205789 0.046412
#
# Coordination Sequence:
#
# PCOD9137847 Si02
#       7
#     4   4   4   4   4   4   4
#     4  11  22  47  80 109 166 216 268 346 404 488
#     4   9  24  45  70 114 157 214 267 338 411 472
#     4  10  22  44  76 111 155 207 269 341 402 474
#     4  11  24  45  78 120 159 221 271 327 426 486
#     4  11  22  46  79 112 162 210 272 336 411 490
#     4  10  23  45  72 117 158 206 278 331 407 487
#     4  10  23  46  73 117 161 206 271 331 403 495
#
# _framework density 27.079635
#
# number of rings (size 3 to 8) (size 9 to 14) (size 15 to 20)
#    0.000    1.714    2.857    0.000    2.000    4.571 
#    0.000    2.857    0.000    0.000    0.000    0.000 
#    0.000    0.000    0.000    0.000    0.000    0.000 
#
# Total GULP energy -78261.413168 kJ/mol
# GULP energy per Si atom -5590.100941 kJ/mol
# Density = 2.701800 g / cm^3
# Si number density = 27.079635 Si / 1000 Ang^3
#
#
#
# Elastic Constant Matrix: (Units=GPa)
#
#
# Indices 1 2 3 4 5 6 
#
# 1 138.8560 70.3444 57.6438 0.0000 -14.4938 0.0000
# 2 70.3444 199.5185 72.1956 0.0000 -4.3016 0.0000
# 3 57.6438 72.1956 129.5949 0.0000 24.5259 0.0000
# 4 0.0000 0.0000 0.0000 49.6074 0.0000 15.4996
# 5 -14.4938 -4.3016 24.5259 0.0000 37.5054 0.0000
# 6 0.0000 0.0000 0.0000 15.4996 0.0000 52.5206
#
#
#
# Elastic Compliance Matrix: (Units=1/GPa)
#
#
# Indices 1 2 3 4 5 6 
#
# 1 0.011159 -0.001817 -0.005395 0.000000 0.007632 0.000000
# 2 -0.001817 0.006986 -0.003540 0.000000 0.002414 0.000000
# 3 -0.005395 -0.003540 0.014334 0.000000 -0.011864 0.000000
# 4 0.000000 0.000000 0.000000 0.022206 0.000000 -0.006553
# 5 0.007632 0.002414 -0.011864 0.000000 0.037647 0.000000
# 6 0.000000 0.000000 0.000000 -0.006553 0.000000 0.020974
#
#
# Mechanical properties :
#
#
# Convention : Reuss Voigt Hill
#
# Bulk Modulus (GPa) = 91.13684 96.48188 93.80936
# Shear Modulus (GPa) = 36.10909 45.77906 40.94408
#
# Velocity S-wave (km/s) = 3.65559 4.11607 3.89265
# Velocity P-wave (km/s) = 7.17955 7.63516 7.41086
#
# Compressibility (1/GPa) = 0.01097251
#
# Stress axis : x y z
#
# Youngs Moduli (GPa) = 89.61506 143.14545 69.76553
#
# Poissons Ratio (x) = 0.26016 0.37641
# Poissons Ratio (y) = 0.16287 0.24698
# Poissons Ratio (z) = 0.48350 0.50676
#
# Static dielectric constant tensor:
#      x y z
#    x 2.154890 0.000000 -0.047340 
#    y 0.000000 2.202470 0.000000 
#    z -0.047340 0.000000 2.211260 
# 
# From -- ./inp_files/24044.got.cif
#   From: 2010.05.17/outbox.cif.g08.bks.cpg/sg9_13_cif.got.tgz:24044.got - 2010.06.03 20:04:27.
