data_PCOD9137623
_publ_section_title
;
Structure prediction by ZEFSAII (Michael W. Deem and Ramdas Pophale) SiO2 
 PCOD9137623
Probable space group: C C
;
_chemical_formula_sum "Si O2"
_cell_formula_units_Z 32
_cell_length_a 10.410395
_cell_length_b 19.579918
_cell_length_c 9.752100
_cell_angle_alpha 90.000000
_cell_angle_beta 128.323086
_cell_angle_gamma 90.000000
_cell_volume 1559.494638
_symmetry_space_group_name_H-M "C C"
_symmetry_group_IT_number 9
_symmetry_cell_setting 'monoclinic'
loop_
_space_group_symop_operation_xyz
x,y,z
x,-y,1/2+z
1/2+x,1/2+y,z
1/2+x,1/2-y,1/2+z
loop_
_atom_site_type_symbol
_atom_site_label
_atom_site_fract_x
_atom_site_fract_y
_atom_site_fract_z
Si Si1 0.147280 0.464526 0.714430
Si Si2 0.917342 0.864149 0.857997
Si Si3 0.347202 0.022711 0.368081
Si Si4 0.395486 0.181191 0.393584
Si Si5 0.200071 0.349949 0.957720
Si Si6 0.639154 0.488235 0.984729
Si Si7 0.514689 0.704288 0.148005
Si Si8 0.855597 0.903344 0.339071
O O1 0.139708 0.421727 0.850089
O O2 0.038864 0.695736 0.376964
O O3 0.223659 0.538868 0.792603
O O4 0.981702 0.473513 0.522019
O O5 0.833451 0.827231 0.932419
O O6 0.058359 0.918636 0.987978
O O7 0.774840 0.917027 0.713243
O O8 0.983393 0.815332 0.784330
O O9 0.404482 0.100395 0.418673
O O10 0.186614 0.020196 0.358085
O O11 0.296078 0.003974 0.181315
O O12 0.449230 0.221708 0.563942
O O13 0.207013 0.198435 0.237814
O O14 0.288133 0.365403 0.159443
O O15 0.515527 0.551108 0.914213
O O16 0.409248 0.651194 0.987497
#
# Coordination Sequence:
#
# PCOD9137623 Si02
#       8
#     4   4   4   4   4   4   4   4
#     4   9  23  35  68  99 138 161 215 275 355 392
#     4   9  22  43  68  97 135 168 225 278 346 394
#     4  12  22  39  66  98 141 166 223 271 341 402
#     4  12  25  44  64  95 129 185 228 266 327 402
#     4  10  22  43  66  99 132 174 221 274 344 405
#     4  11  21  37  65 104 133 167 213 286 342 402
#     4  12  26  46  66  94 133 182 233 272 326 411
#     4  11  21  37  67  98 131 175 214 280 345 398
#
# _framework density 20.519466999999999
#
# number of rings (size 3 to 8) (size 9 to 14) (size 15 to 20)
#    0.750    0.500    3.750    2.250    3.500    0.000 
#    0.000    2.500    0.000    0.000    0.000    0.000 
#    0.000    0.000    0.000    0.000    0.000    0.000 
#
# Total GULP energy -89267.487966 kJ/mol
# GULP energy per Si atom -5579.217998 kJ/mol
# Density = 2.047276 g / cm^3
# Si number density = 20.519467 Si / 1000 Ang^3
#
#
#
# Elastic Constant Matrix: (Units=GPa)
#
#
# Indices 1 2 3 4 5 6 
#
# 1 76.5959 20.4651 31.2870 0.0000 -1.8470 0.0000
# 2 20.4651 48.2720 19.3498 0.0000 -8.3824 0.0000
# 3 31.2870 19.3498 82.5545 0.0000 6.8843 0.0000
# 4 0.0000 0.0000 0.0000 32.2510 0.0000 -1.7810
# 5 -1.8470 -8.3824 6.8843 0.0000 32.7607 0.0000
# 6 0.0000 0.0000 0.0000 -1.7810 0.0000 15.8746
#
#
#
# Elastic Compliance Matrix: (Units=1/GPa)
#
#
# Indices 1 2 3 4 5 6 
#
# 1 0.016468 -0.004761 -0.005192 0.000000 0.000801 0.000000
# 2 -0.004761 0.025988 -0.004905 0.000000 0.007412 0.000000
# 3 -0.005192 -0.004905 0.015633 0.000000 -0.004833 0.000000
# 4 0.000000 0.000000 0.000000 0.031200 0.000000 0.003500
# 5 0.000801 0.007412 -0.004833 0.000000 0.033481 0.000000
# 6 0.000000 0.000000 0.000000 0.003500 0.000000 0.063387
#
#
# Mechanical properties :
#
#
# Convention : Reuss Voigt Hill
#
# Bulk Modulus (GPa) = 35.24481 38.84736 37.04609
# Shear Modulus (GPa) = 22.18962 25.26528 23.72745
#
# Velocity S-wave (km/s) = 3.29202 3.51277 3.40419
# Velocity P-wave (km/s) = 5.62703 5.95196 5.79177
#
# Compressibility (1/GPa) = 0.02837297
#
# Stress axis : x y z
#
# Youngs Moduli (GPa) = 60.72502 38.47983 63.96523
#
# Poissons Ratio (x) = 0.18321 0.33210
# Poissons Ratio (y) = 0.28913 0.31374
# Poissons Ratio (z) = 0.31527 0.18874
#
# Static dielectric constant tensor:
#      x y z
#    x 1.810790 0.000000 0.008410 
#    y 0.000000 1.704240 0.000000 
#    z 0.008410 0.000000 1.688100 
# 
# From -- ./inp_files/8213.got.cif
#   From: 2010.05.17/outbox.cif.g08.bks.cpg/sg9_5_cif.got.tgz:8213.got - 2010.06.03 20:04:27.
