data_PCOD9137027
_publ_section_title
;
Structure prediction by ZEFSAII (Michael W. Deem and Ramdas Pophale) SiO2 
 PCOD9137027
Probable space group: C C
;
_chemical_formula_sum "Si O2"
_cell_formula_units_Z 20
_cell_length_a 6.965930
_cell_length_b 24.081667
_cell_length_c 9.625829
_cell_angle_alpha 90.000000
_cell_angle_beta 148.097836
_cell_angle_gamma 90.000000
_cell_volume 853.344633
_symmetry_space_group_name_H-M "C C"
_symmetry_group_IT_number 9
_symmetry_cell_setting 'monoclinic'
loop_
_space_group_symop_operation_xyz
x,y,z
x,-y,1/2+z
1/2+x,1/2+y,z
1/2+x,1/2-y,1/2+z
loop_
_atom_site_type_symbol
_atom_site_label
_atom_site_fract_x
_atom_site_fract_y
_atom_site_fract_z
Si Si1 0.601280 0.034705 0.948750
Si Si2 0.328605 0.585551 0.560539
Si Si3 0.234477 0.621416 0.807298
Si Si4 0.381931 0.375568 0.804643
Si Si5 0.834097 0.788588 0.565057
O O1 0.732630 0.062417 0.885560
O O2 0.213890 0.058987 0.754866
O O3 0.855187 0.062716 0.222129
O O4 0.584484 0.969024 0.930723
O O5 0.337853 0.616606 0.711644
O O6 0.235456 0.622228 0.369998
O O7 0.809348 0.639365 0.559970
O O8 0.475873 0.665122 0.042417
O O9 0.167148 0.331576 0.576542
O O10 0.590958 0.749411 0.317971
#
# Coordination Sequence:
#
# PCOD9137027 Si02
#       5
#     4   4   4   4   4
#     4  10  22  37  61  96 141 182 217 270 332 399
#     4  11  22  39  63 100 137 178 227 266 334 400
#     4  10  22  40  66  97 133 177 226 276 329 403
#     4  10  22  40  66  97 132 180 221 278 329 401
#     4  11  22  44  74  96 133 177 223 284 350 389
#
# _framework density 23.437190000000001
#
# number of rings (size 3 to 8) (size 9 to 14) (size 15 to 20)
#    0.000    1.600    2.000    2.400    0.000    8.000 
#    0.000    2.000    0.000    0.000    0.000    0.000 
#    0.000    0.000    0.000    0.000    0.000    0.000 
#
# Total GULP energy -55844.424251 kJ/mol
# GULP energy per Si atom -5584.442425 kJ/mol
# Density = 2.338385 g / cm^3
# Si number density = 23.437190 Si / 1000 Ang^3
#
#
#
# Elastic Constant Matrix: (Units=GPa)
#
#
# Indices 1 2 3 4 5 6 
#
# 1 150.8886 52.6941 61.4962 0.0000 -59.9339 0.0000
# 2 52.6941 96.4749 43.2851 0.0000 -28.9786 0.0000
# 3 61.4962 43.2851 123.1230 0.0000 -36.2622 0.0000
# 4 0.0000 0.0000 0.0000 46.1006 0.0000 -13.9770
# 5 -59.9339 -28.9786 -36.2622 0.0000 62.6740 0.0000
# 6 0.0000 0.0000 0.0000 -13.9770 0.0000 5.9454
#
#
#
# Elastic Compliance Matrix: (Units=1/GPa)
#
#
# Indices 1 2 3 4 5 6 
#
# 1 0.012155 -0.002875 -0.002445 0.000000 0.008880 0.000000
# 2 -0.002875 0.013805 -0.002829 0.000000 0.001997 0.000000
# 3 -0.002445 -0.002829 0.011167 0.000000 0.002815 0.000000
# 4 0.000000 0.000000 0.000000 0.075517 0.000000 0.177533
# 5 0.008880 0.001997 0.002815 0.000000 0.026999 0.000000
# 6 0.000000 0.000000 0.000000 0.177533 0.000000 0.585562
#
#
# Mechanical properties :
#
#
# Convention : Reuss Voigt Hill
#
# Bulk Modulus (GPa) = 48.01153 76.15970 62.08562
# Shear Modulus (GPa) = 6.68052 37.14472 21.91262
#
# Velocity S-wave (km/s) = 1.69014 3.98535 3.06101
# Velocity P-wave (km/s) = 4.93340 7.33097 6.24826
#
# Compressibility (1/GPa) = 0.02082833
#
# Stress axis : x y z
#
# Youngs Moduli (GPa) = 82.27139 72.43891 89.55090
#
# Poissons Ratio (x) = 0.20824 0.21897
# Poissons Ratio (y) = 0.23650 0.25336
# Poissons Ratio (z) = 0.20117 0.20495
#
# Static dielectric constant tensor:
#      x y z
#    x 1.860370 0.000000 0.035970 
#    y 0.000000 1.941640 0.000000 
#    z 0.035970 0.000000 2.057700 
# 
# From -- ./inp_files/336.got.cif
#   From: 2010.05.17/outbox.cif.g08.bks.cpg/sg9_1_cif.got.tgz:336.got - 2010.06.03 20:04:27.
