data_PCOD9137985
_publ_section_title
;
Structure prediction by ZEFSAII (Michael W. Deem and Ramdas Pophale) SiO2 
 PCOD9137985
Probable space group: C C
;
_chemical_formula_sum "Si O2"
_cell_formula_units_Z 32
_cell_length_a 8.611240
_cell_length_b 16.354110
_cell_length_c 12.559420
_cell_angle_alpha 90.000000
_cell_angle_beta 127.353807
_cell_angle_gamma 90.000000
_cell_volume 1405.972728
_symmetry_space_group_name_H-M "C C"
_symmetry_group_IT_number 9
_symmetry_cell_setting 'monoclinic'
loop_
_space_group_symop_operation_xyz
x,y,z
x,-y,1/2+z
1/2+x,1/2+y,z
1/2+x,1/2-y,1/2+z
loop_
_atom_site_type_symbol
_atom_site_label
_atom_site_fract_x
_atom_site_fract_y
_atom_site_fract_z
Si Si1 0.806220 0.156540 0.649080
Si Si2 0.109947 0.435709 0.869125
Si Si3 0.942681 0.683642 0.923508
Si Si4 0.599809 0.795928 0.707376
Si Si5 0.657867 0.553473 0.902177
Si Si6 0.423889 0.420797 0.502836
Si Si7 0.197903 0.902622 0.799084
Si Si8 0.174485 0.290642 0.312074
O O1 0.711635 0.117991 0.505141
O O2 0.660174 0.173576 0.686859
O O3 0.910535 0.242783 0.663811
O O4 0.972430 0.094291 0.762900
O O5 0.103197 0.386669 0.755486
O O6 0.886271 0.437694 0.815177
O O7 0.242494 0.516964 0.912815
O O8 0.777154 0.751779 0.840894
O O9 0.839224 0.604051 0.930319
O O10 0.020620 0.678802 0.835867
O O11 0.101669 0.707103 0.079647
O O12 0.685979 0.457789 0.897281
O O13 0.606422 0.560811 0.003508
O O14 0.500390 0.421912 0.653079
O O15 0.368257 0.330329 0.442221
O O16 0.199196 0.806249 0.817436
#
# Coordination Sequence:
#
# PCOD9137985 Si02
#       8
#     4   4   4   4   4   4   4   4
#     4  10  22  46  70 104 149 192 243 309 376 444
#     4  12  24  45  78 106 148 201 249 310 386 445
#     4  11  25  44  71 110 151 193 251 308 376 452
#     4  11  23  43  75 106 146 196 246 304 377 443
#     4  10  24  48  69 102 149 195 240 314 369 445
#     4  11  27  50  70 107 154 191 254 316 373 460
#     4  12  26  45  74 108 143 199 251 310 382 447
#     4  11  27  45  75 107 152 191 252 313 379 454
#
# _framework density 22.760044000000001
#
# number of rings (size 3 to 8) (size 9 to 14) (size 15 to 20)
#    0.000    1.000    3.750    1.500    5.250    0.000 
#   11.250    0.000    0.000    0.000    0.000    0.000 
#    0.000    0.000    0.000    0.000    0.000    0.000 
#
# Total GULP energy -89365.305051 kJ/mol
# GULP energy per Si atom -5585.331566 kJ/mol
# Density = 2.270824 g / cm^3
# Si number density = 22.760044 Si / 1000 Ang^3
#
#
#
# Elastic Constant Matrix: (Units=GPa)
#
#
# Indices 1 2 3 4 5 6 
#
# 1 78.0704 34.7729 19.5282 0.0000 -26.7206 0.0000
# 2 34.7729 127.6762 23.8180 0.0000 -1.0023 0.0000
# 3 19.5282 23.8180 82.3068 0.0000 5.7279 0.0000
# 4 0.0000 0.0000 0.0000 -31.0166 0.0000 12.6679
# 5 -26.7206 -1.0023 5.7279 0.0000 28.6762 0.0000
# 6 0.0000 0.0000 0.0000 12.6679 0.0000 23.0017
#
#
#
# Elastic Compliance Matrix: (Units=1/GPa)
#
#
# Indices 1 2 3 4 5 6 
#
# 1 0.025166 -0.005529 -0.006074 0.000000 0.024470 0.000000
# 2 -0.005529 0.009511 -0.001121 0.000000 -0.004595 0.000000
# 3 -0.006074 -0.001121 0.014513 0.000000 -0.008598 0.000000
# 4 0.000000 0.000000 0.000000 -0.026320 0.000000 0.014496
# 5 0.024470 -0.004595 -0.008598 0.000000 0.059230 0.000000
# 6 0.000000 0.000000 0.000000 0.014496 0.000000 0.035492
#
#
# Mechanical properties :
#
#
# Convention : Reuss Voigt Hill
#
# Bulk Modulus (GPa) = 42.11667 49.36572 45.74120
# Shear Modulus (GPa) = 33.12305 18.12790 25.62548
#
# Velocity S-wave (km/s) = 3.81900 2.82526 3.35908
# Velocity P-wave (km/s) = 6.16370 5.69030 5.93172
#
# Compressibility (1/GPa) = 0.02374357
#
# Stress axis : x y z
#
# Youngs Moduli (GPa) = 39.73651 105.14049 68.90190
#
# Poissons Ratio (x) = 0.58130 0.41850
# Poissons Ratio (y) = 0.21969 0.07722
# Poissons Ratio (z) = 0.24135 0.11784
#
# Static dielectric constant tensor:
#      x y z
#    x 1.927980 0.000000 0.011590 
#    y 0.000000 1.843400 0.000000 
#    z 0.011590 0.000000 1.801050 
# 
# From -- ./inp_files/14819.got.cif
#   From: 2010.05.17/outbox.cif.g08.bks.cpg/sg9_8_cif.got.tgz:14819.got - 2010.06.03 20:04:27.
