data_PCOD9137994
_publ_section_title
;
Structure prediction by ZEFSAII (Michael W. Deem and Ramdas Pophale) SiO2 
 PCOD9137994
Probable space group: C C
;
_chemical_formula_sum "Si O2"
_cell_formula_units_Z 32
_cell_length_a 15.387425
_cell_length_b 7.619412
_cell_length_c 12.374683
_cell_angle_alpha 90.000000
_cell_angle_beta 62.784999
_cell_angle_gamma 90.000000
_cell_volume 1290.233024
_symmetry_space_group_name_H-M "C C"
_symmetry_group_IT_number 9
_symmetry_cell_setting 'monoclinic'
loop_
_space_group_symop_operation_xyz
x,y,z
x,-y,1/2+z
1/2+x,1/2+y,z
1/2+x,1/2-y,1/2+z
loop_
_atom_site_type_symbol
_atom_site_label
_atom_site_fract_x
_atom_site_fract_y
_atom_site_fract_z
Si Si1 0.339610 0.799065 0.328290
Si Si2 0.095232 0.209797 0.574184
Si Si3 0.726573 0.885778 0.334902
Si Si4 0.537171 0.688827 0.154429
Si Si5 0.739566 0.262347 0.608496
Si Si6 0.062943 0.693503 0.407067
Si Si7 0.719980 0.653210 0.697181
Si Si8 0.908225 0.691446 0.303205
O O1 0.442471 0.705300 0.279176
O O2 0.276936 0.739208 0.466134
O O3 0.299272 0.763080 0.231210
O O4 0.350682 0.008856 0.326363
O O5 0.149633 0.247839 0.431894
O O6 0.175163 0.259570 0.621714
O O7 0.990873 0.297651 0.661382
O O8 0.072430 0.006252 0.607770
O O9 0.772401 0.850024 0.190842
O O10 0.827250 0.847682 0.346576
O O11 0.648934 0.046750 0.367430
O O12 0.625055 0.777974 0.167095
O O13 0.522064 0.782338 0.049178
O O14 0.754769 0.465563 0.633889
O O15 0.124813 0.861704 0.329298
O O16 0.974518 0.675090 0.373300
#
# Coordination Sequence:
#
# PCOD9137994 Si02
#       8
#     4   4   4   4   4   4   4   4
#     4  12  24  43  74 104 137 198 242 295 384 444
#     4  10  25  47  71 110 143 191 245 313 373 450
#     4  12  25  45  77 106 154 193 249 313 376 455
#     4  11  24  43  73 102 146 189 245 303 369 451
#     4  11  24  45  70 100 142 191 237 298 365 448
#     4  11  25  46  74 108 149 195 244 314 377 453
#     4  10  22  46  71  94 145 183 236 302 366 438
#     4  11  25  45  70 108 148 196 252 308 382 449
#
# _framework density 24.801722000000002
#
# number of rings (size 3 to 8) (size 9 to 14) (size 15 to 20)
#    0.000    1.000    2.500    3.750    5.250    3.000 
#    0.000    2.500    0.000    0.000    0.000    0.000 
#    0.000    0.000    0.000    0.000    0.000    0.000 
#
# Total GULP energy -89336.705956 kJ/mol
# GULP energy per Si atom -5583.544122 kJ/mol
# Density = 2.474527 g / cm^3
# Si number density = 24.801722 Si / 1000 Ang^3
#
#
#
# Elastic Constant Matrix: (Units=GPa)
#
#
# Indices 1 2 3 4 5 6 
#
# 1 147.7098 41.2693 40.4510 0.0000 -7.8242 0.0000
# 2 41.2693 74.6639 30.0672 0.0000 0.9707 0.0000
# 3 40.4510 30.0672 84.9909 0.0000 -5.1971 0.0000
# 4 0.0000 0.0000 0.0000 26.6898 0.0000 -11.7863
# 5 -7.8242 0.9707 -5.1971 0.0000 30.6663 0.0000
# 6 0.0000 0.0000 0.0000 -11.7863 0.0000 25.9405
#
#
#
# Elastic Compliance Matrix: (Units=1/GPa)
#
#
# Indices 1 2 3 4 5 6 
#
# 1 0.008644 -0.003721 -0.002683 0.000000 0.001868 0.000000
# 2 -0.003721 0.017284 -0.004481 0.000000 -0.002256 0.000000
# 3 -0.002683 -0.004481 0.014748 0.000000 0.001957 0.000000
# 4 0.000000 0.000000 0.000000 0.046872 0.000000 0.021297
# 5 0.001868 -0.002256 0.001957 0.000000 0.033489 0.000000
# 6 0.000000 0.000000 0.000000 0.021297 0.000000 0.048226
#
#
# Mechanical properties :
#
#
# Convention : Reuss Voigt Hill
#
# Bulk Modulus (GPa) = 52.89882 58.99331 55.94606
# Shear Modulus (GPa) = 25.33746 29.69780 27.51763
#
# Velocity S-wave (km/s) = 3.19972 3.46411 3.33454
# Velocity P-wave (km/s) = 5.91827 6.31171 6.11815
#
# Compressibility (1/GPa) = 0.01890401
#
# Stress axis : x y z
#
# Youngs Moduli (GPa) = 115.69384 57.85597 67.80575
#
# Poissons Ratio (x) = 0.21530 0.18193
# Poissons Ratio (y) = 0.43054 0.30387
# Poissons Ratio (z) = 0.31041 0.25928
#
# Static dielectric constant tensor:
#      x y z
#    x 2.019820 0.000000 0.022950 
#    y 0.000000 2.052020 0.000000 
#    z 0.022950 0.000000 1.922380 
# 
# From -- ./inp_files/17909.got.cif
#   From: 2010.05.17/outbox.cif.g08.bks.cpg/sg9_9_cif.got.tgz:17909.got - 2010.06.03 20:04:27.
