data_PCOD9137769
_publ_section_title
;
Structure prediction by ZEFSAII (Michael W. Deem and Ramdas Pophale) SiO2 
 PCOD9137769
Probable space group: C C
;
_chemical_formula_sum "Si O2"
_cell_formula_units_Z 32
_cell_length_a 8.098095
_cell_length_b 17.546140
_cell_length_c 9.354919
_cell_angle_alpha 90.000000
_cell_angle_beta 79.385588
_cell_angle_gamma 90.000000
_cell_volume 1306.498708
_symmetry_space_group_name_H-M "C C"
_symmetry_group_IT_number 9
_symmetry_cell_setting 'monoclinic'
loop_
_space_group_symop_operation_xyz
x,y,z
x,-y,1/2+z
1/2+x,1/2+y,z
1/2+x,1/2-y,1/2+z
loop_
_atom_site_type_symbol
_atom_site_label
_atom_site_fract_x
_atom_site_fract_y
_atom_site_fract_z
Si Si1 0.927870 0.759996 0.898070
Si Si2 0.599516 0.483174 0.523295
Si Si3 0.909016 0.847620 0.639593
Si Si4 0.825810 0.092102 0.548649
Si Si5 0.140280 0.516356 0.845835
Si Si6 0.628781 0.658710 0.846781
Si Si7 0.921887 0.567460 0.142910
Si Si8 0.056382 0.282191 0.645682
O O1 0.995224 0.810899 0.760634
O O2 0.816650 0.818677 0.011924
O O3 0.810864 0.692936 0.855515
O O4 0.072466 0.730551 0.975538
O O5 0.444283 0.436379 0.618627
O O6 0.521524 0.565190 0.513941
O O7 0.630273 0.432029 0.375216
O O8 0.756054 0.470265 0.602011
O O9 0.716272 0.826761 0.680536
O O10 0.997375 0.813180 0.487302
O O11 0.742772 0.068541 0.714669
O O12 0.741922 0.045230 0.428303
O O13 0.050894 0.562749 0.988049
O O14 0.000758 0.475632 0.766679
O O15 0.562095 0.699870 0.717509
O O16 0.905876 0.656971 0.184602
#
# Coordination Sequence:
#
# PCOD9137769 Si02
#       8
#     4   4   4   4   4   4   4   4
#     4  11  22  39  60  98 128 168 220 285 336 407
#     4  10  22  44  68  92 132 182 229 285 335 407
#     4   9  21  40  62  87 129 172 217 273 339 407
#     4  11  23  41  67  97 136 174 235 276 345 410
#     4  10  24  43  67  95 131 183 219 281 343 412
#     4   9  22  42  60  94 128 172 218 273 344 406
#     4  11  23  44  68  96 138 176 228 285 343 413
#     4  11  21  39  66  93 132 171 220 280 347 406
#
# _framework density 24.492943
#
# number of rings (size 3 to 8) (size 9 to 14) (size 15 to 20)
#    0.750    1.000    1.250    3.750    1.750    5.000 
#    0.000    1.250    0.000    0.000    0.000    0.000 
#    0.000    0.000    0.000    0.000    0.000    0.000 
#
# Total GULP energy -89297.194535 kJ/mol
# GULP energy per Si atom -5581.074658 kJ/mol
# Density = 2.443720 g / cm^3
# Si number density = 24.492943 Si / 1000 Ang^3
#
#
#
# Elastic Constant Matrix: (Units=GPa)
#
#
# Indices 1 2 3 4 5 6 
#
# 1 66.8246 15.0024 20.5655 0.0000 23.9780 0.0000
# 2 15.0024 89.8397 27.8414 0.0000 6.5951 0.0000
# 3 20.5655 27.8414 117.5543 0.0000 20.4191 0.0000
# 4 0.0000 0.0000 0.0000 32.1036 0.0000 9.8779
# 5 23.9780 6.5951 20.4191 0.0000 35.8167 0.0000
# 6 0.0000 0.0000 0.0000 9.8779 0.0000 21.7778
#
#
#
# Elastic Compliance Matrix: (Units=1/GPa)
#
#
# Indices 1 2 3 4 5 6 
#
# 1 0.020266 -0.002198 -0.000820 0.000000 -0.012695 0.000000
# 2 -0.002198 0.012265 -0.002646 0.000000 0.000721 0.000000
# 3 -0.000820 -0.002646 0.010097 0.000000 -0.004720 0.000000
# 4 0.000000 0.000000 0.000000 0.036201 0.000000 -0.016420
# 5 -0.012695 0.000721 -0.004720 0.000000 0.038977 0.000000
# 6 0.000000 0.000000 0.000000 -0.016420 0.000000 0.053366
#
#
# Mechanical properties :
#
#
# Convention : Reuss Voigt Hill
#
# Bulk Modulus (GPa) = 31.94861 44.55967 38.25414
# Shear Modulus (GPa) = 25.91593 31.99358 28.95475
#
# Velocity S-wave (km/s) = 3.25637 3.61811 3.44200
# Velocity P-wave (km/s) = 5.21641 5.97383 5.60792
#
# Compressibility (1/GPa) = 0.03130027
#
# Stress axis : x y z
#
# Youngs Moduli (GPa) = 49.34482 81.53331 99.04361
#
# Poissons Ratio (x) = 0.17923 0.08118
# Poissons Ratio (y) = 0.10847 0.26203
# Poissons Ratio (z) = 0.04044 0.21570
#
# Static dielectric constant tensor:
#      x y z
#    x 1.971160 0.000000 -0.006390 
#    y 0.000000 2.035430 0.000000 
#    z -0.006390 0.000000 1.948050 
# 
# From -- ./inp_files/5606.got.cif
#   From: 2010.05.17/outbox.cif.g08.bks.cpg/sg9_3_cif.got.tgz:5606.got - 2010.06.03 20:04:27.
