data_PCOD9137339
_publ_section_title
;
Structure prediction by ZEFSAII (Michael W. Deem and Ramdas Pophale) SiO2 
 PCOD9137339
Probable space group: C C
;
_chemical_formula_sum "Si O2"
_cell_formula_units_Z 32
_cell_length_a 6.926927
_cell_length_b 22.221829
_cell_length_c 9.901048
_cell_angle_alpha 90.000000
_cell_angle_beta 110.286516
_cell_angle_gamma 90.000000
_cell_volume 1429.521804
_symmetry_space_group_name_H-M "C C"
_symmetry_group_IT_number 9
_symmetry_cell_setting 'monoclinic'
loop_
_space_group_symop_operation_xyz
x,y,z
x,-y,1/2+z
1/2+x,1/2+y,z
1/2+x,1/2-y,1/2+z
loop_
_atom_site_type_symbol
_atom_site_label
_atom_site_fract_x
_atom_site_fract_y
_atom_site_fract_z
Si Si1 0.831020 0.448392 0.391850
Si Si2 0.195926 0.206720 0.431506
Si Si3 0.314106 0.639943 0.259810
Si Si4 0.131524 0.656159 0.916904
Si Si5 0.058809 0.521717 0.215763
Si Si6 0.364290 0.418422 0.246140
Si Si7 0.137914 0.266448 0.933694
Si Si8 0.504855 0.694821 0.665211
O O1 0.941500 0.496465 0.319023
O O2 0.899310 0.457987 0.562506
O O3 0.586002 0.448342 0.322342
O O4 0.924620 0.383570 0.370313
O O5 0.110361 0.273681 0.374444
O O6 0.433331 0.207887 0.450947
O O7 0.057382 0.154891 0.329219
O O8 0.166928 0.199640 0.584971
O O9 0.222639 0.575314 0.278738
O O10 0.218681 0.687885 0.339967
O O11 0.233834 0.653112 0.089825
O O12 0.281190 0.620616 0.851901
O O13 0.191740 0.467929 0.182765
O O14 0.399381 0.370334 0.136583
O O15 0.085545 0.208157 0.833329
O O16 0.321131 0.258557 0.084739
#
# Coordination Sequence:
#
# PCOD9137339 Si02
#       8
#     4   4   4   4   4   4   4   4
#     4  10  25  44  74  96 138 187 231 291 355 406
#     4  11  24  39  68 101 140 180 222 281 352 414
#     4  10  24  43  66 100 139 176 228 288 341 423
#     4  10  22  41  66 101 138 176 232 274 344 424
#     4  10  25  48  68 103 135 180 243 293 339 431
#     4  11  25  46  73  98 137 184 231 290 347 410
#     4  11  25  41  66 101 142 179 225 286 343 424
#     4  11  26  42  67 104 139 180 230 285 345 424
#
# _framework density 22.385107000000001
#
# number of rings (size 3 to 8) (size 9 to 14) (size 15 to 20)
#    0.000    1.500    2.500    0.000    8.750    8.000 
#    0.000    0.000    0.000    0.000    0.000    0.000 
#    0.000    0.000    0.000    0.000    0.000    0.000 
#
# Total GULP energy -89476.650993 kJ/mol
# GULP energy per Si atom -5592.290687 kJ/mol
# Density = 2.233416 g / cm^3
# Si number density = 22.385107 Si / 1000 Ang^3
#
#
#
# Elastic Constant Matrix: (Units=GPa)
#
#
# Indices 1 2 3 4 5 6 
#
# 1 112.7754 -4.1692 21.9703 0.0000 -5.2119 0.0000
# 2 -4.1692 61.2398 6.1050 0.0000 -2.2585 0.0000
# 3 21.9703 6.1050 52.7884 0.0000 11.1872 0.0000
# 4 0.0000 0.0000 0.0000 32.2805 0.0000 1.1970
# 5 -5.2119 -2.2585 11.1872 0.0000 25.0249 0.0000
# 6 0.0000 0.0000 0.0000 1.1970 0.0000 34.7608
#
#
#
# Elastic Compliance Matrix: (Units=1/GPa)
#
#
# Indices 1 2 3 4 5 6 
#
# 1 0.010184 0.001402 -0.005387 0.000000 0.004656 0.000000
# 2 0.001402 0.016866 -0.003224 0.000000 0.003255 0.000000
# 3 -0.005387 -0.003224 0.024146 0.000000 -0.012207 0.000000
# 4 0.000000 0.000000 0.000000 0.031018 0.000000 -0.001068
# 5 0.004656 0.003255 -0.012207 0.000000 0.046681 0.000000
# 6 0.000000 0.000000 0.000000 -0.001068 0.000000 0.028805
#
#
# Mechanical properties :
#
#
# Convention : Reuss Voigt Hill
#
# Bulk Modulus (GPa) = 27.19090 30.51286 28.85188
# Shear Modulus (GPa) = 27.11843 31.93973 29.52908
#
# Velocity S-wave (km/s) = 3.48436 3.78144 3.63594
# Velocity P-wave (km/s) = 5.32550 5.72068 5.52662
#
# Compressibility (1/GPa) = 0.03677701
#
# Stress axis : x y z
#
# Youngs Moduli (GPa) = 98.19612 59.29036 41.41549
#
# Poissons Ratio (x) = -0.08313 0.22312
# Poissons Ratio (y) = -0.13768 0.13352
# Poissons Ratio (z) = 0.52901 0.19115
#
# Static dielectric constant tensor:
#      x y z
#    x 1.823080 0.000000 0.033070 
#    y 0.000000 1.850840 0.000000 
#    z 0.033070 0.000000 1.839450 
# 
# From -- ./inp_files/13777.got.cif
#   From: 2010.05.17/outbox.cif.g08.bks.cpg/sg9_7_cif.got.tgz:13777.got - 2010.06.03 20:04:27.
