data_PCOD9137226
_publ_section_title
;
Structure prediction by ZEFSAII (Michael W. Deem and Ramdas Pophale) SiO2 
 PCOD9137226
Probable space group: C C
;
_chemical_formula_sum "Si O2"
_cell_formula_units_Z 28
_cell_length_a 11.404138
_cell_length_b 14.362944
_cell_length_c 10.996323
_cell_angle_alpha 90.000000
_cell_angle_beta 31.977558
_cell_angle_gamma 90.000000
_cell_volume 953.873491
_symmetry_space_group_name_H-M "C C"
_symmetry_group_IT_number 9
_symmetry_cell_setting 'monoclinic'
loop_
_space_group_symop_operation_xyz
x,y,z
x,-y,1/2+z
1/2+x,1/2+y,z
1/2+x,1/2-y,1/2+z
loop_
_atom_site_type_symbol
_atom_site_label
_atom_site_fract_x
_atom_site_fract_y
_atom_site_fract_z
Si Si1 0.489320 0.161696 0.139390
Si Si2 0.340383 0.931094 0.021044
Si Si3 0.945717 0.871615 0.116928
Si Si4 0.239173 0.875356 0.611193
Si Si5 0.787216 0.943454 0.757637
Si Si6 0.309817 0.252485 0.695046
Si Si7 0.193448 0.664832 0.588430
O O1 0.410248 0.107841 0.327788
O O2 0.532487 0.273908 0.098434
O O3 0.308367 0.144852 0.191468
O O4 0.720882 0.119460 0.895621
O O5 0.542163 0.971192 0.926937
O O6 0.267161 0.836780 0.151615
O O7 0.171003 0.016664 0.162744
O O8 0.862108 0.852910 0.052469
O O9 0.986076 0.983163 0.077889
O O10 0.147455 0.775886 0.645831
O O11 0.458584 0.879105 0.330987
O O12 0.812850 0.856389 0.641523
O O13 0.783696 0.892084 0.892413
O O14 0.579636 0.243267 0.479631
#
# Coordination Sequence:
#
# PCOD9137226 Si02
#       7
#     4   4   4   4   4   4   4
#     4  10  22  40  65  98 145 191 255 322 382 478
#     4  11  23  42  73 102 146 200 255 323 391 465
#     4  10  22  42  65 102 143 203 250 322 394 467
#     4  10  22  42  65 102 143 203 250 322 394 467
#     4  11  23  42  73 102 146 200 255 323 391 465
#     4  10  26  48  72 118 156 200 260 330 398 472
#     4  10  22  40  65  98 145 191 255 322 382 478
#
# _framework density 29.353998000000001
#
# number of rings (size 3 to 8) (size 9 to 14) (size 15 to 20)
#    0.000    1.714    2.857    0.857    8.000    0.000 
#   10.286    1.429    0.000    0.000    0.000    0.000 
#    0.000    0.000    0.000    0.000    0.000    0.000 
#
# Total GULP energy -78045.658749 kJ/mol
# GULP energy per Si atom -5574.689911 kJ/mol
# Density = 2.928719 g / cm^3
# Si number density = 29.353998 Si / 1000 Ang^3
#
#
#
# Elastic Constant Matrix: (Units=GPa)
#
#
# Indices 1 2 3 4 5 6 
#
# 1 82.1995 49.9852 59.7860 -0.0016 20.2849 -0.0013
# 2 49.9852 238.5642 34.2555 -0.0008 47.5782 -0.0012
# 3 59.7860 34.2555 89.2778 -0.0015 32.9176 0.0006
# 4 -0.0016 -0.0008 -0.0015 49.5022 0.0032 -8.5027
# 5 20.2849 47.5782 32.9176 0.0032 30.4142 -0.0013
# 6 -0.0013 -0.0012 0.0006 -8.5027 -0.0013 14.9680
#
#
#
# Elastic Compliance Matrix: (Units=1/GPa)
#
#
# Indices 1 2 3 4 5 6 
#
# 1 0.027652 -0.005302 -0.021202 0.000000 0.012799 0.000004
# 2 -0.005302 0.007322 0.006091 0.000001 -0.014510 -0.000001
# 3 -0.021202 0.006091 0.035547 0.000002 -0.033861 -0.000005
# 4 0.000000 0.000001 0.000002 0.022385 -0.000005 0.012716
# 5 0.012799 -0.014510 -0.033861 -0.000005 0.083690 0.000006
# 6 0.000004 -0.000001 -0.000005 0.012716 0.000006 0.074033
#
#
# Mechanical properties :
#
#
# Convention : Reuss Voigt Hill
#
# Bulk Modulus (GPa) = 33.67567 77.56609 55.62088
# Shear Modulus (GPa) = 16.59180 36.71121 26.65151
#
# Velocity S-wave (km/s) = 2.38004 3.54027 3.01646
# Velocity P-wave (km/s) = 4.36462 6.57215 5.57867
#
# Compressibility (1/GPa) = 0.02969503
#
# Stress axis : x y z
#
# Youngs Moduli (GPa) = 36.16338 136.57698 28.13174
#
# Poissons Ratio (x) = 0.72412 0.59646
# Poissons Ratio (y) = 0.19174 -0.17136
# Poissons Ratio (z) = 0.76675 -0.83193
#
# Static dielectric constant tensor:
#      x y z
#    x 2.630790 0.000000 -0.159910 
#    y 0.000000 2.381590 0.000000 
#    z -0.159910 0.000000 2.599110 
# 
# From -- ./inp_files/18373.got.cif
#   From: 2010.05.17/outbox.cif.g08.bks.cpg/sg9_10_cif.got.tgz:18373.got - 2010.06.03 20:04:27.
