data_PCOD9137334
_publ_section_title
;
Structure prediction by ZEFSAII (Michael W. Deem and Ramdas Pophale) SiO2 
 PCOD9137334
Probable space group: C C
;
_chemical_formula_sum "Si O2"
_cell_formula_units_Z 28
_cell_length_a 9.616156
_cell_length_b 22.997556
_cell_length_c 6.374950
_cell_angle_alpha 90.000000
_cell_angle_beta 110.488844
_cell_angle_gamma 90.000000
_cell_volume 1320.624046
_symmetry_space_group_name_H-M "C C"
_symmetry_group_IT_number 9
_symmetry_cell_setting 'monoclinic'
loop_
_space_group_symop_operation_xyz
x,y,z
x,-y,1/2+z
1/2+x,1/2+y,z
1/2+x,1/2-y,1/2+z
loop_
_atom_site_type_symbol
_atom_site_label
_atom_site_fract_x
_atom_site_fract_y
_atom_site_fract_z
Si Si1 0.978310 0.691264 0.765250
Si Si2 0.957399 0.406643 0.607008
Si Si3 0.504451 0.362128 0.344667
Si Si4 0.664226 0.260093 0.179810
Si Si5 0.180394 0.349740 0.990841
Si Si6 0.714031 0.454509 0.228622
Si Si7 0.186027 0.912317 0.754422
O O1 0.809700 0.711147 0.658518
O O2 0.062833 0.672972 0.600829
O O3 0.980028 0.639161 0.934291
O O4 0.062834 0.742291 0.932050
O O5 0.546405 0.373115 0.611067
O O6 0.826768 0.388376 0.699281
O O7 0.106173 0.403915 0.824228
O O8 0.578987 0.304124 0.290295
O O9 0.593495 0.415204 0.283647
O O10 0.333198 0.363394 0.190518
O O11 0.703416 0.202722 0.336968
O O12 0.872352 0.458176 0.436809
O O13 0.659763 0.520137 0.174648
O O14 0.727814 0.420362 0.017484
#
# Coordination Sequence:
#
# PCOD9137334 Si02
#       7
#     4   4   4   4   4   4   4
#     4  11  23  41  66  98 138 180 218 270 336 402
#     4  10  22  41  65  98 134 168 231 270 323 407
#     4  11  24  42  65 104 137 172 226 282 329 407
#     4  11  23  42  64 102 135 177 229 265 324 420
#     4  11  26  43  66 102 143 174 214 281 346 396
#     4  11  21  41  70  95 125 177 231 278 329 391
#     4  11  21  40  72  95 126 176 231 278 329 393
#
# _framework density 21.202096999999998
#
# number of rings (size 3 to 8) (size 9 to 14) (size 15 to 20)
#    0.000    1.143    7.143    0.857    2.000    3.429 
#    0.000    1.429    0.000    0.000    0.000    0.000 
#    0.000    0.000    0.000    0.000    0.000    0.000 
#
# Total GULP energy -78083.183585 kJ/mol
# GULP energy per Si atom -5577.370256 kJ/mol
# Density = 2.115384 g / cm^3
# Si number density = 21.202097 Si / 1000 Ang^3
#
#
#
# Elastic Constant Matrix: (Units=GPa)
#
#
# Indices 1 2 3 4 5 6 
#
# 1 79.8566 10.9643 34.4403 0.0000 14.8887 0.0000
# 2 10.9643 52.7073 31.5518 0.0000 12.3027 0.0000
# 3 34.4403 31.5518 109.4795 0.0000 20.5992 0.0000
# 4 0.0000 0.0000 0.0000 36.7589 0.0000 2.0754
# 5 14.8887 12.3027 20.5992 0.0000 50.4546 0.0000
# 6 0.0000 0.0000 0.0000 2.0754 0.0000 20.1409
#
#
#
# Elastic Compliance Matrix: (Units=1/GPa)
#
#
# Indices 1 2 3 4 5 6 
#
# 1 0.014814 0.000038 -0.004167 0.000000 -0.002680 0.000000
# 2 0.000038 0.023395 -0.006152 0.000000 -0.003204 0.000000
# 3 -0.004167 -0.006152 0.012678 0.000000 -0.002447 0.000000
# 4 0.000000 0.000000 0.000000 0.027363 0.000000 -0.002820
# 5 -0.002680 -0.003204 -0.002447 0.000000 0.022391 0.000000
# 6 0.000000 0.000000 0.000000 -0.002820 0.000000 0.049941
#
#
# Mechanical properties :
#
#
# Convention : Reuss Voigt Hill
#
# Bulk Modulus (GPa) = 32.97430 43.99513 38.48471
# Shear Modulus (GPa) = 27.58594 32.47668 30.03131
#
# Velocity S-wave (km/s) = 3.61098 3.91803 3.76763
# Velocity P-wave (km/s) = 5.74210 6.42365 6.09242
#
# Compressibility (1/GPa) = 0.03032665
#
# Stress axis : x y z
#
# Youngs Moduli (GPa) = 67.50405 42.74391 78.87553
#
# Poissons Ratio (x) = -0.00164 0.32868
# Poissons Ratio (y) = -0.00259 0.48521
# Poissons Ratio (z) = 0.28129 0.26294
#
# Static dielectric constant tensor:
#      x y z
#    x 1.742220 0.000000 -0.001460 
#    y 0.000000 1.786480 0.000000 
#    z -0.001460 0.000000 1.882650 
# 
# From -- ./inp_files/1299.got.cif
#   From: 2010.05.17/outbox.cif.g08.bks.cpg/sg9_1_cif.got.tgz:1299.got - 2010.06.03 20:04:27.
