data_PCOD9137129
_publ_section_title
;
Structure prediction by ZEFSAII (Michael W. Deem and Ramdas Pophale) SiO2 
 PCOD9137129
Probable space group: C C
;
_chemical_formula_sum "Si O2"
_cell_formula_units_Z 32
_cell_length_a 9.316448
_cell_length_b 18.918044
_cell_length_c 14.357747
_cell_angle_alpha 90.000000
_cell_angle_beta 31.858623
_cell_angle_gamma 90.000000
_cell_volume 1335.681559
_symmetry_space_group_name_H-M "C C"
_symmetry_group_IT_number 9
_symmetry_cell_setting 'monoclinic'
loop_
_space_group_symop_operation_xyz
x,y,z
x,-y,1/2+z
1/2+x,1/2+y,z
1/2+x,1/2-y,1/2+z
loop_
_atom_site_type_symbol
_atom_site_label
_atom_site_fract_x
_atom_site_fract_y
_atom_site_fract_z
Si Si1 0.059120 0.656348 0.642670
Si Si2 0.039761 0.343961 0.600597
Si Si3 0.132450 0.108059 0.546615
Si Si4 0.802322 0.977286 0.379153
Si Si5 0.443395 0.523402 0.488778
Si Si6 0.439498 0.635940 0.045984
Si Si7 0.654463 0.871964 0.880330
Si Si8 0.023743 0.226570 0.476186
O O1 0.210731 0.583709 0.597623
O O2 0.094630 0.664204 0.511825
O O3 0.230338 0.720276 0.592008
O O4 0.246634 0.849316 0.344325
O O5 0.083398 0.425690 0.548437
O O6 0.236903 0.330156 0.580598
O O7 0.116646 0.300811 0.465272
O O8 0.742864 0.314408 0.791254
O O9 0.403113 0.129583 0.449061
O O10 0.000606 0.178625 0.581012
O O11 0.952332 0.066420 0.718220
O O12 0.158082 0.058561 0.440816
O O13 0.010595 0.999745 0.346652
O O14 0.694296 0.047426 0.391147
O O15 0.374793 0.448566 0.574622
O O16 0.391266 0.654643 0.180778
#
# Coordination Sequence:
#
# PCOD9137129 Si02
#       8
#     4   4   4   4   4   4   4   4
#     4  10  25  44  68 104 151 187 243 306 366 435
#     4  11  24  47  74 101 137 196 250 302 365 435
#     4  11  21  39  67  99 138 186 241 292 357 438
#     4  10  22  39  66 103 144 183 234 298 368 439
#     4   9  21  36  64 103 145 187 226 295 362 439
#     4  11  22  43  73 105 145 192 242 301 372 437
#     4  11  22  40  70 106 141 189 230 296 374 443
#     4  11  25  48  72  97 141 190 254 310 360 432
#
# _framework density 23.957806000000001
#
# number of rings (size 3 to 8) (size 9 to 14) (size 15 to 20)
#    0.000    1.500    2.500    2.250    1.750    6.000 
#    6.750    2.500    0.000    0.000    0.000    0.000 
#    0.000    0.000    0.000    0.000    0.000    0.000 
#
# Total GULP energy -89397.463394 kJ/mol
# GULP energy per Si atom -5587.341462 kJ/mol
# Density = 2.390328 g / cm^3
# Si number density = 23.957806 Si / 1000 Ang^3
#
#
#
# Elastic Constant Matrix: (Units=GPa)
#
#
# Indices 1 2 3 4 5 6 
#
# 1 171.6106 51.6548 64.9518 -0.0008 14.1906 0.0106
# 2 51.6548 62.1210 24.3134 -0.0020 5.6143 -0.0030
# 3 64.9518 24.3134 128.1245 -0.0217 25.1959 -0.0147
# 4 -0.0008 -0.0020 -0.0217 16.5760 -0.0016 5.0549
# 5 14.1906 5.6143 25.1959 -0.0016 37.4546 0.0079
# 6 0.0106 -0.0030 -0.0147 5.0549 0.0079 36.0616
#
#
#
# Elastic Compliance Matrix: (Units=1/GPa)
#
#
# Indices 1 2 3 4 5 6 
#
# 1 0.008947 -0.006116 -0.003329 -0.000003 -0.000234 -0.000004
# 2 -0.006116 0.021576 -0.000938 0.000000 -0.000286 0.000003
# 3 -0.003329 -0.000938 0.010827 0.000012 -0.005882 0.000005
# 4 -0.000003 0.000000 0.000012 0.063022 -0.000002 -0.008834
# 5 -0.000234 -0.000286 -0.005882 -0.000002 0.030787 -0.000009
# 6 -0.000004 0.000003 0.000005 -0.008834 -0.000009 0.028969
#
#
# Mechanical properties :
#
#
# Convention : Reuss Voigt Hill
#
# Bulk Modulus (GPa) = 48.57923 71.52180 60.05052
# Shear Modulus (GPa) = 26.07489 32.74752 29.41120
#
# Velocity S-wave (km/s) = 3.30262 3.70115 3.50755
# Velocity P-wave (km/s) = 5.90458 6.94138 6.44387
#
# Compressibility (1/GPa) = 0.02058493
#
# Stress axis : x y z
#
# Youngs Moduli (GPa) = 111.76417 46.34812 92.35943
#
# Poissons Ratio (x) = 0.28345 0.30750
# Poissons Ratio (y) = 0.68352 0.08660
# Poissons Ratio (z) = 0.37210 0.04346
#
# Static dielectric constant tensor:
#      x y z
#    x 1.917430 -0.000010 0.012880 
#    y -0.000010 1.975360 0.000020 
#    z 0.012880 0.000020 1.981370 
# 
# From -- ./inp_files/23653.got.cif
#   From: 2010.05.17/outbox.cif.g08.bks.cpg/sg9_12_cif.got.tgz:23653.got - 2010.06.03 20:04:27.
