data_PCOD9137147
_publ_section_title
;
Structure prediction by ZEFSAII (Michael W. Deem and Ramdas Pophale) SiO2 
 PCOD9137147
Probable space group: C C
;
_chemical_formula_sum "Si O2"
_cell_formula_units_Z 28
_cell_length_a 11.383191
_cell_length_b 13.580751
_cell_length_c 8.279114
_cell_angle_alpha 90.000000
_cell_angle_beta 62.101182
_cell_angle_gamma 90.000000
_cell_volume 1131.132611
_symmetry_space_group_name_H-M "C C"
_symmetry_group_IT_number 9
_symmetry_cell_setting 'monoclinic'
loop_
_space_group_symop_operation_xyz
x,y,z
x,-y,1/2+z
1/2+x,1/2+y,z
1/2+x,1/2-y,1/2+z
loop_
_atom_site_type_symbol
_atom_site_label
_atom_site_fract_x
_atom_site_fract_y
_atom_site_fract_z
Si Si1 0.897240 0.513530 0.734590
Si Si2 0.694603 0.311158 0.296581
Si Si3 0.337068 0.371476 0.317650
Si Si4 0.753811 0.345223 0.915426
Si Si5 0.003900 0.860257 0.900356
Si Si6 0.417914 0.352125 0.616710
Si Si7 0.038279 0.375834 0.389194
O O1 0.778186 0.591886 0.790520
O O2 0.847829 0.434407 0.899088
O O3 0.942231 0.437421 0.568070
O O4 0.020015 0.575775 0.725185
O O5 0.559449 0.300947 0.482151
O O6 0.797341 0.221236 0.237518
O O7 0.661441 0.320912 0.127983
O O8 0.337428 0.251733 0.328292
O O9 0.377004 0.402818 0.473588
O O10 0.184413 0.390711 0.367877
O O11 0.424900 0.398341 0.106666
O O12 0.659682 0.378765 0.830361
O O13 0.950459 0.902633 0.766538
O O14 0.000160 0.739666 0.901377
#
# Coordination Sequence:
#
# PCOD9137147 Si02
#       7
#     4   4   4   4   4   4   4
#     4  12  23  43  68 102 135 190 232 298 352 430
#     4  11  24  42  68 103 140 182 242 289 359 424
#     4  10  23  45  66 103 138 184 234 295 349 427
#     4  10  22  39  68  93 141 176 233 289 354 408
#     4  11  22  42  72 100 135 185 234 290 351 429
#     4  11  25  41  71 105 139 186 236 293 354 434
#     4  11  25  42  69 102 142 179 241 292 361 422
#
# _framework density 24.75395
#
# number of rings (size 3 to 8) (size 9 to 14) (size 15 to 20)
#    0.000    1.143    5.714    0.000    6.000    0.000 
#    2.571    1.429    0.000    0.000    0.000    0.000 
#    0.000    0.000    0.000    0.000    0.000    0.000 
#
# Total GULP energy -78229.725955 kJ/mol
# GULP energy per Si atom -5587.837568 kJ/mol
# Density = 2.469761 g / cm^3
# Si number density = 24.753950 Si / 1000 Ang^3
#
#
#
# Elastic Constant Matrix: (Units=GPa)
#
#
# Indices 1 2 3 4 5 6 
#
# 1 142.6778 35.2072 42.3005 0.0000 13.2613 0.0000
# 2 35.2072 90.7861 25.6666 0.0000 1.7020 0.0000
# 3 42.3005 25.6666 105.1165 0.0000 6.7623 0.0000
# 4 0.0000 0.0000 0.0000 20.1575 0.0000 7.3725
# 5 13.2613 1.7020 6.7623 0.0000 37.2318 0.0000
# 6 0.0000 0.0000 0.0000 7.3725 0.0000 16.8013
#
#
#
# Elastic Compliance Matrix: (Units=1/GPa)
#
#
# Indices 1 2 3 4 5 6 
#
# 1 0.008671 -0.002551 -0.002707 0.000000 -0.002480 0.000000
# 2 -0.002551 0.012582 -0.002092 0.000000 0.000713 0.000000
# 3 -0.002707 -0.002092 0.011176 0.000000 -0.000970 0.000000
# 4 0.000000 0.000000 0.000000 0.059093 0.000000 -0.025930
# 5 -0.002480 0.000713 -0.000970 0.000000 0.027886 0.000000
# 6 0.000000 0.000000 0.000000 -0.025930 0.000000 0.070898
#
#
# Mechanical properties :
#
#
# Convention : Reuss Voigt Hill
#
# Bulk Modulus (GPa) = 56.40139 60.54767 58.47453
# Shear Modulus (GPa) = 23.70625 30.53185 27.11905
#
# Velocity S-wave (km/s) = 3.09799 3.51581 3.31349
# Velocity P-wave (km/s) = 5.96917 6.40266 6.18971
#
# Compressibility (1/GPa) = 0.01773006
#
# Stress axis : x y z
#
# Youngs Moduli (GPa) = 115.32171 79.47788 89.47971
#
# Poissons Ratio (x) = 0.20275 0.24223
# Poissons Ratio (y) = 0.29418 0.18715
# Poissons Ratio (z) = 0.31218 0.16623
#
# Static dielectric constant tensor:
#      x y z
#    x 1.952220 0.000000 0.055230 
#    y 0.000000 1.946590 0.000000 
#    z 0.055230 0.000000 2.001370 
# 
# From -- ./inp_files/7321.got.cif
#   From: 2010.05.17/outbox.cif.g08.bks.cpg/sg9_4_cif.got.tgz:7321.got - 2010.06.03 20:04:27.
