data_PCOD9137822
_publ_section_title
;
Structure prediction by ZEFSAII (Michael W. Deem and Ramdas Pophale) SiO2 
 PCOD9137822
Probable space group: C C
;
_chemical_formula_sum "Si O2"
_cell_formula_units_Z 28
_cell_length_a 5.137102
_cell_length_b 13.423708
_cell_length_c 19.205309
_cell_angle_alpha 90.000000
_cell_angle_beta 103.662963
_cell_angle_gamma 90.000000
_cell_volume 1286.900848
_symmetry_space_group_name_H-M "C C"
_symmetry_group_IT_number 9
_symmetry_cell_setting 'monoclinic'
loop_
_space_group_symop_operation_xyz
x,y,z
x,-y,1/2+z
1/2+x,1/2+y,z
1/2+x,1/2-y,1/2+z
loop_
_atom_site_type_symbol
_atom_site_label
_atom_site_fract_x
_atom_site_fract_y
_atom_site_fract_z
Si Si1 0.385040 0.090566 0.380700
Si Si2 0.304597 0.501340 0.810447
Si Si3 0.360406 0.640495 0.195699
Si Si4 0.301366 0.267555 0.276862
Si Si5 0.897659 0.250196 0.619061
Si Si6 0.604398 0.941342 0.043764
Si Si7 0.122320 0.944427 0.585976
O O1 0.588641 0.015423 0.356417
O O2 0.426199 0.194831 0.342444
O O3 0.456356 0.097226 0.465868
O O4 0.087697 0.047106 0.350532
O O5 0.214978 0.438138 0.736546
O O6 0.328825 0.617433 0.795686
O O7 0.500489 0.723912 0.251834
O O8 0.565412 0.570159 0.165213
O O9 0.193357 0.703758 0.128455
O O10 0.392376 0.250680 0.203028
O O11 0.788503 0.144644 0.588872
O O12 0.711687 0.333323 0.571871
O O13 0.370850 0.985194 0.079204
O O14 0.835879 0.021081 0.038780
#
# Coordination Sequence:
#
# PCOD9137822 Si02
#       7
#     4   4   4   4   4   4   4
#     4  11  26  46  62 101 137 181 241 278 333 438
#     4  11  24  44  71  95 136 180 225 290 350 405
#     4  10  22  44  71 106 140 166 242 296 349 422
#     4  10  24  41  73 101 133 180 227 293 351 397
#     4  11  24  43  72 107 137 176 235 300 347 419
#     4  12  27  43  70  96 146 192 229 285 364 419
#     4  11  25  45  65 102 137 179 227 286 350 424
#
# _framework density 21.757698999999999
#
# number of rings (size 3 to 8) (size 9 to 14) (size 15 to 20)
#    0.000    1.143    2.857    1.714    6.000    2.286 
#    0.000    0.000    0.000    0.000    0.000    0.000 
#    0.000    0.000    0.000    0.000    0.000    0.000 
#
# Total GULP energy -78078.222874 kJ/mol
# GULP energy per Si atom -5577.015920 kJ/mol
# Density = 2.170818 g / cm^3
# Si number density = 21.757699 Si / 1000 Ang^3
#
#
#
# Elastic Constant Matrix: (Units=GPa)
#
#
# Indices 1 2 3 4 5 6 
#
# 1 102.5131 2.7509 16.3375 0.0000 13.4366 0.0000
# 2 2.7509 58.2036 -3.9466 0.0000 13.8868 0.0000
# 3 16.3375 -3.9466 62.3529 0.0000 9.4806 0.0000
# 4 0.0000 0.0000 0.0000 18.3639 0.0000 1.2598
# 5 13.4366 13.8868 9.4806 0.0000 21.9859 0.0000
# 6 0.0000 0.0000 0.0000 1.2598 0.0000 23.9188
#
#
#
# Elastic Compliance Matrix: (Units=1/GPa)
#
#
# Indices 1 2 3 4 5 6 
#
# 1 0.010861 0.000896 -0.001813 0.000000 -0.006422 0.000000
# 2 0.000896 0.021021 0.003422 0.000000 -0.015301 0.000000
# 3 -0.001813 0.003422 0.018075 0.000000 -0.008848 0.000000
# 4 0.000000 0.000000 0.000000 0.054652 0.000000 -0.002878
# 5 -0.006422 -0.015301 -0.008848 0.000000 0.062888 0.000000
# 6 0.000000 0.000000 0.000000 -0.002878 0.000000 0.041960
#
#
# Mechanical properties :
#
#
# Convention : Reuss Voigt Hill
#
# Bulk Modulus (GPa) = 18.19222 28.15035 23.17129
# Shear Modulus (GPa) = 22.44476 26.71559 24.58017
#
# Velocity S-wave (km/s) = 3.21530 3.50790 3.36478
# Velocity P-wave (km/s) = 4.70783 5.41972 5.07627
#
# Compressibility (1/GPa) = 0.05496855
#
# Stress axis : x y z
#
# Youngs Moduli (GPa) = 92.06856 47.57057 55.32636
#
# Poissons Ratio (x) = -0.04262 0.10029
# Poissons Ratio (y) = -0.08250 -0.18934
# Poissons Ratio (z) = 0.16689 -0.16280
#
# Static dielectric constant tensor:
#      x y z
#    x 1.915540 0.000000 0.014160 
#    y 0.000000 1.789300 0.000000 
#    z 0.014160 0.000000 1.814220 
# 
# From -- ./inp_files/31954.got.cif
#   From: 2010.05.17/outbox.cif.g08.bks.cpg/sg9_16_cif.got.tgz:31954.got - 2010.06.03 20:04:27.
