data_PCOD9137457
_publ_section_title
;
Structure prediction by ZEFSAII (Michael W. Deem and Ramdas Pophale) SiO2 
 PCOD9137457
Probable space group: C C
;
_chemical_formula_sum "Si O2"
_cell_formula_units_Z 32
_cell_length_a 7.710691
_cell_length_b 13.406979
_cell_length_c 15.724097
_cell_angle_alpha 90.000000
_cell_angle_beta 126.668990
_cell_angle_gamma 90.000000
_cell_volume 1303.820801
_symmetry_space_group_name_H-M "C C"
_symmetry_group_IT_number 9
_symmetry_cell_setting 'monoclinic'
loop_
_space_group_symop_operation_xyz
x,y,z
x,-y,1/2+z
1/2+x,1/2+y,z
1/2+x,1/2-y,1/2+z
loop_
_atom_site_type_symbol
_atom_site_label
_atom_site_fract_x
_atom_site_fract_y
_atom_site_fract_z
Si Si1 0.275900 0.539744 0.894180
Si Si2 0.597696 0.315900 0.429971
Si Si3 0.779912 0.174958 0.355956
Si Si4 0.508583 0.860024 0.033248
Si Si5 0.866800 0.019757 0.104255
Si Si6 0.574756 0.210625 0.064033
Si Si7 0.602287 0.606890 0.311581
Si Si8 0.974848 0.314120 0.222089
O O1 0.188599 0.428076 0.865453
O O2 0.071125 0.611627 0.820231
O O3 0.446793 0.587916 0.878491
O O4 0.417881 0.535345 0.021169
O O5 0.615760 0.258398 0.344051
O O6 0.517501 0.243742 0.483177
O O7 0.848226 0.332408 0.530320
O O8 0.997014 0.219418 0.463581
O O9 0.882068 0.128582 0.300311
O O10 0.487250 0.850449 0.128448
O O11 0.722940 0.922482 0.075599
O O12 0.301208 0.914067 0.931026
O O13 0.718639 0.117646 0.078722
O O14 0.060863 0.026419 0.226995
O O15 0.724840 0.283051 0.164463
O O16 0.620854 0.714404 0.270500
#
# Coordination Sequence:
#
# PCOD9137457 Si02
#       8
#     4   4   4   4   4   4   4   4
#     4  12  23  44  72 103 146 190 237 296 372 432
#     4  10  22  42  66 101 140 182 233 302 342 435
#     4  10  22  44  64 101 141 182 246 290 354 442
#     4  12  22  47  68 105 143 179 248 291 359 442
#     4  11  24  44  71 105 141 189 239 288 374 437
#     4   9  21  42  65  99 137 183 230 296 347 423
#     4  11  23  43  73  97 142 194 232 301 367 422
#     4  11  23  42  73  99 140 193 227 304 365 425
#
# _framework density 24.543248999999999
#
# number of rings (size 3 to 8) (size 9 to 14) (size 15 to 20)
#    0.750    0.500    3.750    3.000    1.750    0.000 
#    9.000    0.000    0.000    0.000    0.000    0.000 
#    0.000    0.000    0.000    0.000    0.000    0.000 
#
# Total GULP energy -89177.813631 kJ/mol
# GULP energy per Si atom -5573.613352 kJ/mol
# Density = 2.448739 g / cm^3
# Si number density = 24.543249 Si / 1000 Ang^3
#
#
#
# Elastic Constant Matrix: (Units=GPa)
#
#
# Indices 1 2 3 4 5 6 
#
# 1 39.1214 -0.3431 -9.2495 0.0000 7.6278 0.0000
# 2 -0.3431 66.5853 11.6042 0.0000 9.2968 0.0000
# 3 -9.2495 11.6042 81.3613 0.0000 -5.7023 0.0000
# 4 0.0000 0.0000 0.0000 5.8971 0.0000 -0.8738
# 5 7.6278 9.2968 -5.7023 0.0000 24.0201 0.0000
# 6 0.0000 0.0000 0.0000 -0.8738 0.0000 29.8861
#
#
#
# Elastic Compliance Matrix: (Units=1/GPa)
#
#
# Indices 1 2 3 4 5 6 
#
# 1 0.027824 0.000923 0.002427 0.000000 -0.008617 0.000000
# 2 0.000923 0.016532 -0.002768 0.000000 -0.007349 0.000000
# 3 0.002427 -0.002768 0.013202 0.000000 0.003435 0.000000
# 4 0.000000 0.000000 0.000000 0.170313 0.000000 0.004979
# 5 -0.008617 -0.007349 0.003435 0.000000 0.048028 0.000000
# 6 0.000000 0.000000 0.000000 0.004979 0.000000 0.033606
#
#
# Mechanical properties :
#
#
# Convention : Reuss Voigt Hill
#
# Bulk Modulus (GPa) = 17.02896 21.23234 19.13065
# Shear Modulus (GPa) = 15.24796 24.29774 19.77285
#
# Velocity S-wave (km/s) = 2.49523 3.14983 2.84145
# Velocity P-wave (km/s) = 3.90576 4.67957 4.31007
#
# Compressibility (1/GPa) = 0.05872348
#
# Stress axis : x y z
#
# Youngs Moduli (GPa) = 35.94072 60.49052 75.74430
#
# Poissons Ratio (x) = -0.05586 -0.18387
# Poissons Ratio (y) = -0.03319 0.20965
# Poissons Ratio (z) = -0.08725 0.16743
#
# Static dielectric constant tensor:
#      x y z
#    x 2.004870 0.000000 -0.053980 
#    y 0.000000 2.101760 0.000000 
#    z -0.053980 0.000000 2.042160 
# 
# From -- ./inp_files/23442.got.cif
#   From: 2010.05.17/outbox.cif.g08.bks.cpg/sg9_12_cif.got.tgz:23442.got - 2010.06.03 20:04:27.
