data_PCOD9137260
_publ_section_title
;
Structure prediction by ZEFSAII (Michael W. Deem and Ramdas Pophale) SiO2 
 PCOD9137260
Probable space group: C C
;
_chemical_formula_sum "Si O2"
_cell_formula_units_Z 32
_cell_length_a 7.913743
_cell_length_b 15.430226
_cell_length_c 12.318874
_cell_angle_alpha 90.000000
_cell_angle_beta 66.734660
_cell_angle_gamma 90.000000
_cell_volume 1381.949268
_symmetry_space_group_name_H-M "C C"
_symmetry_group_IT_number 9
_symmetry_cell_setting 'monoclinic'
loop_
_space_group_symop_operation_xyz
x,y,z
x,-y,1/2+z
1/2+x,1/2+y,z
1/2+x,1/2-y,1/2+z
loop_
_atom_site_type_symbol
_atom_site_label
_atom_site_fract_x
_atom_site_fract_y
_atom_site_fract_z
Si Si1 0.798070 0.896125 0.347190
Si Si2 0.134280 0.072354 0.612673
Si Si3 0.794385 0.460232 0.882367
Si Si4 0.935849 0.803870 0.812647
Si Si5 0.101558 0.746308 0.002595
Si Si6 0.615213 0.072168 0.465210
Si Si7 0.785379 0.389763 0.653721
Si Si8 0.498773 0.878115 0.237222
O O1 0.780655 0.811123 0.426235
O O2 0.675758 0.874957 0.270855
O O3 0.990430 0.926076 0.248073
O O4 0.699723 0.975986 0.433139
O O5 0.102209 0.038399 0.496106
O O6 0.140192 0.176974 0.579675
O O7 0.263877 0.988440 0.616062
O O8 0.809750 0.400700 0.775340
O O9 0.936151 0.422200 0.934504
O O10 0.865556 0.552046 0.825209
O O11 0.764611 0.864523 0.875831
O O12 0.086501 0.846009 0.694777
O O13 0.893594 0.711962 0.769940
O O14 0.021854 0.785577 0.910324
O O15 0.944779 0.674622 0.073314
O O16 0.565366 0.098430 0.600310
#
# Coordination Sequence:
#
# PCOD9137260 Si02
#       8
#     4   4   4   4   4   4   4   4
#     4  10  22  40  68 105 135 180 241 295 362 438
#     4  12  23  41  72 106 137 188 247 292 367 450
#     4  11  25  44  64  98 143 183 232 299 368 426
#     4  11  21  42  71 104 135 182 243 293 363 441
#     4  11  23  44  75 104 142 189 238 302 372 436
#     4  11  22  45  67  99 141 188 232 297 368 433
#     4  12  24  45  71 104 143 187 240 302 360 439
#     4  10  22  41  72  98 136 191 231 302 366 429
#
# _framework density 23.155701000000001
#
# number of rings (size 3 to 8) (size 9 to 14) (size 15 to 20)
#    0.000    1.000    2.500    6.750    0.000    0.000 
#    4.500    0.000    0.000    0.000    0.000    0.000 
#    0.000    0.000    0.000    0.000    0.000    0.000 
#
# Total GULP energy -89207.974208 kJ/mol
# GULP energy per Si atom -5575.498388 kJ/mol
# Density = 2.310300 g / cm^3
# Si number density = 23.155701 Si / 1000 Ang^3
#
#
#
# Elastic Constant Matrix: (Units=GPa)
#
#
# Indices 1 2 3 4 5 6 
#
# 1 30.7872 54.9753 23.2248 0.0000 -7.9125 0.0000
# 2 54.9753 158.6351 65.2267 0.0000 -18.3510 0.0000
# 3 23.2248 65.2267 123.9670 0.0000 -12.0516 0.0000
# 4 0.0000 0.0000 0.0000 43.1780 0.0000 -8.7924
# 5 -7.9125 -18.3510 -12.0516 0.0000 34.7873 0.0000
# 6 0.0000 0.0000 0.0000 -8.7924 0.0000 30.9871
#
#
#
# Elastic Compliance Matrix: (Units=1/GPa)
#
#
# Indices 1 2 3 4 5 6 
#
# 1 0.085764 -0.029107 -0.000361 0.000000 0.004028 0.000000
# 2 -0.029107 0.018210 -0.003972 0.000000 0.001610 0.000000
# 3 -0.000361 -0.003972 0.010361 0.000000 0.001412 0.000000
# 4 0.000000 0.000000 0.000000 0.024580 0.000000 0.006974
# 5 0.004028 0.001610 0.001412 0.000000 0.031001 0.000000
# 6 0.000000 0.000000 0.000000 0.006974 0.000000 0.034250
#
#
# Mechanical properties :
#
#
# Convention : Reuss Voigt Hill
#
# Bulk Modulus (GPa) = 21.07234 66.69364 43.88299
# Shear Modulus (GPa) = 17.42972 33.12130 25.27551
#
# Velocity S-wave (km/s) = 2.74655 3.78613 3.30744
# Velocity P-wave (km/s) = 4.37928 6.92660 5.79465
#
# Compressibility (1/GPa) = 0.04745557
#
# Stress axis : x y z
#
# Youngs Moduli (GPa) = 11.65987 54.91380 96.51163
#
# Poissons Ratio (x) = 1.59840 0.03483
# Poissons Ratio (y) = 0.33939 0.38334
# Poissons Ratio (z) = 0.00421 0.21811
#
# Static dielectric constant tensor:
#      x y z
#    x 2.023870 0.000000 -0.090230 
#    y 0.000000 1.895960 0.000000 
#    z -0.090230 0.000000 1.961370 
# 
# From -- ./inp_files/14568.got.cif
#   From: 2010.05.17/outbox.cif.g08.bks.cpg/sg9_8_cif.got.tgz:14568.got - 2010.06.03 20:04:27.
