data_PCOD9137041
_publ_section_title
;
Structure prediction by ZEFSAII (Michael W. Deem and Ramdas Pophale) SiO2 
 PCOD9137041
Probable space group: C C
;
_chemical_formula_sum "Si O2"
_cell_formula_units_Z 28
_cell_length_a 6.784331
_cell_length_b 27.175282
_cell_length_c 7.125204
_cell_angle_alpha 90.000000
_cell_angle_beta 108.769013
_cell_angle_gamma 90.000000
_cell_volume 1243.790911
_symmetry_space_group_name_H-M "C C"
_symmetry_group_IT_number 9
_symmetry_cell_setting 'monoclinic'
loop_
_space_group_symop_operation_xyz
x,y,z
x,-y,1/2+z
1/2+x,1/2+y,z
1/2+x,1/2-y,1/2+z
loop_
_atom_site_type_symbol
_atom_site_label
_atom_site_fract_x
_atom_site_fract_y
_atom_site_fract_z
Si Si1 0.545920 0.498712 0.619490
Si Si2 0.832099 0.689386 0.147598
Si Si3 0.443683 0.810615 0.247319
Si Si4 0.887891 0.770798 0.447459
Si Si5 0.229873 0.501287 0.775450
Si Si6 0.373327 0.920618 0.218654
Si Si7 0.402466 0.079383 0.176282
O O1 0.487750 0.508624 0.849351
O O2 0.288043 0.491375 0.545586
O O3 0.661183 0.550398 0.618096
O O4 0.712425 0.454538 0.689504
O O5 0.887884 0.693016 0.947455
O O6 0.582914 0.697661 0.076718
O O7 0.891736 0.635405 0.237608
O O8 0.940860 0.732786 0.296740
O O9 0.692867 0.802340 0.318208
O O10 0.384056 0.864597 0.157318
O O11 0.334924 0.767217 0.098168
O O12 0.063367 0.545461 0.705433
O O13 0.114610 0.550400 0.276843
O O14 0.387897 0.918457 0.447468
#
# Coordination Sequence:
#
# PCOD9137041 Si02
#       7
#     4   4   4   4   4   4   4
#     4  11  22  37  58  85 119 155 196 246 295 357
#     4  10  22  40  63  88 123 158 202 254 303 361
#     4  10  22  40  63  88 123 158 202 254 303 361
#     4  10  22  40  62  92 120 160 204 252 306 358
#     4  11  22  37  58  85 119 155 196 246 295 357
#     4  10  22  38  59  88 118 158 201 242 300 364
#     4  10  22  38  59  88 118 158 201 242 300 364
#
# _framework density 22.511821999999999
#
# number of rings (size 3 to 8) (size 9 to 14) (size 15 to 20)
#    0.000    1.714    2.857    0.857    2.000    2.286 
#    0.000    7.143    0.000    0.000    0.000    0.000 
#    0.000    0.000    0.000    0.000    0.000    0.000 
#
# Total GULP energy -78105.769839 kJ/mol
# GULP energy per Si atom -5578.983560 kJ/mol
# Density = 2.246058 g / cm^3
# Si number density = 22.511822 Si / 1000 Ang^3
#
#
#
# Elastic Constant Matrix: (Units=GPa)
#
#
# Indices 1 2 3 4 5 6 
#
# 1 112.7904 66.2727 24.4299 0.0000 -11.4669 0.0000
# 2 66.2727 139.5194 16.3101 0.0000 -5.2321 0.0000
# 3 24.4299 16.3101 113.7256 0.0000 -21.9739 0.0000
# 4 0.0000 0.0000 0.0000 -7.6622 0.0000 23.1348
# 5 -11.4669 -5.2321 -21.9739 0.0000 51.5891 0.0000
# 6 0.0000 0.0000 0.0000 23.1348 0.0000 1.3232
#
#
#
# Elastic Compliance Matrix: (Units=1/GPa)
#
#
# Indices 1 2 3 4 5 6 
#
# 1 0.012802 -0.005834 -0.001610 0.000000 0.001568 0.000000
# 2 -0.005834 0.009953 -0.000250 0.000000 -0.000394 0.000000
# 3 -0.001610 -0.000250 0.009917 0.000000 0.003841 0.000000
# 4 0.000000 0.000000 0.000000 -0.002426 0.000000 0.042421
# 5 0.001568 -0.000394 0.003841 0.000000 0.021328 0.000000
# 6 0.000000 0.000000 0.000000 0.042421 0.000000 0.014050
#
#
# Mechanical properties :
#
#
# Convention : Reuss Voigt Hill
#
# Bulk Modulus (GPa) = 57.86118 64.45120 61.15619
# Shear Modulus (GPa) = 57.62034 26.31820 41.96927
#
# Velocity S-wave (km/s) = 5.06470 3.42290 4.32246
# Velocity P-wave (km/s) = 7.74338 6.65685 7.22058
#
# Compressibility (1/GPa) = 0.01728275
#
# Stress axis : x y z
#
# Youngs Moduli (GPa) = 78.11180 100.47048 100.83650
#
# Poissons Ratio (x) = 0.58615 0.16239
# Poissons Ratio (y) = 0.45571 0.02524
# Poissons Ratio (z) = 0.12579 0.02515
#
# Static dielectric constant tensor:
#      x y z
#    x 1.835320 0.000000 -0.260380 
#    y 0.000000 1.747670 0.000000 
#    z -0.260380 0.000000 2.666100 
# 
# From -- ./inp_files/4191.got.cif
#   From: 2010.05.17/outbox.cif.g08.bks.cpg/sg9_3_cif.got.tgz:4191.got - 2010.06.03 20:04:27.
