data_PCOD9137882
_publ_section_title
;
Structure prediction by ZEFSAII (Michael W. Deem and Ramdas Pophale) SiO2 
 PCOD9137882
Probable space group: C C
;
_chemical_formula_sum "Si O2"
_cell_formula_units_Z 24
_cell_length_a 10.228521
_cell_length_b 11.323578
_cell_length_c 13.462637
_cell_angle_alpha 90.000000
_cell_angle_beta 34.197125
_cell_angle_gamma 90.000000
_cell_volume 876.385791
_symmetry_space_group_name_H-M "C C"
_symmetry_group_IT_number 9
_symmetry_cell_setting 'monoclinic'
loop_
_space_group_symop_operation_xyz
x,y,z
x,-y,1/2+z
1/2+x,1/2+y,z
1/2+x,1/2-y,1/2+z
loop_
_atom_site_type_symbol
_atom_site_label
_atom_site_fract_x
_atom_site_fract_y
_atom_site_fract_z
Si Si1 0.990160 0.350735 0.292140
Si Si2 0.693312 0.437358 0.322859
Si Si3 0.291438 0.401475 0.354353
Si Si4 0.699366 0.331017 0.952783
Si Si5 0.088283 0.089852 0.197846
Si Si6 0.200611 0.594417 0.147639
O O1 0.911174 0.364502 0.226330
O O2 0.777489 0.390701 0.494733
O O3 0.052408 0.216134 0.269901
O O4 0.174209 0.456139 0.195139
O O5 0.700776 0.558406 0.379882
O O6 0.673216 0.488578 0.223471
O O7 0.462915 0.368347 0.504835
O O8 0.132407 0.286783 0.432697
O O9 0.344271 0.539789 0.306152
O O10 0.219310 0.402868 0.516011
O O11 0.523164 0.353276 0.152691
O O12 0.969486 0.334099 0.823049
#
# Coordination Sequence:
#
# PCOD9137882 Si02
#       6
#     4   4   4   4   4   4
#     4  11  24  50  73 112 154 193 257 319 367 464
#     4  10  24  46  72 109 141 205 251 289 407 433
#     4  11  21  41  71  98 142 191 232 313 364 428
#     4  11  22  42  68 104 143 184 251 306 360 455
#     4  11  23  46  74 106 155 192 247 319 368 450
#     4  10  22  45  68 101 147 181 252 306 364 456
#
# _framework density 27.385200000000001
#
# number of rings (size 3 to 8) (size 9 to 14) (size 15 to 20)
#    0.000    1.333    5.000    2.000    0.000    2.667 
#   12.000    0.000    0.000    0.000    0.000    0.000 
#    0.000    0.000    0.000    0.000    0.000    0.000 
#
# Total GULP energy -66871.481966 kJ/mol
# GULP energy per Si atom -5572.623497 kJ/mol
# Density = 2.732287 g / cm^3
# Si number density = 27.385200 Si / 1000 Ang^3
#
#
#
# Elastic Constant Matrix: (Units=GPa)
#
#
# Indices 1 2 3 4 5 6 
#
# 1 79.7437 18.3196 18.8553 -0.0016 -0.2154 -0.0001
# 2 18.3196 108.0678 28.1952 -0.0031 22.6171 0.0013
# 3 18.8553 28.1952 145.7261 -0.0085 10.0216 0.0040
# 4 -0.0016 -0.0031 -0.0085 52.1345 0.0035 8.9546
# 5 -0.2154 22.6171 10.0216 0.0035 38.0406 -0.0009
# 6 -0.0001 0.0013 0.0040 8.9546 -0.0009 13.6137
#
#
#
# Elastic Compliance Matrix: (Units=1/GPa)
#
#
# Indices 1 2 3 4 5 6 
#
# 1 0.013404 -0.002280 -0.001417 0.000000 0.001805 0.000001
# 2 -0.002280 0.011357 -0.001464 0.000001 -0.006380 -0.000002
# 3 -0.001417 -0.001464 0.007404 0.000002 -0.001088 -0.000003
# 4 0.000000 0.000001 0.000002 0.021624 -0.000003 -0.014224
# 5 0.001805 -0.006380 -0.001088 -0.000003 0.030378 0.000005
# 6 0.000001 -0.000002 -0.000003 -0.014224 0.000005 0.082811
#
#
# Mechanical properties :
#
#
# Convention : Reuss Voigt Hill
#
# Bulk Modulus (GPa) = 45.78249 51.58644 48.68446
# Shear Modulus (GPa) = 27.08840 38.63560 32.86200
#
# Velocity S-wave (km/s) = 3.14851 3.76016 3.46785
# Velocity P-wave (km/s) = 5.47464 6.14248 5.81815
#
# Compressibility (1/GPa) = 0.02184241
#
# Stress axis : x y z
#
# Youngs Moduli (GPa) = 74.60454 88.05116 135.06965
#
# Poissons Ratio (x) = 0.20078 0.19143
# Poissons Ratio (y) = 0.17012 0.19769
# Poissons Ratio (z) = 0.10574 0.12887
#
# Static dielectric constant tensor:
#      x y z
#    x 2.437860 0.000000 -0.104900 
#    y 0.000000 2.179250 0.000000 
#    z -0.104900 0.000000 2.083130 
# 
# From -- ./inp_files/24715.got.cif
#   From: 2010.05.17/outbox.cif.g08.bks.cpg/sg9_13_cif.got.tgz:24715.got - 2010.06.03 20:04:27.
