data_PCOD9137585
_publ_section_title
;
Structure prediction by ZEFSAII (Michael W. Deem and Ramdas Pophale) SiO2 
 PCOD9137585
Probable space group: C C
;
_chemical_formula_sum "Si O2"
_cell_formula_units_Z 28
_cell_length_a 19.530263
_cell_length_b 6.503045
_cell_length_c 13.533350
_cell_angle_alpha 90.000000
_cell_angle_beta 43.644639
_cell_angle_gamma 90.000000
_cell_volume 1186.300625
_symmetry_space_group_name_H-M "C C"
_symmetry_group_IT_number 9
_symmetry_cell_setting 'monoclinic'
loop_
_space_group_symop_operation_xyz
x,y,z
x,-y,1/2+z
1/2+x,1/2+y,z
1/2+x,1/2-y,1/2+z
loop_
_atom_site_type_symbol
_atom_site_label
_atom_site_fract_x
_atom_site_fract_y
_atom_site_fract_z
Si Si1 0.595160 0.490658 0.965060
Si Si2 0.895633 0.973859 0.114919
Si Si3 0.277427 0.103514 0.516776
Si Si4 0.461179 0.743753 0.731063
Si Si5 0.216507 0.267666 0.211310
Si Si6 0.639125 0.970528 0.625582
Si Si7 0.762795 0.261401 0.364221
O O1 0.659509 0.290377 0.870905
O O2 0.670271 0.675771 0.893217
O O3 0.510365 0.509712 0.970329
O O4 0.535458 0.450328 0.130196
O O5 0.903831 0.783244 0.185779
O O6 0.810464 0.913840 0.128748
O O7 0.857346 0.179656 0.208318
O O8 0.377869 0.238015 0.402192
O O9 0.184355 0.254255 0.612027
O O10 0.261690 0.943806 0.621525
O O11 0.280901 0.952576 0.417638
O O12 0.536109 0.929521 0.677267
O O13 0.138983 0.373596 0.217945
O O14 0.722195 0.071501 0.469536
#
# Coordination Sequence:
#
# PCOD9137585 Si02
#       7
#     4   4   4   4   4   4   4
#     4  10  23  44  68 103 134 182 236 287 341 431
#     4  10  23  44  68 103 134 182 236 287 341 431
#     4  11  23  45  67 101 135 184 223 291 351 421
#     4  10  22  42  76  94 130 178 250 276 332 432
#     4  11  26  44  66 103 156 174 220 299 368 406
#     4  11  23  45  67 101 135 184 223 291 351 421
#     4  11  22  44  72  95 140 180 238 287 342 414
#
# _framework density 23.602785999999998
#
# number of rings (size 3 to 8) (size 9 to 14) (size 15 to 20)
#    0.857    0.571    2.857    1.714    6.000    0.000 
#    2.571    0.000    0.000    0.000    0.000    0.000 
#    0.000    0.000    0.000    0.000    0.000    0.000 
#
# Total GULP energy -78043.932639 kJ/mol
# GULP energy per Si atom -5574.566617 kJ/mol
# Density = 2.354906 g / cm^3
# Si number density = 23.602786 Si / 1000 Ang^3
#
#
#
# Elastic Constant Matrix: (Units=GPa)
#
#
# Indices 1 2 3 4 5 6 
#
# 1 73.1201 22.0716 19.6409 0.0015 -17.1233 -0.0016
# 2 22.0716 67.4423 30.1901 -0.0011 1.7738 -0.0011
# 3 19.6409 30.1901 65.7803 0.0004 -12.9769 0.0003
# 4 0.0015 -0.0011 0.0004 29.3882 -0.0007 -5.2654
# 5 -17.1233 1.7738 -12.9769 -0.0007 25.6080 -0.0002
# 6 -0.0016 -0.0011 0.0003 -5.2654 -0.0002 43.9130
#
#
#
# Elastic Compliance Matrix: (Units=1/GPa)
#
#
# Indices 1 2 3 4 5 6 
#
# 1 0.018645 -0.006399 -0.000093 -0.000001 0.012864 0.000000
# 2 -0.006399 0.021806 -0.010266 0.000001 -0.010991 0.000000
# 3 -0.000093 -0.010266 0.022299 0.000000 0.011949 0.000000
# 4 -0.000001 0.000001 0.000000 0.034774 0.000000 0.004170
# 5 0.012864 -0.010991 0.011949 0.000000 0.054468 0.000000
# 6 0.000000 0.000000 0.000000 0.004170 0.000000 0.023272
#
#
# Mechanical properties :
#
#
# Convention : Reuss Voigt Hill
#
# Bulk Modulus (GPa) = 34.20528 38.90531 36.55529
# Shear Modulus (GPa) = 22.88084 28.74452 25.81268
#
# Velocity S-wave (km/s) = 3.11692 3.49355 3.31059
# Velocity P-wave (km/s) = 5.24186 5.72646 5.48951
#
# Compressibility (1/GPa) = 0.02923526
#
# Stress axis : x y z
#
# Youngs Moduli (GPa) = 53.63404 45.85888 44.84601
#
# Poissons Ratio (x) = 0.29344 0.00416
# Poissons Ratio (y) = 0.34319 0.46038
# Poissons Ratio (z) = 0.00497 0.47077
#
# Static dielectric constant tensor:
#      x y z
#    x 1.966040 0.000000 0.029810 
#    y 0.000000 1.852420 0.000000 
#    z 0.029810 0.000000 1.885700 
# 
# From -- ./inp_files/27002.got.cif
#   From: 2010.05.17/outbox.cif.g08.bks.cpg/sg9_14_cif.got.tgz:27002.got - 2010.06.03 20:04:27.
