data_PCOD9137568
_publ_section_title
;
Structure prediction by ZEFSAII (Michael W. Deem and Ramdas Pophale) SiO2 
 PCOD9137568
Probable space group: C C
;
_chemical_formula_sum "Si O2"
_cell_formula_units_Z 32
_cell_length_a 25.627984
_cell_length_b 10.684225
_cell_length_c 14.123369
_cell_angle_alpha 90.000000
_cell_angle_beta 20.841643
_cell_angle_gamma 90.000000
_cell_volume 1375.894089
_symmetry_space_group_name_H-M "C C"
_symmetry_group_IT_number 9
_symmetry_cell_setting 'monoclinic'
loop_
_space_group_symop_operation_xyz
x,y,z
x,-y,1/2+z
1/2+x,1/2+y,z
1/2+x,1/2-y,1/2+z
loop_
_atom_site_type_symbol
_atom_site_label
_atom_site_fract_x
_atom_site_fract_y
_atom_site_fract_z
Si Si1 0.125000 0.245859 0.633740
Si Si2 0.331161 0.935596 0.893457
Si Si3 0.852983 0.070709 0.331054
Si Si4 0.044919 0.475568 0.873613
Si Si5 0.555396 0.506025 0.156264
Si Si6 0.193627 0.184311 0.168354
Si Si7 0.899808 0.885489 0.095982
Si Si8 0.340935 0.033584 0.074174
O O1 0.237960 0.179188 0.514731
O O2 0.238094 0.325470 0.376427
O O3 0.044427 0.137224 0.711628
O O4 0.022413 0.336762 0.869546
O O5 0.467592 0.976673 0.598643
O O6 0.221752 0.053403 0.068264
O O7 0.369707 0.938165 0.939115
O O8 0.789635 0.208546 0.456753
O O9 0.988530 0.037076 0.167290
O O10 0.887868 0.021276 0.167473
O O11 0.717282 0.985949 0.595149
O O12 0.987056 0.561932 0.884665
O O13 0.467943 0.593883 0.377264
O O14 0.729126 0.519483 0.841989
O O15 0.261708 0.150423 0.155956
O O16 0.018521 0.195736 0.456111
#
# Coordination Sequence:
#
# PCOD9137568 Si02
#       8
#     4   4   4   4   4   4   4   4
#     4  11  25  43  72  99 142 179 230 283 348 408
#     4  10  22  43  69  98 138 180 224 285 347 396
#     4  11  26  41  67 106 134 175 242 273 343 413
#     4  11  24  43  68 101 136 179 229 283 336 413
#     4  12  24  44  67 100 139 183 223 280 349 402
#     4  10  22  42  72  95 141 177 221 292 340 403
#     4  11  24  44  71 102 137 180 227 288 341 409
#     4  10  23  44  66  99 135 181 228 272 350 404
#
# _framework density 23.257605000000002
#
# number of rings (size 3 to 8) (size 9 to 14) (size 15 to 20)
#    0.750    0.500    3.750    0.750    3.500    4.000 
#    0.000    0.000    0.000    0.000    0.000    0.000 
#    0.000    0.000    0.000    0.000    0.000    0.000 
#
# Total GULP energy -89270.687197 kJ/mol
# GULP energy per Si atom -5579.417950 kJ/mol
# Density = 2.320467 g / cm^3
# Si number density = 23.257605 Si / 1000 Ang^3
#
#
#
# Elastic Constant Matrix: (Units=GPa)
#
#
# Indices 1 2 3 4 5 6 
#
# 1 50.3430 11.6991 5.6252 0.0000 27.6297 0.0000
# 2 11.6991 94.3284 28.7795 0.0000 11.6865 0.0000
# 3 5.6252 28.7795 64.9601 0.0000 13.8592 0.0000
# 4 0.0000 0.0000 0.0000 35.5384 0.0000 0.4154
# 5 27.6297 11.6865 13.8592 0.0000 44.6353 0.0000
# 6 0.0000 0.0000 0.0000 0.4154 0.0000 21.2294
#
#
#
# Elastic Compliance Matrix: (Units=1/GPa)
#
#
# Indices 1 2 3 4 5 6 
#
# 1 0.030585 -0.002153 0.002382 0.000000 -0.019108 0.000000
# 2 -0.002153 0.012522 -0.005297 0.000000 -0.000301 0.000000
# 3 0.002382 -0.005297 0.018798 0.000000 -0.005925 0.000000
# 4 0.000000 0.000000 0.000000 0.028145 0.000000 -0.000551
# 5 -0.019108 -0.000301 -0.005925 0.000000 0.036151 0.000000
# 6 0.000000 0.000000 0.000000 -0.000551 0.000000 0.047115
#
#
# Mechanical properties :
#
#
# Convention : Reuss Voigt Hill
#
# Bulk Modulus (GPa) = 19.31613 33.53766 26.42690
# Shear Modulus (GPa) = 24.91184 31.18248 28.04716
#
# Velocity S-wave (km/s) = 3.27636 3.66559 3.47642
# Velocity P-wave (km/s) = 4.75773 5.68918 5.24418
#
# Compressibility (1/GPa) = 0.05177020
#
# Stress axis : x y z
#
# Youngs Moduli (GPa) = 32.69562 79.86185 53.19591
#
# Poissons Ratio (x) = 0.17192 -0.12671
# Poissons Ratio (y) = 0.07038 0.28177
# Poissons Ratio (z) = -0.07788 0.42301
#
# Static dielectric constant tensor:
#      x y z
#    x 1.891390 0.000000 0.003680 
#    y 0.000000 1.927940 0.000000 
#    z 0.003680 0.000000 1.867390 
# 
# From -- ./inp_files/28083.got.cif
#   From: 2010.05.17/outbox.cif.g08.bks.cpg/sg9_15_cif.got.tgz:28083.got - 2010.06.03 20:04:27.
