data_PCOD9137625
_publ_section_title
;
Structure prediction by ZEFSAII (Michael W. Deem and Ramdas Pophale) SiO2 
 PCOD9137625
Probable space group: C C
;
_chemical_formula_sum "Si O2"
_cell_formula_units_Z 28
_cell_length_a 13.571584
_cell_length_b 10.167791
_cell_length_c 9.777208
_cell_angle_alpha 90.000000
_cell_angle_beta 60.803393
_cell_angle_gamma 90.000000
_cell_volume 1177.773706
_symmetry_space_group_name_H-M "C C"
_symmetry_group_IT_number 9
_symmetry_cell_setting 'monoclinic'
loop_
_space_group_symop_operation_xyz
x,y,z
x,-y,1/2+z
1/2+x,1/2+y,z
1/2+x,1/2-y,1/2+z
loop_
_atom_site_type_symbol
_atom_site_label
_atom_site_fract_x
_atom_site_fract_y
_atom_site_fract_z
Si Si1 0.652590 0.167701 0.092270
Si Si2 0.434326 0.069397 0.386378
Si Si3 0.196122 0.899043 0.896093
Si Si4 0.905675 0.277153 0.377815
Si Si5 0.852400 0.987703 0.026057
Si Si6 0.279094 0.864257 0.207341
Si Si7 0.992683 0.042059 0.186211
O O1 0.530743 0.127941 0.227404
O O2 0.701672 0.267922 0.173289
O O3 0.659056 0.247554 0.944320
O O4 0.736395 0.044291 0.047141
O O5 0.316992 0.092219 0.387161
O O6 0.403176 0.130097 0.553786
O O7 0.451808 0.914638 0.397320
O O8 0.222546 0.989645 0.746328
O O9 0.098006 0.978628 0.041058
O O10 0.860276 0.170882 0.517296
O O11 0.804186 0.312141 0.341895
O O12 0.000375 0.191107 0.234474
O O13 0.948316 0.032803 0.851504
O O14 0.889280 0.037995 0.148303
#
# Coordination Sequence:
#
# PCOD9137625 Si02
#       7
#     4   4   4   4   4   4   4
#     4  11  23  43  75 100 142 188 253 296 369 441
#     4  10  24  42  67 104 137 188 237 312 359 431
#     4  10  25  39  68  99 142 188 234 298 368 434
#     4   9  22  44  67 101 142 177 247 292 371 422
#     4  10  23  44  71 106 134 196 239 303 356 451
#     4  10  22  43  67 101 142 194 235 307 367 433
#     4  10  23  43  73  99 139 191 243 286 366 446
#
# _framework density 23.773667
#
# number of rings (size 3 to 8) (size 9 to 14) (size 15 to 20)
#    0.857    1.143    1.429    0.000   10.000    3.429 
#   10.286    0.000    0.000    0.000    0.000    0.000 
#    0.000    0.000    0.000    0.000    0.000    0.000 
#
# Total GULP energy -78108.798153 kJ/mol
# GULP energy per Si atom -5579.199868 kJ/mol
# Density = 2.371956 g / cm^3
# Si number density = 23.773667 Si / 1000 Ang^3
#
#
#
# Elastic Constant Matrix: (Units=GPa)
#
#
# Indices 1 2 3 4 5 6 
#
# 1 37.1596 6.2606 15.9637 0.0000 -18.0798 0.0000
# 2 6.2606 106.2390 18.4203 0.0000 -17.1635 0.0000
# 3 15.9637 18.4203 66.8341 0.0000 -18.3744 0.0000
# 4 0.0000 0.0000 0.0000 45.7403 0.0000 -2.0673
# 5 -18.0798 -17.1635 -18.3744 0.0000 42.1465 0.0000
# 6 0.0000 0.0000 0.0000 -2.0673 0.0000 31.6104
#
#
#
# Elastic Compliance Matrix: (Units=1/GPa)
#
#
# Indices 1 2 3 4 5 6 
#
# 1 0.035431 0.000949 -0.005044 0.000000 0.013387 0.000000
# 2 0.000949 0.010312 -0.002048 0.000000 0.003714 0.000000
# 3 -0.005044 -0.002048 0.018074 0.000000 0.004882 0.000000
# 4 0.000000 0.000000 0.000000 0.021927 0.000000 0.001434
# 5 0.013387 0.003714 0.004882 0.000000 0.033110 0.000000
# 6 0.000000 0.000000 0.000000 0.001434 0.000000 0.031729
#
#
# Mechanical properties :
#
#
# Convention : Reuss Voigt Hill
#
# Bulk Modulus (GPa) = 19.40569 32.39134 25.89852
# Shear Modulus (GPa) = 27.77075 35.20532 31.48803
#
# Velocity S-wave (km/s) = 3.42150 3.85236 3.64331
# Velocity P-wave (km/s) = 4.87743 5.78291 5.34936
#
# Compressibility (1/GPa) = 0.05153127
#
# Stress axis : x y z
#
# Youngs Moduli (GPa) = 28.22379 96.97587 55.32873
#
# Poissons Ratio (x) = -0.09206 0.27909
# Poissons Ratio (y) = -0.02679 0.11330
# Poissons Ratio (z) = 0.14237 0.19859
#
# Static dielectric constant tensor:
#      x y z
#    x 1.906140 0.000000 0.051690 
#    y 0.000000 1.972890 0.000000 
#    z 0.051690 0.000000 1.948250 
# 
# From -- ./inp_files/18044.got.cif
#   From: 2010.05.17/outbox.cif.g08.bks.cpg/sg9_10_cif.got.tgz:18044.got - 2010.06.03 20:04:27.
