data_PCOD9137614
_publ_section_title
;
Structure prediction by ZEFSAII (Michael W. Deem and Ramdas Pophale) SiO2 
 PCOD9137614
Probable space group: C C
;
_chemical_formula_sum "Si O2"
_cell_formula_units_Z 24
_cell_length_a 24.954159
_cell_length_b 9.438226
_cell_length_c 12.045573
_cell_angle_alpha 90.000000
_cell_angle_beta 153.419588
_cell_angle_gamma 90.000000
_cell_volume 1269.429423
_symmetry_space_group_name_H-M "C C"
_symmetry_group_IT_number 9
_symmetry_cell_setting 'monoclinic'
loop_
_space_group_symop_operation_xyz
x,y,z
x,-y,1/2+z
1/2+x,1/2+y,z
1/2+x,1/2-y,1/2+z
loop_
_atom_site_type_symbol
_atom_site_label
_atom_site_fract_x
_atom_site_fract_y
_atom_site_fract_z
Si Si1 0.810480 0.024357 0.959860
Si Si2 0.518712 0.284524 0.858809
Si Si3 0.473179 0.226550 0.521756
Si Si4 0.703445 0.797631 0.083910
Si Si5 0.087309 0.567156 0.171297
Si Si6 0.051785 0.905089 0.457186
O O1 0.720838 0.985467 0.890154
O O2 0.737714 0.058678 0.714071
O O3 0.920243 0.914336 0.153645
O O4 0.880394 0.169109 0.117985
O O5 0.529634 0.255488 0.748051
O O6 0.587601 0.428474 0.023475
O O7 0.547697 0.155012 0.990770
O O8 0.329659 0.244456 0.267793
O O9 0.525505 0.336687 0.528294
O O10 0.506633 0.068692 0.545739
O O11 0.604783 0.831958 0.808854
O O12 0.645065 0.688246 0.062144
#
# Coordination Sequence:
#
# PCOD9137614 Si02
#       6
#     4   4   4   4   4   4
#     4   9  21  42  62  90 128 165 211 260 319 377
#     4   9  24  42  62  98 125 165 220 251 323 386
#     4  11  23  43  66  96 130 167 215 266 314 382
#     4  11  22  42  66  92 130 170 211 268 316 376
#     4  12  22  42  68  92 130 169 211 266 322 376
#     4  10  22  43  66  90 131 168 212 265 318 373
#
# _framework density 18.906130999999998
#
# number of rings (size 3 to 8) (size 9 to 14) (size 15 to 20)
#    1.000    0.667    3.333    1.000    2.333    1.333 
#   12.000    0.000    0.000    0.000    0.000    0.000 
#    0.000    0.000    0.000    0.000    0.000    0.000 
#
# Total GULP energy -66832.413274 kJ/mol
# GULP energy per Si atom -5569.367773 kJ/mol
# Density = 1.886310 g / cm^3
# Si number density = 18.906131 Si / 1000 Ang^3
#
#
#
# Elastic Constant Matrix: (Units=GPa)
#
#
# Indices 1 2 3 4 5 6 
#
# 1 113.1410 80.4373 32.6810 0.0000 -3.5923 0.0000
# 2 80.4373 111.8680 40.4946 0.0000 -18.9921 0.0000
# 3 32.6810 40.4946 47.6269 0.0000 -14.0422 0.0000
# 4 0.0000 0.0000 0.0000 28.2988 0.0000 -1.5548
# 5 -3.5923 -18.9921 -14.0422 0.0000 33.6943 0.0000
# 6 0.0000 0.0000 0.0000 -1.5548 0.0000 27.1853
#
#
#
# Elastic Compliance Matrix: (Units=1/GPa)
#
#
# Indices 1 2 3 4 5 6 
#
# 1 0.019664 -0.014041 -0.003728 0.000000 -0.007372 0.000000
# 2 -0.014041 0.023226 -0.007633 0.000000 0.008414 0.000000
# 3 -0.003728 -0.007633 0.032674 0.000000 0.008917 0.000000
# 4 0.000000 0.000000 0.000000 0.035449 0.000000 0.002027
# 5 -0.007372 0.008414 0.008917 0.000000 0.037351 0.000000
# 6 0.000000 0.000000 0.000000 0.002027 0.000000 0.036901
#
#
# Mechanical properties :
#
#
# Convention : Reuss Voigt Hill
#
# Bulk Modulus (GPa) = 40.38772 64.42908 52.40840
# Shear Modulus (GPa) = 20.46485 25.77054 23.11769
#
# Velocity S-wave (km/s) = 3.29362 3.69599 3.50059
# Velocity P-wave (km/s) = 5.98937 7.23645 6.64224
#
# Compressibility (1/GPa) = 0.02476000
#
# Stress axis : x y z
#
# Youngs Moduli (GPa) = 50.85516 43.05447 30.60572
#
# Poissons Ratio (x) = 0.60452 0.11411
# Poissons Ratio (y) = 0.71405 0.23361
# Poissons Ratio (z) = 0.18960 0.32863
#
# Static dielectric constant tensor:
#      x y z
#    x 1.652630 0.000000 -0.026440 
#    y 0.000000 1.663730 0.000000 
#    z -0.026440 0.000000 1.689110 
# 
# From -- ./inp_files/15837.got.cif
#   From: 2010.05.17/outbox.cif.g08.bks.cpg/sg9_8_cif.got.tgz:15837.got - 2010.06.03 20:04:27.
