data_PCOD9137052
_publ_section_title
;
Structure prediction by ZEFSAII (Michael W. Deem and Ramdas Pophale) SiO2 
 PCOD9137052
Probable space group: C C
;
_chemical_formula_sum "Si O2"
_cell_formula_units_Z 32
_cell_length_a 17.726608
_cell_length_b 6.075021
_cell_length_c 14.583724
_cell_angle_alpha 90.000000
_cell_angle_beta 125.589039
_cell_angle_gamma 90.000000
_cell_volume 1277.161147
_symmetry_space_group_name_H-M "C C"
_symmetry_group_IT_number 9
_symmetry_cell_setting 'monoclinic'
loop_
_space_group_symop_operation_xyz
x,y,z
x,-y,1/2+z
1/2+x,1/2+y,z
1/2+x,1/2-y,1/2+z
loop_
_atom_site_type_symbol
_atom_site_label
_atom_site_fract_x
_atom_site_fract_y
_atom_site_fract_z
Si Si1 0.067590 0.246276 0.890510
Si Si2 0.321526 0.303858 0.574587
Si Si3 0.125652 0.340354 0.748120
Si Si4 0.933944 0.850345 0.046952
Si Si5 0.278258 0.008601 0.375847
Si Si6 0.179578 0.504353 0.609339
Si Si7 0.034546 0.838422 0.943874
Si Si8 0.888415 0.522488 0.271522
O O1 0.118398 0.392457 0.850629
O O2 0.075338 0.986013 0.892500
O O3 0.957883 0.279129 0.803870
O O4 0.115719 0.308486 0.020322
O O5 0.403930 0.454793 0.592865
O O6 0.268638 0.464630 0.609484
O O7 0.343624 0.088193 0.651470
O O8 0.276518 0.199737 0.450594
O O9 0.181734 0.111854 0.787952
O O10 0.179880 0.506038 0.719449
O O11 0.018948 0.299472 0.643725
O O12 0.848119 0.687184 0.962556
O O13 0.975401 0.954498 0.982396
O O14 0.319632 0.073933 0.305846
O O15 0.120962 0.281712 0.550579
O O16 0.962916 0.659214 0.857480
#
# Coordination Sequence:
#
# PCOD9137052 Si02
#       8
#     4   4   4   4   4   4   4   4
#     4  11  21  39  66  90 123 172 220 259 332 391
#     4  12  22  39  64  90 129 172 217 263 328 389
#     4  11  22  43  67  95 137 171 212 279 328 375
#     4  10  23  40  66  98 131 172 219 267 327 397
#     4  11  23  43  66  94 135 174 216 273 329 391
#     4  10  23  40  61  92 127 166 215 271 320 388
#     4   9  20  40  60  89 129 162 212 271 318 387
#     4  10  22  38  62  92 127 167 213 269 326 380
#
# _framework density 25.055571
#
# number of rings (size 3 to 8) (size 9 to 14) (size 15 to 20)
#    0.000    1.500    1.250    4.500    0.000    2.000 
#    0.000    6.250    0.000    0.000    0.000    0.000 
#    0.000    0.000    0.000    0.000    0.000    0.000 
#
# Total GULP energy -89384.745212 kJ/mol
# GULP energy per Si atom -5586.546576 kJ/mol
# Density = 2.499854 g / cm^3
# Si number density = 25.055571 Si / 1000 Ang^3
#
#
#
# Elastic Constant Matrix: (Units=GPa)
#
#
# Indices 1 2 3 4 5 6 
#
# 1 107.3172 12.0653 17.1115 0.0000 -23.5950 0.0000
# 2 12.0653 32.0564 4.7811 0.0000 -2.4836 0.0001
# 3 17.1115 4.7811 77.3512 0.0000 -23.9876 0.0000
# 4 0.0000 0.0000 0.0000 34.9506 0.0000 -2.1908
# 5 -23.5950 -2.4836 -23.9876 0.0000 34.5073 0.0000
# 6 0.0000 0.0001 0.0000 -2.1908 0.0000 37.1557
#
#
#
# Elastic Compliance Matrix: (Units=1/GPa)
#
#
# Indices 1 2 3 4 5 6 
#
# 1 0.011388 -0.003709 0.000054 0.000000 0.007557 0.000000
# 2 -0.003709 0.032730 -0.001604 0.000000 -0.001295 0.000000
# 3 0.000054 -0.001604 0.016561 0.000000 0.011434 0.000000
# 4 0.000000 0.000000 0.000000 0.028718 0.000000 0.001693
# 5 0.007557 -0.001295 0.011434 0.000000 0.042002 0.000000
# 6 0.000000 0.000000 0.000000 0.001693 0.000000 0.027014
#
#
# Mechanical properties :
#
#
# Convention : Reuss Voigt Hill
#
# Bulk Modulus (GPa) = 19.93622 31.62672 25.78147
# Shear Modulus (GPa) = 26.93225 33.50717 30.21971
#
# Velocity S-wave (km/s) = 3.28212 3.66090 3.47667
# Velocity P-wave (km/s) = 4.72622 5.52445 5.14086
#
# Compressibility (1/GPa) = 0.05015997
#
# Stress axis : x y z
#
# Youngs Moduli (GPa) = 87.81069 30.55319 60.38265
#
# Poissons Ratio (x) = 0.11331 -0.00323
# Poissons Ratio (y) = 0.32567 0.09687
# Poissons Ratio (z) = -0.00470 0.04902
#
# Static dielectric constant tensor:
#      x y z
#    x 2.036050 0.000000 -0.074330 
#    y 0.000000 1.948500 0.000000 
#    z -0.074330 0.000000 2.044430 
# 
# From -- ./inp_files/26440.got.cif
#   From: 2010.05.17/outbox.cif.g08.bks.cpg/sg9_14_cif.got.tgz:26440.got - 2010.06.03 20:04:27.
