data_PCOD9137564
_publ_section_title
;
Structure prediction by ZEFSAII (Michael W. Deem and Ramdas Pophale) SiO2 
 PCOD9137564
Probable space group: C C
;
_chemical_formula_sum "Si O2"
_cell_formula_units_Z 28
_cell_length_a 14.560054
_cell_length_b 10.712030
_cell_length_c 8.412802
_cell_angle_alpha 90.000000
_cell_angle_beta 109.172293
_cell_angle_gamma 90.000000
_cell_volume 1239.349008
_symmetry_space_group_name_H-M "C C"
_symmetry_group_IT_number 9
_symmetry_cell_setting 'monoclinic'
loop_
_space_group_symop_operation_xyz
x,y,z
x,-y,1/2+z
1/2+x,1/2+y,z
1/2+x,1/2-y,1/2+z
loop_
_atom_site_type_symbol
_atom_site_label
_atom_site_fract_x
_atom_site_fract_y
_atom_site_fract_z
Si Si1 0.625000 0.157859 0.116320
Si Si2 0.518815 0.528957 0.777299
Si Si3 0.315634 0.088171 0.358387
Si Si4 0.125580 0.166269 0.105485
Si Si5 0.462643 0.670204 0.465392
Si Si6 0.544644 0.090946 0.419290
Si Si7 0.803731 0.673191 0.718526
O O1 0.580545 0.128772 0.264312
O O2 0.734405 0.206086 0.188878
O O3 0.572905 0.281288 0.017088
O O4 0.596268 0.038889 0.995193
O O5 0.568641 0.424375 0.695042
O O6 0.455186 0.627127 0.642182
O O7 0.450130 0.453241 0.856014
O O8 0.600775 0.600336 0.923912
O O9 0.238367 0.172012 0.217598
O O10 0.427141 0.086440 0.360994
O O11 0.315546 0.129698 0.542497
O O12 0.274373 0.949338 0.300459
O O13 0.079551 0.302988 0.063069
O O14 0.400446 0.780620 0.360488
#
# Coordination Sequence:
#
# PCOD9137564 Si02
#       7
#     4   4   4   4   4   4   4
#     4  12  28  47  71 110 152 197 245 320 374 448
#     4  10  22  42  72 104 146 195 236 323 361 445
#     4  12  26  47  81 110 144 207 254 308 373 458
#     4  11  23  44  73 106 144 188 256 297 380 438
#     4  11  23  46  70 104 151 187 256 297 385 437
#     4  12  28  48  74 109 155 197 243 318 382 442
#     4  12  28  46  79 109 150 199 260 311 373 462
#
# _framework density 22.592506
#
# number of rings (size 3 to 8) (size 9 to 14) (size 15 to 20)
#    0.000    0.571    2.857    5.143    6.000    1.143 
#    5.143    0.000    0.000    0.000    0.000    0.000 
#    0.000    0.000    0.000    0.000    0.000    0.000 
#
# Total GULP energy -78264.485336 kJ/mol
# GULP energy per Si atom -5590.320381 kJ/mol
# Density = 2.254108 g / cm^3
# Si number density = 22.592506 Si / 1000 Ang^3
#
#
#
# Elastic Constant Matrix: (Units=GPa)
#
#
# Indices 1 2 3 4 5 6 
#
# 1 68.2885 0.9835 29.6130 0.0000 -3.7605 0.0000
# 2 0.9835 90.3949 38.4766 0.0000 -4.9533 0.0000
# 3 29.6130 38.4766 137.0183 0.0000 -9.5611 0.0000
# 4 0.0000 0.0000 0.0000 61.9754 0.0000 5.1806
# 5 -3.7605 -4.9533 -9.5611 0.0000 35.8799 0.0000
# 6 0.0000 0.0000 0.0000 5.1806 0.0000 29.8176
#
#
#
# Elastic Compliance Matrix: (Units=1/GPa)
#
#
# Indices 1 2 3 4 5 6 
#
# 1 0.016364 0.001533 -0.003905 0.000000 0.000886 0.000000
# 2 0.001533 0.012731 -0.003844 0.000000 0.000894 0.000000
# 3 -0.003905 -0.003844 0.009330 0.000000 0.001546 0.000000
# 4 0.000000 0.000000 0.000000 0.016373 0.000000 -0.002845
# 5 0.000886 0.000894 0.001546 0.000000 0.028499 0.000000
# 6 0.000000 0.000000 0.000000 -0.002845 0.000000 0.034032
#
#
# Mechanical properties :
#
#
# Convention : Reuss Voigt Hill
#
# Bulk Modulus (GPa) = 38.47364 48.20532 43.33948
# Shear Modulus (GPa) = 36.12059 40.64316 38.38187
#
# Velocity S-wave (km/s) = 4.00282 4.24602 4.12621
# Velocity P-wave (km/s) = 6.19918 6.73955 6.47500
#
# Compressibility (1/GPa) = 0.02599182
#
# Stress axis : x y z
#
# Youngs Moduli (GPa) = 61.10988 78.54815 107.18529
#
# Poissons Ratio (x) = -0.12040 0.41859
# Poissons Ratio (y) = -0.09367 0.41201
# Poissons Ratio (z) = 0.23865 0.30193
#
# Static dielectric constant tensor:
#      x y z
#    x 1.826840 0.000000 -0.028100 
#    y 0.000000 1.841360 0.000000 
#    z -0.028100 0.000000 1.887210 
# 
# From -- ./inp_files/9305.got.cif
#   From: 2010.05.17/outbox.cif.g08.bks.cpg/sg9_5_cif.got.tgz:9305.got - 2010.06.03 20:04:27.
