data_PCOD9137085
_publ_section_title
;
Structure prediction by ZEFSAII (Michael W. Deem and Ramdas Pophale) SiO2 
 PCOD9137085
Probable space group: C C
;
_chemical_formula_sum "Si O2"
_cell_formula_units_Z 32
_cell_length_a 23.685634
_cell_length_b 9.461520
_cell_length_c 9.074325
_cell_angle_alpha 90.000000
_cell_angle_beta 137.654022
_cell_angle_gamma 90.000000
_cell_volume 1369.828162
_symmetry_space_group_name_H-M "C C"
_symmetry_group_IT_number 9
_symmetry_cell_setting 'monoclinic'
loop_
_space_group_symop_operation_xyz
x,y,z
x,-y,1/2+z
1/2+x,1/2+y,z
1/2+x,1/2-y,1/2+z
loop_
_atom_site_type_symbol
_atom_site_label
_atom_site_fract_x
_atom_site_fract_y
_atom_site_fract_z
Si Si1 0.443000 0.019084 0.257800
Si Si2 0.144224 0.798562 0.540383
Si Si3 0.073903 0.720521 0.972408
Si Si4 0.500701 0.568869 0.554547
Si Si5 0.743414 0.252869 0.475598
Si Si6 0.272448 0.916434 0.022791
Si Si7 0.026603 0.256056 0.063067
Si Si8 0.357396 0.742242 0.428461
O O1 0.455499 0.124888 0.421177
O O2 0.523293 0.921678 0.404440
O O3 0.419544 0.125741 0.080984
O O4 0.362848 0.918698 0.119321
O O5 0.081611 0.892058 0.315397
O O6 0.208356 0.704155 0.567103
O O7 0.199883 0.882869 0.766291
O O8 0.080097 0.715485 0.520213
O O9 0.081419 0.732923 0.813407
O O10 0.018791 0.845204 0.939471
O O11 0.162591 0.728666 0.219328
O O12 0.495741 0.404618 0.506257
O O13 0.415844 0.624718 0.467377
O O14 0.758360 0.419732 0.537770
O O15 0.817904 0.202593 0.511727
O O16 0.285817 0.808184 0.183666
#
# Coordination Sequence:
#
# PCOD9137085 Si02
#       8
#     4   4   4   4   4   4   4   4
#     4  11  24  42  73 104 142 180 248 300 369 421
#     4  11  22  41  70 107 138 188 246 295 353 438
#     4  11  24  42  71 107 142 193 241 304 352 438
#     4  11  23  44  70 110 147 190 245 302 364 437
#     4  10  22  38  68  99 149 185 234 299 365 421
#     4  11  21  41  71 106 136 185 248 299 351 434
#     4  12  24  41  74 103 141 194 243 294 371 436
#     4  11  22  43  69 104 147 193 241 309 359 437
#
# _framework density 23.360596000000001
#
# number of rings (size 3 to 8) (size 9 to 14) (size 15 to 20)
#    0.000    1.000    2.500    6.000    0.000    1.000 
#    0.000    0.000   19.250    0.000    0.000    0.000 
#    0.000    0.000    0.000    0.000    0.000    0.000 
#
# Total GULP energy -89371.089135 kJ/mol
# GULP energy per Si atom -5585.693071 kJ/mol
# Density = 2.330743 g / cm^3
# Si number density = 23.360596 Si / 1000 Ang^3
#
#
#
# Elastic Constant Matrix: (Units=GPa)
#
#
# Indices 1 2 3 4 5 6 
#
# 1 130.1736 20.9886 19.1457 0.0000 5.4950 0.0000
# 2 20.9886 70.6734 13.6377 0.0000 10.9995 0.0000
# 3 19.1457 13.6377 104.5085 0.0000 0.8614 0.0000
# 4 0.0000 0.0000 0.0000 28.6717 0.0000 2.6566
# 5 5.4950 10.9995 0.8614 0.0000 40.0933 0.0000
# 6 0.0000 0.0000 0.0000 2.6566 0.0000 12.4928
#
#
#
# Elastic Compliance Matrix: (Units=1/GPa)
#
#
# Indices 1 2 3 4 5 6 
#
# 1 0.008227 -0.002126 -0.001225 0.000000 -0.000518 0.000000
# 2 -0.002126 0.015716 -0.001628 0.000000 -0.003985 0.000000
# 3 -0.001225 -0.001628 0.010002 0.000000 0.000400 0.000000
# 4 0.000000 0.000000 0.000000 0.035579 0.000000 -0.007566
# 5 -0.000518 -0.003985 0.000400 0.000000 0.026098 0.000000
# 6 0.000000 0.000000 0.000000 -0.007566 0.000000 0.081655
#
#
# Mechanical properties :
#
#
# Convention : Reuss Voigt Hill
#
# Bulk Modulus (GPa) = 41.69321 45.87771 43.78546
# Shear Modulus (GPa) = 25.61075 33.02382 29.31728
#
# Velocity S-wave (km/s) = 3.31467 3.76394 3.54643
# Velocity P-wave (km/s) = 5.70401 6.21057 5.96268
#
# Compressibility (1/GPa) = 0.02398472
#
# Stress axis : x y z
#
# Youngs Moduli (GPa) = 121.55161 63.63144 99.97708
#
# Poissons Ratio (x) = 0.13529 0.12252
# Poissons Ratio (y) = 0.25844 0.16280
# Poissons Ratio (z) = 0.14895 0.10362
#
# Static dielectric constant tensor:
#      x y z
#    x 1.972910 0.000000 -0.013660 
#    y 0.000000 1.861740 0.000000 
#    z -0.013660 0.000000 1.908870 
# 
# From -- ./inp_files/12454.got.cif
#   From: 2010.05.17/outbox.cif.g08.bks.cpg/sg9_7_cif.got.tgz:12454.got - 2010.06.03 20:04:27.
