data_PCOD9137295
_publ_section_title
;
Structure prediction by ZEFSAII (Michael W. Deem and Ramdas Pophale) SiO2 
 PCOD9137295
Probable space group: C C
;
_chemical_formula_sum "Si O2"
_cell_formula_units_Z 32
_cell_length_a 8.303194
_cell_length_b 20.587495
_cell_length_c 9.418946
_cell_angle_alpha 90.000000
_cell_angle_beta 89.856515
_cell_angle_gamma 90.000000
_cell_volume 1610.088088
_symmetry_space_group_name_H-M "C C"
_symmetry_group_IT_number 9
_symmetry_cell_setting 'monoclinic'
loop_
_space_group_symop_operation_xyz
x,y,z
x,-y,1/2+z
1/2+x,1/2+y,z
1/2+x,1/2-y,1/2+z
loop_
_atom_site_type_symbol
_atom_site_label
_atom_site_fract_x
_atom_site_fract_y
_atom_site_fract_z
Si Si1 0.500000 0.818958 0.628540
Si Si2 0.151799 0.972003 0.723049
Si Si3 0.658042 0.348462 0.517996
Si Si4 0.496941 0.575038 0.518810
Si Si5 0.811903 0.853035 0.460335
Si Si6 0.031238 0.179261 0.728006
Si Si7 0.505104 0.033543 0.203526
Si Si8 0.705340 0.002330 0.953958
O O1 0.318593 0.811475 0.567550
O O2 0.641792 0.826256 0.511832
O O3 0.544113 0.756363 0.719861
O O4 0.503659 0.888031 0.710050
O O5 0.166159 0.916117 0.602532
O O6 0.334448 0.992569 0.753650
O O7 0.055449 0.029323 0.648092
O O8 0.075262 0.945129 0.868353
O O9 0.470747 0.326213 0.543795
O O10 0.653266 0.350051 0.345974
O O11 0.540234 0.646387 0.574458
O O12 0.309594 0.559015 0.499728
O O13 0.804779 0.931208 0.476787
O O14 0.858191 0.837777 0.298520
O O15 0.652560 0.006632 0.293470
O O16 0.543466 0.011848 0.044192
#
# Coordination Sequence:
#
# PCOD9137295 Si02
#       8
#     4   4   4   4   4   4   4   4
#     4  10  22  41  62  89 124 169 201 254 314 373
#     4  11  21  39  60  92 125 162 203 263 318 367
#     4   9  21  43  62  87 124 163 205 260 308 368
#     4  12  22  35  66  90 123 159 208 252 316 376
#     4   9  20  41  64  83 125 159 198 261 311 359
#     4  10  23  41  59  94 120 163 217 248 305 386
#     4  10  23  37  60  87 123 154 201 254 312 370
#     4  11  20  37  61  90 116 155 199 256 316 365
#
# _framework density 19.874690000000001
#
# number of rings (size 3 to 8) (size 9 to 14) (size 15 to 20)
#    0.750    1.000    1.250    3.750    1.750    5.000 
#    2.250    1.250    0.000    0.000    0.000    0.000 
#    0.000    0.000    0.000    0.000    0.000    0.000 
#
# Total GULP energy -89078.027906 kJ/mol
# GULP energy per Si atom -5567.376744 kJ/mol
# Density = 1.982945 g / cm^3
# Si number density = 19.874690 Si / 1000 Ang^3
#
#
#
# Elastic Constant Matrix: (Units=GPa)
#
#
# Indices 1 2 3 4 5 6 
#
# 1 91.8807 7.9711 19.4221 0.0000 7.1679 0.0000
# 2 7.9711 22.2686 9.0460 0.0000 -1.6559 0.0000
# 3 19.4221 9.0460 56.0793 0.0000 13.9630 0.0000
# 4 0.0000 0.0000 0.0000 20.1451 0.0000 3.3856
# 5 7.1679 -1.6559 13.9630 0.0000 18.3628 0.0000
# 6 0.0000 0.0000 0.0000 3.3856 0.0000 10.0962
#
#
#
# Elastic Compliance Matrix: (Units=1/GPa)
#
#
# Indices 1 2 3 4 5 6 
#
# 1 0.012007 -0.003308 -0.002940 0.000000 -0.002749 0.000000
# 2 -0.003308 0.051459 -0.010648 0.000000 0.014028 0.000000
# 3 -0.002940 -0.010648 0.025314 0.000000 -0.019061 0.000000
# 4 0.000000 0.000000 0.000000 0.052604 0.000000 -0.017640
# 5 -0.002749 0.014028 -0.019061 0.000000 0.071290 0.000000
# 6 0.000000 0.000000 0.000000 -0.017640 0.000000 0.104963
#
#
# Mechanical properties :
#
#
# Convention : Reuss Voigt Hill
#
# Bulk Modulus (GPa) = 18.18603 27.01190 22.59896
# Shear Modulus (GPa) = 13.52236 18.64010 16.08123
#
# Velocity S-wave (km/s) = 2.61124 3.06581 2.84761
# Velocity P-wave (km/s) = 4.27337 5.11398 4.71246
#
# Compressibility (1/GPa) = 0.05498728
#
# Stress axis : x y z
#
# Youngs Moduli (GPa) = 83.28723 19.43296 39.50422
#
# Poissons Ratio (x) = 0.06428 0.11615
# Poissons Ratio (y) = 0.27551 0.42064
# Poissons Ratio (z) = 0.24488 0.20692
#
# Static dielectric constant tensor:
#      x y z
#    x 1.728000 0.000000 0.006590 
#    y 0.000000 1.701550 0.000000 
#    z 0.006590 0.000000 1.714120 
# 
# From -- ./inp_files/5807.got.cif
#   From: 2010.05.17/outbox.cif.g08.bks.cpg/sg9_3_cif.got.tgz:5807.got - 2010.06.03 20:04:27.
