data_PCOD9137910
_publ_section_title
;
Structure prediction by ZEFSAII (Michael W. Deem and Ramdas Pophale) SiO2 
 PCOD9137910
Probable space group: C C
;
_chemical_formula_sum "Si O2"
_cell_formula_units_Z 20
_cell_length_a 6.986334
_cell_length_b 21.268250
_cell_length_c 5.024697
_cell_angle_alpha 90.000000
_cell_angle_beta 75.561621
_cell_angle_gamma 90.000000
_cell_volume 723.024639
_symmetry_space_group_name_H-M "C C"
_symmetry_group_IT_number 9
_symmetry_cell_setting 'monoclinic'
loop_
_space_group_symop_operation_xyz
x,y,z
x,-y,1/2+z
1/2+x,1/2+y,z
1/2+x,1/2-y,1/2+z
loop_
_atom_site_type_symbol
_atom_site_label
_atom_site_fract_x
_atom_site_fract_y
_atom_site_fract_z
Si Si1 0.761230 0.965897 0.364260
Si Si2 0.150538 0.900227 0.357762
Si Si3 0.359154 0.854886 0.783110
Si Si4 0.987997 0.209162 0.238162
Si Si5 0.145600 0.668782 0.757036
O O1 0.675971 0.905827 0.246507
O O2 0.996825 0.952378 0.313571
O O3 0.704886 0.977340 0.688707
O O4 0.272030 0.904126 0.589540
O O5 0.011718 0.838493 0.481117
O O6 0.308707 0.888339 0.073792
O O7 0.566426 0.829175 0.595957
O O8 0.200588 0.798450 0.809932
O O9 0.829501 0.188079 0.507102
O O10 0.980228 0.283331 0.187213
#
# Coordination Sequence:
#
# PCOD9137910 Si02
#       5
#     4   4   4   4   4
#     4  12  26  49  75 108 151 210 253 302 366 445
#     4  10  22  49  70 103 148 187 256 303 374 437
#     4  10  23  44  71 115 142 186 245 306 390 443
#     4  10  22  45  70 117 143 191 235 319 389 425
#     4  12  23  49  76 113 156 194 247 316 375 464
#
# _framework density 27.661572
#
# number of rings (size 3 to 8) (size 9 to 14) (size 15 to 20)
#    1.200    0.000    4.000    2.400    0.000    3.200 
#   18.000    6.000    0.000    0.000    0.000    0.000 
#    0.000    0.000    0.000    0.000    0.000    0.000 
#
# Total GULP energy -55700.429251 kJ/mol
# GULP energy per Si atom -5570.042925 kJ/mol
# Density = 2.759861 g / cm^3
# Si number density = 27.661572 Si / 1000 Ang^3
#
#
#
# Elastic Constant Matrix: (Units=GPa)
#
#
# Indices 1 2 3 4 5 6 
#
# 1 98.2013 10.1563 69.0570 0.0000 -5.0939 0.0000
# 2 10.1563 70.6354 44.7786 0.0000 5.7502 0.0000
# 3 69.0570 44.7786 248.0184 0.0000 -21.1474 0.0000
# 4 0.0000 0.0000 0.0000 30.3020 0.0000 -2.5130
# 5 -5.0939 5.7502 -21.1474 0.0000 64.8082 0.0000
# 6 0.0000 0.0000 0.0000 -2.5130 0.0000 24.1091
#
#
#
# Elastic Compliance Matrix: (Units=1/GPa)
#
#
# Indices 1 2 3 4 5 6 
#
# 1 0.012680 0.000505 -0.003642 0.000000 -0.000237 0.000000
# 2 0.000505 0.016387 -0.003312 0.000000 -0.002495 0.000000
# 3 -0.003642 -0.003312 0.005806 0.000000 0.001902 0.000000
# 4 0.000000 0.000000 0.000000 0.033289 0.000000 0.003470
# 5 -0.000237 -0.002495 0.001902 0.000000 0.016254 0.000000
# 6 0.000000 0.000000 0.000000 0.003470 0.000000 0.041840
#
#
# Mechanical properties :
#
#
# Convention : Reuss Voigt Hill
#
# Bulk Modulus (GPa) = 45.50581 73.87098 59.68839
# Shear Modulus (GPa) = 34.13474 43.36806 38.75140
#
# Velocity S-wave (km/s) = 3.51666 3.96385 3.74694
# Velocity P-wave (km/s) = 5.74246 6.90744 6.35172
#
# Compressibility (1/GPa) = 0.02197521
#
# Stress axis : x y z
#
# Youngs Moduli (GPa) = 78.86655 61.02276 172.23270
#
# Poissons Ratio (x) = -0.03080 0.62723
# Poissons Ratio (y) = -0.03981 0.57043
# Poissons Ratio (z) = 0.28721 0.20210
#
# Static dielectric constant tensor:
#      x y z
#    x 2.443870 0.000000 0.076940 
#    y 0.000000 2.237150 0.000000 
#    z 0.076940 0.000000 2.121440 
# 
# From -- ./inp_files/755.got.cif
#   From: 2010.05.17/outbox.cif.g08.bks.cpg/sg9_1_cif.got.tgz:755.got - 2010.06.03 20:04:27.
