data_PCOD9137925
_publ_section_title
;
Structure prediction by ZEFSAII (Michael W. Deem and Ramdas Pophale) SiO2 
 PCOD9137925
Probable space group: C C
;
_chemical_formula_sum "Si O2"
_cell_formula_units_Z 32
_cell_length_a 14.294763
_cell_length_b 8.517147
_cell_length_c 10.131999
_cell_angle_alpha 90.000000
_cell_angle_beta 86.805841
_cell_angle_gamma 90.000000
_cell_volume 1231.660511
_symmetry_space_group_name_H-M "C C"
_symmetry_group_IT_number 9
_symmetry_cell_setting 'monoclinic'
loop_
_space_group_symop_operation_xyz
x,y,z
x,-y,1/2+z
1/2+x,1/2+y,z
1/2+x,1/2-y,1/2+z
loop_
_atom_site_type_symbol
_atom_site_label
_atom_site_fract_x
_atom_site_fract_y
_atom_site_fract_z
Si Si1 0.729430 0.590803 0.295420
Si Si2 0.867940 0.228958 0.966875
Si Si3 0.730135 0.722069 0.695774
Si Si4 0.477234 0.053973 0.006059
Si Si5 0.090251 0.511885 0.251760
Si Si6 0.197239 0.728453 0.557499
Si Si7 0.895515 0.891487 0.975826
Si Si8 0.591991 0.530922 0.509883
O O1 0.787659 0.706237 0.379473
O O2 0.762324 0.410410 0.295970
O O3 0.750174 0.646635 0.147345
O O4 0.623168 0.588178 0.360280
O O5 0.931173 0.382830 0.986197
O O6 0.903112 0.064156 0.903923
O O7 0.816860 0.201650 0.112238
O O8 0.664828 0.850939 0.763711
O O9 0.660920 0.627676 0.601199
O O10 0.423709 0.207891 0.955616
O O11 0.564629 0.045297 0.899033
O O12 0.506394 0.066401 0.158510
O O13 0.139938 0.379805 0.161849
O O14 0.283084 0.625809 0.496484
O O15 0.119215 0.847102 0.504275
O O16 0.986421 0.933994 0.061409
#
# Coordination Sequence:
#
# PCOD9137925 Si02
#       8
#     4   4   4   4   4   4   4   4
#     4  10  23  45  73 104 152 200 253 331 399 470
#     4  11  26  48  75 112 153 201 266 324 397 479
#     4  10  22  46  75  98 151 203 248 323 399 465
#     4  12  29  51  78 116 159 207 264 332 392 482
#     4  12  27  50  75 110 161 202 262 328 403 468
#     4  11  25  45  73 111 151 205 268 326 397 483
#     4  12  24  48  75 111 153 207 266 325 397 484
#     4  10  22  45  72 102 150 201 261 315 404 463
#
# _framework density 25.981183999999999
#
# number of rings (size 3 to 8) (size 9 to 14) (size 15 to 20)
#    0.000    1.000    2.500    3.750    8.750    0.000 
#    9.000    0.000    0.000    0.000    0.000    0.000 
#    0.000    0.000    0.000    0.000    0.000    0.000 
#
# Total GULP energy -89144.189872 kJ/mol
# GULP energy per Si atom -5571.511867 kJ/mol
# Density = 2.592205 g / cm^3
# Si number density = 25.981184 Si / 1000 Ang^3
#
#
#
# Elastic Constant Matrix: (Units=GPa)
#
#
# Indices 1 2 3 4 5 6 
#
# 1 82.5026 36.7021 7.4690 0.0000 6.8130 0.0000
# 2 36.7021 174.2273 8.1357 0.0000 2.7637 0.0000
# 3 7.4690 8.1357 46.4828 0.0000 -2.6979 0.0000
# 4 0.0000 0.0000 0.0000 25.1137 0.0000 -4.3911
# 5 6.8130 2.7637 -2.6979 0.0000 22.8234 0.0000
# 6 0.0000 0.0000 0.0000 -4.3911 0.0000 50.3135
#
#
#
# Elastic Compliance Matrix: (Units=1/GPa)
#
#
# Indices 1 2 3 4 5 6 
#
# 1 0.013863 -0.002764 -0.001978 0.000000 -0.004037 0.000000
# 2 -0.002764 0.006353 -0.000669 0.000000 -0.000023 0.000000
# 3 -0.001978 -0.000669 0.022139 0.000000 0.003289 0.000000
# 4 0.000000 0.000000 0.000000 0.040436 0.000000 0.003529
# 5 -0.004037 -0.000023 0.003289 0.000000 0.045411 0.000000
# 6 0.000000 0.000000 0.000000 0.003529 0.000000 0.020183
#
#
# Mechanical properties :
#
#
# Convention : Reuss Voigt Hill
#
# Bulk Modulus (GPa) = 31.71279 45.31401 38.51340
# Shear Modulus (GPa) = 29.46031 36.37717 32.91874
#
# Velocity S-wave (km/s) = 3.37101 3.74590 3.56339
# Velocity P-wave (km/s) = 5.23299 6.01564 5.63791
#
# Compressibility (1/GPa) = 0.03153301
#
# Stress axis : x y z
#
# Youngs Moduli (GPa) = 72.13522 157.39397 45.16875
#
# Poissons Ratio (x) = 0.43502 0.08935
# Poissons Ratio (y) = 0.19937 0.03023
# Poissons Ratio (z) = 0.14269 0.10534
#
# Static dielectric constant tensor:
#      x y z
#    x 2.105840 0.000000 0.023760 
#    y 0.000000 2.059650 0.000000 
#    z 0.023760 0.000000 2.204740 
# 
# From -- ./inp_files/17936.got.cif
#   From: 2010.05.17/outbox.cif.g08.bks.cpg/sg9_9_cif.got.tgz:17936.got - 2010.06.03 20:04:27.
