data_PCOD9137610
_publ_section_title
;
Structure prediction by ZEFSAII (Michael W. Deem and Ramdas Pophale) SiO2 
 PCOD9137610
Probable space group: C C
;
_chemical_formula_sum "Si O2"
_cell_formula_units_Z 32
_cell_length_a 5.889113
_cell_length_b 13.322388
_cell_length_c 19.939183
_cell_angle_alpha 90.000000
_cell_angle_beta 61.913094
_cell_angle_gamma 90.000000
_cell_volume 1380.140671
_symmetry_space_group_name_H-M "C C"
_symmetry_group_IT_number 9
_symmetry_cell_setting 'monoclinic'
loop_
_space_group_symop_operation_xyz
x,y,z
x,-y,1/2+z
1/2+x,1/2+y,z
1/2+x,1/2-y,1/2+z
loop_
_atom_site_type_symbol
_atom_site_label
_atom_site_fract_x
_atom_site_fract_y
_atom_site_fract_z
Si Si1 0.074970 0.443134 0.093310
Si Si2 0.922242 0.281803 0.423036
Si Si3 0.001179 0.792477 0.057020
Si Si4 0.228919 0.651541 0.139177
Si Si5 0.547560 0.015296 0.830571
Si Si6 0.546759 0.462852 0.688619
Si Si7 0.522636 0.874455 0.955506
Si Si8 0.760823 0.629650 0.291137
O O1 0.233968 0.352584 0.106048
O O2 0.165401 0.548788 0.109129
O O3 0.767944 0.454903 0.145264
O O4 0.126452 0.429141 0.007402
O O5 0.641062 0.237168 0.444290
O O6 0.960191 0.278224 0.497707
O O7 0.979198 0.387103 0.381569
O O8 0.116108 0.203858 0.360262
O O9 0.143566 0.737264 0.098931
O O10 0.214969 0.872482 0.002427
O O11 0.498414 0.616784 0.135073
O O12 0.043389 0.667220 0.229396
O O13 0.606374 0.928999 0.876781
O O14 0.306825 0.976190 0.821252
O O15 0.787552 0.020733 0.746506
O O16 0.625782 0.393442 0.740016
#
# Coordination Sequence:
#
# PCOD9137610 Si02
#       8
#     4   4   4   4   4   4   4   4
#     4  10  23  42  67  98 141 186 236 301 368 430
#     4  11  24  42  68 103 138 188 236 291 372 429
#     4  11  24  43  68 103 145 187 243 304 362 450
#     4  10  23  42  68  97 140 189 239 296 370 433
#     4  11  23  43  70 100 138 188 235 297 367 429
#     4  10  22  44  70  97 145 192 238 310 365 434
#     4  11  23  41  68 100 145 178 238 296 355 443
#     4  10  22  43  65  98 142 176 241 299 349 444
#
# _framework density 23.186043000000002
#
# number of rings (size 3 to 8) (size 9 to 14) (size 15 to 20)
#    0.000    1.500    2.500    1.500    0.000   11.000 
#    0.000    3.750    0.000    0.000    0.000    0.000 
#    0.000    0.000    0.000    0.000    0.000    0.000 
#
# Total GULP energy -89371.583860 kJ/mol
# GULP energy per Si atom -5585.723991 kJ/mol
# Density = 2.313327 g / cm^3
# Si number density = 23.186043 Si / 1000 Ang^3
#
#
#
# Elastic Constant Matrix: (Units=GPa)
#
#
# Indices 1 2 3 4 5 6 
#
# 1 111.7542 49.9153 47.5258 0.0000 10.8309 0.0000
# 2 49.9153 77.9726 39.4529 0.0000 5.5127 0.0000
# 3 47.5258 39.4529 101.0631 0.0000 6.3464 0.0000
# 4 0.0000 0.0000 0.0000 42.6880 0.0000 4.7395
# 5 10.8309 5.5127 6.3464 0.0000 40.5138 0.0000
# 6 0.0000 0.0000 0.0000 4.7395 0.0000 35.6019
#
#
#
# Elastic Compliance Matrix: (Units=1/GPa)
#
#
# Indices 1 2 3 4 5 6 
#
# 1 0.013758 -0.006790 -0.003682 0.000000 -0.002177 0.000000
# 2 -0.006790 0.019392 -0.004368 0.000000 -0.000139 0.000000
# 3 -0.003682 -0.004368 0.013364 0.000000 -0.000515 0.000000
# 4 0.000000 0.000000 0.000000 0.023777 0.000000 -0.003165
# 5 -0.002177 -0.000139 -0.000515 0.000000 0.025365 0.000000
# 6 0.000000 0.000000 0.000000 -0.003165 0.000000 0.028510
#
#
# Mechanical properties :
#
#
# Convention : Reuss Voigt Hill
#
# Bulk Modulus (GPa) = 59.40958 62.73088 61.07023
# Shear Modulus (GPa) = 31.35609 34.02046 32.68827
#
# Velocity S-wave (km/s) = 3.68145 3.83467 3.75884
# Velocity P-wave (km/s) = 6.61433 6.83523 6.72569
#
# Compressibility (1/GPa) = 0.01683230
#
# Stress axis : x y z
#
# Youngs Moduli (GPa) = 72.68420 51.56742 74.82741
#
# Poissons Ratio (x) = 0.35016 0.27554
# Poissons Ratio (y) = 0.49355 0.32687
# Poissons Ratio (z) = 0.26765 0.22526
#
# Static dielectric constant tensor:
#      x y z
#    x 1.997590 0.000000 -0.037870 
#    y 0.000000 1.850940 0.000000 
#    z -0.037870 0.000000 1.860670 
# 
# From -- ./inp_files/32077.got.cif
#   From: 2010.05.17/outbox.cif.g08.bks.cpg/sg9_17_cif.got.tgz:32077.got - 2010.06.03 20:04:27.
