data_PCOD9137932
_publ_section_title
;
Structure prediction by ZEFSAII (Michael W. Deem and Ramdas Pophale) SiO2 
 PCOD9137932
Probable space group: C C
;
_chemical_formula_sum "Si O2"
_cell_formula_units_Z 32
_cell_length_a 16.095766
_cell_length_b 9.837834
_cell_length_c 10.526861
_cell_angle_alpha 90.000000
_cell_angle_beta 58.837904
_cell_angle_gamma 90.000000
_cell_volume 1426.379203
_symmetry_space_group_name_H-M "C C"
_symmetry_group_IT_number 9
_symmetry_cell_setting 'monoclinic'
loop_
_space_group_symop_operation_xyz
x,y,z
x,-y,1/2+z
1/2+x,1/2+y,z
1/2+x,1/2-y,1/2+z
loop_
_atom_site_type_symbol
_atom_site_label
_atom_site_fract_x
_atom_site_fract_y
_atom_site_fract_z
Si Si1 0.004280 0.841640 0.483600
Si Si2 0.335833 0.809748 0.241090
Si Si3 0.729348 0.518440 0.156061
Si Si4 0.932932 0.612914 0.897806
Si Si5 0.614130 0.293119 0.142044
Si Si6 0.668095 0.148798 0.482798
Si Si7 0.047310 0.850943 0.929630
Si Si8 0.128869 0.481586 0.760648
O O1 0.034484 0.829971 0.312048
O O2 0.084828 0.757012 0.502454
O O3 0.899712 0.778788 0.595092
O O4 0.007057 0.002790 0.506769
O O5 0.411745 0.893480 0.265162
O O6 0.272787 0.716878 0.384408
O O7 0.258448 0.907372 0.237762
O O8 0.685576 0.423171 0.079407
O O9 0.645040 0.614675 0.274301
O O10 0.830048 0.587767 0.043924
O O11 0.976371 0.758578 0.902569
O O12 0.012503 0.499162 0.867742
O O13 0.659432 0.157830 0.166578
O O14 0.571777 0.268414 0.037568
O O15 0.654293 0.095929 0.636573
O O16 0.666213 0.031304 0.375012
#
# Coordination Sequence:
#
# PCOD9137932 Si02
#       8
#     4   4   4   4   4   4   4   4
#     4  10  23  44  70  98 140 186 227 286 360 421
#     4  12  24  45  72 103 135 189 228 286 360 422
#     4  11  24  47  71 102 142 184 236 280 365 424
#     4  12  28  40  76 106 135 186 238 294 346 431
#     4  10  22  45  72  95 138 187 223 289 356 416
#     4  11  23  45  72 100 146 189 229 295 358 420
#     4  11  25  46  69 104 141 180 232 296 352 420
#     4  11  23  46  68 104 143 183 235 290 357 424
#
# _framework density 22.434426999999999
#
# number of rings (size 3 to 8) (size 9 to 14) (size 15 to 20)
#    0.000    1.000    5.000    3.000    7.000    1.000 
#    4.500    0.000    0.000    0.000    0.000    0.000 
#    0.000    0.000    0.000    0.000    0.000    0.000 
#
# Total GULP energy -89413.954580 kJ/mol
# GULP energy per Si atom -5588.372161 kJ/mol
# Density = 2.238337 g / cm^3
# Si number density = 22.434427 Si / 1000 Ang^3
#
#
#
# Elastic Constant Matrix: (Units=GPa)
#
#
# Indices 1 2 3 4 5 6 
#
# 1 60.9639 18.6362 15.2834 0.0000 -5.5372 0.0000
# 2 18.6362 93.3731 39.8204 0.0000 -8.1704 0.0000
# 3 15.2834 39.8204 74.5431 0.0000 -27.0428 0.0000
# 4 0.0000 0.0000 0.0000 40.1846 0.0000 -5.4129
# 5 -5.5372 -8.1704 -27.0428 0.0000 45.6021 0.0000
# 6 0.0000 0.0000 0.0000 -5.4129 0.0000 51.1441
#
#
#
# Elastic Compliance Matrix: (Units=1/GPa)
#
#
# Indices 1 2 3 4 5 6 
#
# 1 0.017766 -0.002620 -0.002078 0.000000 0.000456 0.000000
# 2 -0.002620 0.014471 -0.008113 0.000000 -0.002537 0.000000
# 3 -0.002078 -0.008113 0.022368 0.000000 0.011559 0.000000
# 4 0.000000 0.000000 0.000000 0.025245 0.000000 0.002672
# 5 0.000456 -0.002537 0.011559 0.000000 0.028384 0.000000
# 6 0.000000 0.000000 0.000000 0.002672 0.000000 0.019835
#
#
# Mechanical properties :
#
#
# Convention : Reuss Voigt Hill
#
# Bulk Modulus (GPa) = 34.50228 41.81779 38.16003
# Shear Modulus (GPa) = 30.60853 37.72884 34.16869
#
# Velocity S-wave (km/s) = 3.69773 4.10535 3.90686
# Velocity P-wave (km/s) = 5.80030 6.41501 6.11538
#
# Compressibility (1/GPa) = 0.02898359
#
# Stress axis : x y z
#
# Youngs Moduli (GPa) = 56.28624 69.10513 44.70591
#
# Poissons Ratio (x) = 0.18106 0.09288
# Poissons Ratio (y) = 0.14747 0.36271
# Poissons Ratio (z) = 0.11694 0.56067
#
# Static dielectric constant tensor:
#      x y z
#    x 1.799340 0.000000 0.005970 
#    y 0.000000 1.907460 0.000000 
#    z 0.005970 0.000000 1.834760 
# 
# From -- ./inp_files/17892.got.cif
#   From: 2010.05.17/outbox.cif.g08.bks.cpg/sg9_9_cif.got.tgz:17892.got - 2010.06.03 20:04:27.
