data_PCOD9137845
_publ_section_title
;
Structure prediction by ZEFSAII (Michael W. Deem and Ramdas Pophale) SiO2 
 PCOD9137845
Probable space group: C C
;
_chemical_formula_sum "Si O2"
_cell_formula_units_Z 32
_cell_length_a 9.072952
_cell_length_b 11.418372
_cell_length_c 13.489061
_cell_angle_alpha 90.000000
_cell_angle_beta 87.673363
_cell_angle_gamma 90.000000
_cell_volume 1396.292331
_symmetry_space_group_name_H-M "C C"
_symmetry_group_IT_number 9
_symmetry_cell_setting 'monoclinic'
loop_
_space_group_symop_operation_xyz
x,y,z
x,-y,1/2+z
1/2+x,1/2+y,z
1/2+x,1/2-y,1/2+z
loop_
_atom_site_type_symbol
_atom_site_label
_atom_site_fract_x
_atom_site_fract_y
_atom_site_fract_z
Si Si1 0.420840 0.830745 0.395000
Si Si2 0.881794 0.087630 0.310344
Si Si3 0.673825 0.006902 0.967618
Si Si4 0.577809 0.777240 0.081211
Si Si5 0.607847 0.114548 0.178469
Si Si6 0.851506 0.576532 0.700395
Si Si7 0.390070 0.711866 0.601198
Si Si8 0.056742 0.014053 0.115238
O O1 0.459751 0.703592 0.349772
O O2 0.554715 0.919026 0.409221
O O3 0.315397 0.887948 0.314646
O O4 0.367829 0.796175 0.506410
O O5 0.730368 0.122811 0.258143
O O6 0.983451 0.031070 0.225220
O O7 0.819890 0.004861 0.398356
O O8 0.682679 0.074132 0.072693
O O9 0.612580 0.875281 0.995748
O O10 0.430948 0.816541 0.141904
O O11 0.724161 0.794786 0.146835
O O12 0.560331 0.639599 0.061134
O O13 0.514756 0.232034 0.165796
O O14 0.481415 0.019247 0.202399
O O15 0.720913 0.529588 0.635777
O O16 0.458445 0.587681 0.569723
#
# Coordination Sequence:
#
# PCOD9137845 Si02
#       8
#     4   4   4   4   4   4   4   4
#     4  11  23  44  71 103 139 183 244 293 355 425
#     4  12  23  43  74 104 142 190 239 294 355 429
#     4  10  23  42  75 102 141 193 228 295 363 419
#     4  11  23  46  71 100 140 185 230 290 365 419
#     4  10  22  44  76 102 143 192 234 291 372 414
#     4  11  22  45  73 100 141 184 238 300 351 425
#     4  11  24  45  71 103 145 187 233 297 359 430
#     4  12  26  43  75 108 139 188 246 292 358 437
#
# _framework density 22.917838
#
# number of rings (size 3 to 8) (size 9 to 14) (size 15 to 20)
#    0.000    1.000    5.000    2.250    0.000    0.000 
#    2.250    0.000    5.500    0.000    0.000    0.000 
#    0.000    0.000    0.000    0.000    0.000    0.000 
#
# Total GULP energy -89379.088961 kJ/mol
# GULP energy per Si atom -5586.193060 kJ/mol
# Density = 2.286568 g / cm^3
# Si number density = 22.917838 Si / 1000 Ang^3
#
#
#
# Elastic Constant Matrix: (Units=GPa)
#
#
# Indices 1 2 3 4 5 6 
#
# 1 96.6902 42.7982 18.5215 0.0000 -1.9843 0.0000
# 2 42.7982 122.2715 2.6993 0.0000 3.8543 0.0000
# 3 18.5215 2.6993 61.9603 0.0000 -1.1826 0.0000
# 4 0.0000 0.0000 0.0000 30.3428 0.0000 10.1013
# 5 -1.9843 3.8543 -1.1826 0.0000 31.7759 0.0000
# 6 0.0000 0.0000 0.0000 10.1013 0.0000 44.1523
#
#
#
# Elastic Compliance Matrix: (Units=1/GPa)
#
#
# Indices 1 2 3 4 5 6 
#
# 1 0.013082 -0.004536 -0.003690 0.000000 0.001230 0.000000
# 2 -0.004536 0.009792 0.000902 0.000000 -0.001437 0.000000
# 3 -0.003690 0.000902 0.017209 0.000000 0.000301 0.000000
# 4 0.000000 0.000000 0.000000 0.035674 0.000000 -0.008162
# 5 0.001230 -0.001437 0.000301 0.000000 0.031733 0.000000
# 6 0.000000 0.000000 0.000000 -0.008162 0.000000 0.024516
#
#
# Mechanical properties :
#
#
# Convention : Reuss Voigt Hill
#
# Bulk Modulus (GPa) = 39.31604 45.44001 42.37802
# Shear Modulus (GPa) = 32.23072 35.71440 33.97256
#
# Velocity S-wave (km/s) = 3.75421 3.95190 3.85432
# Velocity P-wave (km/s) = 5.99872 6.37916 6.19186
#
# Compressibility (1/GPa) = 0.02543491
#
# Stress axis : x y z
#
# Youngs Moduli (GPa) = 76.43931 102.12637 58.11013
#
# Poissons Ratio (x) = 0.46329 0.21440
# Poissons Ratio (y) = 0.34676 -0.05242
# Poissons Ratio (z) = 0.28202 -0.09212
#
# Static dielectric constant tensor:
#      x y z
#    x 1.856430 0.000000 -0.021860 
#    y 0.000000 1.913290 0.000000 
#    z -0.021860 0.000000 1.873910 
# 
# From -- ./inp_files/22766.got.cif
#   From: 2010.05.17/outbox.cif.g08.bks.cpg/sg9_12_cif.got.tgz:22766.got - 2010.06.03 20:04:27.
