data_PCOD9137560
_publ_section_title
;
Structure prediction by ZEFSAII (Michael W. Deem and Ramdas Pophale) SiO2 
 PCOD9137560
Probable space group: C C
;
_chemical_formula_sum "Si O2"
_cell_formula_units_Z 32
_cell_length_a 5.829959
_cell_length_b 13.668574
_cell_length_c 17.800119
_cell_angle_alpha 90.000000
_cell_angle_beta 124.764869
_cell_angle_gamma 90.000000
_cell_volume 1165.248755
_symmetry_space_group_name_H-M "C C"
_symmetry_group_IT_number 9
_symmetry_cell_setting 'monoclinic'
loop_
_space_group_symop_operation_xyz
x,y,z
x,-y,1/2+z
1/2+x,1/2+y,z
1/2+x,1/2-y,1/2+z
loop_
_atom_site_type_symbol
_atom_site_label
_atom_site_fract_x
_atom_site_fract_y
_atom_site_fract_z
Si Si1 0.201660 0.407299 0.217640
Si Si2 0.122238 0.198232 0.729238
Si Si3 0.334803 0.473500 0.906791
Si Si4 0.728658 0.599142 0.343896
Si Si5 0.734150 0.192518 0.878064
Si Si6 0.693834 0.678290 0.564130
Si Si7 0.882542 0.410911 0.656918
Si Si8 0.826195 0.116288 0.121755
O O1 0.493495 0.405113 0.231445
O O2 0.247233 0.328425 0.290661
O O3 0.054808 0.500091 0.225487
O O4 0.998069 0.368866 0.114958
O O5 0.403552 0.206213 0.829355
O O6 0.155984 0.185167 0.646910
O O7 0.955117 0.302253 0.702116
O O8 0.539293 0.456671 0.870797
O O9 0.356925 0.590054 0.928743
O O10 0.003538 0.451135 0.861152
O O11 0.474632 0.391183 0.985715
O O12 0.844714 0.698123 0.407185
O O13 0.510575 0.628580 0.234718
O O14 0.732391 0.791647 0.552676
O O15 0.029064 0.416931 0.601599
O O16 0.562019 0.433634 0.614643
#
# Coordination Sequence:
#
# PCOD9137560 Si02
#       8
#     4   4   4   4   4   4   4   4
#     4  11  22  40  76  99 138 182 243 295 347 423
#     4  10  22  42  72 101 138 182 244 297 342 424
#     4  12  31  46  71 105 156 185 233 300 380 413
#     4  12  25  48  72 102 141 196 235 299 356 433
#     4  11  25  43  71 106 139 188 243 292 352 438
#     4  10  24  48  66 102 145 187 228 307 352 419
#     4  11  22  37  68 111 129 174 237 299 342 402
#     4  11  21  44  70  98 136 180 247 283 343 422
#
# _framework density 27.461946000000001
#
# number of rings (size 3 to 8) (size 9 to 14) (size 15 to 20)
#    0.000    1.000    5.000    2.250   10.500    0.000 
#    6.750    0.000    0.000    0.000    0.000    0.000 
#    0.000    0.000    0.000    0.000    0.000    0.000 
#
# Total GULP energy -89198.682162 kJ/mol
# GULP energy per Si atom -5574.917635 kJ/mol
# Density = 2.739944 g / cm^3
# Si number density = 27.461946 Si / 1000 Ang^3
#
#
#
# Elastic Constant Matrix: (Units=GPa)
#
#
# Indices 1 2 3 4 5 6 
#
# 1 168.4312 59.3004 34.2063 0.0000 -15.9712 0.0000
# 2 59.3004 142.3223 7.4758 0.0000 -32.4714 0.0000
# 3 34.2063 7.4758 61.2344 0.0000 -8.1069 0.0000
# 4 0.0000 0.0000 0.0000 25.8168 0.0000 -14.8974
# 5 -15.9712 -32.4714 -8.1069 0.0000 16.0205 0.0000
# 6 0.0000 0.0000 0.0000 -14.8974 0.0000 46.4544
#
#
#
# Elastic Compliance Matrix: (Units=1/GPa)
#
#
# Indices 1 2 3 4 5 6 
#
# 1 0.007828 -0.003234 -0.004086 0.000000 -0.000818 0.000000
# 2 -0.003234 0.014651 0.003775 0.000000 0.028382 0.000000
# 3 -0.004086 0.003775 0.019964 0.000000 0.013680 0.000000
# 4 0.000000 0.000000 0.000000 0.047530 0.000000 0.015242
# 5 -0.000818 0.028382 0.013680 0.000000 0.126053 0.000000
# 6 0.000000 0.000000 0.000000 0.015242 0.000000 0.026415
#
#
# Mechanical properties :
#
#
# Convention : Reuss Voigt Hill
#
# Bulk Modulus (GPa) = 28.28625 63.77253 46.02939
# Shear Modulus (GPa) = 19.13408 35.72537 27.42973
#
# Velocity S-wave (km/s) = 2.64246 3.61072 3.16385
# Velocity P-wave (km/s) = 4.43088 6.37618 5.49037
#
# Compressibility (1/GPa) = 0.03535287
#
# Stress axis : x y z
#
# Youngs Moduli (GPa) = 127.74788 68.25580 50.09121
#
# Poissons Ratio (x) = 0.22071 0.20469
# Poissons Ratio (y) = 0.41308 -0.18910
# Poissons Ratio (z) = 0.52202 -0.25768
#
# Static dielectric constant tensor:
#      x y z
#    x 2.216930 0.000000 -0.047570 
#    y 0.000000 2.288400 0.000000 
#    z -0.047570 0.000000 2.278610 
# 
# From -- ./inp_files/28718.got.cif
#   From: 2010.05.17/outbox.cif.g08.bks.cpg/sg9_15_cif.got.tgz:28718.got - 2010.06.03 20:04:27.
