data_PCOD9137520
_publ_section_title
;
Structure prediction by ZEFSAII (Michael W. Deem and Ramdas Pophale) SiO2 
 PCOD9137520
Probable space group: C C
;
_chemical_formula_sum "Si O2"
_cell_formula_units_Z 32
_cell_length_a 25.912074
_cell_length_b 8.991008
_cell_length_c 15.328682
_cell_angle_alpha 90.000000
_cell_angle_beta 21.903418
_cell_angle_gamma 90.000000
_cell_volume 1332.215319
_symmetry_space_group_name_H-M "C C"
_symmetry_group_IT_number 9
_symmetry_cell_setting 'monoclinic'
loop_
_space_group_symop_operation_xyz
x,y,z
x,-y,1/2+z
1/2+x,1/2+y,z
1/2+x,1/2-y,1/2+z
loop_
_atom_site_type_symbol
_atom_site_label
_atom_site_fract_x
_atom_site_fract_y
_atom_site_fract_z
Si Si1 0.503530 0.053148 0.581940
Si Si2 0.903057 0.951060 0.108254
Si Si3 0.226727 0.136309 0.925811
Si Si4 0.204974 0.408782 0.052980
Si Si5 0.604918 0.758875 0.362722
Si Si6 0.247357 0.152432 0.303368
Si Si7 0.458632 0.963259 0.851767
Si Si8 0.296868 0.314328 0.642421
O O1 0.370160 0.136600 0.754941
O O2 0.652644 0.127843 0.328171
O O3 0.497925 0.895024 0.540752
O O4 0.494835 0.028483 0.699755
O O5 0.815992 0.800200 0.233446
O O6 0.839903 0.039668 0.289690
O O7 0.878644 0.050507 0.060845
O O8 0.054018 0.890427 0.895083
O O9 0.250243 0.210635 0.795751
O O10 0.190678 0.966235 0.962257
O O11 0.136800 0.261452 0.114439
O O12 0.222683 0.345703 0.122530
O O13 0.092222 0.535241 0.206447
O O14 0.634710 0.713205 0.413614
O O15 0.351711 0.066122 0.073469
O O16 0.393669 0.799464 0.938455
#
# Coordination Sequence:
#
# PCOD9137520 Si02
#       8
#     4   4   4   4   4   4   4   4
#     4  12  22  43  69  96 142 182 233 287 355 420
#     4  11  22  46  67  99 141 179 234 289 353 415
#     4  10  22  42  68  99 138 185 226 293 349 414
#     4  11  23  45  68  99 141 183 231 292 355 419
#     4  12  24  43  68 101 139 184 232 296 344 423
#     4  11  22  44  68 100 141 181 234 292 349 416
#     4  11  22  43  70  99 139 182 230 293 355 417
#     4  10  23  42  70  99 137 182 230 292 344 420
#
# _framework density 24.020140000000001
#
# number of rings (size 3 to 8) (size 9 to 14) (size 15 to 20)
#    0.000    1.000    6.250    1.500    0.000    5.000 
#    6.750    0.000    0.000    0.000    0.000    0.000 
#    0.000    0.000    0.000    0.000    0.000    0.000 
#
# Total GULP energy -89254.843116 kJ/mol
# GULP energy per Si atom -5578.427695 kJ/mol
# Density = 2.396547 g / cm^3
# Si number density = 24.020140 Si / 1000 Ang^3
#
#
#
# Elastic Constant Matrix: (Units=GPa)
#
#
# Indices 1 2 3 4 5 6 
#
# 1 52.6421 22.8332 6.1096 0.0000 -12.0600 0.0000
# 2 22.8332 145.0121 26.2148 0.0000 -1.2938 0.0000
# 3 6.1096 26.2148 59.5677 0.0000 4.6598 0.0000
# 4 0.0000 0.0000 0.0000 35.0551 0.0000 -5.0603
# 5 -12.0600 -1.2938 4.6598 0.0000 33.6471 0.0000
# 6 0.0000 0.0000 0.0000 -5.0603 0.0000 31.0916
#
#
#
# Elastic Compliance Matrix: (Units=1/GPa)
#
#
# Indices 1 2 3 4 5 6 
#
# 1 0.022415 -0.003179 -0.001535 0.000000 0.008124 0.000000
# 2 -0.003179 0.007962 -0.003147 0.000000 -0.000398 0.000000
# 3 -0.001535 -0.003147 0.018584 0.000000 -0.003245 0.000000
# 4 0.000000 0.000000 0.000000 0.029213 0.000000 0.004755
# 5 0.008124 -0.000398 -0.003245 0.000000 0.033066 0.000000
# 6 0.000000 0.000000 0.000000 0.004755 0.000000 0.032937
#
#
# Mechanical properties :
#
#
# Convention : Reuss Voigt Hill
#
# Bulk Modulus (GPa) = 30.08642 40.83744 35.46193
# Shear Modulus (GPa) = 29.24349 33.42973 31.33661
#
# Velocity S-wave (km/s) = 3.49299 3.73465 3.61584
# Velocity P-wave (km/s) = 5.36849 5.96951 5.67696
#
# Compressibility (1/GPa) = 0.03323758
#
# Stress axis : x y z
#
# Youngs Moduli (GPa) = 44.61366 125.59840 53.81045
#
# Poissons Ratio (x) = 0.39932 0.08262
# Poissons Ratio (y) = 0.14184 0.16933
# Poissons Ratio (z) = 0.06850 0.39522
#
# Static dielectric constant tensor:
#      x y z
#    x 1.945840 0.000000 0.015590 
#    y 0.000000 1.965370 0.000000 
#    z 0.015590 0.000000 2.015340 
# 
# From -- ./inp_files/27705.got.cif
#   From: 2010.05.17/outbox.cif.g08.bks.cpg/sg9_14_cif.got.tgz:27705.got - 2010.06.03 20:04:27.
