data_PCOD9137642
_publ_section_title
;
Structure prediction by ZEFSAII (Michael W. Deem and Ramdas Pophale) SiO2 
 PCOD9137642
Probable space group: C C
;
_chemical_formula_sum "Si O2"
_cell_formula_units_Z 32
_cell_length_a 14.295794
_cell_length_b 4.887694
_cell_length_c 18.169727
_cell_angle_alpha 90.000000
_cell_angle_beta 77.305439
_cell_angle_gamma 90.000000
_cell_volume 1238.547404
_symmetry_space_group_name_H-M "C C"
_symmetry_group_IT_number 9
_symmetry_cell_setting 'monoclinic'
loop_
_space_group_symop_operation_xyz
x,y,z
x,-y,1/2+z
1/2+x,1/2+y,z
1/2+x,1/2-y,1/2+z
loop_
_atom_site_type_symbol
_atom_site_label
_atom_site_fract_x
_atom_site_fract_y
_atom_site_fract_z
Si Si1 0.762810 0.804636 0.434480
Si Si2 0.199009 0.065083 0.073029
Si Si3 0.528199 0.779249 0.278402
Si Si4 0.556926 0.974290 0.934404
Si Si5 0.349292 0.555367 0.771690
Si Si6 0.546451 0.712910 0.688198
Si Si7 0.287042 0.575806 0.132769
Si Si8 0.940091 0.029207 0.497828
O O1 0.800425 0.776484 0.344903
O O2 0.851739 0.957042 0.458527
O O3 0.737313 0.537328 0.487306
O O4 0.723886 0.127594 0.592063
O O5 0.260252 0.884489 0.119712
O O6 0.094740 0.932514 0.109664
O O7 0.162810 0.532948 0.945520
O O8 0.414866 0.696199 0.291595
O O9 0.575265 0.486285 0.251945
O O10 0.548667 0.923593 0.351718
O O11 0.565366 0.977585 0.207532
O O12 0.525623 0.665339 0.955206
O O13 0.477620 0.163211 0.988299
O O14 0.431763 0.716595 0.713823
O O15 0.276878 0.472337 0.720642
O O16 0.394701 0.541070 0.083986
#
# Coordination Sequence:
#
# PCOD9137642 Si02
#       8
#     4   4   4   4   4   4   4   4
#     4  11  26  49  74 112 148 201 254 316 383 455
#     4  11  26  47  70 108 150 192 259 316 365 469
#     4  10  22  43  68 108 144 189 242 312 371 451
#     4  12  25  44  78 105 147 203 246 307 388 448
#     4  10  25  45  74 107 149 198 244 321 382 449
#     4  10  23  42  71  97 151 190 238 308 382 433
#     4  11  26  46  74 105 149 197 248 311 385 441
#     4  11  25  50  69 108 156 190 251 315 370 460
#
# _framework density 25.836717
#
# number of rings (size 3 to 8) (size 9 to 14) (size 15 to 20)
#    0.750    0.500    1.250    3.750    7.000    4.000 
#    2.250    0.000    0.000    0.000    0.000    0.000 
#    0.000    0.000    0.000    0.000    0.000    0.000 
#
# Total GULP energy -89408.882657 kJ/mol
# GULP energy per Si atom -5588.055166 kJ/mol
# Density = 2.577791 g / cm^3
# Si number density = 25.836717 Si / 1000 Ang^3
#
#
#
# Elastic Constant Matrix: (Units=GPa)
#
#
# Indices 1 2 3 4 5 6 
#
# 1 125.4598 3.4885 25.9786 0.0000 -4.8294 0.0000
# 2 3.4885 65.8648 -0.5593 0.0000 0.4814 0.0000
# 3 25.9786 -0.5593 132.0310 0.0000 -2.1497 0.0000
# 4 0.0000 0.0000 0.0000 20.6979 0.0000 -8.9515
# 5 -4.8294 0.4814 -2.1497 0.0000 43.9864 0.0000
# 6 0.0000 0.0000 0.0000 -8.9515 0.0000 34.3935
#
#
#
# Elastic Compliance Matrix: (Units=1/GPa)
#
#
# Indices 1 2 3 4 5 6 
#
# 1 0.008354 -0.000462 -0.001632 0.000000 0.000843 0.000000
# 2 -0.000462 0.015210 0.000152 0.000000 -0.000210 0.000000
# 3 -0.001632 0.000152 0.007899 0.000000 0.000205 0.000000
# 4 0.000000 0.000000 0.000000 0.054442 0.000000 0.014169
# 5 0.000843 -0.000210 0.000205 0.000000 0.022839 0.000000
# 6 0.000000 0.000000 0.000000 0.014169 0.000000 0.032763
#
#
# Mechanical properties :
#
#
# Convention : Reuss Voigt Hill
#
# Bulk Modulus (GPa) = 36.26074 42.35236 39.30655
# Shear Modulus (GPa) = 32.34468 39.44540 35.89504
#
# Velocity S-wave (km/s) = 3.54204 3.91156 3.73138
# Velocity P-wave (km/s) = 5.54916 6.06864 5.81470
#
# Compressibility (1/GPa) = 0.02757804
#
# Stress axis : x y z
#
# Youngs Moduli (GPa) = 119.70454 65.74650 126.59711
#
# Poissons Ratio (x) = 0.03041 0.20660
# Poissons Ratio (y) = 0.05536 -0.01924
# Poissons Ratio (z) = 0.19535 -0.00999
#
# Static dielectric constant tensor:
#      x y z
#    x 2.125420 0.000000 -0.000900 
#    y 0.000000 1.955690 0.000000 
#    z -0.000900 0.000000 2.048090 
# 
# From -- ./inp_files/30863.got.cif
#   From: 2010.05.17/outbox.cif.g08.bks.cpg/sg9_16_cif.got.tgz:30863.got - 2010.06.03 20:04:27.
