data_PCOD9137044
_publ_section_title
;
Structure prediction by ZEFSAII (Michael W. Deem and Ramdas Pophale) SiO2 
 PCOD9137044
Probable space group: C C
;
_chemical_formula_sum "Si O2"
_cell_formula_units_Z 28
_cell_length_a 17.487872
_cell_length_b 9.170101
_cell_length_c 9.391067
_cell_angle_alpha 90.000000
_cell_angle_beta 51.409383
_cell_angle_gamma 90.000000
_cell_volume 1177.126534
_symmetry_space_group_name_H-M "C C"
_symmetry_group_IT_number 9
_symmetry_cell_setting 'monoclinic'
loop_
_space_group_symop_operation_xyz
x,y,z
x,-y,1/2+z
1/2+x,1/2+y,z
1/2+x,1/2-y,1/2+z
loop_
_atom_site_type_symbol
_atom_site_label
_atom_site_fract_x
_atom_site_fract_y
_atom_site_fract_z
Si Si1 0.754870 0.348518 0.814020
Si Si2 0.382920 0.094240 0.423065
Si Si3 0.159422 0.511053 0.330383
Si Si4 0.584074 0.829356 0.660266
Si Si5 0.639825 0.298000 0.694546
Si Si6 0.917667 0.260990 0.427213
Si Si7 0.292378 0.736405 0.291666
O O1 0.816617 0.431778 0.861700
O O2 0.696850 0.402790 0.740081
O O3 0.837819 0.243533 0.645881
O O4 0.666606 0.277851 0.006601
O O5 0.470491 0.204745 0.280130
O O6 0.329817 0.164706 0.619460
O O7 0.427811 0.938136 0.414632
O O8 0.099544 0.468835 0.539580
O O9 0.107512 0.630863 0.294111
O O10 0.161244 0.363476 0.235639
O O11 0.260800 0.581184 0.262450
O O12 0.523150 0.311736 0.825848
O O13 0.693866 0.299829 0.480915
O O14 0.869216 0.221127 0.331836
#
# Coordination Sequence:
#
# PCOD9137044 Si02
#       7
#     4   4   4   4   4   4   4
#     4  10  22  38  59  95 126 157 199 264 312 355
#     4  12  23  37  64  99 120 161 212 260 300 367
#     4  11  19  40  62  94 122 159 202 264 306 356
#     4  11  23  37  67  91 128 155 212 256 309 363
#     4  10  22  42  67  89 124 163 210 259 305 366
#     4  11  23  41  65  93 121 165 212 255 302 368
#     4  11  24  35  62 101 127 154 207 268 314 355
#
# _framework density 23.786738
#
# number of rings (size 3 to 8) (size 9 to 14) (size 15 to 20)
#    0.000    1.143    4.286    2.571    4.000    0.000 
#    0.000    0.000    0.000   51.429    0.000    0.000 
#    0.000    0.000    0.000    0.000    0.000    0.000 
#
# Total GULP energy -78184.818923 kJ/mol
# GULP energy per Si atom -5584.629923 kJ/mol
# Density = 2.373260 g / cm^3
# Si number density = 23.786738 Si / 1000 Ang^3
#
#
#
# Elastic Constant Matrix: (Units=GPa)
#
#
# Indices 1 2 3 4 5 6 
#
# 1 136.8440 17.8934 71.6486 0.0000 -3.5992 0.0000
# 2 17.8934 27.8173 24.2175 0.0000 0.0752 0.0000
# 3 71.6486 24.2175 109.7798 0.0000 -16.6335 0.0000
# 4 0.0000 0.0000 0.0000 28.8589 0.0000 9.1479
# 5 -3.5992 0.0752 -16.6335 0.0000 48.6403 0.0000
# 6 0.0000 0.0000 0.0000 9.1479 0.0000 37.2030
#
#
#
# Elastic Compliance Matrix: (Units=1/GPa)
#
#
# Indices 1 2 3 4 5 6 
#
# 1 0.011256 -0.000761 -0.007438 0.000000 -0.001709 0.000000
# 2 -0.000761 0.045156 -0.010002 0.000000 -0.003547 0.000000
# 3 -0.007438 -0.010002 0.016968 0.000000 0.005268 0.000000
# 4 0.000000 0.000000 0.000000 0.037581 0.000000 -0.009241
# 5 -0.001709 -0.003547 0.005268 0.000000 0.022239 0.000000
# 6 0.000000 0.000000 0.000000 -0.009241 0.000000 0.029152
#
#
# Mechanical properties :
#
#
# Convention : Reuss Voigt Hill
#
# Bulk Modulus (GPa) = 27.04261 55.77334 41.40798
# Shear Modulus (GPa) = 23.68776 33.65254 28.67015
#
# Velocity S-wave (km/s) = 3.15911 3.76541 3.47551
# Velocity P-wave (km/s) = 4.96992 6.51173 5.79235
#
# Compressibility (1/GPa) = 0.03697868
#
# Stress axis : x y z
#
# Youngs Moduli (GPa) = 88.83891 22.14561 58.93434
#
# Poissons Ratio (x) = 0.01685 0.43834
# Poissons Ratio (y) = 0.06759 0.58947
# Poissons Ratio (z) = 0.66076 0.22151
#
# Static dielectric constant tensor:
#      x y z
#    x 1.931470 0.000000 -0.018950 
#    y 0.000000 2.001720 0.000000 
#    z -0.018950 0.000000 1.925100 
# 
# From -- ./inp_files/9653.got.cif
#   From: 2010.05.17/outbox.cif.g08.bks.cpg/sg9_5_cif.got.tgz:9653.got - 2010.06.03 20:04:27.
