data_PCOD9137922
_publ_section_title
;
Structure prediction by ZEFSAII (Michael W. Deem and Ramdas Pophale) SiO2 
 PCOD9137922
Probable space group: C C
;
_chemical_formula_sum "Si O2"
_cell_formula_units_Z 32
_cell_length_a 7.850830
_cell_length_b 11.530140
_cell_length_c 21.516935
_cell_angle_alpha 90.000000
_cell_angle_beta 41.686836
_cell_angle_gamma 90.000000
_cell_volume 1295.360357
_symmetry_space_group_name_H-M "C C"
_symmetry_group_IT_number 9
_symmetry_cell_setting 'monoclinic'
loop_
_space_group_symop_operation_xyz
x,y,z
x,-y,1/2+z
1/2+x,1/2+y,z
1/2+x,1/2-y,1/2+z
loop_
_atom_site_type_symbol
_atom_site_label
_atom_site_fract_x
_atom_site_fract_y
_atom_site_fract_z
Si Si1 0.441550 0.879950 0.450000
Si Si2 0.435914 0.358530 0.507764
Si Si3 0.441000 0.944010 0.592266
Si Si4 0.202904 0.511955 0.268009
Si Si5 0.121645 0.158238 0.648611
Si Si6 0.659970 0.305115 0.818423
Si Si7 0.502190 0.268559 0.731228
Si Si8 0.747620 0.551715 0.810052
O O1 0.482805 0.930421 0.506834
O O2 0.535747 0.746378 0.414897
O O3 0.151051 0.885970 0.501427
O O4 0.624995 0.950850 0.353603
O O5 0.319416 0.231168 0.553193
O O6 0.553538 0.378993 0.407202
O O7 0.185126 0.440005 0.570593
O O8 0.280488 0.825571 0.648073
O O9 0.278701 0.061220 0.643619
O O10 0.406014 0.427524 0.178034
O O11 0.322479 0.634577 0.250774
O O12 0.945435 0.518379 0.299780
O O13 0.946519 0.252595 0.732759
O O14 0.491327 0.249653 0.808550
O O15 0.622722 0.440482 0.813043
O O16 0.413129 0.146443 0.729103
#
# Coordination Sequence:
#
# PCOD9137922 Si02
#       8
#     4   4   4   4   4   4   4   4
#     4  10  24  45  70 102 146 181 234 300 343 426
#     4  11  23  44  66 109 141 179 232 301 348 411
#     4  11  25  45  73 105 136 194 235 288 375 409
#     4   9  21  44  69  95 138 189 232 290 349 416
#     4  10  22  45  71  95 150 181 230 303 349 409
#     4  11  23  49  68 100 146 186 233 291 352 424
#     4  11  22  48  69  98 140 187 235 289 352 425
#     4  11  24  42  72 100 137 189 237 282 356 426
#
# _framework density 24.703551999999998
#
# number of rings (size 3 to 8) (size 9 to 14) (size 15 to 20)
#    0.000    1.500    5.000    0.000    5.250    3.000 
#   13.500    0.000    0.000    0.000    0.000    0.000 
#    0.000    0.000    0.000    0.000    0.000    0.000 
#
# Total GULP energy -89301.295768 kJ/mol
# GULP energy per Si atom -5581.330985 kJ/mol
# Density = 2.464733 g / cm^3
# Si number density = 24.703552 Si / 1000 Ang^3
#
#
#
# Elastic Constant Matrix: (Units=GPa)
#
#
# Indices 1 2 3 4 5 6 
#
# 1 81.0015 33.2391 34.5238 -0.0022 -13.5241 0.0019
# 2 33.2391 153.1592 47.7260 -0.0011 -6.7526 0.0009
# 3 34.5238 47.7260 67.6481 -0.0018 -10.7142 0.0019
# 4 -0.0022 -0.0011 -0.0018 36.1228 0.0017 9.5690
# 5 -13.5241 -6.7526 -10.7142 0.0017 40.7494 -0.0017
# 6 0.0019 0.0009 0.0019 9.5690 -0.0017 26.0928
#
#
#
# Elastic Compliance Matrix: (Units=1/GPa)
#
#
# Indices 1 2 3 4 5 6 
#
# 1 0.016384 -0.001241 -0.006947 0.000001 0.003406 -0.000001
# 2 -0.001241 0.008464 -0.005406 0.000000 -0.000431 0.000000
# 3 -0.006947 -0.005406 0.022575 0.000001 0.002734 -0.000001
# 4 0.000001 0.000000 0.000001 0.030662 -0.000001 -0.011245
# 5 0.003406 -0.000431 0.002734 -0.000001 0.026318 0.000002
# 6 -0.000001 0.000000 -0.000001 -0.011245 0.000002 0.042449
#
#
# Mechanical properties :
#
#
# Convention : Reuss Voigt Hill
#
# Bulk Modulus (GPa) = 49.41915 59.19849 54.30882
# Shear Modulus (GPa) = 27.65720 33.01431 30.33575
#
# Velocity S-wave (km/s) = 3.34962 3.65967 3.50807
# Velocity P-wave (km/s) = 5.91677 6.47095 6.20006
#
# Compressibility (1/GPa) = 0.02023507
#
# Stress axis : x y z
#
# Youngs Moduli (GPa) = 61.03518 118.14501 44.29703
#
# Poissons Ratio (x) = 0.14661 0.30772
# Poissons Ratio (y) = 0.07574 0.23949
# Poissons Ratio (z) = 0.42399 0.63874
#
# Static dielectric constant tensor:
#      x y z
#    x 1.964860 0.000000 -0.000820 
#    y 0.000000 1.977530 0.000000 
#    z -0.000820 0.000000 2.044520 
# 
# From -- ./inp_files/35005.got.cif
#   From: 2010.05.17/outbox.cif.g08.bks.cpg/sg9_18_cif.got.tgz:35005.got - 2010.06.03 20:04:27.
