data_PCOD9137659
_publ_section_title
;
Structure prediction by ZEFSAII (Michael W. Deem and Ramdas Pophale) SiO2 
 PCOD9137659
Probable space group: C C
;
_chemical_formula_sum "Si O2"
_cell_formula_units_Z 28
_cell_length_a 4.912036
_cell_length_b 13.893439
_cell_length_c 15.738362
_cell_angle_alpha 90.000000
_cell_angle_beta 108.823614
_cell_angle_gamma 90.000000
_cell_volume 1016.620716
_symmetry_space_group_name_H-M "C C"
_symmetry_group_IT_number 9
_symmetry_cell_setting 'monoclinic'
loop_
_space_group_symop_operation_xyz
x,y,z
x,-y,1/2+z
1/2+x,1/2+y,z
1/2+x,1/2-y,1/2+z
loop_
_atom_site_type_symbol
_atom_site_label
_atom_site_fract_x
_atom_site_fract_y
_atom_site_fract_z
Si Si1 0.577830 0.579852 0.117470
Si Si2 0.873966 0.769298 0.966323
Si Si3 0.084364 0.657949 0.234113
Si Si4 0.298075 0.140986 0.389785
Si Si5 0.833136 0.716050 0.648999
Si Si6 0.561284 0.045199 0.741014
Si Si7 0.075091 0.438631 0.438443
O O1 0.421162 0.674416 0.138831
O O2 0.731546 0.492610 0.186033
O O3 0.875614 0.637065 0.130800
O O4 0.366276 0.545445 0.022219
O O5 0.989220 0.825393 0.892653
O O6 0.922426 0.657982 0.953295
O O7 0.546213 0.791900 0.956145
O O8 0.091379 0.810674 0.057872
O O9 0.882506 0.654386 0.298723
O O10 0.206919 0.763386 0.230166
O O11 0.241805 0.553083 0.247990
O O12 0.376228 0.033034 0.424437
O O13 0.079265 0.636382 0.681429
O O14 0.626270 0.074201 0.843270
#
# Coordination Sequence:
#
# PCOD9137659 Si02
#       7
#     4   4   4   4   4   4   4
#     4   9  22  42  61  97 135 173 230 291 346 407
#     4  11  27  42  73 105 139 188 235 289 363 419
#     4   9  23  41  64  93 136 173 233 285 342 410
#     4  11  25  46  68 102 141 185 233 296 347 425
#     4  11  22  42  68  94 140 180 227 293 350 420
#     4   9  21  40  65  97 128 182 233 280 359 417
#     4  10  22  43  69 100 141 183 239 292 351 426
#
# _framework density 27.542231000000001
#
# number of rings (size 3 to 8) (size 9 to 14) (size 15 to 20)
#    0.857    1.143    0.000    1.714    8.000    3.429 
#    2.571    1.429    0.000    0.000    0.000    0.000 
#    0.000    0.000    0.000    0.000    0.000    0.000 
#
# Total GULP energy -78117.387255 kJ/mol
# GULP energy per Si atom -5579.813375 kJ/mol
# Density = 2.747954 g / cm^3
# Si number density = 27.542231 Si / 1000 Ang^3
#
#
#
# Elastic Constant Matrix: (Units=GPa)
#
#
# Indices 1 2 3 4 5 6 
#
# 1 85.1783 13.8113 -7.0986 0.0000 4.5626 0.0000
# 2 13.8113 102.2991 43.1686 0.0000 -8.8108 0.0000
# 3 -7.0986 43.1686 111.6200 0.0000 25.7257 0.0000
# 4 0.0000 0.0000 0.0000 43.7606 0.0000 8.3704
# 5 4.5626 -8.8108 25.7257 0.0000 33.9365 0.0000
# 6 0.0000 0.0000 0.0000 8.3704 0.0000 33.0719
#
#
#
# Elastic Compliance Matrix: (Units=1/GPa)
#
#
# Indices 1 2 3 4 5 6 
#
# 1 0.012906 -0.003659 0.003459 0.000000 -0.005307 0.000000
# 2 -0.003659 0.014729 -0.008390 0.000000 0.010676 0.000000
# 3 0.003459 -0.008390 0.015792 0.000000 -0.014614 0.000000
# 4 0.000000 0.000000 0.000000 0.024014 0.000000 -0.006078
# 5 -0.005307 0.010676 -0.014614 0.000000 0.044031 0.000000
# 6 0.000000 0.000000 0.000000 -0.006078 0.000000 0.031775
#
#
# Mechanical properties :
#
#
# Convention : Reuss Voigt Hill
#
# Bulk Modulus (GPa) = 38.09882 44.31777 41.20829
# Shear Modulus (GPa) = 29.55509 38.76821 34.16165
#
# Velocity S-wave (km/s) = 3.27935 3.75586 3.52566
# Velocity P-wave (km/s) = 5.31053 5.91053 5.61855
#
# Compressibility (1/GPa) = 0.02624754
#
# Stress axis : x y z
#
# Youngs Moduli (GPa) = 77.48336 67.89292 63.32373
#
# Poissons Ratio (x) = 0.24844 -0.21905
# Poissons Ratio (y) = 0.28353 0.53126
# Poissons Ratio (z) = -0.26803 0.56960
#
# Static dielectric constant tensor:
#      x y z
#    x 2.321210 0.000000 -0.071270 
#    y 0.000000 2.143100 0.000000 
#    z -0.071270 0.000000 2.315320 
# 
# From -- ./inp_files/28630.got.cif
#   From: 2010.05.17/outbox.cif.g08.bks.cpg/sg9_15_cif.got.tgz:28630.got - 2010.06.03 20:04:27.
