data_PCOD9137049
_publ_section_title
;
Structure prediction by ZEFSAII (Michael W. Deem and Ramdas Pophale) SiO2 
 PCOD9137049
Probable space group: C C
;
_chemical_formula_sum "Si O2"
_cell_formula_units_Z 32
_cell_length_a 14.644674
_cell_length_b 11.382486
_cell_length_c 9.316540
_cell_angle_alpha 90.000000
_cell_angle_beta 85.851536
_cell_angle_gamma 90.000000
_cell_volume 1548.931170
_symmetry_space_group_name_H-M "C C"
_symmetry_group_IT_number 9
_symmetry_cell_setting 'monoclinic'
loop_
_space_group_symop_operation_xyz
x,y,z
x,-y,1/2+z
1/2+x,1/2+y,z
1/2+x,1/2-y,1/2+z
loop_
_atom_site_type_symbol
_atom_site_label
_atom_site_fract_x
_atom_site_fract_y
_atom_site_fract_z
Si Si1 0.581230 0.645661 0.000000
Si Si2 0.806150 0.133163 0.604897
Si Si3 0.493652 0.675608 0.473326
Si Si4 0.156649 0.384032 0.891391
Si Si5 0.130072 0.950997 0.182096
Si Si6 0.406867 0.397917 0.692789
Si Si7 0.657498 0.845873 0.361744
Si Si8 0.745711 0.756417 0.629473
O O1 0.635639 0.583838 0.125569
O O2 0.477674 0.620945 0.055472
O O3 0.597548 0.784415 0.978728
O O4 0.610039 0.578460 0.850287
O O5 0.896724 0.210883 0.560078
O O6 0.754183 0.109278 0.461538
O O7 0.721629 0.170754 0.715291
O O8 0.847625 0.013858 0.668479
O O9 0.551267 0.607871 0.590137
O O10 0.459508 0.601585 0.338252
O O11 0.566320 0.768609 0.399875
O O12 0.126863 0.518016 0.878303
O O13 0.171792 0.325349 0.735343
O O14 0.221165 0.879483 0.133775
O O15 0.341350 0.285972 0.689149
O O16 0.729686 0.811297 0.477250
#
# Coordination Sequence:
#
# PCOD9137049 Si02
#       8
#     4   4   4   4   4   4   4   4
#     4  11  24  37  67  91 133 168 220 272 333 385
#     4  12  22  37  68  96 127 167 227 270 321 387
#     4  11  24  39  64 103 132 163 222 275 329 385
#     4  11  21  42  63  96 127 175 212 271 334 391
#     4  10  23  41  58  91 130 171 209 273 327 392
#     4  12  22  38  65  97 123 163 223 277 314 391
#     4  11  22  40  65  97 135 169 212 271 334 390
#     4  10  22  38  62  89 129 162 217 267 324 383
#
# _framework density 20.659406000000001
#
# number of rings (size 3 to 8) (size 9 to 14) (size 15 to 20)
#    0.000    1.000    5.000    1.500    1.750    1.000 
#    0.000    1.250    0.000    0.000    0.000    0.000 
#    0.000    0.000    0.000    0.000    0.000    0.000 
#
# Total GULP energy -89209.379219 kJ/mol
# GULP energy per Si atom -5575.586201 kJ/mol
# Density = 2.061238 g / cm^3
# Si number density = 20.659406 Si / 1000 Ang^3
#
#
#
# Elastic Constant Matrix: (Units=GPa)
#
#
# Indices 1 2 3 4 5 6 
#
# 1 86.0461 48.0989 21.0913 0.0000 -12.4501 0.0000
# 2 48.0989 86.5545 17.9807 0.0000 -21.0723 0.0000
# 3 21.0913 17.9807 106.0695 0.0000 -8.8078 0.0000
# 4 0.0000 0.0000 0.0000 24.9999 0.0000 -0.7562
# 5 -12.4501 -21.0723 -8.8078 0.0000 39.1429 0.0000
# 6 0.0000 0.0000 0.0000 -0.7562 0.0000 28.8024
#
#
#
# Elastic Compliance Matrix: (Units=1/GPa)
#
#
# Indices 1 2 3 4 5 6 
#
# 1 0.017208 -0.009144 -0.001861 0.000000 0.000132 0.000000
# 2 -0.009144 0.018460 -0.000741 0.000000 0.006862 0.000000
# 3 -0.001861 -0.000741 0.010029 0.000000 0.001266 0.000000
# 4 0.000000 0.000000 0.000000 0.040032 0.000000 0.001051
# 5 0.000132 0.006862 0.001266 0.000000 0.029569 0.000000
# 6 0.000000 0.000000 0.000000 0.001051 0.000000 0.034747
#
#
# Mechanical properties :
#
#
# Convention : Reuss Voigt Hill
#
# Bulk Modulus (GPa) = 45.03598 50.33465 47.68531
# Shear Modulus (GPa) = 27.63392 31.35567 29.49479
#
# Velocity S-wave (km/s) = 3.66128 3.90005 3.78255
# Velocity P-wave (km/s) = 6.30237 6.68561 6.49682
#
# Compressibility (1/GPa) = 0.02220447
#
# Stress axis : x y z
#
# Youngs Moduli (GPa) = 58.11138 54.17265 99.71560
#
# Poissons Ratio (x) = 0.49536 0.18554
# Poissons Ratio (y) = 0.53138 0.07390
# Poissons Ratio (z) = 0.10813 0.04015
#
# Static dielectric constant tensor:
#      x y z
#    x 1.755830 0.000000 -0.045890 
#    y 0.000000 1.782580 0.000000 
#    z -0.045890 0.000000 1.781050 
# 
# From -- ./inp_files/9149.got.cif
#   From: 2010.05.17/outbox.cif.g08.bks.cpg/sg9_5_cif.got.tgz:9149.got - 2010.06.03 20:04:27.
