data_PCOD9137611
_publ_section_title
;
Structure prediction by ZEFSAII (Michael W. Deem and Ramdas Pophale) SiO2 
 PCOD9137611
Probable space group: C C
;
_chemical_formula_sum "Si O2"
_cell_formula_units_Z 32
_cell_length_a 14.066080
_cell_length_b 19.943675
_cell_length_c 5.298366
_cell_angle_alpha 90.000000
_cell_angle_beta 66.034950
_cell_angle_gamma 90.000000
_cell_volume 1358.214119
_symmetry_space_group_name_H-M "C C"
_symmetry_group_IT_number 9
_symmetry_cell_setting 'monoclinic'
loop_
_space_group_symop_operation_xyz
x,y,z
x,-y,1/2+z
1/2+x,1/2+y,z
1/2+x,1/2-y,1/2+z
loop_
_atom_site_type_symbol
_atom_site_label
_atom_site_fract_x
_atom_site_fract_y
_atom_site_fract_z
Si Si1 0.559510 0.829160 0.956160
Si Si2 0.048207 0.868887 0.155734
Si Si3 0.210488 0.233718 0.465928
Si Si4 0.679762 0.456468 0.333680
Si Si5 0.918383 0.545428 0.503220
Si Si6 0.752826 0.153569 0.570904
Si Si7 0.897926 0.226022 0.081839
Si Si8 0.368909 0.542749 0.703330
O O1 0.630289 0.786386 0.684589
O O2 0.494185 0.890789 0.917740
O O3 0.641800 0.858392 0.066130
O O4 0.476478 0.774239 0.148644
O O5 0.152328 0.833467 0.945455
O O6 0.091298 0.902218 0.367350
O O7 0.967719 0.809173 0.292970
O O8 0.982739 0.923449 0.076709
O O9 0.250312 0.271507 0.179397
O O10 0.306627 0.230389 0.554089
O O11 0.669904 0.488842 0.618574
O O12 0.797930 0.431358 0.163470
O O13 0.933995 0.498202 0.732726
O O14 0.846388 0.161721 0.272347
O O15 0.783961 0.100356 0.746578
O O16 0.356692 0.492086 0.485128
#
# Coordination Sequence:
#
# PCOD9137611 Si02
#       8
#     4   4   4   4   4   4   4   4
#     4  10  24  41  70  96 134 185 236 282 365 421
#     4  11  22  43  73  98 140 182 238 285 361 422
#     4  10  23  44  65 102 136 176 233 301 349 426
#     4  10  22  43  66 101 139 175 230 288 350 418
#     4  10  23  44  67  98 137 180 233 293 347 423
#     4  11  25  44  66 103 138 181 237 293 353 427
#     4  10  22  45  67 101 141 181 232 296 363 426
#     4  12  27  46  72 101 145 192 235 292 352 429
#
# _framework density 23.56035
#
# number of rings (size 3 to 8) (size 9 to 14) (size 15 to 20)
#    0.000    1.500    1.250    2.250    5.250    2.000 
#   13.500    0.000    0.000    0.000    0.000    0.000 
#    0.000    0.000    0.000    0.000    0.000    0.000 
#
# Total GULP energy -89436.572758 kJ/mol
# GULP energy per Si atom -5589.785797 kJ/mol
# Density = 2.350673 g / cm^3
# Si number density = 23.560350 Si / 1000 Ang^3
#
#
#
# Elastic Constant Matrix: (Units=GPa)
#
#
# Indices 1 2 3 4 5 6 
#
# 1 127.8815 25.2359 7.0596 0.0000 -4.2588 0.0000
# 2 25.2359 49.7844 -9.4780 0.0000 -0.3573 0.0000
# 3 7.0596 -9.4780 36.5463 0.0000 6.0143 0.0000
# 4 0.0000 0.0000 0.0000 8.6742 0.0000 4.2675
# 5 -4.2588 -0.3573 6.0143 0.0000 27.2468 0.0000
# 6 0.0000 0.0000 0.0000 4.2675 0.0000 47.6402
#
#
#
# Elastic Compliance Matrix: (Units=1/GPa)
#
#
# Indices 1 2 3 4 5 6 
#
# 1 0.009123 -0.005271 -0.003479 0.000000 0.002125 0.000000
# 2 -0.005271 0.024201 0.007656 0.000000 -0.002197 0.000000
# 3 -0.003479 0.007656 0.031227 0.000000 -0.007336 0.000000
# 4 0.000000 0.000000 0.000000 0.120599 0.000000 -0.010803
# 5 0.002125 -0.002197 -0.007336 0.000000 0.038624 0.000000
# 6 0.000000 0.000000 0.000000 -0.010803 0.000000 0.021958
#
#
# Mechanical properties :
#
#
# Convention : Reuss Voigt Hill
#
# Bulk Modulus (GPa) = 16.03547 28.87191 22.45369
# Shear Modulus (GPa) = 18.60754 29.47190 24.03972
#
# Velocity S-wave (km/s) = 2.81335 3.54066 3.19775
# Velocity P-wave (km/s) = 4.16824 5.38480 4.81509
#
# Compressibility (1/GPa) = 0.06236177
#
# Stress axis : x y z
#
# Youngs Moduli (GPa) = 109.61520 41.32136 32.02314
#
# Poissons Ratio (x) = 0.21783 0.11141
# Poissons Ratio (y) = 0.57784 -0.24517
# Poissons Ratio (z) = 0.38135 -0.31636
#
# Static dielectric constant tensor:
#      x y z
#    x 1.888040 0.000000 -0.012020 
#    y 0.000000 1.892260 0.000000 
#    z -0.012020 0.000000 1.920640 
# 
# From -- ./inp_files/1844.got.cif
#   From: 2010.05.17/outbox.cif.g08.bks.cpg/sg9_1_cif.got.tgz:1844.got - 2010.06.03 20:04:27.
