data_PCOD9137643
_publ_section_title
;
Structure prediction by ZEFSAII (Michael W. Deem and Ramdas Pophale) SiO2 
 PCOD9137643
Probable space group: C C
;
_chemical_formula_sum "Si O2"
_cell_formula_units_Z 32
_cell_length_a 10.944527
_cell_length_b 9.684293
_cell_length_c 19.635911
_cell_angle_alpha 90.000000
_cell_angle_beta 41.252376
_cell_angle_gamma 90.000000
_cell_volume 1372.302208
_symmetry_space_group_name_H-M "C C"
_symmetry_group_IT_number 9
_symmetry_cell_setting 'monoclinic'
loop_
_space_group_symop_operation_xyz
x,y,z
x,-y,1/2+z
1/2+x,1/2+y,z
1/2+x,1/2-y,1/2+z
loop_
_atom_site_type_symbol
_atom_site_label
_atom_site_fract_x
_atom_site_fract_y
_atom_site_fract_z
Si Si1 0.260400 0.495166 0.559500
Si Si2 0.005975 0.347618 0.777915
Si Si3 0.792018 0.651449 0.689122
Si Si4 0.956480 0.181363 0.320227
Si Si5 0.609614 0.002599 0.981886
Si Si6 0.609272 0.689845 0.108935
Si Si7 0.157644 0.973395 0.859374
Si Si8 0.457224 0.055187 0.907371
O O1 0.200561 0.429450 0.511170
O O2 0.212440 0.659354 0.571315
O O3 0.480159 0.479613 0.476672
O O4 0.138184 0.429568 0.669777
O O5 0.799218 0.374730 0.838616
O O6 0.009314 0.409674 0.852701
O O7 0.092826 0.195575 0.744795
O O8 0.770988 0.594669 0.774782
O O9 0.909729 0.549450 0.592486
O O10 0.926597 0.783096 0.641051
O O11 0.047780 0.153692 0.210144
O O12 0.746923 0.125050 0.408120
O O13 0.975172 0.338160 0.337450
O O14 0.066855 0.101150 0.332548
O O15 0.577193 0.082138 0.925019
O O16 0.747082 0.579282 0.019343
#
# Coordination Sequence:
#
# PCOD9137643 Si02
#       8
#     4   4   4   4   4   4   4   4
#     4  10  22  43  68  91 138 185 216 287 365 404
#     4  12  26  41  68 104 133 183 239 287 347 431
#     4  11  23  44  67  96 142 187 229 291 359 414
#     4  11  22  42  73  98 138 183 233 294 358 423
#     4  10  22  44  68 101 138 187 228 291 359 418
#     4  11  21  43  69  96 131 186 230 291 357 419
#     4  11  23  44  65  96 143 183 224 293 354 416
#     4  12  23  41  72 104 131 182 249 280 351 435
#
# _framework density 23.318479
#
# number of rings (size 3 to 8) (size 9 to 14) (size 15 to 20)
#    0.000    1.000    7.500    1.500    1.750    4.000 
#    0.000    2.500    0.000    0.000    0.000    0.000 
#    0.000    0.000    0.000    0.000    0.000    0.000 
#
# Total GULP energy -89427.863699 kJ/mol
# GULP energy per Si atom -5589.241481 kJ/mol
# Density = 2.326541 g / cm^3
# Si number density = 23.318479 Si / 1000 Ang^3
#
#
#
# Elastic Constant Matrix: (Units=GPa)
#
#
# Indices 1 2 3 4 5 6 
#
# 1 111.9219 11.2706 39.2394 0.0000 -11.1507 0.0000
# 2 11.2706 29.7706 17.6374 0.0000 -6.9018 0.0000
# 3 39.2394 17.6374 116.4431 0.0000 4.3218 0.0000
# 4 0.0000 0.0000 0.0000 20.9058 0.0000 -1.6269
# 5 -11.1507 -6.9018 4.3218 0.0000 40.2677 0.0000
# 6 0.0000 0.0000 0.0000 -1.6269 0.0000 37.0800
#
#
#
# Elastic Compliance Matrix: (Units=1/GPa)
#
#
# Indices 1 2 3 4 5 6 
#
# 1 0.010594 -0.001218 -0.003500 0.000000 0.003100 0.000000
# 2 -0.001218 0.039088 -0.005769 0.000000 0.006981 0.000000
# 3 -0.003500 -0.005769 0.010757 0.000000 -0.003113 0.000000
# 4 0.000000 0.000000 0.000000 0.047998 0.000000 0.002106
# 5 0.003100 0.006981 -0.003113 0.000000 0.027223 0.000000
# 6 0.000000 0.000000 0.000000 0.002106 0.000000 0.027061
#
#
# Mechanical properties :
#
#
# Convention : Reuss Voigt Hill
#
# Bulk Modulus (GPa) = 25.34021 43.82558 34.58289
# Shear Modulus (GPa) = 25.40011 32.31657 28.85834
#
# Velocity S-wave (km/s) = 3.30399 3.72678 3.52173
# Velocity P-wave (km/s) = 5.04438 6.11176 5.60354
#
# Compressibility (1/GPa) = 0.03946297
#
# Stress axis : x y z
#
# Youngs Moduli (GPa) = 94.39673 25.58345 92.96390
#
# Poissons Ratio (x) = 0.03116 0.32542
# Poissons Ratio (y) = 0.11497 0.53633
# Poissons Ratio (z) = 0.33043 0.14760
#
# Static dielectric constant tensor:
#      x y z
#    x 1.892150 0.000000 -0.020720 
#    y 0.000000 1.955190 0.000000 
#    z -0.020720 0.000000 1.877290 
# 
# From -- ./inp_files/22811.got.cif
#   From: 2010.05.17/outbox.cif.g08.bks.cpg/sg9_12_cif.got.tgz:22811.got - 2010.06.03 20:04:27.
