data_PCOD9137635
_publ_section_title
;
Structure prediction by ZEFSAII (Michael W. Deem and Ramdas Pophale) SiO2 
 PCOD9137635
Probable space group: C C
;
_chemical_formula_sum "Si O2"
_cell_formula_units_Z 24
_cell_length_a 25.161277
_cell_length_b 8.607365
_cell_length_c 12.151999
_cell_angle_alpha 90.000000
_cell_angle_beta 155.766391
_cell_angle_gamma 90.000000
_cell_volume 1080.237751
_symmetry_space_group_name_H-M "C C"
_symmetry_group_IT_number 9
_symmetry_cell_setting 'monoclinic'
loop_
_space_group_symop_operation_xyz
x,y,z
x,-y,1/2+z
1/2+x,1/2+y,z
1/2+x,1/2-y,1/2+z
loop_
_atom_site_type_symbol
_atom_site_label
_atom_site_fract_x
_atom_site_fract_y
_atom_site_fract_z
Si Si1 0.010630 0.459840 0.642970
Si Si2 0.829214 0.717884 0.225953
Si Si3 0.239821 0.585932 0.741089
Si Si4 0.792149 0.773309 0.792925
Si Si5 0.611934 0.707804 0.659424
Si Si6 0.329734 0.426777 0.640261
O O1 0.069310 0.355199 0.655092
O O2 0.954265 0.614751 0.482404
O O3 0.894629 0.364461 0.481878
O O4 0.116071 0.473912 0.939174
O O5 0.777572 0.757640 0.250449
O O6 0.841111 0.891478 0.196687
O O7 0.723178 0.633763 0.948392
O O8 0.344149 0.444310 0.928032
O O9 0.234213 0.602833 0.858955
O O10 0.680591 0.737910 0.671605
O O11 0.774046 0.815176 0.630632
O O12 0.476603 0.621047 0.389824
#
# Coordination Sequence:
#
# PCOD9137635 Si02
#       6
#     4   4   4   4   4   4
#     4  10  24  44  69  96 134 173 224 268 326 395
#     4  10  22  43  67  98 129 178 221 265 332 388
#     4  10  22  43  67  98 134 173 216 272 331 387
#     4  10  22  45  65  95 135 171 217 270 325 392
#     4  10  22  45  67  98 135 169 222 270 325 395
#     4  10  22  44  69  97 137 170 218 275 329 387
#
# _framework density 22.21733
#
# number of rings (size 3 to 8) (size 9 to 14) (size 15 to 20)
#    0.000    2.000    1.667    0.000    2.333    2.667 
#   12.000    1.667    0.000    0.000    0.000    0.000 
#    0.000    0.000    0.000    0.000    0.000    0.000 
#
# Total GULP energy -66817.591472 kJ/mol
# GULP energy per Si atom -5568.132623 kJ/mol
# Density = 2.216676 g / cm^3
# Si number density = 22.217330 Si / 1000 Ang^3
#
#
#
# Elastic Constant Matrix: (Units=GPa)
#
#
# Indices 1 2 3 4 5 6 
#
# 1 156.9171 32.0370 70.9653 0.0000 5.7903 0.0000
# 2 32.0370 56.3444 59.8918 0.0000 0.2457 0.0000
# 3 70.9653 59.8918 144.1878 0.0000 -6.2332 0.0000
# 4 0.0000 0.0000 0.0000 31.3059 0.0000 7.2125
# 5 5.7903 0.2457 -6.2332 0.0000 37.9445 0.0000
# 6 0.0000 0.0000 0.0000 7.2125 0.0000 14.4311
#
#
#
# Elastic Compliance Matrix: (Units=1/GPa)
#
#
# Indices 1 2 3 4 5 6 
#
# 1 0.008348 -0.000506 -0.003982 0.000000 -0.001925 0.000000
# 2 -0.000506 0.032027 -0.013153 0.000000 -0.002291 0.000000
# 3 -0.003982 -0.013153 0.014491 0.000000 0.003073 0.000000
# 4 0.000000 0.000000 0.000000 0.036100 0.000000 -0.018042
# 5 -0.001925 -0.002291 0.003073 0.000000 0.027168 0.000000
# 6 0.000000 0.000000 0.000000 -0.018042 0.000000 0.078312
#
#
# Mechanical properties :
#
#
# Convention : Reuss Voigt Hill
#
# Bulk Modulus (GPa) = 51.06005 75.91527 63.48766
# Shear Modulus (GPa) = 20.98594 29.70666 25.34630
#
# Velocity S-wave (km/s) = 3.07673 3.66060 3.38129
# Velocity P-wave (km/s) = 5.97107 7.21874 6.62434
#
# Compressibility (1/GPa) = 0.01958478
#
# Stress axis : x y z
#
# Youngs Moduli (GPa) = 119.79254 31.22381 69.00625
#
# Poissons Ratio (x) = 0.01579 0.27476
# Poissons Ratio (y) = 0.06058 0.90766
# Poissons Ratio (z) = 0.47698 0.41069
#
# Static dielectric constant tensor:
#      x y z
#    x 1.895460 0.000000 0.003370 
#    y 0.000000 1.849930 0.000000 
#    z 0.003370 0.000000 1.866040 
# 
# From -- ./inp_files/20835.got.cif
#   From: 2010.05.17/outbox.cif.g08.bks.cpg/sg9_11_cif.got.tgz:20835.got - 2010.06.03 20:04:27.
