data_PCOD9137367
_publ_section_title
;
Structure prediction by ZEFSAII (Michael W. Deem and Ramdas Pophale) SiO2 
 PCOD9137367
Probable space group: C C
;
_chemical_formula_sum "Si O2"
_cell_formula_units_Z 24
_cell_length_a 7.009329
_cell_length_b 16.009413
_cell_length_c 12.821323
_cell_angle_alpha 90.000000
_cell_angle_beta 42.650201
_cell_angle_gamma 90.000000
_cell_volume 974.781406
_symmetry_space_group_name_H-M "C C"
_symmetry_group_IT_number 9
_symmetry_cell_setting 'monoclinic'
loop_
_space_group_symop_operation_xyz
x,y,z
x,-y,1/2+z
1/2+x,1/2+y,z
1/2+x,1/2-y,1/2+z
loop_
_atom_site_type_symbol
_atom_site_label
_atom_site_fract_x
_atom_site_fract_y
_atom_site_fract_z
Si Si1 0.943730 0.247027 0.770900
Si Si2 0.318172 0.859891 0.005934
Si Si3 0.469701 0.563384 0.472569
Si Si4 0.534119 0.808296 0.252283
Si Si5 0.956416 0.123482 0.259628
Si Si6 0.928019 0.114223 0.044958
O O1 0.686865 0.220922 0.798464
O O2 0.133591 0.164337 0.679983
O O3 0.159879 0.323872 0.659054
O O4 0.823551 0.276463 0.929803
O O5 0.203462 0.926134 0.969075
O O6 0.626930 0.880144 0.918585
O O7 0.592948 0.593427 0.311659
O O8 0.372143 0.468349 0.500350
O O9 0.226640 0.625013 0.614691
O O10 0.524305 0.718800 0.200314
O O11 0.219737 0.841648 0.395430
O O12 0.984086 0.078093 0.139441
#
# Coordination Sequence:
#
# PCOD9137367 Si02
#       6
#     4   4   4   4   4   4
#     4  10  22  41  69  98 133 177 236 277 337 416
#     4  10  22  41  67  99 134 179 237 281 337 426
#     4  11  26  46  66 105 146 177 232 296 352 406
#     4  11  23  44  76  97 138 189 228 283 350 415
#     4  11  23  46  70  96 138 192 234 280 346 421
#     4  11  26  46  68 107 145 176 237 297 346 412
#
# _framework density 24.620902999999998
#
# number of rings (size 3 to 8) (size 9 to 14) (size 15 to 20)
#    0.000    1.333    3.333    1.000    9.333    0.000 
#   12.000    0.000    0.000    0.000    0.000    0.000 
#    0.000    0.000    0.000    0.000    0.000    0.000 
#
# Total GULP energy -67009.408974 kJ/mol
# GULP energy per Si atom -5584.117414 kJ/mol
# Density = 2.456487 g / cm^3
# Si number density = 24.620903 Si / 1000 Ang^3
#
#
#
# Elastic Constant Matrix: (Units=GPa)
#
#
# Indices 1 2 3 4 5 6 
#
# 1 99.4458 30.5532 24.5387 -0.0001 -3.6463 0.0000
# 2 30.5532 88.9864 26.8226 0.0002 9.1391 -0.0001
# 3 24.5387 26.8226 66.2027 -0.0003 7.5283 0.0003
# 4 -0.0001 0.0002 -0.0003 32.4065 0.0002 1.9324
# 5 -3.6463 9.1391 7.5283 0.0002 43.5107 0.0000
# 6 0.0000 -0.0001 0.0003 1.9324 0.0000 19.8840
#
#
#
# Elastic Compliance Matrix: (Units=1/GPa)
#
#
# Indices 1 2 3 4 5 6 
#
# 1 0.011994 -0.003343 -0.003351 0.000000 0.002287 0.000000
# 2 -0.003343 0.013877 -0.004101 0.000000 -0.002485 0.000000
# 3 -0.003351 -0.004101 0.018303 0.000000 -0.002586 0.000000
# 4 0.000000 0.000000 0.000000 0.031038 0.000000 -0.003016
# 5 0.002287 -0.002485 -0.002586 0.000000 0.024144 0.000000
# 6 0.000000 0.000000 0.000000 -0.003016 0.000000 0.050585
#
#
# Mechanical properties :
#
#
# Convention : Reuss Voigt Hill
#
# Bulk Modulus (GPa) = 44.27950 46.49602 45.38776
# Shear Modulus (GPa) = 27.92408 30.67492 29.29950
#
# Velocity S-wave (km/s) = 3.37138 3.53354 3.45342
# Velocity P-wave (km/s) = 5.76008 5.96437 5.86311
#
# Compressibility (1/GPa) = 0.02258381
#
# Stress axis : x y z
#
# Youngs Moduli (GPa) = 83.37844 72.06349 54.63639
#
# Poissons Ratio (x) = 0.24088 0.18310
# Poissons Ratio (y) = 0.27871 0.22404
# Poissons Ratio (z) = 0.27942 0.29551
#
# Static dielectric constant tensor:
#      x y z
#    x 2.006840 0.000000 0.014240 
#    y 0.000000 1.967920 0.000000 
#    z 0.014240 0.000000 1.919280 
# 
# From -- ./inp_files/23306.got.cif
#   From: 2010.05.17/outbox.cif.g08.bks.cpg/sg9_12_cif.got.tgz:23306.got - 2010.06.03 20:04:27.
