data_PCOD9137257
_publ_section_title
;
Structure prediction by ZEFSAII (Michael W. Deem and Ramdas Pophale) SiO2 
 PCOD9137257
Probable space group: C C
;
_chemical_formula_sum "Si O2"
_cell_formula_units_Z 32
_cell_length_a 20.635755
_cell_length_b 12.099642
_cell_length_c 10.891704
_cell_angle_alpha 90.000000
_cell_angle_beta 33.775130
_cell_angle_gamma 90.000000
_cell_volume 1511.863645
_symmetry_space_group_name_H-M "C C"
_symmetry_group_IT_number 9
_symmetry_cell_setting 'monoclinic'
loop_
_space_group_symop_operation_xyz
x,y,z
x,-y,1/2+z
1/2+x,1/2+y,z
1/2+x,1/2-y,1/2+z
loop_
_atom_site_type_symbol
_atom_site_label
_atom_site_fract_x
_atom_site_fract_y
_atom_site_fract_z
Si Si1 0.169140 0.427011 0.054100
Si Si2 0.554521 0.161565 0.505363
Si Si3 0.198319 0.893067 0.935720
Si Si4 0.496789 0.695911 0.580766
Si Si5 0.509275 0.535298 0.356167
Si Si6 0.418632 0.391496 0.733795
Si Si7 0.956531 0.440219 0.573326
Si Si8 0.736333 0.157676 0.997565
O O1 0.055371 0.438364 0.315005
O O2 0.136925 0.351296 0.992279
O O3 0.279485 0.380195 0.952664
O O4 0.208011 0.551971 0.957793
O O5 0.482098 0.273720 0.623765
O O6 0.473961 0.052360 0.622650
O O7 0.643198 0.157690 0.252274
O O8 0.329100 0.937275 0.711045
O O9 0.220906 0.773321 0.956761
O O10 0.105720 0.862934 0.975069
O O11 0.132057 0.977266 0.131007
O O12 0.508306 0.655346 0.422042
O O13 0.484037 0.828392 0.607291
O O14 0.371072 0.652666 0.826821
O O15 0.453565 0.458231 0.552681
O O16 0.452647 0.553625 0.311047
#
# Coordination Sequence:
#
# PCOD9137257 Si02
#       8
#     4   4   4   4   4   4   4   4
#     4  11  24  43  69 100 141 192 236 294 353 436
#     4  11  25  45  67 107 149 184 240 300 373 417
#     4  11  23  43  68 100 141 189 238 296 361 421
#     4  11  23  43  72 100 142 195 241 292 353 436
#     4  12  24  45  73 111 137 185 250 298 353 419
#     4  12  27  46  78 107 142 192 249 302 353 438
#     4  10  26  43  65 104 142 188 232 300 363 429
#     4  10  22  40  68 101 140 191 240 290 359 442
#
# _framework density 21.165929999999999
#
# number of rings (size 3 to 8) (size 9 to 14) (size 15 to 20)
#    0.000    1.000    3.750    1.500    5.250    6.000 
#    0.000    2.500    0.000    0.000    0.000    0.000 
#    0.000    0.000    0.000    0.000    0.000    0.000 
#
# Total GULP energy -89264.721396 kJ/mol
# GULP energy per Si atom -5579.045087 kJ/mol
# Density = 2.111776 g / cm^3
# Si number density = 21.165930 Si / 1000 Ang^3
#
#
#
# Elastic Constant Matrix: (Units=GPa)
#
#
# Indices 1 2 3 4 5 6 
#
# 1 106.2421 46.1966 66.8739 0.0000 -21.5607 0.0000
# 2 46.1966 130.2935 41.2268 0.0000 -7.0733 0.0000
# 3 66.8739 41.2268 118.4454 0.0000 -30.7476 0.0000
# 4 0.0000 0.0000 0.0000 35.0052 0.0000 -2.5541
# 5 -21.5607 -7.0733 -30.7476 0.0000 36.1231 0.0000
# 6 0.0000 0.0000 0.0000 -2.5541 0.0000 25.2143
#
#
#
# Elastic Compliance Matrix: (Units=1/GPa)
#
#
# Indices 1 2 3 4 5 6 
#
# 1 0.015850 -0.003220 -0.007106 0.000000 0.002781 0.000000
# 2 -0.003220 0.009314 -0.001860 0.000000 -0.001682 0.000000
# 3 -0.007106 -0.001860 0.015284 0.000000 0.008404 0.000000
# 4 0.000000 0.000000 0.000000 0.028780 0.000000 0.002915
# 5 0.002781 -0.001682 0.008404 0.000000 0.036167 0.000000
# 6 0.000000 0.000000 0.000000 0.002915 0.000000 0.039955
#
#
# Mechanical properties :
#
#
# Convention : Reuss Voigt Hill
#
# Bulk Modulus (GPa) = 62.20969 73.73064 67.97017
# Shear Modulus (GPa) = 28.55809 32.64743 30.60276
#
# Velocity S-wave (km/s) = 3.67720 3.93167 3.80656
# Velocity P-wave (km/s) = 6.89088 7.45123 7.17653
#
# Compressibility (1/GPa) = 0.01607467
#
# Stress axis : x y z
#
# Youngs Moduli (GPa) = 63.09150 107.36400 65.42869
#
# Poissons Ratio (x) = 0.34575 0.46493
# Poissons Ratio (y) = 0.20318 0.12172
# Poissons Ratio (z) = 0.44833 0.19973
#
# Static dielectric constant tensor:
#      x y z
#    x 1.787930 0.000000 0.001330 
#    y 0.000000 1.817410 0.000000 
#    z 0.001330 0.000000 1.775980 
# 
# From -- ./inp_files/16508.got.cif
#   From: 2010.05.17/outbox.cif.g08.bks.cpg/sg9_9_cif.got.tgz:16508.got - 2010.06.03 20:04:27.
