data_PCOD9137657
_publ_section_title
;
Structure prediction by ZEFSAII (Michael W. Deem and Ramdas Pophale) SiO2 
 PCOD9137657
Probable space group: C C
;
_chemical_formula_sum "Si O2"
_cell_formula_units_Z 32
_cell_length_a 11.367155
_cell_length_b 14.278199
_cell_length_c 8.397408
_cell_angle_alpha 90.000000
_cell_angle_beta 99.319921
_cell_angle_gamma 90.000000
_cell_volume 1344.929050
_symmetry_space_group_name_H-M "C C"
_symmetry_group_IT_number 9
_symmetry_cell_setting 'monoclinic'
loop_
_space_group_symop_operation_xyz
x,y,z
x,-y,1/2+z
1/2+x,1/2+y,z
1/2+x,1/2-y,1/2+z
loop_
_atom_site_type_symbol
_atom_site_label
_atom_site_fract_x
_atom_site_fract_y
_atom_site_fract_z
Si Si1 0.076320 0.761034 0.016940
Si Si2 0.145017 0.592012 0.840198
Si Si3 0.848573 0.360946 0.509734
Si Si4 0.590297 0.668186 0.864342
Si Si5 0.438704 0.640130 0.260439
Si Si6 0.425414 0.970765 0.839175
Si Si7 0.962015 0.310521 0.065420
Si Si8 0.403526 0.470897 0.429657
O O1 0.115730 0.807927 0.187438
O O2 0.142547 0.665381 0.985880
O O3 0.940194 0.724340 0.013422
O O4 0.067464 0.829007 0.861569
O O5 0.072080 0.643132 0.684605
O O6 0.281009 0.571249 0.835655
O O7 0.065822 0.500474 0.866085
O O8 0.712459 0.332814 0.488197
O O9 0.890067 0.422003 0.668699
O O10 0.863251 0.430731 0.362491
O O11 0.518298 0.571569 0.865301
O O12 0.508366 0.746904 0.929632
O O13 0.397211 0.737786 0.170116
O O14 0.388750 0.581505 0.398509
O O15 0.424385 0.566438 0.113137
O O16 0.395273 0.897012 0.971287
#
# Coordination Sequence:
#
# PCOD9137657 Si02
#       8
#     4   4   4   4   4   4   4   4
#     4  10  23  45  66 103 138 184 242 289 357 420
#     4  10  24  41  71 103 139 184 233 299 350 419
#     4  11  25  41  72 100 140 185 235 299 350 427
#     4  11  25  43  70 103 142 188 238 290 363 423
#     4  10  24  43  65  94 143 180 229 286 353 422
#     4  11  22  45  69 102 138 183 241 288 357 416
#     4  10  22  43  69 100 138 179 234 286 347 424
#     4  11  25  43  66 103 142 187 230 293 359 423
#
# _framework density 23.793075999999999
#
# number of rings (size 3 to 8) (size 9 to 14) (size 15 to 20)
#    0.000    1.500    2.500    0.750    5.250    4.000 
#    0.000    3.750    0.000    0.000    0.000    0.000 
#    0.000    0.000    0.000    0.000    0.000    0.000 
#
# Total GULP energy -89357.391376 kJ/mol
# GULP energy per Si atom -5584.836961 kJ/mol
# Density = 2.373892 g / cm^3
# Si number density = 23.793076 Si / 1000 Ang^3
#
#
#
# Elastic Constant Matrix: (Units=GPa)
#
#
# Indices 1 2 3 4 5 6 
#
# 1 61.5708 23.6502 0.4675 0.0000 15.9473 0.0000
# 2 23.6502 117.8740 41.8890 0.0000 6.0524 0.0000
# 3 0.4675 41.8890 102.1069 0.0000 -4.4130 0.0000
# 4 0.0000 0.0000 0.0000 59.1068 0.0000 -11.6371
# 5 15.9473 6.0524 -4.4130 0.0000 17.8118 0.0000
# 6 0.0000 0.0000 0.0000 -11.6371 0.0000 18.1659
#
#
#
# Elastic Compliance Matrix: (Units=1/GPa)
#
#
# Indices 1 2 3 4 5 6 
#
# 1 0.022546 -0.003789 0.000641 0.000000 -0.018739 0.000000
# 2 -0.003789 0.010927 -0.004528 0.000000 -0.001442 0.000000
# 3 0.000641 -0.004528 0.011816 0.000000 0.003892 0.000000
# 4 0.000000 0.000000 0.000000 0.019360 0.000000 0.012402
# 5 -0.018739 -0.001442 0.003892 0.000000 0.074374 0.000000
# 6 0.000000 0.000000 0.000000 0.012402 0.000000 0.062993
#
#
# Mechanical properties :
#
#
# Convention : Reuss Voigt Hill
#
# Bulk Modulus (GPa) = 33.40255 45.95166 39.67710
# Shear Modulus (GPa) = 21.99281 33.38657 27.68969
#
# Velocity S-wave (km/s) = 3.04359 3.75000 3.41511
# Velocity P-wave (km/s) = 5.14009 6.17292 5.68003
#
# Compressibility (1/GPa) = 0.02993783
#
# Stress axis : x y z
#
# Youngs Moduli (GPa) = 44.35449 91.51649 84.62806
#
# Poissons Ratio (x) = 0.34678 -0.05428
# Poissons Ratio (y) = 0.16807 0.38317
# Poissons Ratio (z) = -0.02845 0.41436
#
# Static dielectric constant tensor:
#      x y z
#    x 1.898840 0.000000 -0.050890 
#    y 0.000000 1.945350 0.000000 
#    z -0.050890 0.000000 1.941600 
# 
# From -- ./inp_files/7589.got.cif
#   From: 2010.05.17/outbox.cif.g08.bks.cpg/sg9_4_cif.got.tgz:7589.got - 2010.06.03 20:04:27.
