data_PCOD9137877
_publ_section_title
;
Structure prediction by ZEFSAII (Michael W. Deem and Ramdas Pophale) SiO2 
 PCOD9137877
Probable space group: C C
;
_chemical_formula_sum "Si O2"
_cell_formula_units_Z 28
_cell_length_a 19.821084
_cell_length_b 5.243493
_cell_length_c 15.062899
_cell_angle_alpha 90.000000
_cell_angle_beta 59.948576
_cell_angle_gamma 90.000000
_cell_volume 1355.070882
_symmetry_space_group_name_H-M "C C"
_symmetry_group_IT_number 9
_symmetry_cell_setting 'monoclinic'
loop_
_space_group_symop_operation_xyz
x,y,z
x,-y,1/2+z
1/2+x,1/2+y,z
1/2+x,1/2-y,1/2+z
loop_
_atom_site_type_symbol
_atom_site_label
_atom_site_fract_x
_atom_site_fract_y
_atom_site_fract_z
Si Si1 0.351000 0.545284 0.083600
Si Si2 0.294525 0.690101 0.945484
Si Si3 0.065935 0.466583 0.566256
Si Si4 0.928537 0.526176 0.798745
Si Si5 0.451241 0.940823 0.487180
Si Si6 0.279985 0.692898 0.310808
Si Si7 0.167711 0.039092 0.995187
O O1 0.406648 0.302456 0.058589
O O2 0.295700 0.597602 0.202648
O O3 0.400001 0.804786 0.035679
O O4 0.302954 0.513282 0.024820
O O5 0.257124 0.541132 0.888858
O O6 0.378982 0.774430 0.855186
O O7 0.242274 0.937152 0.002354
O O8 0.121716 0.705943 0.550778
O O9 0.996583 0.477527 0.684153
O O10 0.029006 0.490247 0.492108
O O11 0.108315 0.194651 0.539357
O O12 0.862258 0.701993 0.796152
O O13 0.958236 0.613399 0.876807
O O14 0.211665 0.897338 0.372780
#
# Coordination Sequence:
#
# PCOD9137877 Si02
#       7
#     4   4   4   4   4   4   4
#     4  11  23  38  73  98 124 166 227 278 322 380
#     4  10  22  45  67  98 130 167 229 276 319 399
#     4  12  24  44  64  95 136 175 209 271 333 401
#     4  10  23  40  73  95 126 173 220 276 329 383
#     4  11  23  41  65 105 126 163 223 277 320 395
#     4  11  21  45  68  96 127 175 220 276 327 389
#     4  11  26  43  62  91 139 175 212 264 334 393
#
# _framework density 20.663126999999999
#
# number of rings (size 3 to 8) (size 9 to 14) (size 15 to 20)
#    0.000    1.143    4.286    1.714    4.000    0.000 
#    5.143    0.000    0.000    0.000    0.000    0.000 
#    0.000    0.000    0.000    0.000    0.000    0.000 
#
# Total GULP energy -78099.639894 kJ/mol
# GULP energy per Si atom -5578.545707 kJ/mol
# Density = 2.061610 g / cm^3
# Si number density = 20.663127 Si / 1000 Ang^3
#
#
#
# Elastic Constant Matrix: (Units=GPa)
#
#
# Indices 1 2 3 4 5 6 
#
# 1 34.8887 17.9685 38.3604 0.0005 -19.3683 -0.0007
# 2 17.9685 125.1706 37.8428 0.0019 -18.9053 0.0020
# 3 38.3604 37.8428 109.1906 -0.0007 -14.0628 -0.0006
# 4 0.0005 0.0019 -0.0007 30.9264 -0.0003 -8.7034
# 5 -19.3683 -18.9053 -14.0628 -0.0003 30.8400 -0.0001
# 6 -0.0007 0.0020 -0.0006 -8.7034 -0.0001 26.2913
#
#
#
# Elastic Compliance Matrix: (Units=1/GPa)
#
#
# Indices 1 2 3 4 5 6 
#
# 1 0.070467 0.001540 -0.020683 -0.000001 0.035768 0.000001
# 2 0.001540 0.009533 -0.003153 -0.000001 0.005373 -0.000001
# 3 -0.020683 -0.003153 0.016568 0.000001 -0.007367 0.000000
# 4 -0.000001 -0.000001 0.000001 0.035657 0.000000 0.011804
# 5 0.035768 0.005373 -0.007367 0.000000 0.054823 0.000000
# 6 0.000001 -0.000001 0.000000 0.011804 0.000000 0.041943
#
#
# Mechanical properties :
#
#
# Convention : Reuss Voigt Hill
#
# Bulk Modulus (GPa) = 19.23973 50.84368 35.04171
# Shear Modulus (GPa) = 17.18751 29.28339 23.23545
#
# Velocity S-wave (km/s) = 2.88722 3.76863 3.35698
# Velocity P-wave (km/s) = 4.52173 6.60274 5.65872
#
# Compressibility (1/GPa) = 0.05197577
#
# Stress axis : x y z
#
# Youngs Moduli (GPa) = 14.19098 104.90141 60.35552
#
# Poissons Ratio (x) = -0.16151 1.24835
# Poissons Ratio (y) = -0.02185 0.19028
# Poissons Ratio (z) = 0.29352 0.33072
#
# Static dielectric constant tensor:
#      x y z
#    x 1.791110 0.000000 0.008900 
#    y 0.000000 1.777540 0.000000 
#    z 0.008900 0.000000 1.712140 
# 
# From -- ./inp_files/26306.got.cif
#   From: 2010.05.17/outbox.cif.g08.bks.cpg/sg9_14_cif.got.tgz:26306.got - 2010.06.03 20:04:27.
