data_PCOD9137990
_publ_section_title
;
Structure prediction by ZEFSAII (Michael W. Deem and Ramdas Pophale) SiO2 
 PCOD9137990
Probable space group: C C
;
_chemical_formula_sum "Si O2"
_cell_formula_units_Z 28
_cell_length_a 5.016022
_cell_length_b 24.330678
_cell_length_c 11.056558
_cell_angle_alpha 90.000000
_cell_angle_beta 62.841819
_cell_angle_gamma 90.000000
_cell_volume 1200.608664
_symmetry_space_group_name_H-M "C C"
_symmetry_group_IT_number 9
_symmetry_cell_setting 'monoclinic'
loop_
_space_group_symop_operation_xyz
x,y,z
x,-y,1/2+z
1/2+x,1/2+y,z
1/2+x,1/2-y,1/2+z
loop_
_atom_site_type_symbol
_atom_site_label
_atom_site_fract_x
_atom_site_fract_y
_atom_site_fract_z
Si Si1 0.704430 0.523191 0.561400
Si Si2 0.469347 0.903829 0.838552
Si Si3 0.887658 0.777795 0.313671
Si Si4 0.063473 0.814197 0.019907
Si Si5 0.614500 0.910419 0.154746
Si Si6 0.805949 0.340233 0.399746
Si Si7 0.647490 0.599384 0.161369
O O1 0.802748 0.539228 0.404943
O O2 0.387420 0.553339 0.652382
O O3 0.701626 0.459259 0.588182
O O4 0.962117 0.551186 0.587774
O O5 0.321353 0.859716 0.958755
O O6 0.385245 0.889821 0.717962
O O7 0.819505 0.904185 0.785702
O O8 0.675777 0.726634 0.391887
O O9 0.647928 0.826850 0.363415
O O10 0.138619 0.791819 0.361411
O O11 0.032299 0.779511 0.150206
O O12 0.768772 0.853139 0.075599
O O13 0.351742 0.891009 0.299140
O O14 0.646122 0.355326 0.556844
#
# Coordination Sequence:
#
# PCOD9137990 Si02
#       7
#     4   4   4   4   4   4   4
#     4  11  24  43  70  99 134 189 229 285 359 418
#     4  11  25  46  65 103 141 181 233 298 351 411
#     4  11  26  45  76  99 139 186 236 289 359 416
#     4  10  25  48  74 107 139 188 234 296 354 426
#     4  10  22  46  70  97 143 177 233 290 345 427
#     4  11  25  44  65 103 136 182 232 293 346 415
#     4  12  27  40  72 100 142 183 235 295 346 431
#
# _framework density 23.321501999999999
#
# number of rings (size 3 to 8) (size 9 to 14) (size 15 to 20)
#    0.000    1.143    0.000    6.000    8.000    6.857 
#    0.000    0.000    0.000    0.000    0.000    0.000 
#    0.000    0.000    0.000    0.000    0.000    0.000 
#
# Total GULP energy -78225.236725 kJ/mol
# GULP energy per Si atom -5587.516909 kJ/mol
# Density = 2.326842 g / cm^3
# Si number density = 23.321502 Si / 1000 Ang^3
#
#
#
# Elastic Constant Matrix: (Units=GPa)
#
#
# Indices 1 2 3 4 5 6 
#
# 1 96.4281 2.8571 -0.5664 0.0000 4.1685 0.0000
# 2 2.8571 45.0596 16.8229 0.0000 10.7877 0.0000
# 3 -0.5664 16.8229 83.1337 0.0000 -0.8361 0.0000
# 4 0.0000 0.0000 0.0000 38.0301 0.0000 6.2323
# 5 4.1685 10.7877 -0.8361 0.0000 24.7086 0.0000
# 6 0.0000 0.0000 0.0000 6.2323 0.0000 19.1939
#
#
#
# Elastic Compliance Matrix: (Units=1/GPa)
#
#
# Indices 1 2 3 4 5 6 
#
# 1 0.010451 -0.000320 0.000120 0.000000 -0.001620 0.000000
# 2 -0.000320 0.027188 -0.005625 0.000000 -0.012006 0.000000
# 3 0.000120 -0.005625 0.013197 0.000000 0.002882 0.000000
# 4 0.000000 0.000000 0.000000 0.027773 0.000000 -0.009018
# 5 -0.001620 -0.012006 0.002882 0.000000 0.046084 0.000000
# 6 0.000000 0.000000 0.000000 -0.009018 0.000000 0.055028
#
#
# Mechanical properties :
#
#
# Convention : Reuss Voigt Hill
#
# Bulk Modulus (GPa) = 25.51947 29.20541 27.36244
# Shear Modulus (GPa) = 24.45807 30.08702 27.27255
#
# Velocity S-wave (km/s) = 3.24193 3.59569 3.42338
# Velocity P-wave (km/s) = 4.99797 5.45791 5.23300
#
# Compressibility (1/GPa) = 0.03918576
#
# Stress axis : x y z
#
# Youngs Moduli (GPa) = 95.68831 36.78156 75.77587
#
# Poissons Ratio (x) = 0.01175 -0.00906
# Poissons Ratio (y) = 0.03058 0.42621
# Poissons Ratio (z) = -0.01144 0.20688
#
# Static dielectric constant tensor:
#      x y z
#    x 1.856420 0.000000 0.059250 
#    y 0.000000 1.950100 0.000000 
#    z 0.059250 0.000000 1.947140 
# 
# From -- ./inp_files/13845.got.cif
#   From: 2010.05.17/outbox.cif.g08.bks.cpg/sg9_7_cif.got.tgz:13845.got - 2010.06.03 20:04:27.
