data_PCOD9137632
_publ_section_title
;
Structure prediction by ZEFSAII (Michael W. Deem and Ramdas Pophale) SiO2 
 PCOD9137632
Probable space group: C C
;
_chemical_formula_sum "Si O2"
_cell_formula_units_Z 24
_cell_length_a 7.305417
_cell_length_b 28.110863
_cell_length_c 8.079582
_cell_angle_alpha 90.000000
_cell_angle_beta 36.702720
_cell_angle_gamma 90.000000
_cell_volume 991.664131
_symmetry_space_group_name_H-M "C C"
_symmetry_group_IT_number 9
_symmetry_cell_setting 'monoclinic'
loop_
_space_group_symop_operation_xyz
x,y,z
x,-y,1/2+z
1/2+x,1/2+y,z
1/2+x,1/2-y,1/2+z
loop_
_atom_site_type_symbol
_atom_site_label
_atom_site_fract_x
_atom_site_fract_y
_atom_site_fract_z
Si Si1 0.204640 0.500790 0.362340
Si Si2 0.707716 0.139211 0.102903
Si Si3 0.432935 0.219098 0.113427
Si Si4 0.308199 0.950611 0.912396
Si Si5 0.024895 0.898725 0.687188
Si Si6 0.666128 0.131016 0.766822
O O1 0.374401 0.550213 0.273205
O O2 0.088281 0.472684 0.604687
O O3 0.879510 0.520288 0.526669
O O4 0.472273 0.466180 0.093141
O O5 0.600040 0.193164 0.147601
O O6 0.420236 0.103968 0.343605
O O7 0.942227 0.130403 0.080521
O O8 0.816020 0.125636 0.838913
O O9 0.105642 0.234475 0.419655
O O10 0.475072 0.180310 0.936733
O O11 0.386696 0.905487 0.446577
O O12 0.882950 0.873113 0.952229
#
# Coordination Sequence:
#
# PCOD9137632 Si02
#       6
#     4   4   4   4   4   4
#     4  11  25  38  64  92 135 164 228 267 310 397
#     4   9  26  43  69  93 137 172 223 270 333 396
#     4  10  22  43  67  97 130 165 217 275 333 402
#     4  11  24  41  60  96 126 177 215 273 324 377
#     4  11  23  45  64 102 128 178 223 264 325 397
#     4  10  24  40  74  88 132 176 208 279 333 389
#
# _framework density 24.201744000000001
#
# number of rings (size 3 to 8) (size 9 to 14) (size 15 to 20)
#    1.000    0.667    0.000    3.000    7.000    8.000 
#    0.000    5.000    0.000    0.000    0.000    0.000 
#    0.000    0.000    0.000    0.000    0.000    0.000 
#
# Total GULP energy -66933.251947 kJ/mol
# GULP energy per Si atom -5577.770996 kJ/mol
# Density = 2.414666 g / cm^3
# Si number density = 24.201744 Si / 1000 Ang^3
#
#
#
# Elastic Constant Matrix: (Units=GPa)
#
#
# Indices 1 2 3 4 5 6 
#
# 1 118.5694 -4.2356 36.8288 0.0000 4.2874 0.0000
# 2 -4.2356 69.1344 0.0591 0.0000 4.1440 0.0000
# 3 36.8288 0.0591 121.0673 0.0000 -12.6567 0.0000
# 4 0.0000 0.0000 0.0000 26.7755 0.0000 -4.0069
# 5 4.2874 4.1440 -12.6567 0.0000 38.0430 0.0000
# 6 0.0000 0.0000 0.0000 -4.0069 0.0000 31.0346
#
#
#
# Elastic Compliance Matrix: (Units=1/GPa)
#
#
# Indices 1 2 3 4 5 6 
#
# 1 0.009508 0.000716 -0.003121 0.000000 -0.002188 0.000000
# 2 0.000716 0.014617 -0.000414 0.000000 -0.001811 0.000000
# 3 -0.003121 -0.000414 0.009584 0.000000 0.003586 0.000000
# 4 0.000000 0.000000 0.000000 0.038083 0.000000 0.004917
# 5 -0.002188 -0.001811 0.003586 0.000000 0.027923 0.000000
# 6 0.000000 0.000000 0.000000 0.004917 0.000000 0.032857
#
#
# Mechanical properties :
#
#
# Convention : Reuss Voigt Hill
#
# Bulk Modulus (GPa) = 35.62395 41.56398 38.59397
# Shear Modulus (GPa) = 33.88240 37.57852 35.73046
#
# Velocity S-wave (km/s) = 3.74571 3.94473 3.84651
# Velocity P-wave (km/s) = 5.78435 6.16110 5.97569
#
# Compressibility (1/GPa) = 0.02807100
#
# Stress axis : x y z
#
# Youngs Moduli (GPa) = 105.17282 68.41179 104.33531
#
# Poissons Ratio (x) = -0.04901 0.32568
# Poissons Ratio (y) = -0.07534 0.04323
# Poissons Ratio (z) = 0.32830 0.02835
#
# Static dielectric constant tensor:
#      x y z
#    x 1.983510 0.000000 0.000160 
#    y 0.000000 2.066350 0.000000 
#    z 0.000160 0.000000 1.904950 
# 
# From -- ./inp_files/6540.got.cif
#   From: 2010.05.17/outbox.cif.g08.bks.cpg/sg9_4_cif.got.tgz:6540.got - 2010.06.03 20:04:27.
