data_PCOD9137331
_publ_section_title
;
Structure prediction by ZEFSAII (Michael W. Deem and Ramdas Pophale) SiO2 
 PCOD9137331
Probable space group: C C
;
_chemical_formula_sum "Si O2"
_cell_formula_units_Z 32
_cell_length_a 23.391229
_cell_length_b 5.729187
_cell_length_c 21.425029
_cell_angle_alpha 90.000000
_cell_angle_beta 155.359081
_cell_angle_gamma 90.000000
_cell_volume 1197.100578
_symmetry_space_group_name_H-M "C C"
_symmetry_group_IT_number 9
_symmetry_cell_setting 'monoclinic'
loop_
_space_group_symop_operation_xyz
x,y,z
x,-y,1/2+z
1/2+x,1/2+y,z
1/2+x,1/2-y,1/2+z
loop_
_atom_site_type_symbol
_atom_site_label
_atom_site_fract_x
_atom_site_fract_y
_atom_site_fract_z
Si Si1 0.955970 0.582459 0.410510
Si Si2 0.180584 0.195307 0.210826
Si Si3 0.187882 0.250192 0.515318
Si Si4 0.174751 0.417541 0.779735
Si Si5 0.359391 0.748279 0.566514
Si Si6 0.771328 0.251716 0.623730
Si Si7 0.950135 0.195312 0.479418
Si Si8 0.442839 0.249804 0.674928
O O1 0.832197 0.644261 0.336868
O O2 0.906218 0.712198 0.299879
O O3 0.104601 0.639125 0.585181
O O4 0.945527 0.302257 0.405134
O O5 0.185196 0.302257 0.285113
O O6 0.065359 0.999999 0.095122
O O7 0.198540 0.499983 0.561005
O O8 0.315361 0.249997 0.595124
O O9 0.065361 0.254465 0.345123
O O10 0.192040 0.000470 0.555309
O O11 0.026118 0.360880 0.605062
O O12 0.224503 0.287801 0.890365
O O13 0.298522 0.355734 0.853375
O O14 0.315359 0.749997 0.595121
O O15 0.438678 0.499524 0.634935
O O16 0.432181 0.000012 0.629241
#
# Coordination Sequence:
#
# PCOD9137331 Si02
#       8
#     4   4   4   4   4   4   4   4
#     4  11  25  43  74 104 141 191 238 311 362 437
#     4  11  24  46  69 102 143 182 251 298 370 428
#     4  10  22  41  65  93 140 182 230 279 342 423
#     4  11  25  43  74 104 141 191 238 311 362 437
#     4  10  24  45  70 106 143 188 236 293 364 438
#     4  10  24  45  70 106 143 188 236 293 364 438
#     4  11  24  46  69 102 143 182 251 298 370 428
#     4  10  22  41  65  93 140 182 230 279 342 423
#
# _framework density 26.731255000000001
#
# number of rings (size 3 to 8) (size 9 to 14) (size 15 to 20)
#    0.000    1.500    2.500    0.750    3.500    8.000 
#    4.500    0.000    0.000    0.000    0.000    0.000 
#    0.000    0.000    0.000    0.000    0.000    0.000 
#
# Total GULP energy -89355.548716 kJ/mol
# GULP energy per Si atom -5584.721795 kJ/mol
# Density = 2.667041 g / cm^3
# Si number density = 26.731255 Si / 1000 Ang^3
#
#
#
# Elastic Constant Matrix: (Units=GPa)
#
#
# Indices 1 2 3 4 5 6 
#
# 1 50.7744 22.5616 7.5225 0.0000 -3.5611 0.0000
# 2 22.5616 205.8387 54.1500 0.0002 -14.3008 0.0001
# 3 7.5225 54.1500 199.7361 0.0000 3.8496 0.0000
# 4 0.0000 0.0002 0.0000 63.6141 0.0000 -7.4734
# 5 -3.5611 -14.3008 3.8496 0.0000 43.3322 0.0000
# 6 0.0000 0.0001 0.0000 -7.4734 0.0000 27.7992
#
#
#
# Elastic Compliance Matrix: (Units=1/GPa)
#
#
# Indices 1 2 3 4 5 6 
#
# 1 0.020752 -0.002146 -0.000219 0.000000 0.001017 0.000000
# 2 -0.002146 0.005607 -0.001474 0.000000 0.001805 0.000000
# 3 -0.000219 -0.001474 0.005433 0.000000 -0.000987 0.000000
# 4 0.000000 0.000000 0.000000 0.016232 0.000000 0.004364
# 5 0.001017 0.001805 -0.000987 0.000000 0.023844 0.000000
# 6 0.000000 0.000000 0.000000 0.004364 0.000000 0.037145
#
#
# Mechanical properties :
#
#
# Convention : Reuss Voigt Hill
#
# Bulk Modulus (GPa) = 41.47068 69.42417 55.44742
# Shear Modulus (GPa) = 40.08604 51.75677 45.92141
#
# Velocity S-wave (km/s) = 3.87666 4.40499 4.14924
# Velocity P-wave (km/s) = 5.96537 7.20413 6.61381
#
# Compressibility (1/GPa) = 0.02411342
#
# Stress axis : x y z
#
# Youngs Moduli (GPa) = 48.18705 178.36220 184.04393
#
# Poissons Ratio (x) = 0.38282 0.04036
# Poissons Ratio (y) = 0.10342 0.27127
# Poissons Ratio (z) = 0.01057 0.26289
#
# Static dielectric constant tensor:
#      x y z
#    x 2.194370 0.000000 0.001540 
#    y 0.000000 2.794630 0.000000 
#    z 0.001540 0.000000 1.999090 
# 
# From -- ./inp_files/37064.got.cif
#   From: 2010.05.17/outbox.cif.g08.bks.cpg/sg9_19_cif.got.tgz:37064.got - 2010.06.03 20:04:27.
