data_PCOD9137468
_publ_section_title
;
Structure prediction by ZEFSAII (Michael W. Deem and Ramdas Pophale) SiO2 
 PCOD9137468
Probable space group: C C
;
_chemical_formula_sum "Si O2"
_cell_formula_units_Z 32
_cell_length_a 19.017712
_cell_length_b 11.552531
_cell_length_c 14.717604
_cell_angle_alpha 90.000000
_cell_angle_beta 154.822893
_cell_angle_gamma 90.000000
_cell_volume 1375.587132
_symmetry_space_group_name_H-M "C C"
_symmetry_group_IT_number 9
_symmetry_cell_setting 'monoclinic'
loop_
_space_group_symop_operation_xyz
x,y,z
x,-y,1/2+z
1/2+x,1/2+y,z
1/2+x,1/2-y,1/2+z
loop_
_atom_site_type_symbol
_atom_site_label
_atom_site_fract_x
_atom_site_fract_y
_atom_site_fract_z
Si Si1 0.929610 0.100604 0.952290
Si Si2 0.249240 0.614427 0.401202
Si Si3 0.477881 0.183898 0.816802
Si Si4 0.070761 0.751422 0.322554
Si Si5 0.555526 0.167272 0.505214
Si Si6 0.767541 0.468643 0.604678
Si Si7 0.337850 0.642963 0.293490
Si Si8 0.454016 0.409741 0.682674
O O1 0.735400 0.126145 0.747546
O O2 0.930781 0.980317 0.898874
O O3 0.005595 0.208693 0.987715
O O4 0.016662 0.084429 0.151618
O O5 0.087800 0.669937 0.255376
O O6 0.279525 0.640121 0.330770
O O7 0.287491 0.485561 0.481603
O O8 0.399820 0.682503 0.623538
O O9 0.373756 0.068517 0.682517
O O10 0.438045 0.250132 0.866596
O O11 0.434198 0.279146 0.690834
O O12 0.668244 0.148110 0.039259
O O13 0.085434 0.680623 0.432214
O O14 0.207356 0.853593 0.482811
O O15 0.397758 0.081148 0.332215
O O16 0.592394 0.534730 0.410854
#
# Coordination Sequence:
#
# PCOD9137468 Si02
#       8
#     4   4   4   4   4   4   4   4
#     4  11  26  44  68 102 135 172 233 278 338 388
#     4  10  22  42  66  96 130 166 224 278 328 387
#     4  12  24  42  66  92 135 176 222 258 345 398
#     4  11  21  41  68  95 129 168 220 269 335 389
#     4  12  23  41  73  99 130 175 224 280 330 395
#     4  11  23  41  64  99 128 171 225 265 329 411
#     4  11  25  42  67  96 131 175 221 278 328 401
#     4  10  26  45  66  95 138 179 219 278 333 405
#
# _framework density 23.262794
#
# number of rings (size 3 to 8) (size 9 to 14) (size 15 to 20)
#    0.000    1.000    5.000    0.750    7.000    0.000 
#    0.000    1.250    0.000    0.000    0.000    0.000 
#    0.000    0.000    0.000    0.000    0.000    0.000 
#
# Total GULP energy -89261.308045 kJ/mol
# GULP energy per Si atom -5578.831753 kJ/mol
# Density = 2.320985 g / cm^3
# Si number density = 23.262794 Si / 1000 Ang^3
#
#
#
# Elastic Constant Matrix: (Units=GPa)
#
#
# Indices 1 2 3 4 5 6 
#
# 1 83.0691 27.2049 12.0373 -0.0001 -8.5534 -0.0001
# 2 27.2049 84.3531 15.7743 -0.0001 2.3853 -0.0001
# 3 12.0373 15.7743 51.4472 -0.0001 -10.6201 -0.0001
# 4 -0.0001 -0.0001 -0.0001 18.2210 -0.0001 5.9113
# 5 -8.5534 2.3853 -10.6201 -0.0001 8.1142 -0.0001
# 6 -0.0001 -0.0001 -0.0001 5.9113 -0.0001 38.0125
#
#
#
# Elastic Compliance Matrix: (Units=1/GPa)
#
#
# Indices 1 2 3 4 5 6 
#
# 1 0.016011 -0.006326 0.002825 0.000000 0.022434 0.000000
# 2 -0.006326 0.015987 -0.007904 0.000000 -0.021713 0.000000
# 3 0.002825 -0.007904 0.030548 0.000000 0.045282 0.000000
# 4 0.000000 0.000000 0.000000 0.057798 0.000001 -0.008988
# 5 0.022434 -0.021713 0.045282 0.000001 0.212538 0.000000
# 6 0.000000 0.000000 0.000000 -0.008988 0.000000 0.027705
#
#
# Mechanical properties :
#
#
# Convention : Reuss Voigt Hill
#
# Bulk Modulus (GPa) = 25.16718 36.54472 30.85595
# Shear Modulus (GPa) = 12.60581 23.79305 18.19943
#
# Velocity S-wave (km/s) = 2.33037 3.20158 2.80007
# Velocity P-wave (km/s) = 4.25241 5.42314 4.87306
#
# Compressibility (1/GPa) = 0.03973429
#
# Stress axis : x y z
#
# Youngs Moduli (GPa) = 62.45865 62.54987 32.73587
#
# Poissons Ratio (x) = 0.39570 -0.09246
# Poissons Ratio (y) = 0.39512 0.25874
# Poissons Ratio (z) = -0.17642 0.49439
#
# Static dielectric constant tensor:
#      x y z
#    x 1.906340 0.000000 0.032300 
#    y 0.000000 1.887390 0.000000 
#    z 0.032300 0.000000 1.884490 
# 
# From -- ./inp_files/9107.got.cif
#   From: 2010.05.17/outbox.cif.g08.bks.cpg/sg9_5_cif.got.tgz:9107.got - 2010.06.03 20:04:27.
