data_PCOD9137807
_publ_section_title
;
Structure prediction by ZEFSAII (Michael W. Deem and Ramdas Pophale) SiO2 
 PCOD9137807
Probable space group: C C
;
_chemical_formula_sum "Si O2"
_cell_formula_units_Z 28
_cell_length_a 12.735732
_cell_length_b 9.486662
_cell_length_c 13.792998
_cell_angle_alpha 90.000000
_cell_angle_beta 137.350547
_cell_angle_gamma 90.000000
_cell_volume 1129.047982
_symmetry_space_group_name_H-M "C C"
_symmetry_group_IT_number 9
_symmetry_cell_setting 'monoclinic'
loop_
_space_group_symop_operation_xyz
x,y,z
x,-y,1/2+z
1/2+x,1/2+y,z
1/2+x,1/2-y,1/2+z
loop_
_atom_site_type_symbol
_atom_site_label
_atom_site_fract_x
_atom_site_fract_y
_atom_site_fract_z
Si Si1 0.813240 0.751511 0.547410
Si Si2 0.292026 0.683853 0.439824
Si Si3 0.116530 0.467835 0.960710
Si Si4 0.228477 0.490865 0.240952
Si Si5 0.106949 0.079031 0.728872
Si Si6 0.016343 0.104291 0.336529
Si Si7 0.817141 0.669341 0.327815
O O1 0.682066 0.642381 0.491470
O O2 0.863105 0.695576 0.474470
O O3 0.950561 0.775883 0.717362
O O4 0.715058 0.899096 0.482028
O O5 0.219113 0.666756 0.497460
O O6 0.184219 0.567785 0.309409
O O7 0.251729 0.824743 0.355587
O O8 0.472419 0.651031 0.576099
O O9 0.122185 0.514386 0.077081
O O10 0.942730 0.403820 0.842453
O O11 0.386818 0.574426 0.325862
O O12 0.266456 0.326958 0.268365
O O13 0.032224 0.031923 0.779915
O O14 0.170416 0.934959 0.727132
#
# Coordination Sequence:
#
# PCOD9137807 Si02
#       7
#     4   4   4   4   4   4   4
#     4  10  22  44  70 103 149 180 248 304 371 454
#     4  12  26  49  73 107 159 193 255 324 376 470
#     4  11  25  44  72 112 143 199 259 307 386 461
#     4  11  24  43  77  99 152 194 247 319 383 448
#     4  11  26  48  71 108 150 195 253 316 385 456
#     4  10  22  46  68 107 141 193 242 306 378 457
#     4  11  25  44  73 108 144 200 252 310 389 456
#
# _framework density 24.799655999999999
#
# number of rings (size 3 to 8) (size 9 to 14) (size 15 to 20)
#    0.000    1.143    4.286    0.857   10.000    1.143 
#    2.571    0.000    0.000    0.000    0.000    0.000 
#    0.000    0.000    0.000    0.000    0.000    0.000 
#
# Total GULP energy -78052.837217 kJ/mol
# GULP energy per Si atom -5575.202658 kJ/mol
# Density = 2.474321 g / cm^3
# Si number density = 24.799656 Si / 1000 Ang^3
#
#
#
# Elastic Constant Matrix: (Units=GPa)
#
#
# Indices 1 2 3 4 5 6 
#
# 1 38.3495 -2.9346 -9.6986 0.0000 20.5723 0.0000
# 2 -2.9346 56.2823 34.5620 0.0000 9.2383 0.0000
# 3 -9.6986 34.5620 75.7424 0.0000 12.7549 0.0000
# 4 0.0000 0.0000 0.0000 28.8689 0.0000 1.2144
# 5 20.5723 9.2383 12.7549 0.0000 25.9677 0.0000
# 6 0.0000 0.0000 0.0000 1.2144 0.0000 33.6142
#
#
#
# Elastic Compliance Matrix: (Units=1/GPa)
#
#
# Indices 1 2 3 4 5 6 
#
# 1 0.061217 0.002594 0.016328 0.000000 -0.057441 0.000000
# 2 0.002594 0.025097 -0.010106 0.000000 -0.006019 0.000000
# 3 0.016328 -0.010106 0.023415 0.000000 -0.020841 0.000000
# 4 0.000000 0.000000 0.000000 0.034692 0.000000 -0.001253
# 5 -0.057441 -0.006019 -0.020841 0.000000 0.096394 0.000000
# 6 0.000000 0.000000 0.000000 -0.001253 0.000000 0.029795
#
#
# Mechanical properties :
#
#
# Convention : Reuss Voigt Hill
#
# Bulk Modulus (GPa) = 7.85178 23.80353 15.82766
# Shear Modulus (GPa) = 16.92442 27.58651 22.25546
#
# Velocity S-wave (km/s) = 2.61520 3.33885 2.99893
# Velocity P-wave (km/s) = 3.50599 4.94803 4.28807
#
# Compressibility (1/GPa) = 0.12735970
#
# Stress axis : x y z
#
# Youngs Moduli (GPa) = 16.33526 39.84561 42.70857
#
# Poissons Ratio (x) = -0.10335 -0.69735
# Poissons Ratio (y) = -0.04237 0.43162
# Poissons Ratio (z) = -0.26672 0.40269
#
# Static dielectric constant tensor:
#      x y z
#    x 2.045860 0.000000 -0.047270 
#    y 0.000000 1.999810 0.000000 
#    z -0.047270 0.000000 1.997500 
# 
# From -- ./inp_files/25756.got.cif
#   From: 2010.05.17/outbox.cif.g08.bks.cpg/sg9_13_cif.got.tgz:25756.got - 2010.06.03 20:04:27.
