data_PCOD9137418
_publ_section_title
;
Structure prediction by ZEFSAII (Michael W. Deem and Ramdas Pophale) SiO2 
 PCOD9137418
Probable space group: C C
;
_chemical_formula_sum "Si O2"
_cell_formula_units_Z 28
_cell_length_a 9.168653
_cell_length_b 14.283585
_cell_length_c 15.131308
_cell_angle_alpha 90.000000
_cell_angle_beta 35.772008
_cell_angle_gamma 90.000000
_cell_volume 1158.375423
_symmetry_space_group_name_H-M "C C"
_symmetry_group_IT_number 9
_symmetry_cell_setting 'monoclinic'
loop_
_space_group_symop_operation_xyz
x,y,z
x,-y,1/2+z
1/2+x,1/2+y,z
1/2+x,1/2-y,1/2+z
loop_
_atom_site_type_symbol
_atom_site_label
_atom_site_fract_x
_atom_site_fract_y
_atom_site_fract_z
Si Si1 0.296600 0.651528 0.650190
Si Si2 0.574896 0.423355 0.860472
Si Si3 0.168055 0.446703 0.379067
Si Si4 0.725380 0.427326 0.159540
Si Si5 0.403909 0.702436 0.285798
Si Si6 0.890059 0.215333 0.094768
Si Si7 0.057864 0.683321 0.101551
O O1 0.399156 0.576396 0.530907
O O2 0.122112 0.604615 0.809065
O O3 0.516312 0.709772 0.591530
O O4 0.147296 0.731474 0.670360
O O5 0.693956 0.519086 0.768443
O O6 0.438267 0.377240 0.842767
O O7 0.796225 0.350525 0.770359
O O8 0.470334 0.454555 0.233678
O O9 0.111344 0.377552 0.488777
O O10 0.972482 0.531046 0.490476
O O11 0.756689 0.317768 0.161823
O O12 0.368155 0.670811 0.202339
O O13 0.172595 0.764109 0.430426
O O14 0.760489 0.165768 0.076394
#
# Coordination Sequence:
#
# PCOD9137418 Si02
#       7
#     4   4   4   4   4   4   4
#     4  11  22  44  71 100 127 191 231 273 338 425
#     4  10  23  45  70  94 140 182 228 265 355 412
#     4  11  24  45  74  98 145 178 235 277 358 407
#     4  11  25  46  66 102 140 185 217 293 340 418
#     4  11  24  41  69 101 134 177 228 292 327 408
#     4  12  24  42  69 104 139 166 237 286 342 383
#     4  10  22  41  73  99 129 183 228 282 326 417
#
# _framework density 24.171785
#
# number of rings (size 3 to 8) (size 9 to 14) (size 15 to 20)
#    0.000    1.143    2.857    3.429    6.000    0.000 
#    2.571    2.857    0.000    0.000    0.000    0.000 
#    0.000    0.000    0.000    0.000    0.000    0.000 
#
# Total GULP energy -78351.577164 kJ/mol
# GULP energy per Si atom -5596.541226 kJ/mol
# Density = 2.411677 g / cm^3
# Si number density = 24.171785 Si / 1000 Ang^3
#
#
#
# Elastic Constant Matrix: (Units=GPa)
#
#
# Indices 1 2 3 4 5 6 
#
# 1 65.0922 4.8698 43.9787 -0.0022 -4.5830 -0.0002
# 2 4.8698 40.6185 7.7256 -0.0045 8.0655 0.0000
# 3 43.9787 7.7256 107.5886 -0.0067 13.6474 0.0002
# 4 -0.0022 -0.0045 -0.0067 20.3350 -0.0012 -0.2439
# 5 -4.5830 8.0655 13.6474 -0.0012 51.6666 0.0014
# 6 -0.0002 0.0000 0.0002 -0.2439 0.0014 10.9476
#
#
#
# Elastic Compliance Matrix: (Units=1/GPa)
#
#
# Indices 1 2 3 4 5 6 
#
# 1 0.022325 -0.001803 -0.009605 -0.000001 0.004799 0.000000
# 2 -0.001803 0.025748 -0.000602 0.000005 -0.004020 0.000000
# 3 -0.009605 -0.000602 0.013823 0.000003 -0.004409 0.000000
# 4 -0.000001 0.000005 0.000003 0.049190 -0.000001 0.001096
# 5 0.004799 -0.004020 -0.004409 -0.000001 0.021573 -0.000003
# 6 0.000000 0.000000 0.000000 0.001096 -0.000003 0.091369
#
#
# Mechanical properties :
#
#
# Convention : Reuss Voigt Hill
#
# Bulk Modulus (GPa) = 26.40100 36.27194 31.33647
# Shear Modulus (GPa) = 19.18109 27.03817 23.10963
#
# Velocity S-wave (km/s) = 2.82003 3.34815 3.09537
# Velocity P-wave (km/s) = 4.64213 5.47588 5.07615
#
# Compressibility (1/GPa) = 0.03787735
#
# Stress axis : x y z
#
# Youngs Moduli (GPa) = 44.79268 38.83757 72.34078
#
# Poissons Ratio (x) = 0.07001 0.69484
# Poissons Ratio (y) = 0.08074 0.04356
# Poissons Ratio (z) = 0.43024 0.02338
#
# Static dielectric constant tensor:
#      x y z
#    x 1.973790 0.000000 -0.011390 
#    y 0.000000 1.944440 0.000000 
#    z -0.011390 0.000000 1.887980 
# 
# From -- ./inp_files/5262.got.cif
#   From: 2010.05.17/outbox.cif.g08.bks.cpg/sg9_3_cif.got.tgz:5262.got - 2010.06.03 20:04:27.
