data_PCOD9137768
_publ_section_title
;
Structure prediction by ZEFSAII (Michael W. Deem and Ramdas Pophale) SiO2 
 PCOD9137768
Probable space group: C C
;
_chemical_formula_sum "Si O2"
_cell_formula_units_Z 32
_cell_length_a 12.071192
_cell_length_b 22.129596
_cell_length_c 11.892024
_cell_angle_alpha 90.000000
_cell_angle_beta 155.063875
_cell_angle_gamma 90.000000
_cell_volume 1339.330851
_symmetry_space_group_name_H-M "C C"
_symmetry_group_IT_number 9
_symmetry_cell_setting 'monoclinic'
loop_
_space_group_symop_operation_xyz
x,y,z
x,-y,1/2+z
1/2+x,1/2+y,z
1/2+x,1/2-y,1/2+z
loop_
_atom_site_type_symbol
_atom_site_label
_atom_site_fract_x
_atom_site_fract_y
_atom_site_fract_z
Si Si1 0.774380 0.909324 0.109840
Si Si2 0.698194 0.536868 0.832081
Si Si3 0.918631 0.981939 0.875761
Si Si4 0.100566 0.620827 0.212289
Si Si5 0.204555 0.282185 0.649307
Si Si6 0.878412 0.858635 0.599699
Si Si7 0.859598 0.792534 0.344589
Si Si8 0.858622 0.566210 0.607104
O O1 0.852527 0.851327 0.256023
O O2 0.005729 0.939144 0.249838
O O3 0.724844 0.968047 0.143928
O O4 0.588377 0.887742 0.835873
O O5 0.569217 0.492563 0.622936
O O6 0.914005 0.494580 0.088404
O O7 0.825084 0.598931 0.906830
O O8 0.785032 0.925054 0.812752
O O9 0.152300 0.956469 0.011999
O O10 0.197864 0.685567 0.263888
O O11 0.344702 0.319571 0.680534
O O12 0.899989 0.274046 0.338184
O O13 0.824822 0.819839 0.438418
O O14 0.172765 0.885952 0.870527
O O15 0.641593 0.907092 0.395918
O O16 0.126529 0.753224 0.594526
#
# Coordination Sequence:
#
# PCOD9137768 Si02
#       8
#     4   4   4   4   4   4   4   4
#     4  10  26  44  70 102 145 183 237 288 360 421
#     4  10  24  41  68 106 144 185 229 290 353 437
#     4  10  22  44  68 109 139 184 227 294 358 433
#     4  11  25  44  73 102 145 181 238 289 359 427
#     4  12  27  45  73 101 139 187 241 296 352 410
#     4  12  24  47  72 106 139 185 240 299 355 421
#     4  12  28  49  72 100 142 194 246 293 346 419
#     4  11  24  40  74 106 143 177 226 293 367 420
#
# _framework density 23.892527000000001
#
# number of rings (size 3 to 8) (size 9 to 14) (size 15 to 20)
#    0.000    1.000    1.250    3.750   12.250    2.000 
#    0.000    0.000    0.000    0.000    0.000    0.000 
#    0.000    0.000    0.000    0.000    0.000    0.000 
#
# Total GULP energy -89242.268110 kJ/mol
# GULP energy per Si atom -5577.641757 kJ/mol
# Density = 2.383815 g / cm^3
# Si number density = 23.892527 Si / 1000 Ang^3
#
#
#
# Elastic Constant Matrix: (Units=GPa)
#
#
# Indices 1 2 3 4 5 6 
#
# 1 69.8545 20.7360 24.6299 0.0002 -15.2794 0.0000
# 2 20.7360 67.0353 18.7138 -0.0007 -19.0344 -0.0004
# 3 24.6299 18.7138 89.3460 0.0002 -3.1509 -0.0005
# 4 0.0002 -0.0007 0.0002 42.0029 0.0013 -12.4705
# 5 -15.2794 -19.0344 -3.1509 0.0013 34.0517 0.0006
# 6 0.0000 -0.0004 -0.0005 -12.4705 0.0006 13.8920
#
#
#
# Elastic Compliance Matrix: (Units=1/GPa)
#
#
# Indices 1 2 3 4 5 6 
#
# 1 0.017918 -0.002620 -0.004172 -0.000001 0.006189 -0.000001
# 2 -0.002620 0.019191 -0.002970 0.000000 0.009277 0.000000
# 3 -0.004172 -0.002970 0.012882 0.000000 -0.002340 0.000001
# 4 -0.000001 0.000000 0.000000 0.032459 -0.000002 0.029137
# 5 0.006189 0.009277 -0.002340 -0.000002 0.037114 -0.000003
# 6 -0.000001 0.000000 0.000001 0.029137 -0.000003 0.098140
#
#
# Mechanical properties :
#
#
# Convention : Reuss Voigt Hill
#
# Bulk Modulus (GPa) = 32.82352 39.37721 36.10037
# Shear Modulus (GPa) = 20.21141 28.79972 24.50557
#
# Velocity S-wave (km/s) = 2.91164 3.47563 3.20606
# Velocity P-wave (km/s) = 5.00713 5.71169 5.37098
#
# Compressibility (1/GPa) = 0.03046596
#
# Stress axis : x y z
#
# Youngs Moduli (GPa) = 55.80899 52.10652 77.62649
#
# Poissons Ratio (x) = 0.13654 0.32389
# Poissons Ratio (y) = 0.14625 0.23056
# Poissons Ratio (z) = 0.23286 0.15476
#
# Static dielectric constant tensor:
#      x y z
#    x 1.934590 0.000000 -0.035140 
#    y 0.000000 2.059100 0.000000 
#    z -0.035140 0.000000 2.029970 
# 
# From -- ./inp_files/1854.got.cif
#   From: 2010.05.17/outbox.cif.g08.bks.cpg/sg9_1_cif.got.tgz:1854.got - 2010.06.03 20:04:27.
