data_PCOD9137685
_publ_section_title
;
Structure prediction by ZEFSAII (Michael W. Deem and Ramdas Pophale) SiO2 
 PCOD9137685
Probable space group: C C
;
_chemical_formula_sum "Si O2"
_cell_formula_units_Z 32
_cell_length_a 25.323542
_cell_length_b 11.916639
_cell_length_c 9.429368
_cell_angle_alpha 90.000000
_cell_angle_beta 26.475888
_cell_angle_gamma 90.000000
_cell_volume 1268.590607
_symmetry_space_group_name_H-M "C C"
_symmetry_group_IT_number 9
_symmetry_cell_setting 'monoclinic'
loop_
_space_group_symop_operation_xyz
x,y,z
x,-y,1/2+z
1/2+x,1/2+y,z
1/2+x,1/2-y,1/2+z
loop_
_atom_site_type_symbol
_atom_site_label
_atom_site_fract_x
_atom_site_fract_y
_atom_site_fract_z
Si Si1 0.867330 0.203903 0.483570
Si Si2 0.492161 0.616242 0.676508
Si Si3 0.891228 0.561069 0.615138
Si Si4 0.011243 0.435351 0.098655
Si Si5 0.200993 0.735930 0.632206
Si Si6 0.264443 0.175201 0.460997
Si Si7 0.220209 0.654676 0.280956
Si Si8 0.045077 0.072375 0.868719
O O1 0.761269 0.186792 0.627862
O O2 0.929341 0.325699 0.323194
O O3 0.961883 0.118591 0.194413
O O4 0.828455 0.215128 0.739462
O O5 0.569301 0.728341 0.492888
O O6 0.566936 0.549728 0.377689
O O7 0.357434 0.621248 0.953354
O O8 0.495718 0.573067 0.829887
O O9 0.939276 0.537369 0.342862
O O10 0.005908 0.566676 0.442303
O O11 0.799716 0.664968 0.854573
O O12 0.830342 0.443452 0.810935
O O13 0.132727 0.415904 0.890868
O O14 0.187187 0.659854 0.526118
O O15 0.214244 0.219002 0.729891
O O16 0.161134 0.147870 0.597135
#
# Coordination Sequence:
#
# PCOD9137685 Si02
#       8
#     4   4   4   4   4   4   4   4
#     4  10  22  45  68  96 133 176 228 285 336 404
#     4  12  29  43  71 104 141 183 229 288 356 405
#     4  10  22  43  70  98 127 172 229 287 327 404
#     4  10  23  42  66  97 132 174 225 276 343 396
#     4  11  23  45  70  98 137 178 236 278 342 414
#     4  11  23  42  73  99 132 179 229 281 345 401
#     4  12  27  43  65 104 143 182 222 280 350 423
#     4  12  25  47  67 104 139 176 234 289 343 417
#
# _framework density 25.224844000000001
#
# number of rings (size 3 to 8) (size 9 to 14) (size 15 to 20)
#    0.000    1.000    5.000    0.750    7.000    1.000 
#    0.000    0.000    0.000    0.000    0.000    0.000 
#    0.000    0.000    0.000    0.000    0.000    0.000 
#
# Total GULP energy -89342.181151 kJ/mol
# GULP energy per Si atom -5583.886322 kJ/mol
# Density = 2.516743 g / cm^3
# Si number density = 25.224844 Si / 1000 Ang^3
#
#
#
# Elastic Constant Matrix: (Units=GPa)
#
#
# Indices 1 2 3 4 5 6 
#
# 1 159.9291 11.3161 28.9553 0.0000 -3.8546 0.0000
# 2 11.3161 34.5272 -1.8602 0.0000 -2.8425 0.0000
# 3 28.9553 -1.8602 51.4103 0.0000 -9.6607 0.0000
# 4 0.0000 0.0000 0.0000 38.4401 0.0000 -2.1841
# 5 -3.8546 -2.8425 -9.6607 0.0000 33.2838 0.0000
# 6 0.0000 0.0000 0.0000 -2.1841 0.0000 26.3055
#
#
#
# Elastic Compliance Matrix: (Units=1/GPa)
#
#
# Indices 1 2 3 4 5 6 
#
# 1 0.007197 -0.002641 -0.004268 0.000000 -0.000631 0.000000
# 2 -0.002641 0.030263 0.003184 0.000000 0.003203 0.000000
# 3 -0.004268 0.003184 0.023193 0.000000 0.006510 0.000000
# 4 0.000000 0.000000 0.000000 0.026138 0.000000 0.002170
# 5 -0.000631 0.003203 0.006510 0.000000 0.032135 0.000000
# 6 0.000000 0.000000 0.000000 0.002170 0.000000 0.038195
#
#
# Mechanical properties :
#
#
# Convention : Reuss Voigt Hill
#
# Bulk Modulus (GPa) = 18.79496 35.85434 27.32465
# Shear Modulus (GPa) = 27.42661 33.43624 30.43143
#
# Velocity S-wave (km/s) = 3.30098 3.64473 3.47710
# Velocity P-wave (km/s) = 4.68996 5.65304 5.19387
#
# Compressibility (1/GPa) = 0.05320575
#
# Stress axis : x y z
#
# Youngs Moduli (GPa) = 138.94540 33.04320 43.11565
#
# Poissons Ratio (x) = 0.08726 0.18400
# Poissons Ratio (y) = 0.36691 -0.13729
# Poissons Ratio (z) = 0.59296 -0.10522
#
# Static dielectric constant tensor:
#      x y z
#    x 1.936580 0.000000 0.009780 
#    y 0.000000 2.086740 0.000000 
#    z 0.009780 0.000000 2.030390 
# 
# From -- ./inp_files/7377.got.cif
#   From: 2010.05.17/outbox.cif.g08.bks.cpg/sg9_4_cif.got.tgz:7377.got - 2010.06.03 20:04:27.
