data_PCOD9137370
_publ_section_title
;
Structure prediction by ZEFSAII (Michael W. Deem and Ramdas Pophale) SiO2 
 PCOD9137370
Probable space group: C C
;
_chemical_formula_sum "Si O2"
_cell_formula_units_Z 32
_cell_length_a 5.022956
_cell_length_b 17.605984
_cell_length_c 15.287986
_cell_angle_alpha 90.000000
_cell_angle_beta 115.431225
_cell_angle_gamma 90.000000
_cell_volume 1220.974145
_symmetry_space_group_name_H-M "C C"
_symmetry_group_IT_number 9
_symmetry_cell_setting 'monoclinic'
loop_
_space_group_symop_operation_xyz
x,y,z
x,-y,1/2+z
1/2+x,1/2+y,z
1/2+x,1/2-y,1/2+z
loop_
_atom_site_type_symbol
_atom_site_label
_atom_site_fract_x
_atom_site_fract_y
_atom_site_fract_z
Si Si1 0.378900 0.796343 0.137810
Si Si2 0.684443 0.929441 0.723389
Si Si3 0.939147 0.336524 0.332064
Si Si4 0.434101 0.086123 0.999621
Si Si5 0.205233 0.679541 0.371909
Si Si6 0.151148 0.025365 0.712810
Si Si7 0.202694 0.237505 0.029809
Si Si8 0.635074 0.561567 0.520369
O O1 0.549222 0.808408 0.252763
O O2 0.537233 0.737701 0.097350
O O3 0.375134 0.877336 0.087926
O O4 0.034527 0.770404 0.092950
O O5 0.626149 0.910959 0.614030
O O6 0.595696 0.855655 0.766297
O O7 0.473166 0.994611 0.732009
O O8 0.005369 0.966515 0.759094
O O9 0.073623 0.391278 0.426061
O O10 0.867403 0.257274 0.368565
O O11 0.674541 0.391944 0.260160
O O12 0.210300 0.155188 0.987706
O O13 0.272599 0.005886 0.984067
O O14 0.041776 0.706524 0.436898
O O15 0.404581 0.609733 0.433020
O O16 0.004356 0.031797 0.595195
#
# Coordination Sequence:
#
# PCOD9137370 Si02
#       8
#     4   4   4   4   4   4   4   4
#     4  10  22  44  67  94 130 172 218 270 326 386
#     4  11  24  43  68  97 131 175 221 269 322 384
#     4  10  22  41  68 100 133 172 218 270 328 388
#     4  10  22  42  65  98 134 173 219 270 324 388
#     4  10  22  42  69  99 132 173 218 269 328 389
#     4  10  24  44  67  95 131 174 219 269 324 383
#     4  10  23  42  66  95 131 173 219 271 326 385
#     4   9  21  40  66  94 132 174 216 266 326 389
#
# _framework density 26.208580000000001
#
# number of rings (size 3 to 8) (size 9 to 14) (size 15 to 20)
#    0.000    2.000    0.000    1.500    0.000   18.000 
#    0.000   22.500    0.000    0.000    0.000    0.000 
#    0.000    0.000    0.000    0.000    0.000    0.000 
#
# Total GULP energy -89364.452475 kJ/mol
# GULP energy per Si atom -5585.278280 kJ/mol
# Density = 2.614893 g / cm^3
# Si number density = 26.208580 Si / 1000 Ang^3
#
#
#
# Elastic Constant Matrix: (Units=GPa)
#
#
# Indices 1 2 3 4 5 6 
#
# 1 85.9632 1.5841 22.8593 0.0000 -14.6554 0.0000
# 2 1.5841 94.7550 16.5655 0.0000 3.1857 0.0000
# 3 22.8593 16.5655 148.1399 0.0000 -22.5229 0.0000
# 4 0.0000 0.0000 0.0000 59.1663 0.0000 -13.2528
# 5 -14.6554 3.1857 -22.5229 0.0000 20.9005 0.0000
# 6 0.0000 0.0000 0.0000 -13.2528 0.0000 -56.5491
#
#
#
# Elastic Compliance Matrix: (Units=1/GPa)
#
#
# Indices 1 2 3 4 5 6 
#
# 1 0.013297 -0.000391 -0.000695 0.000000 0.008634 0.000000
# 2 -0.000391 0.010996 -0.001753 0.000000 -0.003839 0.000000
# 3 -0.000695 -0.001753 0.008396 0.000000 0.008827 0.000000
# 4 0.000000 0.000000 0.000000 0.016059 0.000000 -0.003763
# 5 0.008634 -0.003839 0.008827 0.000000 0.063997 0.000000
# 6 0.000000 0.000000 0.000000 -0.003763 0.000000 -0.016802
#
#
# Mechanical properties :
#
#
# Convention : Reuss Voigt Hill
#
# Bulk Modulus (GPa) = 37.02380 45.65287 41.33833
# Shear Modulus (GPa) = 45.19802 23.89350 34.54576
#
# Velocity S-wave (km/s) = 4.15728 3.02266 3.63452
# Velocity P-wave (km/s) = 6.09928 5.44415 5.78100
#
# Compressibility (1/GPa) = 0.02700965
#
# Stress axis : x y z
#
# Youngs Moduli (GPa) = 75.20502 90.94550 119.10798
#
# Poissons Ratio (x) = 0.03556 0.08283
# Poissons Ratio (y) = 0.02941 0.20879
# Poissons Ratio (z) = 0.05230 0.15942
#
# Static dielectric constant tensor:
#      x y z
#    x 2.086730 0.000000 0.041470 
#    y 0.000000 2.100590 0.000000 
#    z 0.041470 0.000000 2.163680 
# 
# From -- ./inp_files/21998.got.cif
#   From: 2010.05.17/outbox.cif.g08.bks.cpg/sg9_11_cif.got.tgz:21998.got - 2010.06.03 20:04:27.
