data_PCOD9137241
_publ_section_title
;
Structure prediction by ZEFSAII (Michael W. Deem and Ramdas Pophale) SiO2 
 PCOD9137241
Probable space group: C C
;
_chemical_formula_sum "Si O2"
_cell_formula_units_Z 28
_cell_length_a 13.504733
_cell_length_b 6.576649
_cell_length_c 13.541098
_cell_angle_alpha 90.000000
_cell_angle_beta 63.020892
_cell_angle_gamma 90.000000
_cell_volume 1071.781071
_symmetry_space_group_name_H-M "C C"
_symmetry_group_IT_number 9
_symmetry_cell_setting 'monoclinic'
loop_
_space_group_symop_operation_xyz
x,y,z
x,-y,1/2+z
1/2+x,1/2+y,z
1/2+x,1/2-y,1/2+z
loop_
_atom_site_type_symbol
_atom_site_label
_atom_site_fract_x
_atom_site_fract_y
_atom_site_fract_z
Si Si1 0.875000 0.965865 0.955800
Si Si2 0.159757 0.731549 0.016555
Si Si3 0.543103 0.743083 0.760660
Si Si4 0.754821 0.524202 0.625232
Si Si5 0.773078 0.767645 0.275093
Si Si6 0.427544 0.900290 0.302071
Si Si7 0.906537 0.861024 0.638176
O O1 0.750375 0.061464 0.011979
O O2 0.947379 0.106297 0.849170
O O3 0.877030 0.743372 0.908512
O O4 0.937562 0.995100 0.032474
O O5 0.168423 0.723874 0.895990
O O6 0.213366 0.941267 0.033681
O O7 0.052541 0.727362 0.136000
O O8 0.659015 0.639912 0.732313
O O9 0.525135 0.968735 0.806004
O O10 0.757775 0.305519 0.670101
O O11 0.859967 0.664911 0.599372
O O12 0.847486 0.577955 0.289737
O O13 0.822695 0.993710 0.238016
O O14 0.473293 0.751117 0.194850
#
# Coordination Sequence:
#
# PCOD9137241 Si02
#       7
#     4   4   4   4   4   4   4
#     4  11  22  43  65  92 132 172 224 278 337 401
#     4   9  20  43  63  91 129 170 218 277 331 408
#     4  10  22  44  60  98 135 170 227 264 345 402
#     4   8  22  39  61  95 127 167 216 272 337 396
#     4  11  20  41  68  92 129 169 227 272 338 398
#     4  11  22  40  67  93 127 175 217 277 332 397
#     4  10  22  40  66  97 123 171 223 274 336 396
#
# _framework density 26.124737
#
# number of rings (size 3 to 8) (size 9 to 14) (size 15 to 20)
#    0.857    1.143    2.857    0.000    2.000    2.286 
#   10.286    0.000    0.000    0.000    0.000    0.000 
#    0.000    0.000    0.000    0.000    0.000    0.000 
#
# Total GULP energy -77967.730821 kJ/mol
# GULP energy per Si atom -5569.123630 kJ/mol
# Density = 2.606528 g / cm^3
# Si number density = 26.124737 Si / 1000 Ang^3
#
#
#
# Elastic Constant Matrix: (Units=GPa)
#
#
# Indices 1 2 3 4 5 6 
#
# 1 22.6772 9.6581 6.0128 0.0000 -5.8066 0.0000
# 2 9.6581 105.0979 20.4476 0.0000 -15.6428 0.0000
# 3 6.0128 20.4476 136.7426 0.0000 -15.9696 0.0000
# 4 0.0000 0.0000 0.0000 42.1143 0.0000 6.8713
# 5 -5.8066 -15.6428 -15.9696 0.0000 25.9852 0.0000
# 6 0.0000 0.0000 0.0000 6.8713 0.0000 21.3939
#
#
#
# Elastic Compliance Matrix: (Units=1/GPa)
#
#
# Indices 1 2 3 4 5 6 
#
# 1 0.047713 -0.002998 -0.000663 0.000000 0.008450 0.000000
# 2 -0.002998 0.010742 -0.000859 0.000000 0.005268 0.000000
# 3 -0.000663 -0.000859 0.007965 0.000000 0.004229 0.000000
# 4 0.000000 0.000000 0.000000 0.025058 0.000000 -0.008048
# 5 0.008450 0.005268 0.004229 0.000000 0.046142 0.000000
# 6 0.000000 0.000000 0.000000 -0.008048 0.000000 0.049327
#
#
# Mechanical properties :
#
#
# Convention : Reuss Voigt Hill
#
# Bulk Modulus (GPa) = 17.42778 37.41718 27.42248
# Shear Modulus (GPa) = 23.24346 33.12529 28.18438
#
# Velocity S-wave (km/s) = 2.98604 3.56471 3.28813
# Velocity P-wave (km/s) = 4.30976 5.59433 4.99352
#
# Compressibility (1/GPa) = 0.05737964
#
# Stress axis : x y z
#
# Youngs Moduli (GPa) = 20.95843 93.09462 125.55607
#
# Poissons Ratio (x) = 0.27910 0.08323
# Poissons Ratio (y) = 0.06283 0.10787
# Poissons Ratio (z) = 0.01389 0.07998
#
# Static dielectric constant tensor:
#      x y z
#    x 2.138370 0.000000 0.012670 
#    y 0.000000 2.074060 0.000000 
#    z 0.012670 0.000000 2.089930 
# 
# From -- ./inp_files/26435.got.cif
#   From: 2010.05.17/outbox.cif.g08.bks.cpg/sg9_14_cif.got.tgz:26435.got - 2010.06.03 20:04:27.
