data_PCOD9137444
_publ_section_title
;
Structure prediction by ZEFSAII (Michael W. Deem and Ramdas Pophale) SiO2 
 PCOD9137444
Probable space group: C C
;
_chemical_formula_sum "Si O2"
_cell_formula_units_Z 28
_cell_length_a 13.362742
_cell_length_b 6.965611
_cell_length_c 31.001600
_cell_angle_alpha 90.000000
_cell_angle_beta 156.900210
_cell_angle_gamma 90.000000
_cell_volume 1132.125502
_symmetry_space_group_name_H-M "C C"
_symmetry_group_IT_number 9
_symmetry_cell_setting 'monoclinic'
loop_
_space_group_symop_operation_xyz
x,y,z
x,-y,1/2+z
1/2+x,1/2+y,z
1/2+x,1/2-y,1/2+z
loop_
_atom_site_type_symbol
_atom_site_label
_atom_site_fract_x
_atom_site_fract_y
_atom_site_fract_z
Si Si1 0.956370 0.830432 0.766630
Si Si2 0.716452 0.849324 0.081453
Si Si3 0.023402 0.475163 0.685580
Si Si4 0.686657 0.181627 0.670034
Si Si5 0.883492 0.259773 0.871147
Si Si6 0.589851 0.272832 0.053911
Si Si7 0.548408 0.961510 0.852797
O O1 0.675491 0.777801 0.636986
O O2 0.056582 0.681490 0.841090
O O3 0.128993 0.840704 0.792610
O O4 0.933424 0.043761 0.774100
O O5 0.634929 0.809225 0.098751
O O6 0.791390 0.433853 0.120248
O O7 0.650810 0.076242 0.051613
O O8 0.563259 0.740804 0.983329
O O9 0.998551 0.574298 0.628491
O O10 0.282839 0.565471 0.808499
O O11 0.994429 0.246842 0.682234
O O12 0.789710 0.382263 0.727800
O O13 0.009563 0.402003 0.886833
O O14 0.807114 0.857416 0.939479
#
# Coordination Sequence:
#
# PCOD9137444 Si02
#       7
#     4   4   4   4   4   4   4
#     4  10  22  42  64  97 139 179 228 294 349 413
#     4  11  23  43  70 100 143 180 237 294 342 424
#     4  10  23  44  67 103 142 187 232 300 359 417
#     4  10  23  41  70  99 137 187 233 288 360 413
#     4  10  23  43  67 102 139 185 239 285 357 422
#     4  10  23  43  69 102 136 180 242 286 354 429
#     4  11  23  44  69  99 144 182 235 293 351 422
#
# _framework density 24.732239
#
# number of rings (size 3 to 8) (size 9 to 14) (size 15 to 20)
#    0.000    1.714    0.000    3.429    4.000    4.571 
#    5.143    4.286    0.000    0.000    0.000    0.000 
#    0.000    0.000    0.000    0.000    0.000    0.000 
#
# Total GULP energy -78098.572815 kJ/mol
# GULP energy per Si atom -5578.469487 kJ/mol
# Density = 2.467595 g / cm^3
# Si number density = 24.732239 Si / 1000 Ang^3
#
#
#
# Elastic Constant Matrix: (Units=GPa)
#
#
# Indices 1 2 3 4 5 6 
#
# 1 104.1787 41.4906 20.3539 -0.0004 -19.6467 0.0006
# 2 41.4906 104.9006 38.5752 0.0005 -7.5501 0.0041
# 3 20.3539 38.5752 88.1640 -0.0014 -22.0549 0.0022
# 4 -0.0004 0.0005 -0.0014 26.1704 0.0019 -2.3531
# 5 -19.6467 -7.5501 -22.0549 0.0019 34.7485 -0.0005
# 6 0.0006 0.0041 0.0022 -2.3531 -0.0005 34.5957
#
#
#
# Elastic Compliance Matrix: (Units=1/GPa)
#
#
# Indices 1 2 3 4 5 6 
#
# 1 0.012601 -0.004823 0.000857 0.000000 0.006621 0.000000
# 2 -0.004823 0.013226 -0.005512 0.000000 -0.003351 -0.000001
# 3 0.000857 -0.005512 0.015903 0.000000 0.009381 0.000000
# 4 0.000000 0.000000 0.000000 0.038446 -0.000002 0.002615
# 5 0.006621 -0.003351 0.009381 -0.000002 0.037747 0.000000
# 6 0.000000 -0.000001 0.000000 0.002615 0.000000 0.029083
#
#
# Mechanical properties :
#
#
# Convention : Reuss Voigt Hill
#
# Bulk Modulus (GPa) = 43.90772 55.34250 49.62511
# Shear Modulus (GPa) = 28.80979 32.22450 30.51715
#
# Velocity S-wave (km/s) = 3.41672 3.61354 3.51650
# Velocity P-wave (km/s) = 5.77556 6.31153 6.04948
#
# Compressibility (1/GPa) = 0.02277504
#
# Stress axis : x y z
#
# Youngs Moduli (GPa) = 79.36122 75.60903 62.88168
#
# Poissons Ratio (x) = 0.36463 -0.05390
# Poissons Ratio (y) = 0.38272 0.34660
# Poissons Ratio (z) = -0.06803 0.41675
#
# Static dielectric constant tensor:
#      x y z
#    x 2.010500 0.000000 0.047390 
#    y 0.000000 2.070180 0.000000 
#    z 0.047390 0.000000 2.041250 
# 
# From -- ./inp_files/36605.got.cif
#   From: 2010.05.17/outbox.cif.g08.bks.cpg/sg9_19_cif.got.tgz:36605.got - 2010.06.03 20:04:27.
