data_PCOD9137757
_publ_section_title
;
Structure prediction by ZEFSAII (Michael W. Deem and Ramdas Pophale) SiO2 
 PCOD9137757
Probable space group: C C
;
_chemical_formula_sum "Si O2"
_cell_formula_units_Z 24
_cell_length_a 6.374596
_cell_length_b 15.318464
_cell_length_c 10.338294
_cell_angle_alpha 90.000000
_cell_angle_beta 104.955990
_cell_angle_gamma 90.000000
_cell_volume 975.325975
_symmetry_space_group_name_H-M "C C"
_symmetry_group_IT_number 9
_symmetry_cell_setting 'monoclinic'
loop_
_space_group_symop_operation_xyz
x,y,z
x,-y,1/2+z
1/2+x,1/2+y,z
1/2+x,1/2-y,1/2+z
loop_
_atom_site_type_symbol
_atom_site_label
_atom_site_fract_x
_atom_site_fract_y
_atom_site_fract_z
Si Si1 0.849560 0.406436 0.464970
Si Si2 0.591560 0.162849 0.623724
Si Si3 0.020928 0.778773 0.285397
Si Si4 0.795493 0.115197 0.403121
Si Si5 0.655327 0.740693 0.509219
Si Si6 0.467392 0.004130 0.243986
O O1 0.637599 0.353076 0.388069
O O2 0.870835 0.489546 0.372212
O O3 0.859185 0.435738 0.616301
O O4 0.045902 0.335949 0.473040
O O5 0.762844 0.213362 0.739710
O O6 0.741267 0.107746 0.546714
O O7 0.412141 0.228605 0.537740
O O8 0.462852 0.091374 0.682690
O O9 0.111386 0.685741 0.339859
O O10 0.100491 0.781645 0.149710
O O11 0.718284 0.032895 0.309222
O O12 0.020033 0.164635 0.413885
#
# Coordination Sequence:
#
# PCOD9137757 Si02
#       6
#     4   4   4   4   4   4
#     4  11  24  44  70 100 140 180 224 280 340 404
#     4  11  24  41  67  99 127 173 230 273 339 402
#     4  10  22  44  67  97 132 174 228 278 327 406
#     4  10  23  42  64  95 133 170 220 283 332 396
#     4  10  22  44  70  93 133 180 226 276 334 404
#     4  12  23  43  66 100 139 173 222 280 342 398
#
# _framework density 24.607157999999998
#
# number of rings (size 3 to 8) (size 9 to 14) (size 15 to 20)
#    0.000    1.333    5.000    0.000    2.333    1.333 
#    0.000    1.667    0.000    0.000    0.000    0.000 
#    0.000    0.000    0.000    0.000    0.000    0.000 
#
# Total GULP energy -66999.831974 kJ/mol
# GULP energy per Si atom -5583.319331 kJ/mol
# Density = 2.455115 g / cm^3
# Si number density = 24.607158 Si / 1000 Ang^3
#
#
#
# Elastic Constant Matrix: (Units=GPa)
#
#
# Indices 1 2 3 4 5 6 
#
# 1 79.6383 20.7233 28.2212 0.0000 20.6673 0.0000
# 2 20.7233 73.1118 35.3159 0.0000 11.0717 0.0000
# 3 28.2212 35.3159 120.2969 0.0000 10.2263 0.0000
# 4 0.0000 0.0000 0.0000 56.2627 0.0000 10.6209
# 5 20.6673 11.0717 10.2263 0.0000 39.4405 0.0000
# 6 0.0000 0.0000 0.0000 10.6209 0.0000 20.7548
#
#
#
# Elastic Compliance Matrix: (Units=1/GPa)
#
#
# Indices 1 2 3 4 5 6 
#
# 1 0.015835 -0.002235 -0.002461 0.000000 -0.007033 0.000000
# 2 -0.002235 0.016694 -0.004170 0.000000 -0.002434 0.000000
# 3 -0.002461 -0.004170 0.010128 0.000000 -0.000166 0.000000
# 4 0.000000 0.000000 0.000000 0.019674 0.000000 -0.010068
# 5 -0.007033 -0.002434 -0.000166 0.000000 0.029766 0.000000
# 6 0.000000 0.000000 0.000000 -0.010068 0.000000 0.053334
#
#
# Mechanical properties :
#
#
# Convention : Reuss Voigt Hill
#
# Bulk Modulus (GPa) = 40.11762 49.06307 44.59034
# Shear Modulus (GPa) = 29.15934 35.87738 32.51836
#
# Velocity S-wave (km/s) = 3.44611 3.82253 3.63919
# Velocity P-wave (km/s) = 5.67211 6.28205 5.98485
#
# Compressibility (1/GPa) = 0.02492671
#
# Stress axis : x y z
#
# Youngs Moduli (GPa) = 63.14942 59.90235 98.73295
#
# Poissons Ratio (x) = 0.13387 0.24299
# Poissons Ratio (y) = 0.14112 0.41168
# Poissons Ratio (z) = 0.15541 0.24977
#
# Static dielectric constant tensor:
#      x y z
#    x 2.001610 0.000000 -0.054560 
#    y 0.000000 1.946670 0.000000 
#    z -0.054560 0.000000 2.089470 
# 
# From -- ./inp_files/12986.got.cif
#   From: 2010.05.17/outbox.cif.g08.bks.cpg/sg9_7_cif.got.tgz:12986.got - 2010.06.03 20:04:27.
