data_PCOD9137853
_publ_section_title
;
Structure prediction by ZEFSAII (Michael W. Deem and Ramdas Pophale) SiO2 
 PCOD9137853
Probable space group: C C
;
_chemical_formula_sum "Si O2"
_cell_formula_units_Z 28
_cell_length_a 20.011610
_cell_length_b 9.587362
_cell_length_c 9.452478
_cell_angle_alpha 90.000000
_cell_angle_beta 133.911659
_cell_angle_gamma 90.000000
_cell_volume 1306.491423
_symmetry_space_group_name_H-M "C C"
_symmetry_group_IT_number 9
_symmetry_cell_setting 'monoclinic'
loop_
_space_group_symop_operation_xyz
x,y,z
x,-y,1/2+z
1/2+x,1/2+y,z
1/2+x,1/2-y,1/2+z
loop_
_atom_site_type_symbol
_atom_site_label
_atom_site_fract_x
_atom_site_fract_y
_atom_site_fract_z
Si Si1 0.716490 0.966127 0.688460
Si Si2 0.234827 0.209690 0.524876
Si Si3 0.469357 0.082068 0.238951
Si Si4 0.852500 0.200570 0.945443
Si Si5 0.127630 0.666993 0.318729
Si Si6 0.532668 0.181753 0.643883
Si Si7 0.772584 0.394893 0.575841
O O1 0.746059 0.820759 0.664839
O O2 0.645241 0.924488 0.706192
O O3 0.803992 0.050706 0.873666
O O4 0.672504 0.071668 0.509460
O O5 0.319698 0.232388 0.542986
O O6 0.137366 0.260848 0.309847
O O7 0.238045 0.047913 0.569583
O O8 0.521248 0.187170 0.207013
O O9 0.506192 0.122817 0.449889
O O10 0.358651 0.091193 0.092884
O O11 0.503415 0.935396 0.218724
O O12 0.810988 0.303307 0.763436
O O13 0.961016 0.194971 0.075226
O O14 0.186217 0.807025 0.390946
#
# Coordination Sequence:
#
# PCOD9137853 Si02
#       7
#     4   4   4   4   4   4   4
#     4  11  22  40  70  92 132 173 221 259 332 387
#     4  12  23  41  66  99 131 171 216 280 322 385
#     4  11  21  42  67  94 127 181 212 261 328 400
#     4  10  22  45  62  95 134 172 217 270 320 396
#     4  11  22  42  66  98 124 174 219 269 317 399
#     4  11  23  39  71  94 133 171 222 265 329 389
#     4  10  25  41  68  96 133 168 221 272 330 384
#
# _framework density 21.431443999999999
#
# number of rings (size 3 to 8) (size 9 to 14) (size 15 to 20)
#    0.000    1.143    4.286    2.571    2.000    0.000 
#    2.571    1.429    0.000    0.000    0.000    0.000 
#    0.000    0.000    0.000    0.000    0.000    0.000 
#
# Total GULP energy -78136.700328 kJ/mol
# GULP energy per Si atom -5581.192881 kJ/mol
# Density = 2.138267 g / cm^3
# Si number density = 21.431444 Si / 1000 Ang^3
#
#
#
# Elastic Constant Matrix: (Units=GPa)
#
#
# Indices 1 2 3 4 5 6 
#
# 1 145.8323 43.9466 17.6450 0.0000 -5.4313 0.0000
# 2 43.9466 121.8721 18.6680 0.0000 9.6648 0.0000
# 3 17.6450 18.6680 16.2224 0.0000 -7.5032 0.0000
# 4 0.0000 0.0000 0.0000 18.9088 0.0000 -0.3194
# 5 -5.4313 9.6648 -7.5032 0.0000 33.3529 0.0000
# 6 0.0000 0.0000 0.0000 -0.3194 0.0000 32.1768
#
#
#
# Elastic Compliance Matrix: (Units=1/GPa)
#
#
# Indices 1 2 3 4 5 6 
#
# 1 0.008266 -0.002036 -0.006420 0.000000 0.000492 0.000000
# 2 -0.002036 0.011714 -0.014498 0.000000 -0.006988 0.000000
# 3 -0.006420 -0.014498 0.096846 0.000000 0.024942 0.000000
# 4 0.000000 0.000000 0.000000 0.052894 0.000000 0.000525
# 5 0.000492 -0.006988 0.024942 0.000000 0.037698 0.000000
# 6 0.000000 0.000000 0.000000 0.000525 0.000000 0.031083
#
#
# Mechanical properties :
#
#
# Convention : Reuss Voigt Hill
#
# Bulk Modulus (GPa) = 14.10067 49.38288 31.74178
# Shear Modulus (GPa) = 16.23114 30.46552 23.34833
#
# Velocity S-wave (km/s) = 2.75499 3.77441 3.30425
# Velocity P-wave (km/s) = 4.08823 6.48747 5.42222
#
# Compressibility (1/GPa) = 0.07091859
#
# Stress axis : x y z
#
# Youngs Moduli (GPa) = 120.97841 85.36503 10.32567
#
# Poissons Ratio (x) = 0.17382 0.06629
# Poissons Ratio (y) = 0.24634 0.14970
# Poissons Ratio (z) = 0.77670 1.23758
#
# Static dielectric constant tensor:
#      x y z
#    x 1.801590 0.000000 0.024360 
#    y 0.000000 1.783190 0.000000 
#    z 0.024360 0.000000 1.845760 
# 
# From -- ./inp_files/11292.got.cif
#   From: 2010.05.17/outbox.cif.g08.bks.cpg/sg9_6_cif.got.tgz:11292.got - 2010.06.03 20:04:27.
