data_PCOD9137708
_publ_section_title
;
Structure prediction by ZEFSAII (Michael W. Deem and Ramdas Pophale) SiO2 
 PCOD9137708
Probable space group: C C
;
_chemical_formula_sum "Si O2"
_cell_formula_units_Z 32
_cell_length_a 17.244911
_cell_length_b 9.737116
_cell_length_c 9.599164
_cell_angle_alpha 90.000000
_cell_angle_beta 53.397345
_cell_angle_gamma 90.000000
_cell_volume 1293.977079
_symmetry_space_group_name_H-M "C C"
_symmetry_group_IT_number 9
_symmetry_cell_setting 'monoclinic'
loop_
_space_group_symop_operation_xyz
x,y,z
x,-y,1/2+z
1/2+x,1/2+y,z
1/2+x,1/2-y,1/2+z
loop_
_atom_site_type_symbol
_atom_site_label
_atom_site_fract_x
_atom_site_fract_y
_atom_site_fract_z
Si Si1 0.096950 0.980002 0.799020
Si Si2 0.392199 0.145892 0.722925
Si Si3 0.158698 0.601189 0.982924
Si Si4 0.224075 0.320855 0.969292
Si Si5 0.981313 0.268379 0.559688
Si Si6 0.474368 0.098595 0.329528
Si Si7 0.769068 0.701854 0.203017
Si Si8 0.548367 0.345620 0.587279
O O1 0.204197 0.925421 0.721345
O O2 0.077010 0.970930 0.656895
O O3 0.022725 0.867950 0.945660
O O4 0.074423 0.118802 0.902056
O O5 0.281187 0.191629 0.841771
O O6 0.432566 0.114256 0.526904
O O7 0.441149 0.290437 0.715497
O O8 0.422470 0.024510 0.796318
O O9 0.227833 0.470400 0.898510
O O10 0.222355 0.737157 0.893717
O O11 0.071502 0.624807 0.963979
O O12 0.091271 0.584766 0.191864
O O13 0.253225 0.315277 0.099469
O O14 0.112563 0.279370 0.073499
O O15 0.957511 0.266504 0.750121
O O16 0.882396 0.317089 0.597200
#
# Coordination Sequence:
#
# PCOD9137708 Si02
#       8
#     4   4   4   4   4   4   4   4
#     4  10  24  41  69  98 145 186 236 312 372 441
#     4  12  27  46  74 107 147 199 257 309 382 459
#     4   9  22  43  69 105 146 192 248 315 377 444
#     4  11  25  44  69 110 141 192 253 316 367 457
#     4   9  21  44  69 100 137 193 242 297 383 444
#     4  10  26  45  76 100 148 197 252 306 381 455
#     4  10  22  43  73 102 138 193 256 305 379 444
#     4  11  25  44  67 102 148 188 242 306 385 440
#
# _framework density 24.729959999999998
#
# number of rings (size 3 to 8) (size 9 to 14) (size 15 to 20)
#    0.750    1.000    1.250    0.750   10.500    1.000 
#    4.500    0.000    0.000    0.000    0.000    0.000 
#    0.000    0.000    0.000    0.000    0.000    0.000 
#
# Total GULP energy -89321.945248 kJ/mol
# GULP energy per Si atom -5582.621578 kJ/mol
# Density = 2.467367 g / cm^3
# Si number density = 24.729960 Si / 1000 Ang^3
#
#
#
# Elastic Constant Matrix: (Units=GPa)
#
#
# Indices 1 2 3 4 5 6 
#
# 1 86.4157 20.9253 25.3381 0.0000 -11.2835 0.0000
# 2 20.9253 46.2117 12.9520 0.0000 1.8539 0.0000
# 3 25.3381 12.9520 121.6146 0.0000 7.3757 0.0000
# 4 0.0000 0.0000 0.0000 41.1429 0.0000 2.9254
# 5 -11.2835 1.8539 7.3757 0.0000 41.2740 0.0000
# 6 0.0000 0.0000 0.0000 2.9254 0.0000 29.8765
#
#
#
# Elastic Compliance Matrix: (Units=1/GPa)
#
#
# Indices 1 2 3 4 5 6 
#
# 1 0.014405 -0.005968 -0.002649 0.000000 0.004680 0.000000
# 2 -0.005968 0.024792 -0.001244 0.000000 -0.002523 0.000000
# 3 -0.002649 -0.001244 0.009046 0.000000 -0.002285 0.000000
# 4 0.000000 0.000000 0.000000 0.024476 0.000000 -0.002397
# 5 0.004680 -0.002523 -0.002285 0.000000 0.026029 0.000000
# 6 0.000000 0.000000 0.000000 -0.002397 0.000000 0.033706
#
#
# Mechanical properties :
#
#
# Convention : Reuss Voigt Hill
#
# Bulk Modulus (GPa) = 35.06330 41.40810 38.23570
# Shear Modulus (GPa) = 30.92477 35.46045 33.19261
#
# Velocity S-wave (km/s) = 3.54007 3.79080 3.66758
# Velocity P-wave (km/s) = 5.56046 5.99506 5.78185
#
# Compressibility (1/GPa) = 0.02851985
#
# Stress axis : x y z
#
# Youngs Moduli (GPa) = 69.42054 40.33598 110.54899
#
# Poissons Ratio (x) = 0.24072 0.29289
# Poissons Ratio (y) = 0.41430 0.13752
# Poissons Ratio (z) = 0.18393 0.05018
#
# Static dielectric constant tensor:
#      x y z
#    x 1.937630 0.000000 0.022360 
#    y 0.000000 1.991630 0.000000 
#    z 0.022360 0.000000 1.992070 
# 
# From -- ./inp_files/9225.got.cif
#   From: 2010.05.17/outbox.cif.g08.bks.cpg/sg9_5_cif.got.tgz:9225.got - 2010.06.03 20:04:27.
