data_PCOD9137602
_publ_section_title
;
Structure prediction by ZEFSAII (Michael W. Deem and Ramdas Pophale) SiO2 
 PCOD9137602
Probable space group: C C
;
_chemical_formula_sum "Si O2"
_cell_formula_units_Z 28
_cell_length_a 8.787810
_cell_length_b 11.691997
_cell_length_c 14.059219
_cell_angle_alpha 90.000000
_cell_angle_beta 120.798803
_cell_angle_gamma 90.000000
_cell_volume 1240.820175
_symmetry_space_group_name_H-M "C C"
_symmetry_group_IT_number 9
_symmetry_cell_setting 'monoclinic'
loop_
_space_group_symop_operation_xyz
x,y,z
x,-y,1/2+z
1/2+x,1/2+y,z
1/2+x,1/2-y,1/2+z
loop_
_atom_site_type_symbol
_atom_site_label
_atom_site_fract_x
_atom_site_fract_y
_atom_site_fract_z
Si Si1 0.669310 0.058154 0.475120
Si Si2 0.005014 0.159237 0.210421
Si Si3 0.891961 0.743929 0.360730
Si Si4 0.920150 0.756478 0.154468
Si Si5 0.111000 0.079869 0.052491
Si Si6 0.431425 0.390625 0.894148
Si Si7 0.140099 0.302911 0.548146
O O1 0.481804 0.122486 0.412299
O O2 0.801577 0.139189 0.577789
O O3 0.760943 0.066024 0.399156
O O4 0.648401 0.933846 0.514621
O O5 0.930022 0.099735 0.280803
O O6 0.846648 0.233175 0.113743
O O7 0.180635 0.231265 0.290770
O O8 0.062652 0.069721 0.147707
O O9 0.960346 0.776509 0.277300
O O10 0.967890 0.836346 0.457263
O O11 0.795404 0.644640 0.107651
O O12 0.079898 0.727339 0.136078
O O13 0.092896 0.963918 0.989915
O O14 0.491714 0.262181 0.938875
#
# Coordination Sequence:
#
# PCOD9137602 Si02
#       7
#     4   4   4   4   4   4   4
#     4  10  22  43  65  95 139 176 224 283 336 410
#     4  11  23  41  64  98 130 179 227 274 343 406
#     4  10  22  43  66  95 133 180 226 277 346 401
#     4   9  22  42  67  94 129 182 220 280 341 403
#     4  10  22  43  64  96 132 168 232 281 333 406
#     4  11  24  41  67  95 134 175 219 288 337 404
#     4  11  23  43  63 101 137 172 228 281 338 410
#
# _framework density 22.565718
#
# number of rings (size 3 to 8) (size 9 to 14) (size 15 to 20)
#    0.000    1.714    1.429    1.714    4.000    0.000 
#    5.143    0.000    0.000    0.000    0.000    0.000 
#    0.000    0.000    0.000    0.000    0.000    0.000 
#
# Total GULP energy -78201.634239 kJ/mol
# GULP energy per Si atom -5585.831017 kJ/mol
# Density = 2.251436 g / cm^3
# Si number density = 22.565718 Si / 1000 Ang^3
#
#
#
# Elastic Constant Matrix: (Units=GPa)
#
#
# Indices 1 2 3 4 5 6 
#
# 1 91.1329 24.6562 29.4935 0.0000 -2.0657 0.0000
# 2 24.6562 76.2921 5.4296 0.0000 -4.5176 0.0000
# 3 29.4935 5.4296 73.1816 0.0000 -22.5328 0.0000
# 4 0.0000 0.0000 0.0000 20.3995 0.0000 3.2118
# 5 -2.0657 -4.5176 -22.5328 0.0000 50.1375 0.0000
# 6 0.0000 0.0000 0.0000 3.2118 0.0000 27.9489
#
#
#
# Elastic Compliance Matrix: (Units=1/GPa)
#
#
# Indices 1 2 3 4 5 6 
#
# 1 0.014053 -0.004257 -0.006137 0.000000 -0.002562 0.000000
# 2 -0.004257 0.014499 0.001147 0.000000 0.001646 0.000000
# 3 -0.006137 0.001147 0.018577 0.000000 0.008200 0.000000
# 4 0.000000 0.000000 0.000000 0.049924 0.000000 -0.005737
# 5 -0.002562 0.001646 0.008200 0.000000 0.023673 0.000000
# 6 0.000000 0.000000 0.000000 -0.005737 0.000000 0.036439
#
#
# Mechanical properties :
#
#
# Convention : Reuss Voigt Hill
#
# Bulk Modulus (GPa) = 34.92110 39.97392 37.44751
# Shear Modulus (GPa) = 26.99739 31.76566 29.38153
#
# Velocity S-wave (km/s) = 3.46264 3.75600 3.61230
# Velocity P-wave (km/s) = 5.61207 6.04673 5.83345
#
# Compressibility (1/GPa) = 0.02863598
#
# Stress axis : x y z
#
# Youngs Moduli (GPa) = 71.16168 68.97008 53.82896
#
# Poissons Ratio (x) = 0.29357 0.33033
# Poissons Ratio (y) = 0.30290 -0.06172
# Poissons Ratio (z) = 0.43669 -0.07908
#
# Static dielectric constant tensor:
#      x y z
#    x 1.870120 0.000000 -0.009100 
#    y 0.000000 1.831810 0.000000 
#    z -0.009100 0.000000 1.863780 
# 
# From -- ./inp_files/22825.got.cif
#   From: 2010.05.17/outbox.cif.g08.bks.cpg/sg9_12_cif.got.tgz:22825.got - 2010.06.03 20:04:27.
