data_PCOD9137312
_publ_section_title
;
Structure prediction by ZEFSAII (Michael W. Deem and Ramdas Pophale) SiO2 
 PCOD9137312
Probable space group: C C
;
_chemical_formula_sum "Si O2"
_cell_formula_units_Z 28
_cell_length_a 7.185234
_cell_length_b 22.176401
_cell_length_c 7.787098
_cell_angle_alpha 90.000000
_cell_angle_beta 62.753361
_cell_angle_gamma 90.000000
_cell_volume 1103.140622
_symmetry_space_group_name_H-M "C C"
_symmetry_group_IT_number 9
_symmetry_cell_setting 'monoclinic'
loop_
_space_group_symop_operation_xyz
x,y,z
x,-y,1/2+z
1/2+x,1/2+y,z
1/2+x,1/2-y,1/2+z
loop_
_atom_site_type_symbol
_atom_site_label
_atom_site_fract_x
_atom_site_fract_y
_atom_site_fract_z
Si Si1 0.782200 0.771042 0.003990
Si Si2 0.529112 0.337367 0.600239
Si Si3 0.011898 0.549773 0.264835
Si Si4 0.909639 0.642637 0.579123
Si Si5 0.436694 0.674239 0.753225
Si Si6 0.767876 0.949180 0.334775
Si Si7 0.173144 0.954177 0.399460
O O1 0.737960 0.701865 0.978351
O O2 0.562996 0.805897 0.077315
O O3 0.855479 0.772874 0.169716
O O4 0.928949 0.808078 0.810948
O O5 0.402227 0.327071 0.473748
O O6 0.583389 0.408255 0.581342
O O7 0.190858 0.503296 0.251000
O O8 0.016579 0.609886 0.372581
O O9 0.790777 0.516055 0.389058
O O10 0.071510 0.561591 0.044242
O O11 0.684571 0.668970 0.623761
O O12 0.849626 0.587342 0.731314
O O13 0.327097 0.614052 0.723746
O O14 0.979934 0.963982 0.350715
#
# Coordination Sequence:
#
# PCOD9137312 Si02
#       7
#     4   4   4   4   4   4   4
#     4  12  24  46  76  98 140 188 230 294 364 414
#     4  10  24  46  71 105 136 179 240 293 342 436
#     4  12  22  39  65  96 138 187 225 288 344 410
#     4  10  22  41  63  99 136 179 238 283 343 424
#     4  10  25  47  67 103 144 180 230 295 348 415
#     4  10  24  38  62  96 134 182 230 277 344 412
#     4  10  23  43  62  97 142 173 229 290 341 413
#
# _framework density 25.382078
#
# number of rings (size 3 to 8) (size 9 to 14) (size 15 to 20)
#    0.000    1.714    1.429    4.286    4.000    3.429 
#    0.000    5.714    0.000    0.000    0.000    0.000 
#    0.000    0.000    0.000    0.000    0.000    0.000 
#
# Total GULP energy -78362.830115 kJ/mol
# GULP energy per Si atom -5597.345008 kJ/mol
# Density = 2.532431 g / cm^3
# Si number density = 25.382078 Si / 1000 Ang^3
#
#
#
# Elastic Constant Matrix: (Units=GPa)
#
#
# Indices 1 2 3 4 5 6 
#
# 1 73.6604 37.8779 -2.9286 0.0000 0.9845 0.0000
# 2 37.8779 58.1518 5.2262 0.0000 6.7814 0.0000
# 3 -2.9286 5.2262 94.8330 0.0000 -17.3248 0.0000
# 4 0.0000 0.0000 0.0000 37.6023 0.0000 -2.8159
# 5 0.9845 6.7814 -17.3248 0.0000 29.2166 0.0000
# 6 0.0000 0.0000 0.0000 -2.8159 0.0000 18.9658
#
#
#
# Elastic Compliance Matrix: (Units=1/GPa)
#
#
# Indices 1 2 3 4 5 6 
#
# 1 0.020963 -0.014300 0.002145 0.000000 0.003885 0.000000
# 2 -0.014300 0.027752 -0.003431 0.000000 -0.007994 0.000000
# 3 0.002145 -0.003431 0.012261 0.000000 0.007995 0.000000
# 4 0.000000 0.000000 0.000000 0.026893 0.000000 0.003993
# 5 0.003885 -0.007994 0.007995 0.000000 0.040692 0.000000
# 6 0.000000 0.000000 0.000000 0.003993 0.000000 0.053319
#
#
# Mechanical properties :
#
#
# Convention : Reuss Voigt Hill
#
# Bulk Modulus (GPa) = 33.55468 34.11070 33.83269
# Shear Modulus (GPa) = 22.42286 29.58823 26.00555
#
# Velocity S-wave (km/s) = 2.97545 3.41796 3.20435
# Velocity P-wave (km/s) = 5.00529 5.38931 5.20085
#
# Compressibility (1/GPa) = 0.02980210
#
# Stress axis : x y z
#
# Youngs Moduli (GPa) = 47.70391 36.03397 81.56145
#
# Poissons Ratio (x) = 0.51529 -0.17496
# Poissons Ratio (y) = 0.68217 0.27987
# Poissons Ratio (z) = -0.10233 0.12365
#
# Static dielectric constant tensor:
#      x y z
#    x 2.004460 0.000000 -0.017920 
#    y 0.000000 1.973400 0.000000 
#    z -0.017920 0.000000 2.008680 
# 
# From -- ./inp_files/5909.got.cif
#   From: 2010.05.17/outbox.cif.g08.bks.cpg/sg9_3_cif.got.tgz:5909.got - 2010.06.03 20:04:27.
