data_PCOD9137687
_publ_section_title
;
Structure prediction by ZEFSAII (Michael W. Deem and Ramdas Pophale) SiO2 
 PCOD9137687
Probable space group: C C
;
_chemical_formula_sum "Si O2"
_cell_formula_units_Z 32
_cell_length_a 14.919742
_cell_length_b 6.531166
_cell_length_c 14.064416
_cell_angle_alpha 90.000000
_cell_angle_beta 81.030768
_cell_angle_gamma 90.000000
_cell_volume 1353.725282
_symmetry_space_group_name_H-M "C C"
_symmetry_group_IT_number 9
_symmetry_cell_setting 'monoclinic'
loop_
_space_group_symop_operation_xyz
x,y,z
x,-y,1/2+z
1/2+x,1/2+y,z
1/2+x,1/2-y,1/2+z
loop_
_atom_site_type_symbol
_atom_site_label
_atom_site_fract_x
_atom_site_fract_y
_atom_site_fract_z
Si Si1 0.976720 0.546180 0.308350
Si Si2 0.776208 0.597500 0.421062
Si Si3 0.242412 0.643066 0.117130
Si Si4 0.611124 0.703319 0.334225
Si Si5 0.809990 0.750258 0.036142
Si Si6 0.985765 0.009828 0.006358
Si Si7 0.909487 0.374818 0.123480
Si Si8 0.065313 0.888791 0.194669
O O1 0.879899 0.557339 0.375114
O O2 0.962682 0.439639 0.207806
O O3 0.056261 0.416971 0.346058
O O4 0.001675 0.778112 0.280916
O O5 0.760209 0.753579 0.510842
O O6 0.715894 0.687990 0.346602
O O7 0.752454 0.371890 0.466853
O O8 0.246241 0.400871 0.106159
O O9 0.328036 0.719280 0.164460
O O10 0.149962 0.737117 0.168583
O O11 0.562201 0.558260 0.420599
O O12 0.598160 0.599159 0.234444
O O13 0.859978 0.573543 0.088387
O O14 0.892302 0.898684 0.989300
O O15 0.967250 0.247691 0.035677
O O16 0.015495 0.918350 0.103491
#
# Coordination Sequence:
#
# PCOD9137687 Si02
#       8
#     4   4   4   4   4   4   4   4
#     4  12  26  43  70 108 149 192 250 311 383 453
#     4  11  25  45  71 105 149 196 250 313 381 457
#     4  10  24  44  72 104 143 196 249 303 382 450
#     4  12  27  46  71 110 155 189 256 315 376 462
#     4  10  22  43  73 101 139 199 243 300 381 448
#     4  11  22  45  73 102 149 192 244 310 373 455
#     4  10  22  43  70  99 140 193 239 298 378 445
#     4  12  26  45  72 111 144 197 251 308 376 458
#
# _framework density 23.638475
#
# number of rings (size 3 to 8) (size 9 to 14) (size 15 to 20)
#    0.000    1.000    5.000    0.750    5.250    5.000 
#    0.000    0.000    0.000    0.000    0.000    0.000 
#    0.000    0.000    0.000    0.000    0.000    0.000 
#
# Total GULP energy -89466.325427 kJ/mol
# GULP energy per Si atom -5591.645339 kJ/mol
# Density = 2.358467 g / cm^3
# Si number density = 23.638475 Si / 1000 Ang^3
#
#
#
# Elastic Constant Matrix: (Units=GPa)
#
#
# Indices 1 2 3 4 5 6 
#
# 1 69.7503 14.0676 -3.9311 0.0000 11.5847 0.0000
# 2 14.0676 92.6430 17.6678 0.0000 -5.8910 0.0000
# 3 -3.9311 17.6678 36.9117 0.0000 3.5601 0.0000
# 4 0.0000 0.0000 0.0000 37.3076 0.0000 -2.8410
# 5 11.5847 -5.8910 3.5601 0.0000 36.8772 0.0000
# 6 0.0000 0.0000 0.0000 -2.8410 0.0000 38.1721
#
#
#
# Elastic Compliance Matrix: (Units=1/GPa)
#
#
# Indices 1 2 3 4 5 6 
#
# 1 0.016313 -0.003641 0.004068 0.000000 -0.006099 0.000000
# 2 -0.003641 0.012918 -0.006945 0.000000 0.003878 0.000000
# 3 0.004068 -0.006945 0.031372 0.000000 -0.005416 0.000000
# 4 0.000000 0.000000 0.000000 0.026957 0.000000 0.002006
# 5 -0.006099 0.003878 -0.005416 0.000000 0.030175 0.000000
# 6 0.000000 0.000000 0.000000 0.002006 0.000000 0.026346
#
#
# Mechanical properties :
#
#
# Convention : Reuss Voigt Hill
#
# Bulk Modulus (GPa) = 21.02255 28.32373 24.67314
# Shear Modulus (GPa) = 28.90627 33.90475 31.40551
#
# Velocity S-wave (km/s) = 3.50072 3.79133 3.64892
# Velocity P-wave (km/s) = 5.02521 5.58333 5.31161
#
# Compressibility (1/GPa) = 0.04756798
#
# Stress axis : x y z
#
# Youngs Moduli (GPa) = 61.29916 77.41118 31.87604
#
# Poissons Ratio (x) = 0.28184 -0.12968
# Poissons Ratio (y) = 0.22318 0.22138
# Poissons Ratio (z) = -0.24938 0.53762
#
# Static dielectric constant tensor:
#      x y z
#    x 1.928630 0.000000 -0.001470 
#    y 0.000000 1.916370 0.000000 
#    z -0.001470 0.000000 1.901880 
# 
# From -- ./inp_files/26462.got.cif
#   From: 2010.05.17/outbox.cif.g08.bks.cpg/sg9_14_cif.got.tgz:26462.got - 2010.06.03 20:04:27.
