data_PCOD9137774
_publ_section_title
;
Structure prediction by ZEFSAII (Michael W. Deem and Ramdas Pophale) SiO2 
 PCOD9137774
Probable space group: C C
;
_chemical_formula_sum "Si O2"
_cell_formula_units_Z 24
_cell_length_a 9.086189
_cell_length_b 21.000854
_cell_length_c 7.948377
_cell_angle_alpha 90.000000
_cell_angle_beta 49.244937
_cell_angle_gamma 90.000000
_cell_volume 1148.904690
_symmetry_space_group_name_H-M "C C"
_symmetry_group_IT_number 9
_symmetry_cell_setting 'monoclinic'
loop_
_space_group_symop_operation_xyz
x,y,z
x,-y,1/2+z
1/2+x,1/2+y,z
1/2+x,1/2-y,1/2+z
loop_
_atom_site_type_symbol
_atom_site_label
_atom_site_fract_x
_atom_site_fract_y
_atom_site_fract_z
Si Si1 0.569430 0.128120 0.780260
Si Si2 0.297421 0.340555 0.781412
Si Si3 0.758567 0.911091 0.465410
Si Si4 0.933026 0.497180 0.231463
Si Si5 0.728830 0.305455 0.360722
Si Si6 0.718024 0.413590 0.116647
O O1 0.725441 0.131473 0.511895
O O2 0.405923 0.179776 0.854864
O O3 0.465075 0.059360 0.842830
O O4 0.670361 0.133347 0.884804
O O5 0.228536 0.382667 0.674610
O O6 0.529365 0.332722 0.587166
O O7 0.213670 0.268963 0.835871
O O8 0.648218 0.978083 0.529180
O O9 0.987928 0.918426 0.269010
O O10 0.802838 0.462325 0.191280
O O11 0.824314 0.561094 0.372323
O O12 0.765184 0.344867 0.161232
#
# Coordination Sequence:
#
# PCOD9137774 Si02
#       6
#     4   4   4   4   4   4
#     4  11  24  43  68 100 131 181 221 278 338 394
#     4  11  23  45  69  96 139 177 222 280 335 395
#     4  11  25  42  68 101 130 181 224 274 335 402
#     4  11  22  42  65  99 141 168 224 278 334 405
#     4  10  22  44  68  95 136 180 221 279 338 389
#     4  10  24  40  66  99 133 177 220 279 336 395
#
# _framework density 20.889458999999999
#
# number of rings (size 3 to 8) (size 9 to 14) (size 15 to 20)
#    0.000    1.333    3.333    2.000    2.333    4.000 
#    6.000    0.000    0.000    0.000    0.000    0.000 
#    0.000    0.000    0.000    0.000    0.000    0.000 
#
# Total GULP energy -67003.424788 kJ/mol
# GULP energy per Si atom -5583.618732 kJ/mol
# Density = 2.084191 g / cm^3
# Si number density = 20.889459 Si / 1000 Ang^3
#
#
#
# Elastic Constant Matrix: (Units=GPa)
#
#
# Indices 1 2 3 4 5 6 
#
# 1 115.8339 6.1199 14.1616 0.0000 -7.8080 0.0000
# 2 6.1199 75.5049 4.1345 0.0000 -2.1944 0.0000
# 3 14.1616 4.1345 57.6731 0.0000 -0.0467 0.0000
# 4 0.0000 0.0000 0.0000 35.0619 0.0000 -8.9506
# 5 -7.8080 -2.1944 -0.0467 0.0000 34.1235 0.0000
# 6 0.0000 0.0000 0.0000 -8.9506 0.0000 11.2019
#
#
#
# Elastic Compliance Matrix: (Units=1/GPa)
#
#
# Indices 1 2 3 4 5 6 
#
# 1 0.009067 -0.000556 -0.002185 0.000000 0.002036 0.000000
# 2 -0.000556 0.013355 -0.000820 0.000000 0.000730 0.000000
# 3 -0.002185 -0.000820 0.017934 0.000000 -0.000528 0.000000
# 4 0.000000 0.000000 0.000000 0.035829 0.000000 0.028628
# 5 0.002036 0.000730 -0.000528 0.000000 0.029817 0.000000
# 6 0.000000 0.000000 0.000000 0.028628 0.000000 0.112145
#
#
# Mechanical properties :
#
#
# Convention : Reuss Voigt Hill
#
# Bulk Modulus (GPa) = 30.08990 33.09375 31.59183
# Shear Modulus (GPa) = 21.15523 31.05053 26.10288
#
# Velocity S-wave (km/s) = 3.18578 3.85960 3.53876
# Velocity P-wave (km/s) = 5.28847 5.97818 5.64387
#
# Compressibility (1/GPa) = 0.03323374
#
# Stress axis : x y z
#
# Youngs Moduli (GPa) = 110.29278 74.87608 55.76009
#
# Poissons Ratio (x) = 0.04164 0.12183
# Poissons Ratio (y) = 0.06133 0.04574
# Poissons Ratio (z) = 0.24097 0.06142
#
# Static dielectric constant tensor:
#      x y z
#    x 1.744910 0.000000 0.023590 
#    y 0.000000 1.739410 0.000000 
#    z 0.023590 0.000000 1.846600 
# 
# From -- ./inp_files/5189.got.cif
#   From: 2010.05.17/outbox.cif.g08.bks.cpg/sg9_3_cif.got.tgz:5189.got - 2010.06.03 20:04:27.
