data_PCOD9137412
_publ_section_title
;
Structure prediction by ZEFSAII (Michael W. Deem and Ramdas Pophale) SiO2 
 PCOD9137412
Probable space group: C C
;
_chemical_formula_sum "Si O2"
_cell_formula_units_Z 32
_cell_length_a 11.441965
_cell_length_b 21.255121
_cell_length_c 5.395796
_cell_angle_alpha 90.000000
_cell_angle_beta 108.322988
_cell_angle_gamma 90.000000
_cell_volume 1245.727165
_symmetry_space_group_name_H-M "C C"
_symmetry_group_IT_number 9
_symmetry_cell_setting 'monoclinic'
loop_
_space_group_symop_operation_xyz
x,y,z
x,-y,1/2+z
1/2+x,1/2+y,z
1/2+x,1/2-y,1/2+z
loop_
_atom_site_type_symbol
_atom_site_label
_atom_site_fract_x
_atom_site_fract_y
_atom_site_fract_z
Si Si1 0.994340 0.459180 0.102100
Si Si2 0.318303 0.646161 0.303138
Si Si3 0.714836 0.537993 0.518533
Si Si4 0.571372 0.163058 0.892273
Si Si5 0.507636 0.595901 0.082445
Si Si6 0.336667 0.516844 0.481734
Si Si7 0.395667 0.225771 0.081318
Si Si8 0.616190 0.724580 0.061783
O O1 0.010200 0.508519 0.343029
O O2 0.070660 0.395269 0.201546
O O3 0.850823 0.438596 0.039506
O O4 0.381496 0.626816 0.090075
O O5 0.356467 0.590848 0.515993
O O6 0.375440 0.711589 0.410208
O O7 0.174243 0.649140 0.166476
O O8 0.704413 0.517688 0.799605
O O9 0.604977 0.584237 0.370414
O O10 0.605158 0.231685 0.801412
O O11 0.438665 0.169498 0.933250
O O12 0.456687 0.525684 0.986623
O O13 0.573734 0.652355 0.988707
O O14 0.268377 0.490899 0.674238
O O15 0.513855 0.238451 0.331368
O O16 0.262462 0.220039 0.115336
#
# Coordination Sequence:
#
# PCOD9137412 Si02
#       8
#     4   4   4   4   4   4   4   4
#     4  10  26  47  76 109 156 212 270 332 419 503
#     4  11  24  48  73 111 156 203 267 333 407 478
#     4  10  22  42  68 109 150 195 258 325 392 478
#     4  12  28  50  76 112 164 208 279 344 412 501
#     4  11  23  43  75 110 153 203 265 333 405 472
#     4  10  22  41  72 111 152 203 260 334 401 474
#     4  12  27  49  77 115 159 221 265 341 411 498
#     4  12  28  46  81 113 164 211 278 334 417 492
#
# _framework density 25.687808
#
# number of rings (size 3 to 8) (size 9 to 14) (size 15 to 20)
#    0.000    1.000    2.500    3.000    3.500    7.000 
#    0.000    0.000    0.000    0.000    0.000    0.000 
#    0.000    0.000    0.000    0.000    0.000    0.000 
#
# Total GULP energy -89300.353823 kJ/mol
# GULP energy per Si atom -5581.272114 kJ/mol
# Density = 2.562934 g / cm^3
# Si number density = 25.687808 Si / 1000 Ang^3
#
#
#
# Elastic Constant Matrix: (Units=GPa)
#
#
# Indices 1 2 3 4 5 6 
#
# 1 132.4027 24.8388 19.0566 0.0000 15.5802 0.0000
# 2 24.8388 88.5324 28.4941 0.0000 12.9210 0.0000
# 3 19.0566 28.4941 77.0694 0.0000 -0.4379 0.0000
# 4 0.0000 0.0000 0.0000 44.6607 0.0000 2.0330
# 5 15.5802 12.9210 -0.4379 0.0000 44.3310 0.0000
# 6 0.0000 0.0000 0.0000 2.0330 0.0000 32.1880
#
#
#
# Elastic Compliance Matrix: (Units=1/GPa)
#
#
# Indices 1 2 3 4 5 6 
#
# 1 0.008347 -0.001482 -0.001530 0.000000 -0.002517 0.000000
# 2 -0.001482 0.013752 -0.004738 0.000000 -0.003534 0.000000
# 3 -0.001530 -0.004738 0.015117 0.000000 0.002068 0.000000
# 4 0.000000 0.000000 0.000000 0.022456 0.000000 -0.001418
# 5 -0.002517 -0.003534 0.002068 0.000000 0.024493 0.000000
# 6 0.000000 0.000000 0.000000 -0.001418 0.000000 0.031157
#
#
# Mechanical properties :
#
#
# Convention : Reuss Voigt Hill
#
# Bulk Modulus (GPa) = 46.04999 49.19816 47.62408
# Shear Modulus (GPa) = 36.21601 39.27695 37.74648
#
# Velocity S-wave (km/s) = 3.75887 3.91450 3.83748
# Velocity P-wave (km/s) = 6.06667 6.29484 6.18181
#
# Compressibility (1/GPa) = 0.02171553
#
# Stress axis : x y z
#
# Youngs Moduli (GPa) = 119.80118 72.71778 66.14994
#
# Poissons Ratio (x) = 0.10777 0.10123
# Poissons Ratio (y) = 0.17755 0.31341
# Poissons Ratio (z) = 0.18333 0.34453
#
# Static dielectric constant tensor:
#      x y z
#    x 2.039160 0.000000 -0.015590 
#    y 0.000000 2.090020 0.000000 
#    z -0.015590 0.000000 2.161790 
# 
# From -- ./inp_files/1883.got.cif
#   From: 2010.05.17/outbox.cif.g08.bks.cpg/sg9_1_cif.got.tgz:1883.got - 2010.06.03 20:04:27.
