data_PCOD9137155
_publ_section_title
;
Structure prediction by ZEFSAII (Michael W. Deem and Ramdas Pophale) SiO2 
 PCOD9137155
Probable space group: C C
;
_chemical_formula_sum "Si O2"
_cell_formula_units_Z 24
_cell_length_a 13.130182
_cell_length_b 8.269814
_cell_length_c 18.768396
_cell_angle_alpha 90.000000
_cell_angle_beta 27.380486
_cell_angle_gamma 90.000000
_cell_volume 937.248133
_symmetry_space_group_name_H-M "C C"
_symmetry_group_IT_number 9
_symmetry_cell_setting 'monoclinic'
loop_
_space_group_symop_operation_xyz
x,y,z
x,-y,1/2+z
1/2+x,1/2+y,z
1/2+x,1/2-y,1/2+z
loop_
_atom_site_type_symbol
_atom_site_label
_atom_site_fract_x
_atom_site_fract_y
_atom_site_fract_z
Si Si1 0.066420 0.558919 0.803510
Si Si2 0.640408 0.556986 0.154216
Si Si3 0.857189 0.331281 0.298140
Si Si4 0.557142 0.616655 0.514063
Si Si5 0.812765 0.746817 0.481266
Si Si6 0.143936 0.012170 0.314645
O O1 0.300754 0.606292 0.687493
O O2 0.048655 0.601664 0.731102
O O3 0.025976 0.368488 0.837549
O O4 0.846060 0.625383 0.980078
O O5 0.411704 0.642273 0.272513
O O6 0.686112 0.575284 0.209580
O O7 0.656309 0.364581 0.128550
O O8 0.652017 0.430633 0.461250
O O9 0.833110 0.396175 0.232582
O O10 0.680361 0.740463 0.489323
O O11 0.610460 0.641597 0.398099
O O12 0.918183 0.907424 0.446397
#
# Coordination Sequence:
#
# PCOD9137155 Si02
#       6
#     4   4   4   4   4   4
#     4   9  21  41  69  97 140 174 231 286 344 397
#     4  10  22  39  70 106 123 186 234 272 348 417
#     4   9  22  43  69  95 139 186 224 281 349 413
#     4   9  21  44  67  93 138 185 219 290 346 401
#     4   9  22  38  65  99 132 179 223 281 345 402
#     4  10  22  41  74  96 136 178 235 274 348 414
#
# _framework density 25.606878999999999
#
# number of rings (size 3 to 8) (size 9 to 14) (size 15 to 20)
#    2.000    0.667    0.000    0.000    4.667    2.667 
#    0.000    8.333    0.000    0.000    0.000    0.000 
#    0.000    0.000    0.000    0.000    0.000    0.000 
#
# Total GULP energy -66852.070136 kJ/mol
# GULP energy per Si atom -5571.005845 kJ/mol
# Density = 2.554860 g / cm^3
# Si number density = 25.606879 Si / 1000 Ang^3
#
#
#
# Elastic Constant Matrix: (Units=GPa)
#
#
# Indices 1 2 3 4 5 6 
#
# 1 190.4434 42.7578 61.4270 -0.0006 11.4403 0.0003
# 2 42.7578 72.4585 42.8326 0.0002 -3.0843 -0.0001
# 3 61.4270 42.8326 94.3964 0.0007 -9.8992 0.0006
# 4 -0.0006 0.0002 0.0007 28.5592 0.0006 -11.8836
# 5 11.4403 -3.0843 -9.8992 0.0006 35.1249 -0.0002
# 6 0.0003 -0.0001 0.0006 -11.8836 -0.0002 40.7732
#
#
#
# Elastic Compliance Matrix: (Units=1/GPa)
#
#
# Indices 1 2 3 4 5 6 
#
# 1 0.007283 -0.001945 -0.004249 0.000000 -0.003740 0.000000
# 2 -0.001945 0.019400 -0.007514 0.000000 0.000219 0.000000
# 3 -0.004249 -0.007514 0.017357 -0.000001 0.005616 0.000000
# 4 0.000000 0.000000 -0.000001 0.039848 -0.000001 0.011614
# 5 -0.003740 0.000219 0.005616 -0.000001 0.031290 0.000000
# 6 0.000000 0.000000 0.000000 0.011614 0.000000 0.027911
#
#
# Mechanical properties :
#
#
# Convention : Reuss Voigt Hill
#
# Bulk Modulus (GPa) = 60.15500 72.37035 66.26267
# Shear Modulus (GPa) = 28.40185 34.91018 31.65602
#
# Velocity S-wave (km/s) = 3.33400 3.69631 3.51982
# Velocity P-wave (km/s) = 6.19383 6.82205 6.51552
#
# Compressibility (1/GPa) = 0.01662372
#
# Stress axis : x y z
#
# Youngs Moduli (GPa) = 137.31130 51.54653 57.61431
#
# Poissons Ratio (x) = 0.10027 0.24479
# Poissons Ratio (y) = 0.26710 0.43291
# Poissons Ratio (z) = 0.58340 0.38732
#
# Static dielectric constant tensor:
#      x y z
#    x 2.026820 0.000000 0.023950 
#    y 0.000000 2.242150 0.000000 
#    z 0.023950 0.000000 2.013800 
# 
# From -- ./inp_files/30037.got.cif
#   From: 2010.05.17/outbox.cif.g08.bks.cpg/sg9_16_cif.got.tgz:30037.got - 2010.06.03 20:04:27.
