data_PCOD9137836
_publ_section_title
;
Structure prediction by ZEFSAII (Michael W. Deem and Ramdas Pophale) SiO2 
 PCOD9137836
Probable space group: C C
;
_chemical_formula_sum "Si O2"
_cell_formula_units_Z 32
_cell_length_a 5.398644
_cell_length_b 21.264286
_cell_length_c 12.396319
_cell_angle_alpha 90.000000
_cell_angle_beta 115.342746
_cell_angle_gamma 90.000000
_cell_volume 1286.124522
_symmetry_space_group_name_H-M "C C"
_symmetry_group_IT_number 9
_symmetry_cell_setting 'monoclinic'
loop_
_space_group_symop_operation_xyz
x,y,z
x,-y,1/2+z
1/2+x,1/2+y,z
1/2+x,1/2-y,1/2+z
loop_
_atom_site_type_symbol
_atom_site_label
_atom_site_fract_x
_atom_site_fract_y
_atom_site_fract_z
Si Si1 0.166860 0.350662 0.634790
Si Si2 0.499829 0.854186 0.045271
Si Si3 0.935055 0.450330 0.464123
Si Si4 0.347238 0.103076 0.732250
Si Si5 0.351874 0.450135 0.033943
Si Si6 0.527340 0.439123 0.849657
Si Si7 0.162974 0.231832 0.792483
Si Si8 0.313776 0.723210 0.952647
O O1 0.376846 0.398432 0.732275
O O2 0.094614 0.292019 0.701481
O O3 0.306634 0.327135 0.549273
O O4 0.909926 0.394499 0.547079
O O5 0.546547 0.877878 0.174023
O O6 0.744697 0.879405 0.020702
O O7 0.461084 0.781638 0.036053
O O8 0.236018 0.889998 0.946744
O O9 0.011412 0.415857 0.367776
O O10 0.696918 0.496008 0.375157
O O11 0.157191 0.499069 0.551784
O O12 0.172822 0.165045 0.732098
O O13 0.148360 0.050776 0.642343
O O14 0.316603 0.461384 0.901355
O O15 0.489628 0.239732 0.878464
O O16 0.972524 0.222114 0.864847
#
# Coordination Sequence:
#
# PCOD9137836 Si02
#       8
#     4   4   4   4   4   4   4   4
#     4  12  25  48  81 116 162 219 263 336 417 481
#     4  10  22  44  73 103 148 199 252 321 397 460
#     4  11  25  46  70 114 149 206 274 321 400 483
#     4  11  24  44  71 106 153 197 256 326 394 466
#     4  10  24  44  76 103 151 209 257 334 397 468
#     4  10  23  46  70 110 151 202 268 323 394 476
#     4  12  28  49  77 118 163 205 262 334 392 488
#     4  12  27  49  76 118 161 203 266 319 401 484
#
# _framework density 24.880952000000001
#
# number of rings (size 3 to 8) (size 9 to 14) (size 15 to 20)
#    0.000    1.000    3.750    1.500    3.500    6.000 
#    6.750    1.250    0.000    0.000    0.000    0.000 
#    0.000    0.000    0.000    0.000    0.000    0.000 
#
# Total GULP energy -89173.842460 kJ/mol
# GULP energy per Si atom -5573.365154 kJ/mol
# Density = 2.482432 g / cm^3
# Si number density = 24.880952 Si / 1000 Ang^3
#
#
#
# Elastic Constant Matrix: (Units=GPa)
#
#
# Indices 1 2 3 4 5 6 
#
# 1 79.5823 17.0239 39.0505 0.0000 -18.4801 0.0000
# 2 17.0239 114.9006 68.8299 0.0000 -6.7538 0.0000
# 3 39.0505 68.8299 133.3719 0.0000 -12.1006 0.0000
# 4 0.0000 0.0000 0.0000 45.3988 0.0000 -3.7841
# 5 -18.4801 -6.7538 -12.1006 0.0000 31.3672 0.0000
# 6 0.0000 0.0000 0.0000 -3.7841 0.0000 9.8165
#
#
#
# Elastic Compliance Matrix: (Units=1/GPa)
#
#
# Indices 1 2 3 4 5 6 
#
# 1 0.016493 0.000702 -0.004452 0.000000 0.008150 0.000000
# 2 0.000702 0.012629 -0.006672 0.000000 0.000559 0.000000
# 3 -0.004452 -0.006672 0.012307 0.000000 0.000688 0.000000
# 4 0.000000 0.000000 0.000000 0.022758 0.000000 0.008773
# 5 0.008150 0.000559 0.000688 0.000000 0.037068 0.000000
# 6 0.000000 0.000000 0.000000 0.008773 0.000000 0.105251
#
#
# Mechanical properties :
#
#
# Convention : Reuss Voigt Hill
#
# Bulk Modulus (GPa) = 48.57952 64.18485 56.38218
# Shear Modulus (GPa) = 21.34818 30.84652 26.09735
#
# Velocity S-wave (km/s) = 2.93236 3.52485 3.24217
# Velocity P-wave (km/s) = 5.57065 6.51298 6.06016
#
# Compressibility (1/GPa) = 0.02058481
#
# Stress axis : x y z
#
# Youngs Moduli (GPa) = 60.63348 79.18263 81.25272
#
# Poissons Ratio (x) = -0.05562 0.36173
# Poissons Ratio (y) = -0.04259 0.54216
# Poissons Ratio (z) = 0.26994 0.52834
#
# Static dielectric constant tensor:
#      x y z
#    x 2.065350 0.000000 -0.012370 
#    y 0.000000 2.015730 0.000000 
#    z -0.012370 0.000000 1.998430 
# 
# From -- ./inp_files/13828.got.cif
#   From: 2010.05.17/outbox.cif.g08.bks.cpg/sg9_7_cif.got.tgz:13828.got - 2010.06.03 20:04:27.
