data_PCOD9137441
_publ_section_title
;
Structure prediction by ZEFSAII (Michael W. Deem and Ramdas Pophale) SiO2 
 PCOD9137441
Probable space group: C C
;
_chemical_formula_sum "Si O2"
_cell_formula_units_Z 32
_cell_length_a 8.916343
_cell_length_b 18.943144
_cell_length_c 7.989321
_cell_angle_alpha 90.000000
_cell_angle_beta 88.625298
_cell_angle_gamma 90.000000
_cell_volume 1349.036442
_symmetry_space_group_name_H-M "C C"
_symmetry_group_IT_number 9
_symmetry_cell_setting 'monoclinic'
loop_
_space_group_symop_operation_xyz
x,y,z
x,-y,1/2+z
1/2+x,1/2+y,z
1/2+x,1/2-y,1/2+z
loop_
_atom_site_type_symbol
_atom_site_label
_atom_site_fract_x
_atom_site_fract_y
_atom_site_fract_z
Si Si1 0.778480 0.404679 0.206700
Si Si2 0.938133 0.721013 0.547590
Si Si3 0.775808 0.020867 0.406928
Si Si4 0.783571 0.844974 0.686379
Si Si5 0.928766 0.096020 0.713532
Si Si6 0.279840 0.277379 0.053916
Si Si7 0.435901 0.984845 0.501377
Si Si8 0.446786 0.845789 0.678660
O O1 0.824543 0.325432 0.160037
O O2 0.603338 0.410220 0.248982
O O3 0.883307 0.437191 0.347867
O O4 0.820381 0.453177 0.045758
O O5 0.898475 0.803682 0.564820
O O6 0.931685 0.686042 0.364488
O O7 0.107377 0.711325 0.606079
O O8 0.790781 0.073533 0.245822
O O9 0.882098 0.054561 0.544586
O O10 0.829702 0.943257 0.354847
O O11 0.602961 0.016340 0.471744
O O12 0.617730 0.831476 0.619628
O O13 0.798044 0.805802 0.865909
O O14 0.882603 0.175509 0.672017
O O15 0.328893 0.197014 0.071301
O O16 0.429677 0.929292 0.656153
#
# Coordination Sequence:
#
# PCOD9137441 Si02
#       8
#     4   4   4   4   4   4   4   4
#     4  12  24  41  65  97 133 173 221 281 337 397
#     4  11  24  42  65  93 132 176 221 278 337 402
#     4  11  23  43  68  95 132 180 226 275 339 404
#     4  10  22  42  64  92 129 169 221 275 330 400
#     4  11  24  41  64  95 133 172 223 280 335 401
#     4  10  23  41  61  91 129 171 218 270 336 406
#     4  12  24  43  70  97 133 176 226 277 336 408
#     4  11  24  41  65  96 127 169 224 276 336 400
#
# _framework density 23.720634
#
# number of rings (size 3 to 8) (size 9 to 14) (size 15 to 20)
#    0.000    1.000    0.000    8.250    0.000    8.000 
#    0.000    0.000    0.000    0.000    0.000    0.000 
#    0.000    0.000    0.000    0.000    0.000    0.000 
#
# Total GULP energy -89573.963006 kJ/mol
# GULP energy per Si atom -5598.372688 kJ/mol
# Density = 2.366665 g / cm^3
# Si number density = 23.720634 Si / 1000 Ang^3
#
#
#
# Elastic Constant Matrix: (Units=GPa)
#
#
# Indices 1 2 3 4 5 6 
#
# 1 94.8117 14.8134 9.2704 0.0000 -1.9233 0.0000
# 2 14.8134 133.0934 11.0680 0.0000 -10.4820 0.0000
# 3 9.2704 11.0680 46.2993 0.0000 -1.8735 0.0000
# 4 0.0000 0.0000 0.0000 45.0064 0.0000 -3.0251
# 5 -1.9233 -10.4820 -1.8735 0.0000 32.0012 0.0000
# 6 0.0000 0.0000 0.0000 -3.0251 0.0000 38.8574
#
#
#
# Elastic Compliance Matrix: (Units=1/GPa)
#
#
# Indices 1 2 3 4 5 6 
#
# 1 0.010902 -0.001037 -0.001927 0.000000 0.000203 0.000000
# 2 -0.001037 0.007955 -0.001595 0.000000 0.002450 0.000000
# 3 -0.001927 -0.001595 0.022393 0.000000 0.000673 0.000000
# 4 0.000000 0.000000 0.000000 0.022336 0.000000 0.001739
# 5 0.000203 0.002450 0.000673 0.000000 0.032103 0.000000
# 6 0.000000 0.000000 0.000000 0.001739 0.000000 0.025870
#
#
# Mechanical properties :
#
#
# Convention : Reuss Voigt Hill
#
# Bulk Modulus (GPa) = 31.12178 38.27867 34.70023
# Shear Modulus (GPa) = 35.36411 39.10984 37.23697
#
# Velocity S-wave (km/s) = 3.86535 4.06491 3.96639
# Velocity P-wave (km/s) = 5.75064 6.18091 5.96965
#
# Compressibility (1/GPa) = 0.03213184
#
# Stress axis : x y z
#
# Youngs Moduli (GPa) = 91.72824 125.71471 44.65715
#
# Poissons Ratio (x) = 0.13039 0.08604
# Poissons Ratio (y) = 0.09514 0.07122
# Poissons Ratio (z) = 0.17673 0.20048
#
# Static dielectric constant tensor:
#      x y z
#    x 1.783460 0.000000 0.022330 
#    y 0.000000 1.909950 0.000000 
#    z 0.022330 0.000000 1.978140 
# 
# From -- ./inp_files/5769.got.cif
#   From: 2010.05.17/outbox.cif.g08.bks.cpg/sg9_3_cif.got.tgz:5769.got - 2010.06.03 20:04:27.
