data_PCOD9137380
_publ_section_title
;
Structure prediction by ZEFSAII (Michael W. Deem and Ramdas Pophale) SiO2 
 PCOD9137380
Probable space group: C C
;
_chemical_formula_sum "Si O2"
_cell_formula_units_Z 28
_cell_length_a 10.740418
_cell_length_b 10.444256
_cell_length_c 17.696777
_cell_angle_alpha 90.000000
_cell_angle_beta 29.495574
_cell_angle_gamma 90.000000
_cell_volume 977.400129
_symmetry_space_group_name_H-M "C C"
_symmetry_group_IT_number 9
_symmetry_cell_setting 'monoclinic'
loop_
_space_group_symop_operation_xyz
x,y,z
x,-y,1/2+z
1/2+x,1/2+y,z
1/2+x,1/2-y,1/2+z
loop_
_atom_site_type_symbol
_atom_site_label
_atom_site_fract_x
_atom_site_fract_y
_atom_site_fract_z
Si Si1 0.086280 0.277749 0.527800
Si Si2 0.901727 0.436593 0.494705
Si Si3 0.306688 0.090734 0.299139
Si Si4 0.465035 0.518137 0.336552
Si Si5 0.824950 0.304108 0.380780
Si Si6 0.154839 0.307510 0.835465
Si Si7 0.802104 0.868662 0.598582
O O1 0.191838 0.147265 0.437273
O O2 0.271634 0.400902 0.435632
O O3 0.922017 0.319652 0.541702
O O4 0.902786 0.287324 0.697074
O O5 0.648337 0.495875 0.666566
O O6 0.926736 0.381651 0.397439
O O7 0.112563 0.547680 0.383670
O O8 0.585877 0.037858 0.179830
O O9 0.133221 0.019101 0.327075
O O10 0.323417 0.656259 0.411283
O O11 0.874555 0.263758 0.266372
O O12 0.576079 0.392734 0.492545
O O13 0.891368 0.239200 0.993505
O O14 0.184012 0.297935 0.732235
#
# Coordination Sequence:
#
# PCOD9137380 Si02
#       7
#     4   4   4   4   4   4   4
#     4  11  23  43  72 102 147 186 240 305 359 434
#     4  11  22  42  69 105 144 188 245 297 365 437
#     4  11  24  44  69 104 141 196 237 301 368 428
#     4  11  23  43  71 107 142 194 245 296 371 434
#     4  10  22  41  69 102 140 188 242 302 359 428
#     4  10  22  42  71 102 140 194 236 295 373 419
#     4  10  22  43  67  96 144 186 237 296 361 426
#
# _framework density 28.647428000000001
#
# number of rings (size 3 to 8) (size 9 to 14) (size 15 to 20)
#    0.857    0.571    2.857    2.571    0.000    0.000 
#    2.571    5.714    0.000    0.000    0.000    0.000 
#    0.000    0.000    0.000    0.000    0.000    0.000 
#
# Total GULP energy -77954.665960 kJ/mol
# GULP energy per Si atom -5568.190426 kJ/mol
# Density = 2.858223 g / cm^3
# Si number density = 28.647428 Si / 1000 Ang^3
#
#
#
# Elastic Constant Matrix: (Units=GPa)
#
#
# Indices 1 2 3 4 5 6 
#
# 1 132.5664 42.7543 -15.5115 -0.0059 2.5089 0.0014
# 2 42.7543 140.0939 25.2464 -0.0049 8.8170 0.0019
# 3 -15.5115 25.2464 39.7540 -0.0201 39.8597 0.0072
# 4 -0.0059 -0.0049 -0.0201 -25.4891 0.0074 -16.0948
# 5 2.5089 8.8170 39.8597 0.0074 65.1406 -0.0014
# 6 0.0014 0.0019 0.0072 -16.0948 -0.0014 58.9899
#
#
#
# Elastic Compliance Matrix: (Units=1/GPa)
#
#
# Indices 1 2 3 4 5 6 
#
# 1 0.013006 -0.007400 0.023992 -0.000019 -0.014180 -0.000009
# 2 -0.007400 0.013041 -0.025061 0.000018 0.013855 0.000008
# 3 0.023992 -0.025061 0.124090 -0.000093 -0.073463 -0.000042
# 4 -0.000019 0.000018 -0.000093 -0.033467 0.000059 -0.009131
# 5 -0.014180 0.013855 -0.073463 0.000059 0.058975 0.000026
# 6 -0.000009 0.000008 -0.000042 -0.009131 0.000026 0.014461
#
#
# Mechanical properties :
#
#
# Convention : Reuss Voigt Hill
#
# Bulk Modulus (GPa) = 7.50756 46.37697 26.94226
# Shear Modulus (GPa) = 19.88524 37.05663 28.47093
#
# Velocity S-wave (km/s) = 2.63751 3.60049 3.15594
# Velocity P-wave (km/s) = 3.44987 5.78867 4.76499
#
# Compressibility (1/GPa) = 0.13319909
#
# Stress axis : x y z
#
# Youngs Moduli (GPa) = 76.88870 76.68238 8.05866
#
# Poissons Ratio (x) = 0.56748 -0.19335
# Poissons Ratio (y) = 0.56901 0.20196
# Poissons Ratio (z) = -1.84475 1.92173
#
# Static dielectric constant tensor:
#      x y z
#    x 2.466420 0.000000 -0.195410 
#    y 0.000000 2.295890 0.000010 
#    z -0.195410 0.000010 2.628600 
# 
# From -- ./inp_files/30053.got.cif
#   From: 2010.05.17/outbox.cif.g08.bks.cpg/sg9_16_cif.got.tgz:30053.got - 2010.06.03 20:04:27.
