data_PCOD9137464
_publ_section_title
;
Structure prediction by ZEFSAII (Michael W. Deem and Ramdas Pophale) SiO2 
 PCOD9137464
Probable space group: C C
;
_chemical_formula_sum "Si O2"
_cell_formula_units_Z 32
_cell_length_a 12.341740
_cell_length_b 5.131642
_cell_length_c 19.348199
_cell_angle_alpha 90.000000
_cell_angle_beta 65.883724
_cell_angle_gamma 90.000000
_cell_volume 1118.433005
_symmetry_space_group_name_H-M "C C"
_symmetry_group_IT_number 9
_symmetry_cell_setting 'monoclinic'
loop_
_space_group_symop_operation_xyz
x,y,z
x,-y,1/2+z
1/2+x,1/2+y,z
1/2+x,1/2-y,1/2+z
loop_
_atom_site_type_symbol
_atom_site_label
_atom_site_fract_x
_atom_site_fract_y
_atom_site_fract_z
Si Si1 0.686540 0.590099 0.921180
Si Si2 0.438681 0.014975 0.314492
Si Si3 0.195481 0.596816 0.543879
Si Si4 0.692417 0.637562 0.182152
Si Si5 0.438477 0.637567 0.437198
Si Si6 0.944355 0.090106 0.698169
Si Si7 0.192214 0.514974 0.304858
Si Si8 0.935413 0.403192 0.575470
O O1 0.800530 0.421647 0.868423
O O2 0.563512 0.475138 0.927583
O O3 0.688817 0.875925 0.883682
O O4 0.693612 0.631942 0.000895
O O5 0.441413 0.744404 0.358513
O O6 0.565447 0.131068 0.309675
O O7 0.442078 0.124068 0.235667
O O8 0.204563 0.628396 0.623285
O O9 0.319303 0.474866 0.484203
O O10 0.065447 0.500005 0.559675
O O11 0.567383 0.524854 0.191766
O O12 0.689480 0.744403 0.260837
O O13 0.811591 0.474860 0.135147
O O14 0.426331 0.871610 0.496064
O O15 0.830365 0.921653 0.750926
O O16 0.937283 0.131949 0.618454
#
# Coordination Sequence:
#
# PCOD9137464 Si02
#       8
#     4   4   4   4   4   4   4   4
#     4  11  24  42  68  97 134 176 218 273 331 395
#     4  11  24  41  64  97 133 173 219 268 329 395
#     4  10  22  42  66  95 130 171 220 273 331 392
#     4  10  23  43  66  97 132 170 221 273 328 395
#     4  10  23  43  66  97 132 170 221 273 328 395
#     4  11  24  42  68  97 134 176 218 273 331 395
#     4  11  24  41  64  97 133 173 219 268 329 395
#     4  10  22  42  66  95 130 171 220 273 331 392
#
# _framework density 28.611460999999998
#
# number of rings (size 3 to 8) (size 9 to 14) (size 15 to 20)
#    0.000    1.500    0.000    3.750    0.000    8.000 
#    0.000    0.000    0.000    0.000    0.000    0.000 
#    0.000    0.000    0.000    0.000    0.000    0.000 
#
# Total GULP energy -89190.608039 kJ/mol
# GULP energy per Si atom -5574.413002 kJ/mol
# Density = 2.854634 g / cm^3
# Si number density = 28.611461 Si / 1000 Ang^3
#
#
#
# Elastic Constant Matrix: (Units=GPa)
#
#
# Indices 1 2 3 4 5 6 
#
# 1 331.8305 47.7008 66.9413 0.0004 -47.2800 0.0003
# 2 47.7008 67.6759 39.1451 0.0019 -11.3255 0.0013
# 3 66.9413 39.1451 102.5149 0.0004 -23.2320 0.0005
# 4 0.0004 0.0019 0.0004 30.9798 0.0001 0.1506
# 5 -47.2800 -11.3255 -23.2320 0.0001 73.2788 0.0003
# 6 0.0003 0.0013 0.0005 0.1506 0.0003 48.7790
#
#
#
# Elastic Compliance Matrix: (Units=1/GPa)
#
#
# Indices 1 2 3 4 5 6 
#
# 1 0.003779 -0.001506 -0.001501 0.000000 0.001730 0.000000
# 2 -0.001506 0.019597 -0.006500 -0.000001 -0.000004 0.000000
# 3 -0.001501 -0.006500 0.013758 0.000000 0.002389 0.000000
# 4 0.000000 -0.000001 0.000000 0.032280 0.000000 -0.000100
# 5 0.001730 -0.000004 0.002389 0.000000 0.015519 0.000000
# 6 0.000000 0.000000 0.000000 -0.000100 0.000000 0.020501
#
#
# Mechanical properties :
#
#
# Convention : Reuss Voigt Hill
#
# Bulk Modulus (GPa) = 55.18782 89.95506 72.57144
# Shear Modulus (GPa) = 38.31720 53.82314 46.07017
#
# Velocity S-wave (km/s) = 3.66351 4.34196 4.01708
# Velocity P-wave (km/s) = 6.10129 7.52630 6.85095
#
# Compressibility (1/GPa) = 0.01811994
#
# Stress axis : x y z
#
# Youngs Moduli (GPa) = 264.59701 51.02717 72.68409
#
# Poissons Ratio (x) = 0.07686 0.10907
# Poissons Ratio (y) = 0.39857 0.47248
# Poissons Ratio (z) = 0.39707 0.33170
#
# Static dielectric constant tensor:
#      x y z
#    x 2.203700 0.000000 -0.080190 
#    y 0.000000 2.326680 0.000000 
#    z -0.080190 0.000000 2.221780 
# 
# From -- ./inp_files/33023.got.cif
#   From: 2010.05.17/outbox.cif.g08.bks.cpg/sg9_17_cif.got.tgz:33023.got - 2010.06.03 20:04:27.
