data_PCOD9137621
_publ_section_title
;
Structure prediction by ZEFSAII (Michael W. Deem and Ramdas Pophale) SiO2 
 PCOD9137621
Probable space group: C C
;
_chemical_formula_sum "Si O2"
_cell_formula_units_Z 20
_cell_length_a 12.326664
_cell_length_b 6.941292
_cell_length_c 12.781231
_cell_angle_alpha 90.000000
_cell_angle_beta 129.411915
_cell_angle_gamma 90.000000
_cell_volume 844.917174
_symmetry_space_group_name_H-M "C C"
_symmetry_group_IT_number 9
_symmetry_cell_setting 'monoclinic'
loop_
_space_group_symop_operation_xyz
x,y,z
x,-y,1/2+z
1/2+x,1/2+y,z
1/2+x,1/2-y,1/2+z
loop_
_atom_site_type_symbol
_atom_site_label
_atom_site_fract_x
_atom_site_fract_y
_atom_site_fract_z
Si Si1 0.337240 0.761541 0.006370
Si Si2 0.086317 0.593729 0.793770
Si Si3 0.700140 0.725479 0.796655
Si Si4 0.366100 0.671326 0.598098
Si Si5 0.384553 0.900793 0.811970
O O1 0.440450 0.873154 0.145596
O O2 0.332369 0.549918 0.054383
O O3 0.402103 0.789365 0.931329
O O4 0.170682 0.784546 0.878862
O O5 0.034425 0.476985 0.863297
O O6 0.184661 0.459391 0.780096
O O7 0.535725 0.675870 0.694089
O O8 0.784402 0.587176 0.769780
O O9 0.787971 0.708175 0.958819
O O10 0.328160 0.760285 0.686874
#
# Coordination Sequence:
#
# PCOD9137621 Si02
#       5
#     4   4   4   4   4
#     4  11  24  43  66 100 137 173 230 283 331 410
#     4  10  25  43  65 101 135 176 234 275 330 415
#     4  10  22  43  66  96 134 173 228 277 327 407
#     4  10  24  42  67 103 133 174 234 276 332 415
#     4  11  23  43  70  94 137 184 218 285 348 383
#
# _framework density 23.670959
#
# number of rings (size 3 to 8) (size 9 to 14) (size 15 to 20)
#    0.000    1.600    0.000    3.600    0.000   16.000 
#    0.000    0.000    0.000    0.000    0.000    0.000 
#    0.000    0.000    0.000    0.000    0.000    0.000 
#
# Total GULP energy -55732.917279 kJ/mol
# GULP energy per Si atom -5573.291728 kJ/mol
# Density = 2.361708 g / cm^3
# Si number density = 23.670959 Si / 1000 Ang^3
#
#
#
# Elastic Constant Matrix: (Units=GPa)
#
#
# Indices 1 2 3 4 5 6 
#
# 1 110.1831 50.5522 53.1845 0.0000 -7.7952 0.0000
# 2 50.5522 92.3418 32.3325 0.0000 -0.9798 0.0000
# 3 53.1845 32.3325 138.7582 0.0000 12.5480 0.0000
# 4 0.0000 0.0000 0.0000 46.0368 0.0000 4.4141
# 5 -7.7952 -0.9798 12.5480 0.0000 44.6088 0.0000
# 6 0.0000 0.0000 0.0000 4.4141 0.0000 52.7939
#
#
#
# Elastic Compliance Matrix: (Units=1/GPa)
#
#
# Indices 1 2 3 4 5 6 
#
# 1 0.014304 -0.006271 -0.004345 0.000000 0.003584 0.000000
# 2 -0.006271 0.014590 -0.000950 0.000000 -0.000508 0.000000
# 3 -0.004345 -0.000950 0.009403 0.000000 -0.003425 0.000000
# 4 0.000000 0.000000 0.000000 0.021897 0.000000 -0.001831
# 5 0.003584 -0.000508 -0.003425 0.000000 0.023996 0.000000
# 6 0.000000 0.000000 0.000000 -0.001831 0.000000 0.019095
#
#
# Mechanical properties :
#
#
# Convention : Reuss Voigt Hill
#
# Bulk Modulus (GPa) = 65.94542 68.15793 67.05168
# Shear Modulus (GPa) = 38.03063 42.36883 40.19973
#
# Velocity S-wave (km/s) = 4.01264 4.23532 4.12548
# Velocity P-wave (km/s) = 7.02766 7.26455 7.14709
#
# Compressibility (1/GPa) = 0.01516405
#
# Stress axis : x y z
#
# Youngs Moduli (GPa) = 69.90979 68.54144 106.34384
#
# Poissons Ratio (x) = 0.42984 0.46211
# Poissons Ratio (y) = 0.43842 0.10102
# Poissons Ratio (z) = 0.30379 0.06511
#
# Static dielectric constant tensor:
#      x y z
#    x 1.868940 0.000000 0.029880 
#    y 0.000000 2.034930 0.000000 
#    z 0.029880 0.000000 2.018530 
# 
# From -- ./inp_files/15821.got.cif
#   From: 2010.05.17/outbox.cif.g08.bks.cpg/sg9_8_cif.got.tgz:15821.got - 2010.06.03 20:04:27.
