data_PCOD9137424
_publ_section_title
;
Structure prediction by ZEFSAII (Michael W. Deem and Ramdas Pophale) SiO2 
 PCOD9137424
Probable space group: C C
;
_chemical_formula_sum "Si O2"
_cell_formula_units_Z 28
_cell_length_a 14.366396
_cell_length_b 11.911674
_cell_length_c 8.714888
_cell_angle_alpha 90.000000
_cell_angle_beta 99.942463
_cell_angle_gamma 90.000000
_cell_volume 1468.962049
_symmetry_space_group_name_H-M "C C"
_symmetry_group_IT_number 9
_symmetry_cell_setting 'monoclinic'
loop_
_space_group_symop_operation_xyz
x,y,z
x,-y,1/2+z
1/2+x,1/2+y,z
1/2+x,1/2-y,1/2+z
loop_
_atom_site_type_symbol
_atom_site_label
_atom_site_fract_x
_atom_site_fract_y
_atom_site_fract_z
Si Si1 0.214750 0.993584 0.924220
Si Si2 0.009624 0.633390 0.791594
Si Si3 0.159805 0.755159 0.302840
Si Si4 0.558935 0.333049 0.977302
Si Si5 0.329043 0.112637 0.197090
Si Si6 0.023856 0.406861 0.938112
Si Si7 0.359578 0.267173 0.929531
O O1 0.184513 0.116038 0.854343
O O2 0.123663 0.940154 0.977425
O O3 0.251570 0.907757 0.806235
O O4 0.299870 0.015651 0.067575
O O5 0.065103 0.749786 0.833533
O O6 0.055932 0.531843 0.899379
O O7 0.003412 0.603459 0.612263
O O8 0.910096 0.665070 0.848225
O O9 0.098865 0.686793 0.408423
O O10 0.263398 0.699136 0.318545
O O11 0.098227 0.762587 0.131964
O O12 0.446778 0.353290 0.965611
O O13 0.429485 0.105860 0.308410
O O14 0.331409 0.222580 0.090277
#
# Coordination Sequence:
#
# PCOD9137424 Si02
#       7
#     4   4   4   4   4   4   4
#     4  11  23  36  65  91 125 163 207 253 313 364
#     4  10  23  37  63  87 126 163 202 261 301 368
#     4  11  22  38  64  89 125 165 201 265 308 369
#     4  10  22  42  61  90 128 163 209 256 307 370
#     4  11  21  34  61  95 119 159 207 257 298 358
#     4  12  21  38  63  94 125 158 212 255 314 357
#     4   9  22  39  59  92 120 161 204 251 311 356
#
# _framework density 19.061078999999999
#
# number of rings (size 3 to 8) (size 9 to 14) (size 15 to 20)
#    0.857    0.571    2.857    4.286    6.000    0.000 
#    0.000    0.000    9.429    0.000    0.000    0.000 
#    0.000    0.000    0.000    0.000    0.000    0.000 
#
# Total GULP energy -77952.718597 kJ/mol
# GULP energy per Si atom -5568.051328 kJ/mol
# Density = 1.901770 g / cm^3
# Si number density = 19.061079 Si / 1000 Ang^3
#
#
#
# Elastic Constant Matrix: (Units=GPa)
#
#
# Indices 1 2 3 4 5 6 
#
# 1 115.4654 29.4870 26.7660 0.0000 -2.7381 0.0000
# 2 29.4870 34.6329 4.0594 0.0000 0.2552 0.0000
# 3 26.7660 4.0594 90.9148 0.0000 3.7412 0.0000
# 4 0.0000 0.0000 0.0000 18.3125 0.0000 -4.4225
# 5 -2.7381 0.2552 3.7412 0.0000 27.3672 0.0000
# 6 0.0000 0.0000 0.0000 -4.4225 0.0000 37.8786
#
#
#
# Elastic Compliance Matrix: (Units=1/GPa)
#
#
# Indices 1 2 3 4 5 6 
#
# 1 0.011935 -0.009805 -0.003146 0.000000 0.001716 0.000000
# 2 -0.009805 0.037082 0.001293 0.000000 -0.001504 0.000000
# 3 -0.003146 0.001293 0.011949 0.000000 -0.001960 0.000000
# 4 0.000000 0.000000 0.000000 0.056192 0.000000 0.006561
# 5 0.001716 -0.001504 -0.001960 0.000000 0.036994 0.000000
# 6 0.000000 0.000000 0.000000 0.006561 0.000000 0.027166
#
#
# Mechanical properties :
#
#
# Convention : Reuss Voigt Hill
#
# Bulk Modulus (GPa) = 26.56200 40.18201 33.37200
# Shear Modulus (GPa) = 23.02194 28.75837 25.89015
#
# Velocity S-wave (km/s) = 3.47911 3.88847 3.68947
# Velocity P-wave (km/s) = 5.48675 6.42548 5.97458
#
# Compressibility (1/GPa) = 0.03764777
#
# Stress axis : x y z
#
# Youngs Moduli (GPa) = 83.78948 26.96716 83.69192
#
# Poissons Ratio (x) = 0.26442 0.26333
# Poissons Ratio (y) = 0.82157 -0.10820
# Poissons Ratio (z) = 0.26364 -0.03486
#
# Static dielectric constant tensor:
#      x y z
#    x 1.681090 0.000000 0.011810 
#    y 0.000000 1.669360 0.000000 
#    z 0.011810 0.000000 1.678820 
# 
# From -- ./inp_files/8959.got.cif
#   From: 2010.05.17/outbox.cif.g08.bks.cpg/sg9_5_cif.got.tgz:8959.got - 2010.06.03 20:04:27.
