data_PCOD9137678
_publ_section_title
;
Structure prediction by ZEFSAII (Michael W. Deem and Ramdas Pophale) SiO2 
 PCOD9137678
Probable space group: C C
;
_chemical_formula_sum "Si O2"
_cell_formula_units_Z 28
_cell_length_a 10.489493
_cell_length_b 24.528564
_cell_length_c 7.857998
_cell_angle_alpha 90.000000
_cell_angle_beta 32.468881
_cell_angle_gamma 90.000000
_cell_volume 1085.386918
_symmetry_space_group_name_H-M "C C"
_symmetry_group_IT_number 9
_symmetry_cell_setting 'monoclinic'
loop_
_space_group_symop_operation_xyz
x,y,z
x,-y,1/2+z
1/2+x,1/2+y,z
1/2+x,1/2-y,1/2+z
loop_
_atom_site_type_symbol
_atom_site_label
_atom_site_fract_x
_atom_site_fract_y
_atom_site_fract_z
Si Si1 0.476500 0.121079 0.284610
Si Si2 0.306983 0.374829 0.116711
Si Si3 0.260192 0.007804 0.422197
Si Si4 0.786106 0.272706 0.916427
Si Si5 0.476949 0.734626 0.330561
Si Si6 0.561411 0.091502 0.568135
Si Si7 0.429315 0.499712 0.533051
O O1 0.417875 0.059988 0.284494
O O2 0.267760 0.162784 0.473636
O O3 0.519851 0.121015 0.436589
O O4 0.691569 0.142186 0.925188
O O5 0.498665 0.330100 0.847045
O O6 0.360515 0.438276 0.082293
O O7 0.129702 0.374111 0.154954
O O8 0.205878 0.998915 0.280623
O O9 0.344415 0.946857 0.362686
O O10 0.985750 0.021825 0.777052
O O11 0.524572 0.248188 0.246122
O O12 0.875523 0.261687 0.620967
O O13 0.739203 0.755281 0.983917
O O14 0.761299 0.045354 0.301287
#
# Coordination Sequence:
#
# PCOD9137678 Si02
#       7
#     4   4   4   4   4   4   4
#     4  12  24  43  74  97 141 192 231 300 369 419
#     4  12  24  43  74  97 141 192 231 300 369 419
#     4  12  24  42  68 101 143 186 233 289 356 436
#     4  10  22  43  70 104 137 180 249 301 358 437
#     4  10  22  43  70 104 137 180 249 301 358 437
#     4  12  26  46  60 110 142 178 246 290 348 448
#     4  12  24  42  68 101 143 186 233 289 356 436
#
# _framework density 25.797253999999999
#
# number of rings (size 3 to 8) (size 9 to 14) (size 15 to 20)
#    0.000    0.571    7.143    2.571    4.000    2.286 
#    0.000    1.429    0.000    0.000    0.000    0.000 
#    0.000    0.000    0.000    0.000    0.000    0.000 
#
# Total GULP energy -78088.290580 kJ/mol
# GULP energy per Si atom -5577.735041 kJ/mol
# Density = 2.573854 g / cm^3
# Si number density = 25.797254 Si / 1000 Ang^3
#
#
#
# Elastic Constant Matrix: (Units=GPa)
#
#
# Indices 1 2 3 4 5 6 
#
# 1 56.1400 26.7919 2.7479 0.0000 -26.8842 0.0000
# 2 26.7919 72.8428 0.4692 0.0000 0.7438 0.0000
# 3 2.7479 0.4692 91.0463 0.0000 -14.4356 0.0000
# 4 0.0000 0.0000 0.0000 -82.5848 0.0000 -119.7162
# 5 -26.8842 0.7438 -14.4356 0.0000 26.2183 0.0000
# 6 0.0000 0.0000 0.0000 -119.7162 0.0000 -81.8275
#
#
#
# Elastic Compliance Matrix: (Units=1/GPa)
#
#
# Indices 1 2 3 4 5 6 
#
# 1 0.061349 -0.023324 0.009146 0.000000 0.068604 0.000000
# 2 -0.023324 0.022601 -0.003622 0.000000 -0.026552 0.000000
# 3 0.009146 -0.003622 0.013399 0.000000 0.016858 0.000000
# 4 0.000000 0.000000 0.000000 0.010803 0.000000 -0.015806
# 5 0.068604 -0.026552 0.016858 0.000000 0.118524 0.000000
# 6 0.000000 0.000000 0.000000 -0.015806 0.000000 0.010903
#
#
# Mechanical properties :
#
#
# Convention : Reuss Voigt Hill
#
# Bulk Modulus (GPa) = 16.19466 31.11633 23.65550
# Shear Modulus (GPa) = 17.02053 -14.97080 1.02486
#
# Velocity S-wave (km/s) = 2.57141 -2.41161 0.63098
# Velocity P-wave (km/s) = 3.88683 2.08173 3.11778
#
# Compressibility (1/GPa) = 0.06174874
#
# Stress axis : x y z
#
# Youngs Moduli (GPa) = 16.30019 44.24531 74.63242
#
# Poissons Ratio (x) = 1.03197 -0.68259
# Poissons Ratio (y) = 0.38018 0.27035
# Poissons Ratio (z) = -0.14908 0.16027
#
# Static dielectric constant tensor:
#      x y z
#    x 2.199530 0.000000 -0.022420 
#    y 0.000000 3.338540 0.000000 
#    z -0.022420 0.000000 2.063560 
# 
# From -- ./inp_files/2030.got.cif
#   From: 2010.05.17/outbox.cif.g08.bks.cpg/sg9_2_cif.got.tgz:2030.got - 2010.06.03 20:04:27.
