data_PCOD9137296
_publ_section_title
;
Structure prediction by ZEFSAII (Michael W. Deem and Ramdas Pophale) SiO2 
 PCOD9137296
Probable space group: C C
;
_chemical_formula_sum "Si O2"
_cell_formula_units_Z 32
_cell_length_a 15.425911
_cell_length_b 23.731498
_cell_length_c 9.261138
_cell_angle_alpha 90.000000
_cell_angle_beta 154.660127
_cell_angle_gamma 90.000000
_cell_volume 1451.011422
_symmetry_space_group_name_H-M "C C"
_symmetry_group_IT_number 9
_symmetry_cell_setting 'monoclinic'
loop_
_space_group_symop_operation_xyz
x,y,z
x,-y,1/2+z
1/2+x,1/2+y,z
1/2+x,1/2-y,1/2+z
loop_
_atom_site_type_symbol
_atom_site_label
_atom_site_fract_x
_atom_site_fract_y
_atom_site_fract_z
Si Si1 0.146000 0.883822 0.781020
Si Si2 0.426193 0.388633 0.925669
Si Si3 0.920058 0.309210 0.759054
Si Si4 0.392411 0.507379 0.966928
Si Si5 0.100315 0.474574 0.769022
Si Si6 0.520408 0.098105 0.631852
Si Si7 0.996623 0.818624 0.299744
Si Si8 0.817536 0.364908 0.328855
O O1 0.990791 0.856782 0.434406
O O2 0.041124 0.939339 0.691360
O O3 0.336689 0.891462 0.963534
O O4 0.240262 0.848225 0.054511
O O5 0.502064 0.452011 0.072620
O O6 0.226778 0.395702 0.531096
O O7 0.372479 0.350677 0.985517
O O8 0.609001 0.366140 0.105642
O O9 0.708801 0.314690 0.530366
O O10 0.941018 0.324778 0.621123
O O11 0.962076 0.243049 0.813432
O O12 0.037957 0.357930 0.026231
O O13 0.303733 0.481586 0.980497
O O14 0.194655 0.522272 0.571637
O O15 0.989246 0.532068 0.553772
O O16 0.951572 0.422076 0.520332
#
# Coordination Sequence:
#
# PCOD9137296 Si02
#       8
#     4   4   4   4   4   4   4   4
#     4  11  23  39  61  92 125 162 205 256 312 373
#     4  10  22  41  62  90 124 163 208 256 311 371
#     4  10  24  43  64  89 123 166 212 259 310 368
#     4  11  22  37  60  91 124 163 203 251 312 372
#     4  11  22  37  60  91 124 163 203 251 312 372
#     4  10  22  41  62  90 124 163 208 256 311 371
#     4  10  24  43  64  89 123 166 212 259 310 368
#     4  11  23  39  61  92 125 162 205 256 312 373
#
# _framework density 22.053584000000001
#
# number of rings (size 3 to 8) (size 9 to 14) (size 15 to 20)
#    0.000    1.500    0.000    5.250    0.000    9.000 
#    0.000    5.000    0.000    0.000    0.000    0.000 
#    0.000    0.000    0.000    0.000    0.000    0.000 
#
# Total GULP energy -89083.026237 kJ/mol
# GULP energy per Si atom -5567.689140 kJ/mol
# Density = 2.200339 g / cm^3
# Si number density = 22.053584 Si / 1000 Ang^3
#
#
#
# Elastic Constant Matrix: (Units=GPa)
#
#
# Indices 1 2 3 4 5 6 
#
# 1 77.4913 10.7115 3.0405 0.0000 -13.3830 0.0000
# 2 10.7115 66.0783 4.5039 0.0000 0.3024 0.0000
# 3 3.0405 4.5039 30.0921 0.0000 -3.5352 0.0000
# 4 0.0000 0.0000 0.0000 12.3418 0.0000 -1.2705
# 5 -13.3830 0.3024 -3.5352 0.0000 21.1908 0.0000
# 6 0.0000 0.0000 0.0000 -1.2705 0.0000 41.0759
#
#
#
# Elastic Compliance Matrix: (Units=1/GPa)
#
#
# Indices 1 2 3 4 5 6 
#
# 1 0.014872 -0.002452 -0.000029 0.000000 0.009423 0.000000
# 2 -0.002452 0.015702 -0.002357 0.000000 -0.002166 0.000000
# 3 -0.000029 -0.002357 0.034260 0.000000 0.005731 0.000000
# 4 0.000000 0.000000 0.000000 0.081284 0.000000 0.002514
# 5 0.009423 -0.002166 0.005731 0.000000 0.054128 0.000000
# 6 0.000000 0.000000 0.000000 0.002514 0.000000 0.024423
#
#
# Mechanical properties :
#
#
# Convention : Reuss Voigt Hill
#
# Bulk Modulus (GPa) = 18.12941 23.35262 20.74102
# Shear Modulus (GPa) = 19.78392 25.28208 22.53300
#
# Velocity S-wave (km/s) = 2.99839 3.38952 3.19993
# Velocity P-wave (km/s) = 4.49728 5.09220 4.80396
#
# Compressibility (1/GPa) = 0.05515898
#
# Stress axis : x y z
#
# Youngs Moduli (GPa) = 67.24020 63.68789 29.18833
#
# Poissons Ratio (x) = 0.15616 0.00084
# Poissons Ratio (y) = 0.16487 0.06879
# Poissons Ratio (z) = 0.00193 0.15010
#
# Static dielectric constant tensor:
#      x y z
#    x 1.932100 0.000000 -0.033150 
#    y 0.000000 1.953380 0.000000 
#    z -0.033150 0.000000 1.929520 
# 
# From -- ./inp_files/6153.got.cif
#   From: 2010.05.17/outbox.cif.g08.bks.cpg/sg9_4_cif.got.tgz:6153.got - 2010.06.03 20:04:27.
