data_PCOD9137149
_publ_section_title
;
Structure prediction by ZEFSAII (Michael W. Deem and Ramdas Pophale) SiO2 
 PCOD9137149
Probable space group: C C
;
_chemical_formula_sum "Si O2"
_cell_formula_units_Z 28
_cell_length_a 13.986676
_cell_length_b 7.316454
_cell_length_c 20.911527
_cell_angle_alpha 90.000000
_cell_angle_beta 150.764755
_cell_angle_gamma 90.000000
_cell_volume 1045.137629
_symmetry_space_group_name_H-M "C C"
_symmetry_group_IT_number 9
_symmetry_cell_setting 'monoclinic'
loop_
_space_group_symop_operation_xyz
x,y,z
x,-y,1/2+z
1/2+x,1/2+y,z
1/2+x,1/2-y,1/2+z
loop_
_atom_site_type_symbol
_atom_site_label
_atom_site_fract_x
_atom_site_fract_y
_atom_site_fract_z
Si Si1 0.092580 0.875715 0.630120
Si Si2 0.770682 0.856244 0.549645
Si Si3 0.589560 0.771096 0.661314
Si Si4 0.495104 0.030969 0.709116
Si Si5 0.974630 0.088152 0.340114
Si Si6 0.003043 0.845336 0.239685
Si Si7 0.902382 0.197557 0.898389
O O1 0.295411 0.830604 0.785082
O O2 0.922255 0.826278 0.580582
O O3 0.049267 0.758052 0.541730
O O4 0.050473 0.092777 0.596207
O O5 0.856098 0.697768 0.645953
O O6 0.564259 0.785676 0.406479
O O7 0.809477 0.059893 0.595891
O O8 0.448488 0.918197 0.614956
O O9 0.742677 0.888224 0.711261
O O10 0.652515 0.674129 0.766676
O O11 0.487232 0.862205 0.753739
O O12 0.713547 0.106129 0.824432
O O13 0.051684 0.989374 0.322161
O O14 0.015398 0.951364 0.422246
#
# Coordination Sequence:
#
# PCOD9137149 Si02
#       7
#     4   4   4   4   4   4   4
#     4  10  22  43  70  99 143 193 231 291 377 423
#     4  10  22  39  68  99 136 182 238 291 358 439
#     4   8  20  43  60  96 140 185 231 295 365 429
#     4   8  19  42  64  95 138 182 230 287 360 436
#     4  11  23  41  66 104 133 185 247 305 346 447
#     4   9  21  43  65  93 143 184 235 288 377 415
#     4  10  23  43  69 102 145 187 240 301 359 439
#
# _framework density 26.790731999999998
#
# number of rings (size 3 to 8) (size 9 to 14) (size 15 to 20)
#    0.857    1.714    0.000    0.000    8.000    2.286 
#    5.143    0.000    0.000    0.000    0.000    0.000 
#    0.000    0.000    0.000    0.000    0.000    0.000 
#
# Total GULP energy -78020.948985 kJ/mol
# GULP energy per Si atom -5572.924927 kJ/mol
# Density = 2.672975 g / cm^3
# Si number density = 26.790732 Si / 1000 Ang^3
#
#
#
# Elastic Constant Matrix: (Units=GPa)
#
#
# Indices 1 2 3 4 5 6 
#
# 1 88.5038 17.8849 20.5041 0.0000 -11.0098 0.0000
# 2 17.8849 139.5234 23.4388 0.0000 -2.1257 0.0000
# 3 20.5041 23.4388 66.5495 0.0006 -23.6666 0.0002
# 4 0.0000 0.0000 0.0006 29.6930 0.0002 -2.6764
# 5 -11.0098 -2.1257 -23.6666 0.0002 26.1151 0.0000
# 6 0.0000 0.0000 0.0002 -2.6764 0.0000 33.8842
#
#
#
# Elastic Compliance Matrix: (Units=1/GPa)
#
#
# Indices 1 2 3 4 5 6 
#
# 1 0.012454 -0.001155 -0.002356 0.000000 0.003021 0.000000
# 2 -0.001155 0.007854 -0.003476 0.000000 -0.002998 0.000000
# 3 -0.002356 -0.003476 0.024380 -0.000001 0.020818 0.000000
# 4 0.000000 0.000000 -0.000001 0.033920 -0.000001 0.002679
# 5 0.003021 -0.002998 0.020818 -0.000001 0.058188 0.000000
# 6 0.000000 0.000000 0.000000 0.002679 0.000000 0.029724
#
#
# Mechanical properties :
#
#
# Convention : Reuss Voigt Hill
#
# Bulk Modulus (GPa) = 32.55888 46.47024 39.51456
# Shear Modulus (GPa) = 26.21487 33.45502 29.83495
#
# Velocity S-wave (km/s) = 3.13150 3.53760 3.34073
# Velocity P-wave (km/s) = 5.02538 5.83691 5.44628
#
# Compressibility (1/GPa) = 0.03071359
#
# Stress axis : x y z
#
# Youngs Moduli (GPa) = 80.29576 127.33004 41.01689
#
# Poissons Ratio (x) = 0.14702 0.09664
# Poissons Ratio (y) = 0.09271 0.14260
# Poissons Ratio (z) = 0.18918 0.44266
#
# Static dielectric constant tensor:
#      x y z
#    x 2.051720 0.000000 -0.072660 
#    y 0.000000 2.170560 0.000000 
#    z -0.072660 0.000000 2.259070 
# 
# From -- ./inp_files/33719.got.cif
#   From: 2010.05.17/outbox.cif.g08.bks.cpg/sg9_17_cif.got.tgz:33719.got - 2010.06.03 20:04:27.
