data_PCOD9137717
_publ_section_title
;
Structure prediction by ZEFSAII (Michael W. Deem and Ramdas Pophale) SiO2 
 PCOD9137717
Probable space group: C C
;
_chemical_formula_sum "Si O2"
_cell_formula_units_Z 32
_cell_length_a 11.815781
_cell_length_b 16.278960
_cell_length_c 7.967886
_cell_angle_alpha 90.000000
_cell_angle_beta 112.278915
_cell_angle_gamma 90.000000
_cell_volume 1418.201368
_symmetry_space_group_name_H-M "C C"
_symmetry_group_IT_number 9
_symmetry_cell_setting 'monoclinic'
loop_
_space_group_symop_operation_xyz
x,y,z
x,-y,1/2+z
1/2+x,1/2+y,z
1/2+x,1/2-y,1/2+z
loop_
_atom_site_type_symbol
_atom_site_label
_atom_site_fract_x
_atom_site_fract_y
_atom_site_fract_z
Si Si1 0.952560 0.113869 0.762730
Si Si2 0.024185 0.706525 0.194340
Si Si3 0.574300 0.513570 0.126279
Si Si4 0.990665 0.230985 0.339763
Si Si5 0.258491 0.387221 0.705615
Si Si6 0.200389 0.112725 0.490106
Si Si7 0.471193 0.148979 0.529770
Si Si8 0.214297 0.571845 0.791805
O O1 0.813878 0.124823 0.743987
O O2 0.012588 0.197681 0.736452
O O3 0.964260 0.043527 0.628957
O O4 0.027680 0.073611 0.956764
O O5 0.158257 0.669004 0.242132
O O6 0.969307 0.662705 0.328644
O O7 0.960880 0.704304 0.973408
O O8 0.627404 0.568379 0.301218
O O9 0.677052 0.448148 0.130657
O O10 0.888795 0.159321 0.286307
O O11 0.995958 0.269877 0.157858
O O12 0.125202 0.197074 0.463947
O O13 0.250923 0.477311 0.783371
O O14 0.223219 0.401162 0.490341
O O15 0.339416 0.121701 0.519969
O O16 0.580276 0.088074 0.642343
#
# Coordination Sequence:
#
# PCOD9137717 Si02
#       8
#     4   4   4   4   4   4   4   4
#     4  11  23  44  74 114 137 192 249 304 375 435
#     4  12  27  45  72 110 146 197 240 304 379 433
#     4  10  22  43  75 102 141 184 243 305 358 448
#     4  12  26  48  75 106 147 188 248 310 365 447
#     4  12  27  49  76 112 151 195 254 315 375 445
#     4  11  24  46  68 103 140 190 235 299 367 427
#     4  12  29  47  72 106 152 194 248 300 370 448
#     4  12  26  48  76 111 150 196 253 315 373 447
#
# _framework density 22.563791999999999
#
# number of rings (size 3 to 8) (size 9 to 14) (size 15 to 20)
#    0.000    0.500    2.500    6.000    5.250    3.000 
#    2.250    0.000    0.000    0.000    0.000    0.000 
#    0.000    0.000    0.000    0.000    0.000    0.000 
#
# Total GULP energy -89526.498223 kJ/mol
# GULP energy per Si atom -5595.406139 kJ/mol
# Density = 2.251244 g / cm^3
# Si number density = 22.563792 Si / 1000 Ang^3
#
#
#
# Elastic Constant Matrix: (Units=GPa)
#
#
# Indices 1 2 3 4 5 6 
#
# 1 161.6436 39.5874 26.8770 0.0000 -6.8704 0.0000
# 2 39.5874 60.3466 12.4676 0.0000 -0.1919 0.0000
# 3 26.8770 12.4676 73.1393 0.0000 -16.6084 0.0000
# 4 0.0000 0.0000 0.0000 33.6974 0.0000 -7.4439
# 5 -6.8704 -0.1919 -16.6084 0.0000 34.2194 0.0000
# 6 0.0000 0.0000 0.0000 -7.4439 0.0000 34.2799
#
#
#
# Elastic Compliance Matrix: (Units=1/GPa)
#
#
# Indices 1 2 3 4 5 6 
#
# 1 0.007661 -0.004633 -0.001890 0.000000 0.000595 0.000000
# 2 -0.004633 0.020045 -0.002136 0.000000 -0.001854 0.000000
# 3 -0.001890 -0.002136 0.016456 0.000000 0.007595 0.000000
# 4 0.000000 0.000000 0.000000 0.031171 0.000000 0.006769
# 5 0.000595 -0.001854 0.007595 0.000000 0.033019 0.000000
# 6 0.000000 0.000000 0.000000 0.006769 0.000000 0.030641
#
#
# Mechanical properties :
#
#
# Convention : Reuss Voigt Hill
#
# Bulk Modulus (GPa) = 37.25177 50.33261 43.79219
# Shear Modulus (GPa) = 30.25551 34.85253 32.55402
#
# Velocity S-wave (km/s) = 3.66579 3.93443 3.80248
# Velocity P-wave (km/s) = 5.87049 6.55705 6.22325
#
# Compressibility (1/GPa) = 0.02684437
#
# Stress axis : x y z
#
# Youngs Moduli (GPa) = 130.53676 49.88654 60.76819
#
# Poissons Ratio (x) = 0.23112 0.11487
# Poissons Ratio (y) = 0.60477 0.12977
# Poissons Ratio (z) = 0.24676 0.10654
#
# Static dielectric constant tensor:
#      x y z
#    x 1.815020 0.000000 -0.041450 
#    y 0.000000 1.855400 0.000000 
#    z -0.041450 0.000000 1.860040 
# 
# From -- ./inp_files/7479.got.cif
#   From: 2010.05.17/outbox.cif.g08.bks.cpg/sg9_4_cif.got.tgz:7479.got - 2010.06.03 20:04:27.
