data_PCOD9137592
_publ_section_title
;
Structure prediction by ZEFSAII (Michael W. Deem and Ramdas Pophale) SiO2 
 PCOD9137592
Probable space group: C C
;
_chemical_formula_sum "Si O2"
_cell_formula_units_Z 32
_cell_length_a 18.337459
_cell_length_b 7.569142
_cell_length_c 11.502042
_cell_angle_alpha 90.000000
_cell_angle_beta 57.797435
_cell_angle_gamma 90.000000
_cell_volume 1350.883905
_symmetry_space_group_name_H-M "C C"
_symmetry_group_IT_number 9
_symmetry_cell_setting 'monoclinic'
loop_
_space_group_symop_operation_xyz
x,y,z
x,-y,1/2+z
1/2+x,1/2+y,z
1/2+x,1/2-y,1/2+z
loop_
_atom_site_type_symbol
_atom_site_label
_atom_site_fract_x
_atom_site_fract_y
_atom_site_fract_z
Si Si1 0.125000 0.632082 0.085240
Si Si2 0.362914 0.925153 0.322145
Si Si3 0.856899 0.201097 0.711313
Si Si4 0.761740 0.110403 0.386653
Si Si5 0.994647 0.310051 0.406592
Si Si6 0.174579 0.816296 0.801984
Si Si7 0.642292 0.290706 0.316448
Si Si8 0.005811 0.628477 0.553102
O O1 0.115511 0.743759 0.208791
O O2 0.048524 0.497220 0.115704
O O3 0.207491 0.503962 0.023411
O O4 0.143980 0.755172 0.957384
O O5 0.278405 0.809692 0.413350
O O6 0.427188 0.843479 0.362392
O O7 0.406102 0.855380 0.165385
O O8 0.356541 0.134957 0.305466
O O9 0.940377 0.217906 0.557943
O O10 0.769151 0.230532 0.710947
O O11 0.842912 0.013199 0.785500
O O12 0.701697 0.139557 0.323889
O O13 0.087781 0.224997 0.301643
O O14 0.016310 0.505395 0.432735
O O15 0.189513 0.023722 0.777707
O O16 0.560749 0.298203 0.474149
#
# Coordination Sequence:
#
# PCOD9137592 Si02
#       8
#     4   4   4   4   4   4   4   4
#     4   9  21  41  65  93 131 176 223 279 346 404
#     4  11  22  43  62  98 131 180 220 281 345 410
#     4  10  23  44  66  93 141 170 226 294 333 417
#     4  10  23  41  63  97 133 171 228 278 334 421
#     4  10  23  42  66  96 133 181 228 279 355 405
#     4  10  22  43  62 102 135 177 235 290 337 428
#     4  11  21  40  70  97 129 187 228 283 353 417
#     4   9  21  40  62  92 133 162 222 286 331 412
#
# _framework density 23.688196999999999
#
# number of rings (size 3 to 8) (size 9 to 14) (size 15 to 20)
#    0.000    2.000    1.250    1.500    3.500    3.000 
#    9.000    0.000    0.000    0.000    0.000    0.000 
#    0.000    0.000    0.000    0.000    0.000    0.000 
#
# Total GULP energy -89218.433533 kJ/mol
# GULP energy per Si atom -5576.152096 kJ/mol
# Density = 2.363428 g / cm^3
# Si number density = 23.688197 Si / 1000 Ang^3
#
#
#
# Elastic Constant Matrix: (Units=GPa)
#
#
# Indices 1 2 3 4 5 6 
#
# 1 83.5846 -1.0705 0.9822 0.0000 -1.1609 0.0000
# 2 -1.0705 82.9846 8.0085 0.0000 -2.1129 0.0000
# 3 0.9822 8.0085 34.5402 0.0000 -4.1296 0.0000
# 4 0.0000 0.0000 0.0000 24.4172 0.0000 -12.0897
# 5 -1.1609 -2.1129 -4.1296 0.0000 35.2785 0.0000
# 6 0.0000 0.0000 0.0000 -12.0897 0.0000 29.6527
#
#
#
# Elastic Compliance Matrix: (Units=1/GPa)
#
#
# Indices 1 2 3 4 5 6 
#
# 1 0.011976 0.000197 -0.000342 0.000000 0.000366 0.000000
# 2 0.000197 0.012335 -0.002816 0.000000 0.000416 0.000000
# 3 -0.000342 -0.002816 0.030013 0.000000 0.003333 0.000000
# 4 0.000000 0.000000 0.000000 0.051313 0.000000 0.020921
# 5 0.000366 0.000416 0.003333 0.000000 0.028773 0.000000
# 6 0.000000 0.000000 0.000000 0.020921 0.000000 0.042254
#
#
# Mechanical properties :
#
#
# Convention : Reuss Voigt Hill
#
# Bulk Modulus (GPa) = 20.66088 24.10552 22.38320
# Shear Modulus (GPa) = 25.16098 30.74896 27.95497
#
# Velocity S-wave (km/s) = 3.26264 3.60678 3.43902
# Velocity P-wave (km/s) = 4.78895 5.24819 5.02382
#
# Compressibility (1/GPa) = 0.04840066
#
# Stress axis : x y z
#
# Youngs Moduli (GPa) = 83.50348 81.06808 33.31900
#
# Poissons Ratio (x) = -0.01596 0.01141
# Poissons Ratio (y) = -0.01644 0.09383
# Poissons Ratio (z) = 0.02860 0.22828
#
# Static dielectric constant tensor:
#      x y z
#    x 2.013330 0.000000 -0.014760 
#    y 0.000000 1.873960 0.000000 
#    z -0.014760 0.000000 1.948140 
# 
# From -- ./inp_files/19140.got.cif
#   From: 2010.05.17/outbox.cif.g08.bks.cpg/sg9_10_cif.got.tgz:19140.got - 2010.06.03 20:04:27.
