data_PCOD9137199
_publ_section_title
;
Structure prediction by ZEFSAII (Michael W. Deem and Ramdas Pophale) SiO2 
 PCOD9137199
Probable space group: C C
;
_chemical_formula_sum "Si O2"
_cell_formula_units_Z 32
_cell_length_a 27.839607
_cell_length_b 5.235846
_cell_length_c 12.545974
_cell_angle_alpha 90.000000
_cell_angle_beta 52.244754
_cell_angle_gamma 90.000000
_cell_volume 1445.871071
_symmetry_space_group_name_H-M "C C"
_symmetry_group_IT_number 9
_symmetry_cell_setting 'monoclinic'
loop_
_space_group_symop_operation_xyz
x,y,z
x,-y,1/2+z
1/2+x,1/2+y,z
1/2+x,1/2-y,1/2+z
loop_
_atom_site_type_symbol
_atom_site_label
_atom_site_fract_x
_atom_site_fract_y
_atom_site_fract_z
Si Si1 0.320060 0.818303 0.012040
Si Si2 0.755074 0.694498 0.939146
Si Si3 0.936762 0.396629 0.359939
Si Si4 0.478074 0.600883 0.491825
Si Si5 0.696367 0.638088 0.806910
Si Si6 0.037507 0.411647 0.854778
Si Si7 0.874875 0.082911 0.282571
Si Si8 0.662018 0.124784 0.735530
O O1 0.263755 0.820647 0.167389
O O2 0.349745 0.567268 0.920404
O O3 0.290297 0.970669 0.952811
O O4 0.376752 0.967103 0.987049
O O5 0.707296 0.597688 0.917085
O O6 0.811764 0.846994 0.811556
O O7 0.718809 0.858586 0.076876
O O8 0.995914 0.566172 0.304541
O O9 0.952710 0.146851 0.407001
O O10 0.915253 0.317651 0.272465
O O11 0.524560 0.364406 0.422394
O O12 0.421464 0.564127 0.645605
O O13 0.510268 0.870280 0.469966
O O14 0.663978 0.402269 0.790198
O O15 0.666070 0.908013 0.820606
O O16 0.104642 0.520856 0.746389
#
# Coordination Sequence:
#
# PCOD9137199 Si02
#       8
#     4   4   4   4   4   4   4   4
#     4  10  22  40  64 100 140 163 218 278 333 402
#     4  10  25  39  68  99 129 180 215 278 337 393
#     4   9  23  38  63  97 126 174 207 263 337 374
#     4  10  24  40  67  94 131 171 218 256 339 383
#     4  11  25  41  70  96 132 179 222 272 338 383
#     4  10  23  46  65  90 134 176 212 278 312 393
#     4  11  22  39  64  99 134 164 217 275 329 407
#     4  11  24  49  63  97 136 171 233 270 319 397
#
# _framework density 22.131986999999999
#
# number of rings (size 3 to 8) (size 9 to 14) (size 15 to 20)
#    0.750    1.000    1.250    1.500   10.500    0.000 
#    4.500    0.000    0.000    0.000    0.000    0.000 
#    0.000    0.000    0.000    0.000    0.000    0.000 
#
# Total GULP energy -89093.481743 kJ/mol
# GULP energy per Si atom -5568.342609 kJ/mol
# Density = 2.208161 g / cm^3
# Si number density = 22.131987 Si / 1000 Ang^3
#
#
#
# Elastic Constant Matrix: (Units=GPa)
#
#
# Indices 1 2 3 4 5 6 
#
# 1 98.8846 25.0986 4.2172 0.0000 -4.9904 0.0001
# 2 25.0986 99.3623 6.1343 0.0001 -2.6984 0.0001
# 3 4.2172 6.1343 18.4681 0.0000 -3.5714 0.0000
# 4 0.0000 0.0001 0.0000 16.4316 0.0000 -4.4474
# 5 -4.9904 -2.6984 -3.5714 0.0000 21.9767 0.0000
# 6 0.0001 0.0001 0.0000 -4.4474 0.0000 32.3292
#
#
#
# Elastic Compliance Matrix: (Units=1/GPa)
#
#
# Indices 1 2 3 4 5 6 
#
# 1 0.010933 -0.002632 -0.001244 0.000000 0.001957 0.000000
# 2 -0.002632 0.010920 -0.002976 0.000000 0.000260 0.000000
# 3 -0.001244 -0.002976 0.057089 0.000000 0.008629 0.000000
# 4 0.000000 0.000000 0.000000 0.063212 0.000000 0.008696
# 5 0.001957 0.000260 0.008629 0.000000 0.047381 0.000000
# 6 0.000000 0.000000 0.000000 0.008696 0.000000 0.032128
#
#
# Mechanical properties :
#
#
# Convention : Reuss Voigt Hill
#
# Bulk Modulus (GPa) = 15.32843 31.95725 23.64284
# Shear Modulus (GPa) = 19.44683 26.23182 22.83932
#
# Velocity S-wave (km/s) = 2.96746 3.44647 3.21590
# Velocity P-wave (km/s) = 4.32227 5.50530 4.94926
#
# Compressibility (1/GPa) = 0.06523824
#
# Stress axis : x y z
#
# Youngs Moduli (GPa) = 91.46981 91.57777 17.51659
#
# Poissons Ratio (x) = 0.24100 0.02179
# Poissons Ratio (y) = 0.24071 0.05213
# Poissons Ratio (z) = 0.11378 0.27253
#
# Static dielectric constant tensor:
#      x y z
#    x 1.869240 0.000000 -0.005840 
#    y 0.000000 1.878460 0.000000 
#    z -0.005840 0.000000 1.822840 
# 
# From -- ./inp_files/20570.got.cif
#   From: 2010.05.17/outbox.cif.g08.bks.cpg/sg9_11_cif.got.tgz:20570.got - 2010.06.03 20:04:27.
