data_PCOD9137696
_publ_section_title
;
Structure prediction by ZEFSAII (Michael W. Deem and Ramdas Pophale) SiO2 
 PCOD9137696
Probable space group: C C
;
_chemical_formula_sum "Si O2"
_cell_formula_units_Z 32
_cell_length_a 8.666874
_cell_length_b 16.746234
_cell_length_c 11.156710
_cell_angle_alpha 90.000000
_cell_angle_beta 108.637723
_cell_angle_gamma 90.000000
_cell_volume 1534.340254
_symmetry_space_group_name_H-M "C C"
_symmetry_group_IT_number 9
_symmetry_cell_setting 'monoclinic'
loop_
_space_group_symop_operation_xyz
x,y,z
x,-y,1/2+z
1/2+x,1/2+y,z
1/2+x,1/2-y,1/2+z
loop_
_atom_site_type_symbol
_atom_site_label
_atom_site_fract_x
_atom_site_fract_y
_atom_site_fract_z
Si Si1 0.276100 0.328786 0.413160
Si Si2 0.137600 0.122767 0.003496
Si Si3 0.710746 0.332750 0.035276
Si Si4 0.388914 0.015862 0.532931
Si Si5 0.326210 0.262928 0.161861
Si Si6 0.334584 0.629974 0.441110
Si Si7 0.081266 0.512496 0.833746
Si Si8 0.693384 0.722632 0.776299
O O1 0.447916 0.370956 0.489911
O O2 0.220491 0.256414 0.484525
O O3 0.303011 0.290278 0.290279
O O4 0.148914 0.398698 0.365120
O O5 0.163028 0.165382 0.881017
O O6 0.230242 0.182254 0.115419
O O7 0.229203 0.038882 0.017760
O O8 0.834566 0.392604 0.004786
O O9 0.767739 0.326189 0.186657
O O10 0.530763 0.372362 0.989113
O O11 0.498753 0.004034 0.681007
O O12 0.469448 0.996521 0.424717
O O13 0.517011 0.247987 0.187631
O O14 0.280045 0.332975 0.056513
O O15 0.229709 0.551955 0.383933
O O16 0.292985 0.700610 0.338570
#
# Coordination Sequence:
#
# PCOD9137696 Si02
#       8
#     4   4   4   4   4   4   4   4
#     4  11  26  42  67 102 139 177 233 281 347 411
#     4  10  22  43  71  94 136 181 230 276 350 402
#     4  11  26  42  67 102 139 177 233 281 347 411
#     4  12  28  46  71 103 142 181 233 289 346 410
#     4   9  20  40  69  98 133 176 225 282 336 406
#     4  10  22  43  71  94 136 181 230 276 350 402
#     4  12  28  46  71 103 142 181 233 289 346 410
#     4   9  20  40  69  98 133 176 225 282 336 406
#
# _framework density 20.855869999999999
#
# number of rings (size 3 to 8) (size 9 to 14) (size 15 to 20)
#    0.000    1.500    0.000    3.000   17.500    0.000 
#    0.000    2.500    0.000    0.000    0.000    0.000 
#    0.000    0.000    0.000    0.000    0.000    0.000 
#
# Total GULP energy -89342.691801 kJ/mol
# GULP energy per Si atom -5583.918238 kJ/mol
# Density = 2.080840 g / cm^3
# Si number density = 20.855870 Si / 1000 Ang^3
#
#
#
# Elastic Constant Matrix: (Units=GPa)
#
#
# Indices 1 2 3 4 5 6 
#
# 1 63.8069 22.1662 15.4434 0.0000 -3.4145 0.0000
# 2 22.1662 64.6006 18.8041 0.0000 11.0560 0.0000
# 3 15.4434 18.8041 60.6996 0.0000 10.4750 0.0000
# 4 0.0000 0.0000 0.0000 20.5537 0.0000 13.3245
# 5 -3.4145 11.0560 10.4750 0.0000 26.7198 0.0000
# 6 0.0000 0.0000 0.0000 13.3245 0.0000 34.3985
#
#
#
# Elastic Compliance Matrix: (Units=1/GPa)
#
#
# Indices 1 2 3 4 5 6 
#
# 1 0.019309 -0.006612 -0.004035 0.000000 0.006785 0.000000
# 2 -0.006612 0.020018 -0.003157 0.000000 -0.007890 0.000000
# 3 -0.004035 -0.003157 0.019674 0.000000 -0.006922 0.000000
# 4 0.000000 0.000000 0.000000 0.064967 0.000000 -0.025166
# 5 0.006785 -0.007890 -0.006922 0.000000 0.044271 0.000000
# 6 0.000000 0.000000 0.000000 -0.025166 0.000000 0.038819
#
#
# Mechanical properties :
#
#
# Convention : Reuss Voigt Hill
#
# Bulk Modulus (GPa) = 31.85608 33.54827 32.70218
# Shear Modulus (GPa) = 20.39722 25.18064 22.78893
#
# Velocity S-wave (km/s) = 3.13071 3.47849 3.30917
# Velocity P-wave (km/s) = 5.32691 5.67925 5.50590
#
# Compressibility (1/GPa) = 0.03139118
#
# Stress axis : x y z
#
# Youngs Moduli (GPa) = 51.78909 49.95513 50.82875
#
# Poissons Ratio (x) = 0.33031 0.20511
# Poissons Ratio (y) = 0.34244 0.16049
# Poissons Ratio (z) = 0.20898 0.15773
#
# Static dielectric constant tensor:
#      x y z
#    x 1.774720 0.000000 0.025270 
#    y 0.000000 1.726570 0.000000 
#    z 0.025270 0.000000 1.755920 
# 
# From -- ./inp_files/14581.got.cif
#   From: 2010.05.17/outbox.cif.g08.bks.cpg/sg9_8_cif.got.tgz:14581.got - 2010.06.03 20:04:27.
