data_PCOD9137982
_publ_section_title
;
Structure prediction by ZEFSAII (Michael W. Deem and Ramdas Pophale) SiO2 
 PCOD9137982
Probable space group: C C
;
_chemical_formula_sum "Si O2"
_cell_formula_units_Z 32
_cell_length_a 10.435567
_cell_length_b 13.528691
_cell_length_c 9.501269
_cell_angle_alpha 90.000000
_cell_angle_beta 74.948275
_cell_angle_gamma 90.000000
_cell_volume 1295.364456
_symmetry_space_group_name_H-M "C C"
_symmetry_group_IT_number 9
_symmetry_cell_setting 'monoclinic'
loop_
_space_group_symop_operation_xyz
x,y,z
x,-y,1/2+z
1/2+x,1/2+y,z
1/2+x,1/2-y,1/2+z
loop_
_atom_site_type_symbol
_atom_site_label
_atom_site_fract_x
_atom_site_fract_y
_atom_site_fract_z
Si Si1 0.808100 0.053245 0.845300
Si Si2 0.726260 0.710886 0.031636
Si Si3 0.629871 0.950595 0.671770
Si Si4 0.838764 0.558617 0.178967
Si Si5 0.181388 0.917701 0.014216
Si Si6 0.710649 0.250401 0.224116
Si Si7 0.465691 0.349996 0.762066
Si Si8 0.912345 0.152187 0.571132
O O1 0.877258 0.147485 0.748927
O O2 0.692578 0.020387 0.770728
O O3 0.908401 0.959150 0.812227
O O4 0.737556 0.063469 0.015648
O O5 0.844974 0.659803 0.087144
O O6 0.600469 0.667168 0.144472
O O7 0.763118 0.826031 0.047761
O O8 0.704817 0.690592 0.873312
O O9 0.485670 0.982537 0.661457
O O10 0.612042 0.842460 0.747840
O O11 0.754707 0.487532 0.103412
O O12 0.760636 0.575086 0.346462
O O13 0.187334 0.812410 0.091383
O O14 0.023862 0.936935 0.044268
O O15 0.856033 0.203482 0.198239
O O16 0.482208 0.299546 0.911136
#
# Coordination Sequence:
#
# PCOD9137982 Si02
#       8
#     4   4   4   4   4   4   4   4
#     4  11  23  43  73 103 146 187 242 302 362 446
#     4  11  24  45  71 101 147 190 240 310 362 445
#     4  11  25  45  71 110 145 194 247 302 375 435
#     4  12  26  44  72 100 149 192 251 305 367 440
#     4  12  26  45  68 105 142 196 246 306 364 443
#     4  10  26  43  70 104 145 188 247 304 373 432
#     4  10  22  46  69 105 141 190 237 300 368 434
#     4  11  24  41  72 102 139 185 244 295 369 431
#
# _framework density 24.703472999999999
#
# number of rings (size 3 to 8) (size 9 to 14) (size 15 to 20)
#    0.000    1.000    2.500    3.000    3.500    5.000 
#    0.000    0.000    0.000    0.000    0.000    0.000 
#    0.000    0.000    0.000    0.000    0.000    0.000 
#
# Total GULP energy -89096.647663 kJ/mol
# GULP energy per Si atom -5568.540479 kJ/mol
# Density = 2.464725 g / cm^3
# Si number density = 24.703473 Si / 1000 Ang^3
#
#
#
# Elastic Constant Matrix: (Units=GPa)
#
#
# Indices 1 2 3 4 5 6 
#
# 1 124.7151 9.6986 42.2208 0.0000 9.5875 0.0000
# 2 9.6986 43.9461 22.5487 0.0000 10.1504 0.0000
# 3 42.2208 22.5487 139.2257 0.0000 13.8983 0.0000
# 4 0.0000 0.0000 0.0000 40.0505 0.0000 2.3883
# 5 9.5875 10.1504 13.8983 0.0000 35.3935 0.0000
# 6 0.0000 0.0000 0.0000 2.3883 0.0000 16.0890
#
#
#
# Elastic Compliance Matrix: (Units=1/GPa)
#
#
# Indices 1 2 3 4 5 6 
#
# 1 0.009009 -0.000378 -0.002538 0.000000 -0.001336 0.000000
# 2 -0.000378 0.026017 -0.003502 0.000000 -0.005984 0.000000
# 3 -0.002538 -0.003502 0.008691 0.000000 -0.001721 0.000000
# 4 0.000000 0.000000 0.000000 0.025191 0.000000 -0.003739
# 5 -0.001336 -0.005984 -0.001721 0.000000 0.031008 0.000000
# 6 0.000000 0.000000 0.000000 -0.003739 0.000000 0.062709
#
#
# Mechanical properties :
#
#
# Convention : Reuss Voigt Hill
#
# Bulk Modulus (GPa) = 32.37969 50.75811 41.56890
# Shear Modulus (GPa) = 26.91714 33.86786 30.39250
#
# Velocity S-wave (km/s) = 3.30450 3.70669 3.51136
# Velocity P-wave (km/s) = 5.26265 6.23786 5.77089
#
# Compressibility (1/GPa) = 0.03088356
#
# Stress axis : x y z
#
# Youngs Moduli (GPa) = 110.99499 38.43572 115.06043
#
# Poissons Ratio (x) = 0.01452 0.29198
# Poissons Ratio (y) = 0.04193 0.40292
# Poissons Ratio (z) = 0.28166 0.13459
#
# Static dielectric constant tensor:
#      x y z
#    x 2.028220 0.000000 0.028330 
#    y 0.000000 2.406860 0.000000 
#    z 0.028330 0.000000 1.984240 
# 
# From -- ./inp_files/7614.got.cif
#   From: 2010.05.17/outbox.cif.g08.bks.cpg/sg9_4_cif.got.tgz:7614.got - 2010.06.03 20:04:27.
