data_PCOD9137582
_publ_section_title
;
Structure prediction by ZEFSAII (Michael W. Deem and Ramdas Pophale) SiO2 
 PCOD9137582
Probable space group: C C
;
_chemical_formula_sum "Si O2"
_cell_formula_units_Z 28
_cell_length_a 9.393021
_cell_length_b 7.269714
_cell_length_c 23.571859
_cell_angle_alpha 90.000000
_cell_angle_beta 134.798322
_cell_angle_gamma 90.000000
_cell_volume 1142.154302
_symmetry_space_group_name_H-M "C C"
_symmetry_group_IT_number 9
_symmetry_cell_setting 'monoclinic'
loop_
_space_group_symop_operation_xyz
x,y,z
x,-y,1/2+z
1/2+x,1/2+y,z
1/2+x,1/2-y,1/2+z
loop_
_atom_site_type_symbol
_atom_site_label
_atom_site_fract_x
_atom_site_fract_y
_atom_site_fract_z
Si Si1 0.019540 0.711120 0.198000
Si Si2 0.422063 0.630548 0.153878
Si Si3 0.953828 0.849337 0.791160
Si Si4 0.230576 0.858549 0.519679
Si Si5 0.392659 0.907584 0.904774
Si Si6 0.507080 0.732587 0.488217
Si Si7 0.854529 0.718752 0.265114
O O1 0.255495 0.740540 0.259388
O O2 0.903522 0.603905 0.115385
O O3 0.983286 0.634867 0.250479
O O4 0.924877 0.912500 0.164020
O O5 0.446112 0.709031 0.223463
O O6 0.221021 0.694591 0.069261
O O7 0.626440 0.688220 0.180794
O O8 0.184693 0.834203 0.873583
O O9 0.906048 0.066586 0.783149
O O10 0.354048 0.777486 0.498887
O O11 0.075343 0.693058 0.486925
O O12 0.074777 0.035148 0.479713
O O13 0.391138 0.859935 0.837724
O O14 0.417859 0.125272 0.917998
#
# Coordination Sequence:
#
# PCOD9137582 Si02
#       7
#     4   4   4   4   4   4   4
#     4  11  23  44  82 112 145 205 269 327 400 487
#     4  10  22  42  76 108 150 193 263 323 392 477
#     4  10  22  48  70 108 151 196 256 325 394 487
#     4  12  28  50  84 115 158 213 275 338 416 491
#     4  11  26  53  74 113 162 207 261 337 420 482
#     4  12  27  51  79 117 159 208 273 344 405 504
#     4  10  24  46  73 113 147 204 259 324 399 496
#
# _framework density 24.515076000000001
#
# number of rings (size 3 to 8) (size 9 to 14) (size 15 to 20)
#    0.000    1.143    2.857    1.714    4.000    3.429 
#   33.429    0.000    0.000    0.000    0.000    0.000 
#    0.000    0.000    0.000    0.000    0.000    0.000 
#
# Total GULP energy -78161.607853 kJ/mol
# GULP energy per Si atom -5582.971989 kJ/mol
# Density = 2.445928 g / cm^3
# Si number density = 24.515076 Si / 1000 Ang^3
#
#
#
# Elastic Constant Matrix: (Units=GPa)
#
#
# Indices 1 2 3 4 5 6 
#
# 1 117.0220 7.4178 31.5720 0.0000 19.9707 0.0000
# 2 7.4178 94.4640 7.1689 0.0000 -3.8342 0.0000
# 3 31.5720 7.1689 112.1599 0.0000 25.9515 0.0000
# 4 0.0000 0.0000 0.0000 43.1841 0.0000 10.0902
# 5 19.9707 -3.8342 25.9515 0.0000 35.7189 0.0000
# 6 0.0000 0.0000 0.0000 10.0902 0.0000 26.2484
#
#
#
# Elastic Compliance Matrix: (Units=1/GPa)
#
#
# Indices 1 2 3 4 5 6 
#
# 1 0.009795 -0.000815 -0.001704 0.000000 -0.004326 0.000000
# 2 -0.000815 0.010822 -0.001005 0.000000 0.002348 0.000000
# 3 -0.001704 -0.001005 0.011136 0.000000 -0.007246 0.000000
# 4 0.000000 0.000000 0.000000 0.025442 0.000000 -0.009780
# 5 -0.004326 0.002348 -0.007246 0.000000 0.035932 0.000000
# 6 0.000000 0.000000 0.000000 -0.009780 0.000000 0.041857
#
#
# Mechanical properties :
#
#
# Convention : Reuss Voigt Hill
#
# Bulk Modulus (GPa) = 40.48068 46.21814 43.34941
# Shear Modulus (GPa) = 33.27376 39.52944 36.40160
#
# Velocity S-wave (km/s) = 3.68812 4.01989 3.85758
# Velocity P-wave (km/s) = 5.88937 6.35924 6.12881
#
# Compressibility (1/GPa) = 0.02470314
#
# Stress axis : x y z
#
# Youngs Moduli (GPa) = 102.09169 92.40711 89.79516
#
# Poissons Ratio (x) = 0.07535 0.15303
# Poissons Ratio (y) = 0.08325 0.09028
# Poissons Ratio (z) = 0.17399 0.09291
#
# Static dielectric constant tensor:
#      x y z
#    x 2.038300 0.000000 -0.011550 
#    y 0.000000 2.007810 0.000000 
#    z -0.011550 0.000000 1.908190 
# 
# From -- ./inp_files/28939.got.cif
#   From: 2010.05.17/outbox.cif.g08.bks.cpg/sg9_15_cif.got.tgz:28939.got - 2010.06.03 20:04:27.
