data_PCOD9137053
_publ_section_title
;
Structure prediction by ZEFSAII (Michael W. Deem and Ramdas Pophale) SiO2 
 PCOD9137053
Probable space group: C C
;
_chemical_formula_sum "Si O2"
_cell_formula_units_Z 32
_cell_length_a 12.285214
_cell_length_b 7.764341
_cell_length_c 19.596260
_cell_angle_alpha 90.000000
_cell_angle_beta 38.771437
_cell_angle_gamma 90.000000
_cell_volume 1170.534283
_symmetry_space_group_name_H-M "C C"
_symmetry_group_IT_number 9
_symmetry_cell_setting 'monoclinic'
loop_
_space_group_symop_operation_xyz
x,y,z
x,-y,1/2+z
1/2+x,1/2+y,z
1/2+x,1/2-y,1/2+z
loop_
_atom_site_type_symbol
_atom_site_label
_atom_site_fract_x
_atom_site_fract_y
_atom_site_fract_z
Si Si1 0.112790 0.138556 0.142100
Si Si2 0.290398 0.509129 0.582987
Si Si3 0.499915 0.192524 0.136172
Si Si4 0.508508 0.250810 0.426591
Si Si5 0.499273 0.146418 0.579423
Si Si6 0.705560 0.940983 0.281650
Si Si7 0.392031 0.264590 0.870988
Si Si8 0.761631 0.590002 0.453085
O O1 0.247979 0.291724 0.089952
O O2 0.985705 0.215456 0.145936
O O3 0.207693 0.989227 0.054449
O O4 0.005500 0.125580 0.263232
O O5 0.140339 0.390415 0.619700
O O6 0.471141 0.452671 0.458103
O O7 0.263012 0.501869 0.677418
O O8 0.359835 0.322239 0.235250
O O9 0.597520 0.287215 0.024663
O O10 0.409929 0.026687 0.147550
O O11 0.432375 0.199292 0.538742
O O12 0.658510 0.108202 0.348514
O O13 0.420791 0.209555 0.396283
O O14 0.712469 0.133702 0.472367
O O15 0.533477 0.821422 0.353510
O O16 0.309085 0.076533 0.885208
#
# Coordination Sequence:
#
# PCOD9137053 Si02
#       8
#     4   4   4   4   4   4   4   4
#     4   9  19  39  64  85 121 171 213 257 339 383
#     4   9  21  42  65  92 138 169 216 282 334 399
#     4  10  22  42  64  95 128 179 220 273 332 398
#     4  10  22  39  60  98 127 167 216 267 333 398
#     4  10  22  38  62  93 132 160 223 266 326 399
#     4  10  22  42  71  93 132 175 223 269 337 399
#     4   9  20  39  63  85 123 171 209 270 331 395
#     4   9  20  39  61  85 131 166 208 276 328 385
#
# _framework density 27.337944
#
# number of rings (size 3 to 8) (size 9 to 14) (size 15 to 20)
#    0.000    2.500    0.000    0.000    8.750    0.000 
#   13.500    1.250   33.000    0.000    0.000    0.000 
#    0.000    0.000    0.000    0.000    0.000    0.000 
#
# Total GULP energy -89161.885630 kJ/mol
# GULP energy per Si atom -5572.617852 kJ/mol
# Density = 2.727572 g / cm^3
# Si number density = 27.337944 Si / 1000 Ang^3
#
#
#
# Elastic Constant Matrix: (Units=GPa)
#
#
# Indices 1 2 3 4 5 6 
#
# 1 73.8497 14.1085 15.5144 0.0000 -9.8946 0.0000
# 2 14.1085 77.1832 17.5812 0.0000 -4.5998 0.0000
# 3 15.5144 17.5812 89.3733 0.0000 -5.2146 0.0000
# 4 0.0000 0.0000 0.0000 52.6849 0.0000 -4.5393
# 5 -9.8946 -4.5998 -5.2146 0.0000 45.2523 0.0000
# 6 0.0000 0.0000 0.0000 -4.5393 0.0000 26.0946
#
#
#
# Elastic Compliance Matrix: (Units=1/GPa)
#
#
# Indices 1 2 3 4 5 6 
#
# 1 0.014727 -0.002074 -0.001986 0.000000 0.002780 0.000000
# 2 -0.002074 0.013908 -0.002336 0.000000 0.000691 0.000000
# 3 -0.001986 -0.002336 0.012035 0.000000 0.000715 0.000000
# 4 0.000000 0.000000 0.000000 0.019270 0.000000 0.003352
# 5 0.002780 0.000691 0.000715 0.000000 0.022859 0.000000
# 6 0.000000 0.000000 0.000000 0.003352 0.000000 0.038905
#
#
# Mechanical properties :
#
#
# Convention : Reuss Voigt Hill
#
# Bulk Modulus (GPa) = 35.86946 37.20162 36.53554
# Shear Modulus (GPa) = 34.77321 37.68650 36.22986
#
# Velocity S-wave (km/s) = 3.57035 3.71690 3.64436
# Velocity P-wave (km/s) = 5.49051 5.66198 5.57691
#
# Compressibility (1/GPa) = 0.02787887
#
# Stress axis : x y z
#
# Youngs Moduli (GPa) = 67.90237 71.89850 83.09082
#
# Poissons Ratio (x) = 0.14911 0.16504
# Poissons Ratio (y) = 0.14082 0.19408
# Poissons Ratio (z) = 0.13487 0.16793
#
# Static dielectric constant tensor:
#      x y z
#    x 2.243110 0.000000 -0.077140 
#    y 0.000000 2.197620 0.000000 
#    z -0.077140 0.000000 2.242820 
# 
# From -- ./inp_files/25531.got.cif
#   From: 2010.05.17/outbox.cif.g08.bks.cpg/sg9_13_cif.got.tgz:25531.got - 2010.06.03 20:04:27.
