data_PCOD9137419
_publ_section_title
;
Structure prediction by ZEFSAII (Michael W. Deem and Ramdas Pophale) SiO2 
 PCOD9137419
Probable space group: C C
;
_chemical_formula_sum "Si O2"
_cell_formula_units_Z 32
_cell_length_a 22.318762
_cell_length_b 8.761711
_cell_length_c 9.015375
_cell_angle_alpha 90.000000
_cell_angle_beta 52.206442
_cell_angle_gamma 90.000000
_cell_volume 1393.134324
_symmetry_space_group_name_H-M "C C"
_symmetry_group_IT_number 9
_symmetry_cell_setting 'monoclinic'
loop_
_space_group_symop_operation_xyz
x,y,z
x,-y,1/2+z
1/2+x,1/2+y,z
1/2+x,1/2-y,1/2+z
loop_
_atom_site_type_symbol
_atom_site_label
_atom_site_fract_x
_atom_site_fract_y
_atom_site_fract_z
Si Si1 0.596870 0.681009 0.161240
Si Si2 0.688629 0.842677 0.783128
Si Si3 0.392514 0.945278 0.663615
Si Si4 0.945300 0.085308 0.061332
Si Si5 0.093136 0.830334 0.210220
Si Si6 0.069129 0.380396 0.474528
Si Si7 0.427767 0.298685 0.897441
Si Si8 0.848258 0.718044 0.531383
O O1 0.601197 0.499434 0.130341
O O2 0.595892 0.738358 0.331721
O O3 0.514965 0.747933 0.237422
O O4 0.662893 0.761491 0.972755
O O5 0.666529 0.733688 0.679721
O O6 0.778928 0.837174 0.645252
O O7 0.635076 0.992125 0.856993
O O8 0.484643 0.944208 0.558170
O O9 0.382196 0.840362 0.532830
O O10 0.355002 0.871902 0.866575
O O11 0.356311 0.102581 0.660143
O O12 0.905011 0.126921 0.276023
O O13 0.919869 0.175657 0.953144
O O14 0.032842 0.131779 0.931035
O O15 0.933525 0.913170 0.028438
O O16 0.067486 0.695348 0.139375
#
# Coordination Sequence:
#
# PCOD9137419 Si02
#       8
#     4   4   4   4   4   4   4   4
#     4  10  23  41  71 106 133 186 244 301 375 435
#     4  12  26  44  65 103 148 189 242 311 380 447
#     4  11  25  46  75 106 140 198 254 309 380 450
#     4  11  21  43  68 106 140 185 238 305 371 445
#     4  11  22  43  74  99 142 183 250 312 362 452
#     4  11  24  45  76 108 139 197 260 314 364 458
#     4  10  22  41  75 102 136 181 248 305 359 441
#     4  12  27  45  68 104 152 191 242 313 385 454
#
# _framework density 22.969785999999999
#
# number of rings (size 3 to 8) (size 9 to 14) (size 15 to 20)
#    0.000    1.000    2.500    3.750   12.250    0.000 
#    9.000    0.000    0.000    0.000    0.000    0.000 
#    0.000    0.000    0.000    0.000    0.000    0.000 
#
# Total GULP energy -89216.102785 kJ/mol
# GULP energy per Si atom -5576.006424 kJ/mol
# Density = 2.291751 g / cm^3
# Si number density = 22.969786 Si / 1000 Ang^3
#
#
#
# Elastic Constant Matrix: (Units=GPa)
#
#
# Indices 1 2 3 4 5 6 
#
# 1 48.2426 14.0251 23.9610 0.0000 -2.3648 0.0000
# 2 14.0251 73.3616 27.2917 0.0000 -2.7304 0.0000
# 3 23.9610 27.2917 82.3905 0.0000 11.6921 0.0000
# 4 0.0000 0.0000 0.0000 26.6682 0.0000 -0.3623
# 5 -2.3648 -2.7304 11.6921 0.0000 29.9411 0.0000
# 6 0.0000 0.0000 0.0000 -0.3623 0.0000 7.4676
#
#
#
# Elastic Compliance Matrix: (Units=1/GPa)
#
#
# Indices 1 2 3 4 5 6 
#
# 1 0.025163 -0.001901 -0.007353 0.000000 0.004686 0.000000
# 2 -0.001901 0.016072 -0.005249 0.000000 0.003365 0.000000
# 3 -0.007353 -0.005249 0.017113 0.000000 -0.007742 0.000000
# 4 0.000000 0.000000 0.000000 0.037523 0.000000 0.001821
# 5 0.004686 0.003365 -0.007742 0.000000 0.037099 0.000000
# 6 0.000000 0.000000 0.000000 0.001821 0.000000 0.134001
#
#
# Mechanical properties :
#
#
# Convention : Reuss Voigt Hill
#
# Bulk Modulus (GPa) = 34.07957 37.17226 35.62592
# Shear Modulus (GPa) = 16.35282 22.06317 19.20800
#
# Velocity S-wave (km/s) = 2.67109 3.10260 2.89490
# Velocity P-wave (km/s) = 4.93780 5.39009 5.16890
#
# Compressibility (1/GPa) = 0.02934309
#
# Stress axis : x y z
#
# Youngs Moduli (GPa) = 39.74088 62.21864 58.43453
#
# Poissons Ratio (x) = 0.11826 0.42969
# Poissons Ratio (y) = 0.07553 0.30671
# Poissons Ratio (z) = 0.29223 0.32657
#
# Static dielectric constant tensor:
#      x y z
#    x 1.863800 0.000000 0.038840 
#    y 0.000000 1.995290 0.000000 
#    z 0.038840 0.000000 1.838750 
# 
# From -- ./inp_files/12056.got.cif
#   From: 2010.05.17/outbox.cif.g08.bks.cpg/sg9_7_cif.got.tgz:12056.got - 2010.06.03 20:04:27.
