data_PCOD9137959
_publ_section_title
;
Structure prediction by ZEFSAII (Michael W. Deem and Ramdas Pophale) SiO2 
 PCOD9137959
Probable space group: C C
;
_chemical_formula_sum "Si O2"
_cell_formula_units_Z 32
_cell_length_a 9.150173
_cell_length_b 9.655188
_cell_length_c 13.889641
_cell_angle_alpha 90.000000
_cell_angle_beta 98.292898
_cell_angle_gamma 90.000000
_cell_volume 1214.272132
_symmetry_space_group_name_H-M "C C"
_symmetry_group_IT_number 9
_symmetry_cell_setting 'monoclinic'
loop_
_space_group_symop_operation_xyz
x,y,z
x,-y,1/2+z
1/2+x,1/2+y,z
1/2+x,1/2-y,1/2+z
loop_
_atom_site_type_symbol
_atom_site_label
_atom_site_fract_x
_atom_site_fract_y
_atom_site_fract_z
Si Si1 0.843350 0.734898 0.780920
Si Si2 0.678817 0.458545 0.981147
Si Si3 0.133098 0.642615 0.910352
Si Si4 0.343366 0.295419 0.280835
Si Si5 0.616938 0.745027 0.916753
Si Si6 0.570114 0.246784 0.645298
Si Si7 0.053246 0.144870 0.650389
Si Si8 0.507789 0.039267 0.079694
O O1 0.755754 0.799504 0.866436
O O2 0.712070 0.654033 0.715316
O O3 0.974045 0.652150 0.845742
O O4 0.931482 0.800677 0.696058
O O5 0.569341 0.454708 0.062130
O O6 0.843318 0.498736 0.030499
O O7 0.671516 0.301442 0.944115
O O8 0.629022 0.577371 0.904598
O O9 0.262835 0.610503 0.850703
O O10 0.117192 0.542980 0.998637
O O11 0.469191 0.208394 0.347614
O O12 0.217823 0.207207 0.214692
O O13 0.423632 0.387907 0.209955
O O14 0.593580 0.748758 0.031038
O O15 0.557809 0.079038 0.656585
O O16 0.014877 0.303609 0.616622
#
# Coordination Sequence:
#
# PCOD9137959 Si02
#       8
#     4   4   4   4   4   4   4   4
#     4  10  22  46  66 100 138 182 242 284 348 436
#     4  11  22  42  72  93 131 186 233 285 355 419
#     4  10  23  43  68  99 132 179 237 285 353 420
#     4  10  24  44  62 106 140 172 234 294 352 420
#     4  11  24  45  68 100 143 183 233 296 357 419
#     4  11  24  45  68 100 143 183 233 296 357 419
#     4  10  23  43  68  99 132 179 237 285 353 420
#     4  11  22  42  72  93 131 186 233 285 355 419
#
# _framework density 26.353237
#
# number of rings (size 3 to 8) (size 9 to 14) (size 15 to 20)
#    0.000    1.500    2.500    1.500    3.500    3.000 
#   18.000    0.000    0.000    0.000    0.000    0.000 
#    0.000    0.000    0.000    0.000    0.000    0.000 
#
# Total GULP energy -89382.336034 kJ/mol
# GULP energy per Si atom -5586.396002 kJ/mol
# Density = 2.629326 g / cm^3
# Si number density = 26.353237 Si / 1000 Ang^3
#
#
#
# Elastic Constant Matrix: (Units=GPa)
#
#
# Indices 1 2 3 4 5 6 
#
# 1 176.9338 18.1471 73.7088 0.0000 -38.4705 0.0000
# 2 18.1471 114.5858 32.2337 0.0000 -4.6321 0.0000
# 3 73.7088 32.2337 169.5352 0.0000 -49.9971 0.0000
# 4 0.0000 0.0000 0.0000 30.5966 0.0000 -7.5773
# 5 -38.4705 -4.6321 -49.9971 0.0000 80.8915 0.0000
# 6 0.0000 0.0000 0.0000 -7.5773 0.0000 1.7431
#
#
#
# Elastic Compliance Matrix: (Units=1/GPa)
#
#
# Indices 1 2 3 4 5 6 
#
# 1 0.007123 -0.000354 -0.002491 0.000000 0.001828 0.000000
# 2 -0.000354 0.009268 -0.001836 0.000000 -0.000772 0.000000
# 3 -0.002491 -0.001836 0.008499 0.000000 0.003964 0.000000
# 4 0.000000 0.000000 0.000000 -0.426932 0.000000 -1.855881
# 5 0.001828 -0.000772 0.003964 0.000000 0.015637 0.000000
# 6 0.000000 0.000000 0.000000 -1.855881 0.000000 -7.493870
#
#
# Mechanical properties :
#
#
# Convention : Reuss Voigt Hill
#
# Bulk Modulus (GPa) = 64.39150 78.80379 71.59765
# Shear Modulus (GPa) = -0.63567 45.11060 22.23747
#
# Velocity S-wave (km/s) = -0.49166 4.14184 2.90801
# Velocity P-wave (km/s) = 4.91576 7.26918 6.20506
#
# Compressibility (1/GPa) = 0.01553000
#
# Stress axis : x y z
#
# Youngs Moduli (GPa) = 140.38808 107.89346 117.65623
#
# Poissons Ratio (x) = 0.03815 0.29303
# Poissons Ratio (y) = 0.04964 0.21605
# Poissons Ratio (z) = 0.34965 0.19812
#
# Static dielectric constant tensor:
#      x y z
#    x 2.043340 0.000000 -0.055830 
#    y 0.000000 2.055470 0.000000 
#    z -0.055830 0.000000 2.150160 
# 
# From -- ./inp_files/22756.got.cif
#   From: 2010.05.17/outbox.cif.g08.bks.cpg/sg9_12_cif.got.tgz:22756.got - 2010.06.03 20:04:27.
