data_PCOD9138427
_publ_section_title
;
Structure prediction by ZEFSAII (Michael W. Deem and Ramdas Pophale) SiO2 
 PCOD9138427
Probable space group: C C
;
_chemical_formula_sum "Si O2"
_cell_formula_units_Z 32
_cell_length_a 11.115602
_cell_length_b 8.797609
_cell_length_c 26.350163
_cell_angle_alpha 90.000000
_cell_angle_beta 29.793409
_cell_angle_gamma 90.000000
_cell_volume 1280.345974
_symmetry_space_group_name_H-M "C C"
_symmetry_group_IT_number 9
_symmetry_cell_setting 'monoclinic'
loop_
_space_group_symop_operation_xyz
x,y,z
x,-y,1/2+z
1/2+x,1/2+y,z
1/2+x,1/2-y,1/2+z
loop_
_atom_site_type_symbol
_atom_site_label
_atom_site_fract_x
_atom_site_fract_y
_atom_site_fract_z
Si Si1 0.142880 0.675151 0.572910
Si Si2 0.155398 0.300608 0.396707
Si Si3 0.830718 0.158538 0.112620
Si Si4 0.116502 0.235318 0.196590
Si Si5 0.600138 0.394231 0.044977
Si Si6 0.353384 0.604188 0.931836
Si Si7 0.825737 0.484522 0.313811
Si Si8 0.049065 0.913016 0.176963
O O1 0.373708 0.791379 0.485091
O O2 0.091999 0.681497 0.650944
O O3 0.212334 0.514587 0.520904
O O4 0.906701 0.736910 0.631659
O O5 0.244076 0.394638 0.414026
O O6 0.310311 0.344626 0.290585
O O7 0.207537 0.122830 0.388419
O O8 0.756838 0.284025 0.099034
O O9 0.045275 0.037831 0.028869
O O10 0.587994 0.063095 0.209325
O O11 0.383809 0.273005 0.116537
O O12 0.906855 0.319111 0.305402
O O13 0.100350 0.058442 0.192533
O O14 0.533982 0.458915 0.124525
O O15 0.829944 0.283802 0.955603
O O16 0.629229 0.548082 0.840927
#
# Coordination Sequence:
#
# PCOD9138427 Si02
#       8
#     4   4   4   4   4   4   4   4
#     4  11  23  43  71 105 144 190 249 306 366 451
#     4  10  24  45  66 107 147 185 246 312 374 437
#     4  10  23  43  69 103 145 188 247 301 366 444
#     4  11  23  44  71 104 140 192 247 295 369 448
#     4  11  24  43  70 104 140 192 244 298 365 446
#     4  11  24  43  73 109 149 193 247 314 376 435
#     4   9  24  41  69 104 144 191 237 302 368 438
#     4  11  25  44  71 102 141 197 239 300 374 443
#
# _framework density 24.993244000000001
#
# number of rings (size 3 to 8) (size 9 to 14) (size 15 to 20)
#    0.000    1.500    2.500    0.750    8.750    4.000 
#    0.000    3.750    0.000    0.000    0.000    0.000 
#    0.000    0.000    0.000    0.000    0.000    0.000 
#
# Total GULP energy -89165.740643 kJ/mol
# GULP energy per Si atom -5572.858790 kJ/mol
# Density = 2.493636 g / cm^3
# Si number density = 24.993244 Si / 1000 Ang^3
#
#
#
# Elastic Constant Matrix: (Units=GPa)
#
#
# Indices 1 2 3 4 5 6 
#
# 1 48.3307 24.2120 34.9040 0.0004 -18.3226 0.0001
# 2 24.2120 129.3522 45.4775 -0.0011 -12.2456 0.0003
# 3 34.9040 45.4775 59.9595 -0.0010 -5.8350 0.0009
# 4 0.0004 -0.0011 -0.0010 48.7845 -0.0015 -7.1594
# 5 -18.3226 -12.2456 -5.8350 -0.0015 34.0204 -0.0005
# 6 0.0001 0.0003 0.0009 -7.1594 -0.0005 47.9603
#
#
#
# Elastic Compliance Matrix: (Units=1/GPa)
#
#
# Indices 1 2 3 4 5 6 
#
# 1 0.047626 0.002944 -0.027822 0.000000 0.021938 0.000001
# 2 0.002944 0.010931 -0.009628 0.000000 0.003869 0.000000
# 3 -0.027822 -0.009628 0.039033 0.000000 -0.011755 -0.000001
# 4 0.000000 0.000000 0.000000 0.020957 0.000001 0.003128
# 5 0.021938 0.003869 -0.011755 0.000001 0.040586 0.000001
# 6 0.000001 0.000000 -0.000001 0.003128 0.000001 0.021318
#
#
# Mechanical properties :
#
#
# Convention : Reuss Voigt Hill
#
# Bulk Modulus (GPa) = 34.99351 49.64772 42.32061
# Shear Modulus (GPa) = 19.30586 35.02294 27.16440
#
# Velocity S-wave (km/s) = 2.78230 3.74745 3.30035
# Velocity P-wave (km/s) = 4.93489 6.21547 5.61183
#
# Compressibility (1/GPa) = 0.02857673
#
# Stress axis : x y z
#
# Youngs Moduli (GPa) = 20.99703 91.48203 25.61958
#
# Poissons Ratio (x) = -0.26932 0.71279
# Poissons Ratio (y) = -0.06181 0.24667
# Poissons Ratio (z) = 0.58418 0.88081
#
# Static dielectric constant tensor:
#      x y z
#    x 1.984220 0.000000 0.030650 
#    y 0.000000 2.081450 0.000000 
#    z 0.030650 0.000000 2.075300 
# 
# From -- ./inp_files/33215.got.cif
#   From: 2010.05.17/outbox.cif.g08.bks.cpg/sg9_17_cif.got.tgz:33215.got - 2010.06.03 20:04:27.
