data_PCOD9138431
_publ_section_title
;
Structure prediction by ZEFSAII (Michael W. Deem and Ramdas Pophale) SiO2 
 PCOD9138431
Probable space group: C C
;
_chemical_formula_sum "Si O2"
_cell_formula_units_Z 32
_cell_length_a 24.401598
_cell_length_b 8.613602
_cell_length_c 10.061153
_cell_angle_alpha 90.000000
_cell_angle_beta 51.194545
_cell_angle_gamma 90.000000
_cell_volume 1647.947635
_symmetry_space_group_name_H-M "C C"
_symmetry_group_IT_number 9
_symmetry_cell_setting 'monoclinic'
loop_
_space_group_symop_operation_xyz
x,y,z
x,-y,1/2+z
1/2+x,1/2+y,z
1/2+x,1/2-y,1/2+z
loop_
_atom_site_type_symbol
_atom_site_label
_atom_site_fract_x
_atom_site_fract_y
_atom_site_fract_z
Si Si1 0.585030 0.384346 0.341470
Si Si2 0.218296 0.342597 0.630992
Si Si3 0.408331 0.671850 0.478307
Si Si4 0.436037 0.304475 0.459218
Si Si5 0.066970 0.831852 0.674023
Si Si6 0.333091 0.816915 0.343957
Si Si7 0.862054 0.319295 0.827719
Si Si8 0.700626 0.127478 0.460950
O O1 0.655053 0.282324 0.217796
O O2 0.516085 0.299468 0.387411
O O3 0.571721 0.407471 0.519339
O O4 0.588104 0.543671 0.254324
O O5 0.292538 0.262700 0.490067
O O6 0.209343 0.478804 0.539155
O O7 0.216823 0.407843 0.782774
O O8 0.414436 0.485092 0.473142
O O9 0.487718 0.723095 0.321560
O O10 0.356498 0.730369 0.442717
O O11 0.384113 0.742121 0.655089
O O12 0.385395 0.237306 0.648524
O O13 0.422746 0.213478 0.343149
O O14 0.122298 0.693331 0.590650
O O15 0.255279 0.761151 0.423128
O O16 0.343454 0.000256 0.342650
#
# Coordination Sequence:
#
# PCOD9138431 Si02
#       8
#     4   4   4   4   4   4   4   4
#     4  10  23  43  69  94 131 168 217 268 323 389
#     4  11  25  45  64  96 130 174 219 268 327 385
#     4  11  24  42  70  97 131 174 216 262 328 386
#     4  11  22  44  66  98 131 171 217 265 322 388
#     4  10  23  44  66  97 129 171 215 267 325 385
#     4  12  24  43  65  98 133 170 218 271 322 385
#     4  12  26  41  67  99 131 175 216 268 326 383
#     4  11  25  44  67  93 132 171 220 271 323 391
#
# _framework density 19.418092999999999
#
# number of rings (size 3 to 8) (size 9 to 14) (size 15 to 20)
#    0.000    1.000    2.500    3.750    7.000    3.000 
#    0.000    0.000    0.000    0.000    0.000    0.000 
#    0.000    0.000    0.000    0.000    0.000    0.000 
#
# Total GULP energy -89497.865812 kJ/mol
# GULP energy per Si atom -5593.616613 kJ/mol
# Density = 1.937390 g / cm^3
# Si number density = 19.418093 Si / 1000 Ang^3
#
#
#
# Elastic Constant Matrix: (Units=GPa)
#
#
# Indices 1 2 3 4 5 6 
#
# 1 66.2446 3.8405 30.7423 0.0000 4.0313 0.0000
# 2 3.8405 36.9784 17.4103 0.0000 -3.3559 0.0000
# 3 30.7423 17.4103 109.4749 0.0000 2.7043 0.0000
# 4 0.0000 0.0000 0.0000 15.4760 0.0000 -3.7654
# 5 4.0313 -3.3559 2.7043 0.0000 34.2174 0.0000
# 6 0.0000 0.0000 0.0000 -3.7654 0.0000 12.5382
#
#
#
# Elastic Compliance Matrix: (Units=1/GPa)
#
#
# Indices 1 2 3 4 5 6 
#
# 1 0.017457 0.000354 -0.004918 0.000000 -0.001633 0.000000
# 2 0.000354 0.029602 -0.004887 0.000000 0.003248 0.000000
# 3 -0.004918 -0.004887 0.011313 0.000000 -0.000794 0.000000
# 4 0.000000 0.000000 0.000000 0.069710 0.000000 0.020935
# 5 -0.001633 0.003248 -0.000794 0.000000 0.029799 0.000000
# 6 0.000000 0.000000 0.000000 0.020935 0.000000 0.086043
#
#
# Mechanical properties :
#
#
# Convention : Reuss Voigt Hill
#
# Bulk Modulus (GPa) = 25.33660 35.18714 30.26187
# Shear Modulus (GPa) = 18.11717 23.15999 20.63858
#
# Velocity S-wave (km/s) = 3.05783 3.45730 3.26368
# Velocity P-wave (km/s) = 5.05404 5.83929 5.46080
#
# Compressibility (1/GPa) = 0.03946859
#
# Stress axis : x y z
#
# Youngs Moduli (GPa) = 57.28428 33.78167 88.39773
#
# Poissons Ratio (x) = -0.01197 0.43475
# Poissons Ratio (y) = -0.02030 0.43204
# Poissons Ratio (z) = 0.28173 0.16511
#
# Static dielectric constant tensor:
#      x y z
#    x 1.681490 0.000000 0.007790 
#    y 0.000000 1.649220 0.000000 
#    z 0.007790 0.000000 1.655590 
# 
# From -- ./inp_files/11339.got.cif
#   From: 2010.05.17/outbox.cif.g08.bks.cpg/sg9_6_cif.got.tgz:11339.got - 2010.06.03 20:04:27.
