data_PCOD9138111
_publ_section_title
;
Structure prediction by ZEFSAII (Michael W. Deem and Ramdas Pophale) SiO2 
 PCOD9138111
Probable space group: C C
;
_chemical_formula_sum "Si O2"
_cell_formula_units_Z 28
_cell_length_a 11.349577
_cell_length_b 7.353991
_cell_length_c 14.186057
_cell_angle_alpha 90.000000
_cell_angle_beta 68.326673
_cell_angle_gamma 90.000000
_cell_volume 1100.328994
_symmetry_space_group_name_H-M "C C"
_symmetry_group_IT_number 9
_symmetry_cell_setting 'monoclinic'
loop_
_space_group_symop_operation_xyz
x,y,z
x,-y,1/2+z
1/2+x,1/2+y,z
1/2+x,1/2-y,1/2+z
loop_
_atom_site_type_symbol
_atom_site_label
_atom_site_fract_x
_atom_site_fract_y
_atom_site_fract_z
Si Si1 0.217390 0.845930 0.839200
Si Si2 0.164641 0.682025 0.103685
Si Si3 0.278440 0.961097 0.500050
Si Si4 0.189878 0.543816 0.407372
Si Si5 0.782396 0.302285 0.238134
Si Si6 0.462317 0.333019 0.032958
Si Si7 0.504262 0.276984 0.551978
O O1 0.233167 0.630358 0.832214
O O2 0.260262 0.853484 0.063871
O O3 0.306017 0.943209 0.891186
O O4 0.227493 0.992303 0.754316
O O5 0.185056 0.667649 0.208883
O O6 0.027214 0.755785 0.109521
O O7 0.076877 0.851146 0.924697
O O8 0.139544 0.134306 0.039424
O O9 0.196341 0.465417 0.513197
O O10 0.367813 0.813796 0.520216
O O11 0.276112 0.706379 0.343180
O O12 0.927542 0.309385 0.160560
O O13 0.421636 0.541687 0.055351
O O14 0.548718 0.863399 0.957042
#
# Coordination Sequence:
#
# PCOD9138111 Si02
#       7
#     4   4   4   4   4   4   4
#     4   9  22  44  71 107 142 201 257 313 391 451
#     4   9  24  41  74 110 146 203 261 317 386 459
#     4   9  19  45  73  98 146 199 252 315 393 454
#     4  10  22  50  69 111 155 195 257 316 396 451
#     4  12  23  45  74 113 152 196 268 318 382 475
#     4   9  19  45  74  96 147 199 240 331 385 450
#     4  10  23  40  75 109 144 201 253 318 387 460
#
# _framework density 25.446933000000001
#
# number of rings (size 3 to 8) (size 9 to 14) (size 15 to 20)
#    0.000    2.857    2.857    0.000    6.000    1.143 
#   12.857    4.286    0.000    0.000    0.000    0.000 
#    0.000    0.000    0.000    0.000    0.000    0.000 
#
# Total GULP energy -77945.045225 kJ/mol
# GULP energy per Si atom -5567.503230 kJ/mol
# Density = 2.538901 g / cm^3
# Si number density = 25.446933 Si / 1000 Ang^3
#
#
#
# Elastic Constant Matrix: (Units=GPa)
#
#
# Indices 1 2 3 4 5 6 
#
# 1 87.4174 39.6393 25.7671 0.0000 5.1620 0.0000
# 2 39.6393 216.0302 36.4719 0.0000 -2.6476 0.0000
# 3 25.7671 36.4719 62.9070 0.0000 5.1113 0.0000
# 4 0.0000 0.0000 0.0000 50.2622 0.0000 3.9393
# 5 5.1620 -2.6476 5.1113 0.0000 35.5666 0.0000
# 6 0.0000 0.0000 0.0000 3.9393 0.0000 44.8598
#
#
#
# Elastic Compliance Matrix: (Units=1/GPa)
#
#
# Indices 1 2 3 4 5 6 
#
# 1 0.013638 -0.001771 -0.004440 0.000000 -0.001473 0.000000
# 2 -0.001771 0.005385 -0.002479 0.000000 0.001014 0.000000
# 3 -0.004440 -0.002479 0.019341 0.000000 -0.002320 0.000000
# 4 0.000000 0.000000 0.000000 0.020034 0.000000 -0.001759
# 5 -0.001473 0.001014 -0.002320 0.000000 0.028739 0.000000
# 6 0.000000 0.000000 0.000000 -0.001759 0.000000 0.022446
#
#
# Mechanical properties :
#
#
# Convention : Reuss Voigt Hill
#
# Bulk Modulus (GPa) = 47.65487 63.34569 55.50028
# Shear Modulus (GPa) = 37.32551 43.76948 40.54750
#
# Velocity S-wave (km/s) = 3.83403 4.15182 3.99609
# Velocity P-wave (km/s) = 6.19416 6.92321 6.56880
#
# Compressibility (1/GPa) = 0.02098422
#
# Stress axis : x y z
#
# Youngs Moduli (GPa) = 73.32425 185.70483 51.70416
#
# Poissons Ratio (x) = 0.32887 0.22956
# Poissons Ratio (y) = 0.12985 0.12818
# Poissons Ratio (z) = 0.32554 0.46037
#
# Static dielectric constant tensor:
#      x y z
#    x 2.067640 0.000000 0.093230 
#    y 0.000000 2.216410 0.000000 
#    z 0.093230 0.000000 2.298520 
# 
# From -- ./inp_files/30299.got.cif
#   From: 2010.05.17/outbox.cif.g08.bks.cpg/sg9_16_cif.got.tgz:30299.got - 2010.06.03 20:04:27.
