data_PCOD9138514
_publ_section_title
;
Structure prediction by ZEFSAII (Michael W. Deem and Ramdas Pophale) SiO2 
 PCOD9138514
Probable space group: C C
;
_chemical_formula_sum "Si O2"
_cell_formula_units_Z 20
_cell_length_a 12.816283
_cell_length_b 6.283697
_cell_length_c 10.736173
_cell_angle_alpha 90.000000
_cell_angle_beta 67.524186
_cell_angle_gamma 90.000000
_cell_volume 798.947168
_symmetry_space_group_name_H-M "C C"
_symmetry_group_IT_number 9
_symmetry_cell_setting 'monoclinic'
loop_
_space_group_symop_operation_xyz
x,y,z
x,-y,1/2+z
1/2+x,1/2+y,z
1/2+x,1/2-y,1/2+z
loop_
_atom_site_type_symbol
_atom_site_label
_atom_site_fract_x
_atom_site_fract_y
_atom_site_fract_z
Si Si1 0.653070 0.777811 0.240100
Si Si2 0.264995 0.339837 0.546523
Si Si3 0.545192 0.794252 0.530506
Si Si4 0.924127 0.882108 0.868526
Si Si5 0.845150 0.549111 0.729752
O O1 0.826928 0.278946 0.128754
O O2 0.542876 0.647050 0.243608
O O3 0.743063 0.613205 0.254457
O O4 0.711520 0.937727 0.119346
O O5 0.155007 0.213891 0.551425
O O6 0.351461 0.404976 0.397265
O O7 0.464279 0.934599 0.651310
O O8 0.599962 0.908751 0.382463
O O9 0.851488 0.680168 0.855441
O O10 0.964250 0.868300 0.994305
#
# Coordination Sequence:
#
# PCOD9138514 Si02
#       5
#     4   4   4   4   4
#     4  10  23  45  63 104 135 174 235 274 332 411
#     4  12  24  44  70 100 137 184 226 280 338 405
#     4  10  23  44  68  98 138 173 231 276 337 407
#     4  10  25  44  67 101 138 174 233 275 339 411
#     4  12  25  45  72  97 142 183 221 289 340 396
#
# _framework density 25.032945000000002
#
# number of rings (size 3 to 8) (size 9 to 14) (size 15 to 20)
#    1.200    0.000    4.000    1.200    2.800    4.800 
#    3.600    0.000    0.000    0.000    0.000    0.000 
#    0.000    0.000    0.000    0.000    0.000    0.000 
#
# Total GULP energy -55817.330079 kJ/mol
# GULP energy per Si atom -5581.733008 kJ/mol
# Density = 2.497597 g / cm^3
# Si number density = 25.032945 Si / 1000 Ang^3
#
#
#
# Elastic Constant Matrix: (Units=GPa)
#
#
# Indices 1 2 3 4 5 6 
#
# 1 132.1278 25.6373 2.0488 0.0000 -4.2973 0.0000
# 2 25.6373 60.2942 32.9168 0.0000 -8.6715 0.0000
# 3 2.0488 32.9168 68.9706 0.0000 -16.6811 0.0000
# 4 0.0000 0.0000 0.0000 50.0566 0.0000 4.6454
# 5 -4.2973 -8.6715 -16.6811 0.0000 36.3125 0.0000
# 6 0.0000 0.0000 0.0000 4.6454 0.0000 29.2786
#
#
#
# Elastic Compliance Matrix: (Units=1/GPa)
#
#
# Indices 1 2 3 4 5 6 
#
# 1 0.008470 -0.004670 0.002194 0.000000 0.000895 0.000000
# 2 -0.004670 0.025013 -0.011799 0.000000 0.000000 0.000000
# 3 0.002194 -0.011799 0.021877 0.000000 0.007492 0.000000
# 4 0.000000 0.000000 0.000000 0.020276 0.000000 -0.003217
# 5 0.000895 0.000000 0.007492 0.000000 0.031086 0.000000
# 6 0.000000 0.000000 0.000000 -0.003217 0.000000 0.034665
#
#
# Mechanical properties :
#
#
# Convention : Reuss Voigt Hill
#
# Bulk Modulus (GPa) = 37.30150 42.51094 39.90622
# Shear Modulus (GPa) = 27.95285 36.51551 32.23418
#
# Velocity S-wave (km/s) = 3.34525 3.82343 3.59231
# Velocity P-wave (km/s) = 5.46390 6.04238 5.76041
#
# Compressibility (1/GPa) = 0.02680857
#
# Stress axis : x y z
#
# Youngs Moduli (GPa) = 118.06768 39.97996 45.71081
#
# Poissons Ratio (x) = 0.18672 -0.10028
# Poissons Ratio (y) = 0.55141 0.53932
# Poissons Ratio (z) = -0.25901 0.47171
#
# Static dielectric constant tensor:
#      x y z
#    x 1.996580 0.000000 0.021490 
#    y 0.000000 1.926530 0.000000 
#    z 0.021490 0.000000 1.960760 
# 
# From -- ./inp_files/18721.got.cif
#   From: 2010.05.17/outbox.cif.g08.bks.cpg/sg9_10_cif.got.tgz:18721.got - 2010.06.03 20:04:27.
