data_PCOD9138647
_publ_section_title
;
Structure prediction by ZEFSAII (Michael W. Deem and Ramdas Pophale) SiO2 
 PCOD9138647
Probable space group: C C
;
_chemical_formula_sum "Si O2"
_cell_formula_units_Z 32
_cell_length_a 5.391465
_cell_length_b 18.444501
_cell_length_c 13.166285
_cell_angle_alpha 90.000000
_cell_angle_beta 79.308704
_cell_angle_gamma 90.000000
_cell_volume 1286.565285
_symmetry_space_group_name_H-M "C C"
_symmetry_group_IT_number 9
_symmetry_cell_setting 'monoclinic'
loop_
_space_group_symop_operation_xyz
x,y,z
x,-y,1/2+z
1/2+x,1/2+y,z
1/2+x,1/2-y,1/2+z
loop_
_atom_site_type_symbol
_atom_site_label
_atom_site_fract_x
_atom_site_fract_y
_atom_site_fract_z
Si Si1 0.781880 0.288954 0.992710
Si Si2 0.083458 0.240291 0.166287
Si Si3 0.946135 0.871994 0.156854
Si Si4 0.662880 0.165810 0.292281
Si Si5 0.013360 0.655087 0.074390
Si Si6 0.712875 0.547982 0.796267
Si Si7 0.085718 0.506617 0.604370
Si Si8 0.166178 0.511260 0.381649
O O1 0.962871 0.306382 0.887456
O O2 0.585192 0.351277 0.041029
O O3 0.636223 0.212854 0.989946
O O4 0.937640 0.277837 0.084539
O O5 0.262395 0.304902 0.189719
O O6 0.216035 0.171246 0.099407
O O7 0.926951 0.207732 0.271704
O O8 0.128901 0.880606 0.240523
O O9 0.791145 0.946841 0.151266
O O10 0.575235 0.178904 0.184668
O O11 0.685640 0.079897 0.305389
O O12 0.124178 0.575159 0.062146
O O13 0.451954 0.519095 0.863550
O O14 0.833418 0.504127 0.691179
O O15 0.943941 0.542855 0.858602
O O16 0.073835 0.544620 0.495785
#
# Coordination Sequence:
#
# PCOD9138647 Si02
#       8
#     4   4   4   4   4   4   4   4
#     4  10  24  44  72 106 144 196 263 301 389 458
#     4  10  23  45  71 104 146 197 254 312 384 451
#     4  11  23  46  77 106 156 199 248 326 379 458
#     4  11  22  45  74 101 144 203 251 311 379 467
#     4  10  23  47  69 104 147 195 246 322 383 450
#     4  12  25  48  70 114 153 197 251 317 386 462
#     4  12  26  49  77 111 159 198 256 332 383 465
#     4  12  28  44  78 112 149 207 259 305 405 465
#
# _framework density 24.872425
#
# number of rings (size 3 to 8) (size 9 to 14) (size 15 to 20)
#    0.000    1.000    2.500    3.000    3.500    3.000 
#   11.250    0.000    0.000    0.000    0.000    0.000 
#    0.000    0.000    0.000    0.000    0.000    0.000 
#
# Total GULP energy -89365.061581 kJ/mol
# GULP energy per Si atom -5585.316349 kJ/mol
# Density = 2.481581 g / cm^3
# Si number density = 24.872425 Si / 1000 Ang^3
#
#
#
# Elastic Constant Matrix: (Units=GPa)
#
#
# Indices 1 2 3 4 5 6 
#
# 1 112.8054 42.7627 31.8709 0.0000 -20.7189 0.0000
# 2 42.7627 115.5526 9.5898 0.0000 -26.0353 0.0000
# 3 31.8709 9.5898 79.6841 0.0000 -26.0327 0.0000
# 4 0.0000 0.0000 0.0000 33.2649 0.0000 -6.1427
# 5 -20.7189 -26.0353 -26.0327 0.0000 50.3638 0.0000
# 6 0.0000 0.0000 0.0000 -6.1427 0.0000 39.5340
#
#
#
# Elastic Compliance Matrix: (Units=1/GPa)
#
#
# Indices 1 2 3 4 5 6 
#
# 1 0.011542 -0.003772 -0.003908 0.000000 0.000778 0.000000
# 2 -0.003772 0.011049 0.001850 0.000000 0.005117 0.000000
# 3 -0.003908 0.001850 0.016456 0.000000 0.007855 0.000000
# 4 0.000000 0.000000 0.000000 0.030950 0.000000 0.004809
# 5 0.000778 0.005117 0.007855 0.000000 0.026881 0.000000
# 6 0.000000 0.000000 0.000000 0.004809 0.000000 0.026042
#
#
# Mechanical properties :
#
#
# Convention : Reuss Voigt Hill
#
# Bulk Modulus (GPa) = 36.51188 52.94322 44.72755
# Shear Modulus (GPa) = 34.79293 39.55380 37.17336
#
# Velocity S-wave (km/s) = 3.74419 3.99214 3.87015
# Velocity P-wave (km/s) = 5.77957 6.52547 6.16381
#
# Compressibility (1/GPa) = 0.02738835
#
# Stress axis : x y z
#
# Youngs Moduli (GPa) = 86.64270 90.50533 60.76750
#
# Poissons Ratio (x) = 0.34134 0.23749
# Poissons Ratio (y) = 0.32678 -0.11244
# Poissons Ratio (z) = 0.33861 -0.16747
#
# Static dielectric constant tensor:
#      x y z
#    x 2.241010 0.000000 -0.045320 
#    y 0.000000 1.982080 0.000000 
#    z -0.045320 0.000000 1.976020 
# 
# From -- ./inp_files/21933.got.cif
#   From: 2010.05.17/outbox.cif.g08.bks.cpg/sg9_11_cif.got.tgz:21933.got - 2010.06.03 20:04:27.
