data_PCOD9138541
_publ_section_title
;
Structure prediction by ZEFSAII (Michael W. Deem and Ramdas Pophale) SiO2 
 PCOD9138541
Probable space group: C C
;
_chemical_formula_sum "Si O2"
_cell_formula_units_Z 32
_cell_length_a 9.128844
_cell_length_b 17.761208
_cell_length_c 13.361437
_cell_angle_alpha 90.000000
_cell_angle_beta 45.702083
_cell_angle_gamma 90.000000
_cell_volume 1550.541767
_symmetry_space_group_name_H-M "C C"
_symmetry_group_IT_number 9
_symmetry_cell_setting 'monoclinic'
loop_
_space_group_symop_operation_xyz
x,y,z
x,-y,1/2+z
1/2+x,1/2+y,z
1/2+x,1/2-y,1/2+z
loop_
_atom_site_type_symbol
_atom_site_label
_atom_site_fract_x
_atom_site_fract_y
_atom_site_fract_z
Si Si1 0.566900 0.802458 0.168170
Si Si2 0.038233 0.466923 0.816335
Si Si3 0.354404 0.589556 0.018993
Si Si4 0.247806 0.252171 0.670065
Si Si5 0.319971 0.050974 0.760845
Si Si6 0.822692 0.694362 0.426110
Si Si7 0.492496 0.225147 0.937595
Si Si8 0.013101 0.438689 0.520752
O O1 0.394497 0.753242 0.195280
O O2 0.490708 0.883988 0.164906
O O3 0.564971 0.793098 0.289577
O O4 0.787454 0.774630 0.027790
O O5 0.878259 0.523039 0.842607
O O6 0.923017 0.387200 0.859408
O O7 0.250542 0.464778 0.652703
O O8 0.069639 0.499873 0.910392
O O9 0.310843 0.670934 0.085577
O O10 0.212167 0.578075 0.991350
O O11 0.588684 0.578829 0.877376
O O12 0.261276 0.193670 0.572035
O O13 0.017021 0.251957 0.817410
O O14 0.352357 0.981665 0.669460
O O15 0.650253 0.726719 0.432546
O O16 0.448654 0.143287 0.009108
#
# Coordination Sequence:
#
# PCOD9138541 Si02
#       8
#     4   4   4   4   4   4   4   4
#     4  12  26  44  71 102 145 185 237 293 355 417
#     4  10  24  43  66 100 138 177 230 289 352 417
#     4  10  23  44  70  98 136 183 232 286 342 428
#     4  11  22  42  69 101 133 185 235 289 343 423
#     4  11  24  45  66 100 139 181 234 284 353 419
#     4  11  23  43  70  99 139 184 238 284 357 423
#     4  12  26  46  71 106 142 184 239 298 351 422
#     4  11  24  47  69 104 140 179 235 293 347 417
#
# _framework density 20.637948000000002
#
# number of rings (size 3 to 8) (size 9 to 14) (size 15 to 20)
#    0.000    1.000    2.500    3.750    3.500    4.000 
#    6.750    0.000    0.000    0.000    0.000    0.000 
#    0.000    0.000    0.000    0.000    0.000    0.000 
#
# Total GULP energy -89242.771927 kJ/mol
# GULP energy per Si atom -5577.673245 kJ/mol
# Density = 2.059098 g / cm^3
# Si number density = 20.637948 Si / 1000 Ang^3
#
#
#
# Elastic Constant Matrix: (Units=GPa)
#
#
# Indices 1 2 3 4 5 6 
#
# 1 87.0856 27.4344 8.7080 0.0000 4.5269 0.0000
# 2 27.4344 83.8450 12.6356 0.0001 -5.8194 0.0000
# 3 8.7080 12.6356 22.1634 0.0002 -9.4890 0.0000
# 4 0.0000 0.0001 0.0002 44.7031 -0.0001 6.2348
# 5 4.5269 -5.8194 -9.4890 -0.0001 41.2446 0.0000
# 6 0.0000 0.0000 0.0000 6.2348 0.0000 35.5237
#
#
#
# Elastic Compliance Matrix: (Units=1/GPa)
#
#
# Indices 1 2 3 4 5 6 
#
# 1 0.013300 -0.003915 -0.004276 0.000000 -0.002996 0.000000
# 2 -0.003915 0.014201 -0.006119 0.000000 0.001026 0.000000
# 3 -0.004276 -0.006119 0.055595 0.000000 0.012397 0.000000
# 4 0.000000 0.000000 0.000000 0.022931 0.000000 -0.004025
# 5 -0.002996 0.001026 0.012397 0.000000 0.027571 0.000000
# 6 0.000000 0.000000 0.000000 -0.004025 0.000000 0.028857
#
#
# Mechanical properties :
#
#
# Convention : Reuss Voigt Hill
#
# Bulk Modulus (GPa) = 18.35671 32.29446 25.32559
# Shear Modulus (GPa) = 23.89672 33.91535 28.90603
#
# Velocity S-wave (km/s) = 3.40649 4.05822 3.74655
# Velocity P-wave (km/s) = 4.93823 6.13522 5.56898
#
# Compressibility (1/GPa) = 0.05447599
#
# Stress axis : x y z
#
# Youngs Moduli (GPa) = 75.18987 70.41677 17.98716
#
# Poissons Ratio (x) = 0.27570 0.07691
# Poissons Ratio (y) = 0.29439 0.11006
# Poissons Ratio (z) = 0.32151 0.43087
#
# Static dielectric constant tensor:
#      x y z
#    x 1.710250 0.000000 0.044080 
#    y 0.000000 1.809830 0.000000 
#    z 0.044080 0.000000 1.753100 
# 
# From -- ./inp_files/23744.got.cif
#   From: 2010.05.17/outbox.cif.g08.bks.cpg/sg9_12_cif.got.tgz:23744.got - 2010.06.03 20:04:27.
