data_PCOD9138627
_publ_section_title
;
Structure prediction by ZEFSAII (Michael W. Deem and Ramdas Pophale) SiO2 
 PCOD9138627
Probable space group: C C
;
_chemical_formula_sum "Si O2"
_cell_formula_units_Z 28
_cell_length_a 13.729779
_cell_length_b 6.099935
_cell_length_c 14.025302
_cell_angle_alpha 90.000000
_cell_angle_beta 107.024864
_cell_angle_gamma 90.000000
_cell_volume 1123.154824
_symmetry_space_group_name_H-M "C C"
_symmetry_group_IT_number 9
_symmetry_cell_setting 'monoclinic'
loop_
_space_group_symop_operation_xyz
x,y,z
x,-y,1/2+z
1/2+x,1/2+y,z
1/2+x,1/2-y,1/2+z
loop_
_atom_site_type_symbol
_atom_site_label
_atom_site_fract_x
_atom_site_fract_y
_atom_site_fract_z
Si Si1 0.208440 0.358797 0.679540
Si Si2 0.497075 0.437583 0.577443
Si Si3 0.814274 0.559517 0.865470
Si Si4 0.820976 0.584348 0.573414
Si Si5 0.885107 0.809013 0.195343
Si Si6 0.651694 0.239543 0.760449
Si Si7 0.498730 0.633574 0.375283
O O1 0.252053 0.230351 0.783297
O O2 0.224001 0.210511 0.590977
O O3 0.277516 0.565722 0.665335
O O4 0.123323 0.501517 0.707965
O O5 0.411709 0.247101 0.565565
O O6 0.444439 0.639821 0.614796
O O7 0.598286 0.392720 0.666819
O O8 0.519096 0.499039 0.476446
O O9 0.767367 0.322303 0.818623
O O10 0.927632 0.656313 0.881768
O O11 0.793693 0.557489 0.972986
O O12 0.864293 0.447526 0.676037
O O13 0.945666 0.950348 0.291500
O O14 0.592491 0.275692 0.841918
#
# Coordination Sequence:
#
# PCOD9138627 Si02
#       7
#     4   4   4   4   4   4   4
#     4  10  24  42  70 105 148 190 251 304 375 461
#     4  10  23  45  69 110 145 190 257 310 377 461
#     4  11  25  47  76 103 146 203 250 311 390 453
#     4  11  23  43  75 105 146 204 244 316 383 453
#     4   9  20  42  73 101 143 186 248 301 374 445
#     4  11  26  47  69 113 153 194 252 319 389 462
#     4  10  23  48  76 109 147 201 256 313 378 469
#
# _framework density 24.929774999999999
#
# number of rings (size 3 to 8) (size 9 to 14) (size 15 to 20)
#    0.000    1.714    1.429    1.714    6.000    4.571 
#    5.143    1.429    0.000    0.000    0.000    0.000 
#    0.000    0.000    0.000    0.000    0.000    0.000 
#
# Total GULP energy -78034.354286 kJ/mol
# GULP energy per Si atom -5573.882449 kJ/mol
# Density = 2.487303 g / cm^3
# Si number density = 24.929775 Si / 1000 Ang^3
#
#
#
# Elastic Constant Matrix: (Units=GPa)
#
#
# Indices 1 2 3 4 5 6 
#
# 1 66.4392 46.2698 45.9949 0.0000 -17.7806 0.0000
# 2 46.2698 91.1997 39.8701 0.0000 -22.0755 0.0000
# 3 45.9949 39.8701 149.8993 0.0000 -42.8536 0.0000
# 4 0.0000 0.0000 0.0000 36.0851 0.0000 -15.8904
# 5 -17.7806 -22.0755 -42.8536 0.0000 35.7338 0.0000
# 6 0.0000 0.0000 0.0000 -15.8904 0.0000 38.6185
#
#
#
# Elastic Compliance Matrix: (Units=1/GPa)
#
#
# Indices 1 2 3 4 5 6 
#
# 1 0.026349 -0.011108 -0.005089 0.000000 0.000146 0.000000
# 2 -0.011108 0.017886 0.000350 0.000000 0.005942 0.000000
# 3 -0.005089 0.000350 0.011378 0.000000 0.011330 0.000000
# 4 0.000000 0.000000 0.000000 0.033845 0.000000 0.013926
# 5 0.000146 0.005942 0.011330 0.000000 0.045315 0.000000
# 6 0.000000 0.000000 0.000000 0.013926 0.000000 0.031625
#
#
# Mechanical properties :
#
#
# Convention : Reuss Voigt Hill
#
# Bulk Modulus (GPa) = 41.80694 63.53419 52.67057
# Shear Modulus (GPa) = 24.26415 33.78104 29.02259
#
# Velocity S-wave (km/s) = 3.12316 3.68509 3.41570
# Velocity P-wave (km/s) = 5.46002 6.60660 6.06048
#
# Compressibility (1/GPa) = 0.02391947
#
# Stress axis : x y z
#
# Youngs Moduli (GPa) = 37.95174 55.90971 87.88545
#
# Poissons Ratio (x) = 0.62106 0.44722
# Poissons Ratio (y) = 0.42158 -0.03074
# Poissons Ratio (z) = 0.19312 -0.01956
#
# Static dielectric constant tensor:
#      x y z
#    x 2.093750 0.000000 -0.018080 
#    y 0.000000 2.085010 0.000000 
#    z -0.018080 0.000000 1.973620 
# 
# From -- ./inp_files/25292.got.cif
#   From: 2010.05.17/outbox.cif.g08.bks.cpg/sg9_13_cif.got.tgz:25292.got - 2010.06.03 20:04:27.
