data_PCOD9138414
_publ_section_title
;
Structure prediction by ZEFSAII (Michael W. Deem and Ramdas Pophale) SiO2 
 PCOD9138414
Probable space group: C C
;
_chemical_formula_sum "Si O2"
_cell_formula_units_Z 24
_cell_length_a 10.624112
_cell_length_b 7.532531
_cell_length_c 23.588180
_cell_angle_alpha 90.000000
_cell_angle_beta 149.092369
_cell_angle_gamma 90.000000
_cell_volume 969.616437
_symmetry_space_group_name_H-M "C C"
_symmetry_group_IT_number 9
_symmetry_cell_setting 'monoclinic'
loop_
_space_group_symop_operation_xyz
x,y,z
x,-y,1/2+z
1/2+x,1/2+y,z
1/2+x,1/2-y,1/2+z
loop_
_atom_site_type_symbol
_atom_site_label
_atom_site_fract_x
_atom_site_fract_y
_atom_site_fract_z
Si Si1 0.163060 0.240935 0.559860
Si Si2 0.221754 0.816307 0.464610
Si Si3 0.481768 0.740936 0.764660
Si Si4 0.587629 0.679082 0.031292
Si Si5 0.423073 0.316310 0.859910
Si Si6 0.057198 0.179081 0.293229
O O1 0.436708 0.258729 0.688141
O O2 0.979280 0.338799 0.532208
O O3 0.091333 0.297219 0.468434
O O4 0.092993 0.033641 0.536842
O O5 0.053494 0.702779 0.356086
O O6 0.249097 0.755782 0.539734
O O7 0.072413 0.999999 0.412260
O O8 0.208119 0.758730 0.636380
O O9 0.665547 0.838801 0.792312
O O10 0.551834 0.533642 0.787678
O O11 0.322414 0.750000 0.912260
O O12 0.395730 0.255784 0.784786
#
# Coordination Sequence:
#
# PCOD9138414 Si02
#       6
#     4   4   4   4   4   4
#     4  10  23  43  68  96 136 178 230 278 342 406
#     4   9  21  43  69  92 131 179 225 276 343 397
#     4  10  23  43  68  96 136 178 230 278 342 406
#     4  11  25  42  67 100 137 176 228 283 343 407
#     4   9  21  43  69  92 131 179 225 276 343 397
#     4  11  25  42  67 100 137 176 228 283 343 407
#
# _framework density 24.752057000000001
#
# number of rings (size 3 to 8) (size 9 to 14) (size 15 to 20)
#    0.000    2.000    0.000    1.000   14.000    2.667 
#    6.000    0.000    0.000    0.000    0.000    0.000 
#    0.000    0.000    0.000    0.000    0.000    0.000 
#
# Total GULP energy -67041.575263 kJ/mol
# GULP energy per Si atom -5586.797939 kJ/mol
# Density = 2.469572 g / cm^3
# Si number density = 24.752057 Si / 1000 Ang^3
#
#
#
# Elastic Constant Matrix: (Units=GPa)
#
#
# Indices 1 2 3 4 5 6 
#
# 1 73.1977 -8.2310 1.0069 0.0000 -9.2150 0.0000
# 2 -8.2310 77.0357 4.7116 0.0000 11.9368 0.0000
# 3 1.0069 4.7116 164.3476 -0.0001 -7.0745 0.0000
# 4 0.0000 0.0000 -0.0001 34.8123 0.0000 5.2242
# 5 -9.2150 11.9368 -7.0745 0.0000 37.8648 0.0000
# 6 0.0000 0.0000 0.0000 5.2242 0.0000 23.3641
#
#
#
# Elastic Compliance Matrix: (Units=1/GPa)
#
#
# Indices 1 2 3 4 5 6 
#
# 1 0.014171 0.001028 0.000018 0.000000 0.003128 0.000000
# 2 0.001028 0.013778 -0.000582 0.000000 -0.004202 0.000000
# 3 0.000018 -0.000582 0.006159 0.000000 0.001339 0.000000
# 4 0.000000 0.000000 0.000000 0.029723 0.000000 -0.006646
# 5 0.003128 -0.004202 0.001339 0.000000 0.028746 0.000000
# 6 0.000000 0.000000 0.000000 -0.006646 0.000000 0.044287
#
#
# Mechanical properties :
#
#
# Convention : Reuss Voigt Hill
#
# Bulk Modulus (GPa) = 28.54188 34.39509 31.46848
# Shear Modulus (GPa) = 33.87254 40.34781 37.11017
#
# Velocity S-wave (km/s) = 3.70330 4.04180 3.87625
# Velocity P-wave (km/s) = 5.46279 5.97558 5.72493
#
# Compressibility (1/GPa) = 0.03503624
#
# Stress axis : x y z
#
# Youngs Moduli (GPa) = 70.56763 72.58180 162.36754
#
# Poissons Ratio (x) = -0.07464 -0.00298
# Poissons Ratio (y) = -0.07257 0.09452
# Poissons Ratio (z) = -0.00129 0.04225
#
# Static dielectric constant tensor:
#      x y z
#    x 2.059440 0.000000 -0.033830 
#    y 0.000000 1.995260 0.000000 
#    z -0.033830 0.000000 2.005770 
# 
# From -- ./inp_files/20767.got.cif
#   From: 2010.05.17/outbox.cif.g08.bks.cpg/sg9_11_cif.got.tgz:20767.got - 2010.06.03 20:04:27.
