data_PCOD9138023
_publ_section_title
;
Structure prediction by ZEFSAII (Michael W. Deem and Ramdas Pophale) SiO2 
 PCOD9138023
Probable space group: C C
;
_chemical_formula_sum "Si O2"
_cell_formula_units_Z 16
_cell_length_a 10.645868
_cell_length_b 10.703459
_cell_length_c 5.547055
_cell_angle_alpha 90.000000
_cell_angle_beta 114.389735
_cell_angle_gamma 90.000000
_cell_volume 575.665934
_symmetry_space_group_name_H-M "C C"
_symmetry_group_IT_number 9
_symmetry_cell_setting 'monoclinic'
loop_
_space_group_symop_operation_xyz
x,y,z
x,-y,1/2+z
1/2+x,1/2+y,z
1/2+x,1/2-y,1/2+z
loop_
_atom_site_type_symbol
_atom_site_label
_atom_site_fract_x
_atom_site_fract_y
_atom_site_fract_z
Si Si1 0.009790 0.430753 0.283370
Si Si2 0.683019 0.523019 0.241858
Si Si3 0.990965 0.215073 0.605677
Si Si4 0.205739 0.698021 0.652721
O O1 0.985360 0.520656 0.491425
O O2 0.950742 0.297676 0.339113
O O3 0.171932 0.396310 0.344544
O O4 0.757982 0.495560 0.548922
O O5 0.558399 0.422726 0.124474
O O6 0.659189 0.668822 0.225119
O O7 0.860489 0.199822 0.678023
O O8 0.109664 0.297165 0.834612
#
# Coordination Sequence:
#
# PCOD9138023 Si02
#       4
#     4   4   4   4
#     4  12  26  50  74 118 162 212 268 334 408 492
#     4  10  22  46  74 108 148 196 262 324 386 472
#     4  11  26  50  81 114 159 210 270 333 411 481
#     4  11  26  50  81 114 159 210 270 333 411 481
#
# _framework density 27.793897999999999
#
# number of rings (size 3 to 8) (size 9 to 14) (size 15 to 20)
#    0.000    1.000    5.000    0.000    0.000   10.000 
#    0.000    0.000    0.000    0.000    0.000    0.000 
#    0.000    0.000    0.000    0.000    0.000    0.000 
#
# Total GULP energy -44621.651435 kJ/mol
# GULP energy per Si atom -5577.706429 kJ/mol
# Density = 2.773064 g / cm^3
# Si number density = 27.793898 Si / 1000 Ang^3
#
#
#
# Elastic Constant Matrix: (Units=GPa)
#
#
# Indices 1 2 3 4 5 6 
#
# 1 186.8484 40.9300 61.1314 0.0000 -50.2223 0.0000
# 2 40.9300 116.3029 65.8989 0.0000 -15.9220 0.0000
# 3 61.1314 65.8989 197.8458 0.0000 -26.3703 0.0000
# 4 0.0000 0.0000 0.0000 69.6664 0.0000 -21.4367
# 5 -50.2223 -15.9220 -26.3703 0.0000 56.4417 0.0000
# 6 0.0000 0.0000 0.0000 -21.4367 0.0000 2.4309
#
#
#
# Elastic Compliance Matrix: (Units=1/GPa)
#
#
# Indices 1 2 3 4 5 6 
#
# 1 0.007568 -0.001207 -0.001156 0.000000 0.005853 0.000000
# 2 -0.001207 0.010900 -0.003190 0.000000 0.000511 0.000000
# 3 -0.001156 -0.003190 0.006630 0.000000 0.001169 0.000000
# 4 0.000000 0.000000 0.000000 -0.008377 0.000000 -0.073874
# 5 0.005853 0.000511 0.001169 0.000000 0.023616 0.000000
# 6 0.000000 0.000000 0.000000 -0.073874 0.000000 -0.240081
#
#
# Mechanical properties :
#
#
# Convention : Reuss Voigt Hill
#
# Bulk Modulus (GPa) = 71.46693 92.99086 82.22890
# Shear Modulus (GPa) = -27.17765 47.91026 10.36631
#
# Velocity S-wave (km/s) = -3.13042 4.15633 1.93334
# Velocity P-wave (km/s) = 3.56412 7.52086 5.88500
#
# Compressibility (1/GPa) = 0.01399249
#
# Stress axis : x y z
#
# Youngs Moduli (GPa) = 132.13761 91.74128 150.83120
#
# Poissons Ratio (x) = 0.11072 0.17439
# Poissons Ratio (y) = 0.15947 0.48110
# Poissons Ratio (z) = 0.15278 0.29263
#
# Static dielectric constant tensor:
#      x y z
#    x 2.280390 0.000000 0.086420 
#    y 0.000000 2.340160 0.000000 
#    z 0.086420 0.000000 2.269460 
# 
# From -- ./inp_files/404.got.cif
#   From: 2010.05.17/outbox.cif.g08.bks.cpg/sg9_1_cif.got.tgz:404.got - 2010.06.03 20:04:27.
