data_PCOD9138410
_publ_section_title
;
Structure prediction by ZEFSAII (Michael W. Deem and Ramdas Pophale) SiO2 
 PCOD9138410
Probable space group: C C
;
_chemical_formula_sum "Si O2"
_cell_formula_units_Z 28
_cell_length_a 19.799214
_cell_length_b 12.240922
_cell_length_c 9.182041
_cell_angle_alpha 90.000000
_cell_angle_beta 29.681577
_cell_angle_gamma 90.000000
_cell_volume 1101.954914
_symmetry_space_group_name_H-M "C C"
_symmetry_group_IT_number 9
_symmetry_cell_setting 'monoclinic'
loop_
_space_group_symop_operation_xyz
x,y,z
x,-y,1/2+z
1/2+x,1/2+y,z
1/2+x,1/2-y,1/2+z
loop_
_atom_site_type_symbol
_atom_site_label
_atom_site_fract_x
_atom_site_fract_y
_atom_site_fract_z
Si Si1 0.552290 0.985569 0.266260
Si Si2 0.872981 0.477040 0.357878
Si Si3 0.839035 0.956800 0.693857
Si Si4 0.507689 0.409570 0.104779
Si Si5 0.682776 0.639374 0.548502
Si Si6 0.927784 0.225078 0.207187
Si Si7 0.466639 0.749763 0.442643
O O1 0.418421 0.024181 0.429232
O O2 0.547129 0.856936 0.240684
O O3 0.511292 0.996440 0.508897
O O4 0.701770 0.027184 0.951662
O O5 0.746786 0.543942 0.529758
O O6 0.868112 0.346453 0.342663
O O7 0.881337 0.920788 0.453798
O O8 0.819014 0.849054 0.828989
O O9 0.961354 0.013006 0.556991
O O10 0.629267 0.411497 0.995584
O O11 0.523917 0.298813 0.983488
O O12 0.812654 0.714073 0.268649
O O13 0.563953 0.709733 0.851521
O O14 0.961773 0.178161 0.304682
#
# Coordination Sequence:
#
# PCOD9138410 Si02
#       7
#     4   4   4   4   4   4   4
#     4  10  23  43  68 104 136 185 238 292 370 435
#     4  10  23  46  69 103 142 186 240 300 366 434
#     4  11  24  43  68 104 140 184 241 292 372 434
#     4  11  25  45  69 105 142 190 234 304 367 431
#     4  10  25  47  73 107 148 188 250 302 364 451
#     4  10  24  45  70 108 140 198 240 300 375 428
#     4  10  24  43  69 105 144 191 239 298 370 433
#
# _framework density 25.409386000000001
#
# number of rings (size 3 to 8) (size 9 to 14) (size 15 to 20)
#    0.000    1.714    0.000    1.714    8.000   11.429 
#    5.143    0.000    0.000    0.000    0.000    0.000 
#    0.000    0.000    0.000    0.000    0.000    0.000 
#
# Total GULP energy -78138.302413 kJ/mol
# GULP energy per Si atom -5581.307315 kJ/mol
# Density = 2.535155 g / cm^3
# Si number density = 25.409386 Si / 1000 Ang^3
#
#
#
# Elastic Constant Matrix: (Units=GPa)
#
#
# Indices 1 2 3 4 5 6 
#
# 1 141.8846 15.9640 48.1284 0.0000 5.0243 0.0000
# 2 15.9640 52.5071 -5.9443 0.0000 1.4936 0.0000
# 3 48.1284 -5.9443 90.2527 0.0000 -17.6762 0.0000
# 4 0.0000 0.0000 0.0000 28.5607 0.0000 9.4638
# 5 5.0243 1.4936 -17.6762 0.0000 59.4099 0.0000
# 6 0.0000 0.0000 0.0000 9.4638 0.0000 30.3882
#
#
#
# Elastic Compliance Matrix: (Units=1/GPa)
#
#
# Indices 1 2 3 4 5 6 
#
# 1 0.009476 -0.003464 -0.005757 0.000000 -0.002427 0.000000
# 2 -0.003464 0.020455 0.003346 0.000000 0.000774 0.000000
# 3 -0.005757 0.003346 0.015343 0.000000 0.004968 0.000000
# 4 0.000000 0.000000 0.000000 0.039042 0.000000 -0.012159
# 5 -0.002427 0.000774 0.004968 0.000000 0.018496 0.000000
# 6 0.000000 0.000000 0.000000 -0.012159 0.000000 0.036694
#
#
# Mechanical properties :
#
#
# Convention : Reuss Voigt Hill
#
# Bulk Modulus (GPa) = 29.82838 44.54895 37.18866
# Shear Modulus (GPa) = 30.78214 38.77151 34.77682
#
# Velocity S-wave (km/s) = 3.48436 3.91048 3.70355
# Velocity P-wave (km/s) = 5.28699 6.16114 5.74073
#
# Compressibility (1/GPa) = 0.03352512
#
# Stress axis : x y z
#
# Youngs Moduli (GPa) = 105.52442 48.88787 65.17491
#
# Poissons Ratio (x) = 0.16934 0.37521
# Poissons Ratio (y) = 0.36552 -0.21808
# Poissons Ratio (z) = 0.60750 -0.16358
#
# Static dielectric constant tensor:
#      x y z
#    x 1.978390 0.000000 -0.035560 
#    y 0.000000 2.167320 0.000000 
#    z -0.035560 0.000000 2.045080 
# 
# From -- ./inp_files/10885.got.cif
#   From: 2010.05.17/outbox.cif.g08.bks.cpg/sg9_6_cif.got.tgz:10885.got - 2010.06.03 20:04:27.
