data_PCOD9138436
_publ_section_title
;
Structure prediction by ZEFSAII (Michael W. Deem and Ramdas Pophale) SiO2 
 PCOD9138436
Probable space group: C C
;
_chemical_formula_sum "Si O2"
_cell_formula_units_Z 32
_cell_length_a 8.748228
_cell_length_b 15.661782
_cell_length_c 9.888262
_cell_angle_alpha 90.000000
_cell_angle_beta 92.729663
_cell_angle_gamma 90.000000
_cell_volume 1353.281617
_symmetry_space_group_name_H-M "C C"
_symmetry_group_IT_number 9
_symmetry_cell_setting 'monoclinic'
loop_
_space_group_symop_operation_xyz
x,y,z
x,-y,1/2+z
1/2+x,1/2+y,z
1/2+x,1/2-y,1/2+z
loop_
_atom_site_type_symbol
_atom_site_label
_atom_site_fract_x
_atom_site_fract_y
_atom_site_fract_z
Si Si1 0.866120 0.258023 0.421460
Si Si2 0.043340 0.573229 0.971566
Si Si3 0.484517 0.332734 0.158423
Si Si4 0.186602 0.449317 0.767739
Si Si5 0.034780 0.280213 0.887337
Si Si6 0.831263 0.685252 0.634965
Si Si7 0.037121 0.020737 0.287872
Si Si8 0.238026 0.004013 0.562447
O O1 0.991040 0.328600 0.468065
O O2 0.883143 0.177858 0.521774
O O3 0.684021 0.278999 0.423676
O O4 0.889597 0.258983 0.261930
O O5 0.130891 0.533734 0.846600
O O6 0.876333 0.532504 0.982302
O O7 0.138876 0.550050 0.109122
O O8 0.433491 0.266527 0.270348
O O9 0.650905 0.299458 0.118612
O O10 0.503654 0.424054 0.230348
O O11 0.100965 0.368930 0.832682
O O12 0.369062 0.439778 0.782404
O O13 0.932229 0.295220 0.011544
O O14 0.820579 0.582248 0.646652
O O15 0.155301 0.051572 0.175644
O O16 0.113680 0.026570 0.439830
#
# Coordination Sequence:
#
# PCOD9138436 Si02
#       8
#     4   4   4   4   4   4   4   4
#     4  11  25  45  67  99 144 184 234 295 359 441
#     4  12  24  44  70 103 138 189 238 294 363 434
#     4  10  24  47  66  97 146 185 239 288 365 437
#     4  12  26  44  73 109 141 184 247 305 360 423
#     4  11  24  46  69 102 139 184 241 297 361 430
#     4  10  23  43  69  99 131 189 235 292 355 430
#     4  11  26  44  70 105 144 191 239 306 364 433
#     4  11  22  45  70 100 141 186 243 297 363 432
#
# _framework density 23.646222000000002
#
# number of rings (size 3 to 8) (size 9 to 14) (size 15 to 20)
#    0.000    1.000    2.500    4.500    5.250    2.000 
#    9.000    0.000    0.000    0.000    0.000    0.000 
#    0.000    0.000    0.000    0.000    0.000    0.000 
#
# Total GULP energy -89325.541405 kJ/mol
# GULP energy per Si atom -5582.846338 kJ/mol
# Density = 2.359240 g / cm^3
# Si number density = 23.646222 Si / 1000 Ang^3
#
#
#
# Elastic Constant Matrix: (Units=GPa)
#
#
# Indices 1 2 3 4 5 6 
#
# 1 61.1973 0.4626 40.3733 0.0000 -0.2951 0.0000
# 2 0.4626 76.9564 21.5724 0.0000 4.5337 0.0000
# 3 40.3733 21.5724 120.6670 0.0000 1.0058 0.0000
# 4 0.0000 0.0000 0.0000 29.8107 0.0000 3.6994
# 5 -0.2951 4.5337 1.0058 0.0000 51.0410 0.0000
# 6 0.0000 0.0000 0.0000 3.6994 0.0000 27.5555
#
#
#
# Elastic Compliance Matrix: (Units=1/GPa)
#
#
# Indices 1 2 3 4 5 6 
#
# 1 0.021248 0.001958 -0.007460 0.000000 0.000096 0.000000
# 2 0.001958 0.013930 -0.003136 0.000000 -0.001164 0.000000
# 3 -0.007460 -0.003136 0.011344 0.000000 0.000012 0.000000
# 4 0.000000 0.000000 0.000000 0.034113 0.000000 -0.004580
# 5 0.000096 -0.001164 0.000012 0.000000 0.019696 0.000000
# 6 0.000000 0.000000 0.000000 -0.004580 0.000000 0.036905
#
#
# Mechanical properties :
#
#
# Convention : Reuss Voigt Hill
#
# Bulk Modulus (GPa) = 34.19283 42.62635 38.40959
# Shear Modulus (GPa) = 30.43945 34.77560 32.60753
#
# Velocity S-wave (km/s) = 3.59177 3.83908 3.71748
# Velocity P-wave (km/s) = 5.62962 6.14144 5.89109
#
# Compressibility (1/GPa) = 0.02924590
#
# Stress axis : x y z
#
# Youngs Moduli (GPa) = 47.06379 71.78647 88.15423
#
# Poissons Ratio (x) = -0.14054 0.65763
# Poissons Ratio (y) = -0.09214 0.27643
# Poissons Ratio (z) = 0.35109 0.22510
#
# Static dielectric constant tensor:
#      x y z
#    x 1.873280 0.000000 0.018380 
#    y 0.000000 2.031920 0.000000 
#    z 0.018380 0.000000 1.877910 
# 
# From -- ./inp_files/5621.got.cif
#   From: 2010.05.17/outbox.cif.g08.bks.cpg/sg9_3_cif.got.tgz:5621.got - 2010.06.03 20:04:27.
