data_PCOD9138149
_publ_section_title
;
Structure prediction by ZEFSAII (Michael W. Deem and Ramdas Pophale) SiO2 
 PCOD9138149
Probable space group: C C
;
_chemical_formula_sum "Si O2"
_cell_formula_units_Z 32
_cell_length_a 28.080387
_cell_length_b 8.442352
_cell_length_c 13.780482
_cell_angle_alpha 90.000000
_cell_angle_beta 22.740033
_cell_angle_gamma 90.000000
_cell_volume 1262.807722
_symmetry_space_group_name_H-M "C C"
_symmetry_group_IT_number 9
_symmetry_cell_setting 'monoclinic'
loop_
_space_group_symop_operation_xyz
x,y,z
x,-y,1/2+z
1/2+x,1/2+y,z
1/2+x,1/2-y,1/2+z
loop_
_atom_site_type_symbol
_atom_site_label
_atom_site_fract_x
_atom_site_fract_y
_atom_site_fract_z
Si Si1 0.721400 0.087913 0.991300
Si Si2 0.996651 0.398811 0.046815
Si Si3 0.555287 0.569290 0.179639
Si Si4 0.401999 0.784998 0.760938
Si Si5 0.191666 0.015456 0.241286
Si Si6 0.428161 0.112355 0.896362
Si Si7 0.233459 0.216287 0.984027
Si Si8 0.532681 0.780645 0.718486
O O1 0.850122 0.143562 0.794454
O O2 0.713464 0.899658 0.000068
O O3 0.618806 0.145262 0.262034
O O4 0.671276 0.169617 0.987690
O O5 0.002195 0.395465 0.153409
O O6 0.967514 0.581059 0.075091
O O7 0.876568 0.302756 0.241322
O O8 0.584247 0.553022 0.010030
O O9 0.684613 0.614686 0.986045
O O10 0.468848 0.719704 0.362819
O O11 0.510380 0.397058 0.301142
O O12 0.489114 0.755963 0.689446
O O13 0.281846 0.879381 0.029367
O O14 0.285730 0.109375 0.134668
O O15 0.162295 0.134844 0.208766
O O16 0.460582 0.942501 0.883970
#
# Coordination Sequence:
#
# PCOD9138149 Si02
#       8
#     4   4   4   4   4   4   4   4
#     4  12  22  44  68  93 144 175 221 296 334 396
#     4   9  22  42  66  89 135 174 217 283 346 384
#     4  12  22  40  70  90 138 175 214 287 346 386
#     4   9  22  43  63  98 130 170 234 272 334 420
#     4   9  22  42  63  90 135 171 222 278 340 393
#     4   9  21  43  57  99 128 166 224 278 331 411
#     4  10  24  39  66 105 127 176 240 268 336 426
#     4  10  23  39  65 102 129 171 234 270 335 422
#
# _framework density 25.340357999999998
#
# number of rings (size 3 to 8) (size 9 to 14) (size 15 to 20)
#    0.000    2.500    1.250    2.250   10.500    0.000 
#    0.000    2.500    0.000    0.000    0.000    0.000 
#    0.000    0.000    0.000    0.000    0.000    0.000 
#
# Total GULP energy -89382.174742 kJ/mol
# GULP energy per Si atom -5586.385921 kJ/mol
# Density = 2.528268 g / cm^3
# Si number density = 25.340358 Si / 1000 Ang^3
#
#
#
# Elastic Constant Matrix: (Units=GPa)
#
#
# Indices 1 2 3 4 5 6 
#
# 1 114.4941 74.4092 27.6094 0.0000 -13.9394 0.0000
# 2 74.4092 198.3961 23.3620 0.0000 -10.6305 0.0000
# 3 27.6094 23.3620 57.8173 0.0000 6.7061 0.0000
# 4 0.0000 0.0000 0.0000 32.9278 0.0000 -14.3255
# 5 -13.9394 -10.6305 6.7061 0.0000 39.7010 0.0000
# 6 0.0000 0.0000 0.0000 -14.3255 0.0000 49.3427
#
#
#
# Elastic Compliance Matrix: (Units=1/GPa)
#
#
# Indices 1 2 3 4 5 6 
#
# 1 0.013174 -0.004100 -0.005145 0.000000 0.004397 0.000000
# 2 -0.004100 0.006699 -0.000806 0.000000 0.000491 0.000000
# 3 -0.005145 -0.000806 0.020719 0.000000 -0.005522 0.000000
# 4 0.000000 0.000000 0.000000 0.034760 0.000000 0.010092
# 5 0.004397 0.000491 -0.005522 0.000000 0.027796 0.000000
# 6 0.000000 0.000000 0.000000 0.010092 0.000000 0.023196
#
#
# Mechanical properties :
#
#
# Convention : Reuss Voigt Hill
#
# Bulk Modulus (GPa) = 48.80055 69.05208 58.92632
# Shear Modulus (GPa) = 32.62091 40.74943 36.68517
#
# Velocity S-wave (km/s) = 3.59180 4.01444 3.80899
# Velocity P-wave (km/s) = 6.04163 6.98546 6.53062
#
# Compressibility (1/GPa) = 0.02049157
#
# Stress axis : x y z
#
# Youngs Moduli (GPa) = 75.90516 149.27078 48.26546
#
# Poissons Ratio (x) = 0.61196 0.24831
# Poissons Ratio (y) = 0.31119 0.03891
# Poissons Ratio (z) = 0.39050 0.12033
#
# Static dielectric constant tensor:
#      x y z
#    x 1.997880 0.000000 0.019990 
#    y 0.000000 1.995630 0.000000 
#    z 0.019990 0.000000 2.016050 
# 
# From -- ./inp_files/27968.got.cif
#   From: 2010.05.17/outbox.cif.g08.bks.cpg/sg9_14_cif.got.tgz:27968.got - 2010.06.03 20:04:27.
