data_PCOD9138730
_publ_section_title
;
Structure prediction by ZEFSAII (Michael W. Deem and Ramdas Pophale) SiO2 
 PCOD9138730
Probable space group: C C
;
_chemical_formula_sum "Si O2"
_cell_formula_units_Z 32
_cell_length_a 14.218583
_cell_length_b 9.096965
_cell_length_c 9.675714
_cell_angle_alpha 90.000000
_cell_angle_beta 74.989169
_cell_angle_gamma 90.000000
_cell_volume 1208.808864
_symmetry_space_group_name_H-M "C C"
_symmetry_group_IT_number 9
_symmetry_cell_setting 'monoclinic'
loop_
_space_group_symop_operation_xyz
x,y,z
x,-y,1/2+z
1/2+x,1/2+y,z
1/2+x,1/2-y,1/2+z
loop_
_atom_site_type_symbol
_atom_site_label
_atom_site_fract_x
_atom_site_fract_y
_atom_site_fract_z
Si Si1 0.139780 0.743900 0.439710
Si Si2 0.278695 0.753436 0.816719
Si Si3 0.601147 0.744835 0.587950
Si Si4 0.921323 0.279737 0.000925
Si Si5 0.667414 0.449531 0.655319
Si Si6 0.023504 0.554083 0.684440
Si Si7 0.983774 0.186466 0.382963
Si Si8 0.818318 0.076757 0.257380
O O1 0.116049 0.640294 0.582897
O O2 0.179120 0.893191 0.493167
O O3 0.213790 0.650517 0.322093
O O4 0.030760 0.773572 0.427061
O O5 0.249404 0.872518 0.714688
O O6 0.312468 0.597222 0.745853
O O7 0.182210 0.714224 0.942658
O O8 0.359145 0.814868 0.891159
O O9 0.555595 0.887594 0.674379
O O10 0.515368 0.670563 0.528996
O O11 0.656685 0.376281 0.157655
O O12 0.940058 0.410947 0.102898
O O13 0.867454 0.153069 0.107197
O O14 0.565139 0.393494 0.757520
O O15 0.993351 0.641072 0.833791
O O16 0.882860 0.122736 0.366448
#
# Coordination Sequence:
#
# PCOD9138730 Si02
#       8
#     4   4   4   4   4   4   4   4
#     4   9  20  45  75 107 153 195 262 322 374 465
#     4  11  24  42  75 111 157 198 270 312 398 475
#     4  11  22  45  74 102 155 206 249 323 403 452
#     4   9  22  44  73 112 156 195 267 323 379 471
#     4  10  23  46  70 108 160 197 254 335 381 467
#     4   8  18  44  70 103 144 193 255 311 372 462
#     4   9  22  42  75 111 143 193 268 312 380 481
#     4  11  21  42  84 112 144 213 255 324 393 461
#
# _framework density 26.472341
#
# number of rings (size 3 to 8) (size 9 to 14) (size 15 to 20)
#    0.750    1.500    2.500    0.000    3.500    1.000 
#    6.750    5.000    5.500    0.000    0.000    0.000 
#    0.000    0.000    0.000    0.000    0.000    0.000 
#
# Total GULP energy -89688.513963 kJ/mol
# GULP energy per Si atom -5605.532123 kJ/mol
# Density = 2.641209 g / cm^3
# Si number density = 26.472341 Si / 1000 Ang^3
#
#
#
# Elastic Constant Matrix: (Units=GPa)
#
#
# Indices 1 2 3 4 5 6 
#
# 1 156.9841 50.1546 57.5384 0.0000 30.2301 0.0000
# 2 50.1546 174.5100 54.3210 0.0000 14.7910 0.0000
# 3 57.5384 54.3210 70.5593 0.0000 14.1362 0.0000
# 4 0.0000 0.0000 0.0000 34.1771 0.0000 -0.0825
# 5 30.2301 14.7910 14.1362 0.0000 62.3829 0.0000
# 6 0.0000 0.0000 0.0000 -0.0825 0.0000 36.2585
#
#
#
# Elastic Compliance Matrix: (Units=1/GPa)
#
#
# Indices 1 2 3 4 5 6 
#
# 1 0.009613 -0.000336 -0.006980 0.000000 -0.002997 0.000000
# 2 -0.000336 0.007563 -0.005470 0.000000 -0.000391 0.000000
# 3 -0.006980 -0.005470 0.024238 0.000000 -0.000813 0.000000
# 4 0.000000 0.000000 0.000000 0.029259 0.000000 0.000067
# 5 -0.002997 -0.000391 -0.000813 0.000000 0.017759 0.000000
# 6 0.000000 0.000000 0.000000 0.000067 0.000000 0.027580
#
#
# Mechanical properties :
#
#
# Convention : Reuss Voigt Hill
#
# Bulk Modulus (GPa) = 63.12222 80.67572 71.89897
# Shear Modulus (GPa) = 34.04502 42.56633 38.30567
#
# Velocity S-wave (km/s) = 3.59006 4.01428 3.80808
# Velocity P-wave (km/s) = 6.40945 7.21301 6.82307
#
# Compressibility (1/GPa) = 0.01584228
#
# Stress axis : x y z
#
# Youngs Moduli (GPa) = 104.02799 132.22800 41.25733
#
# Poissons Ratio (x) = 0.04444 0.28796
# Poissons Ratio (y) = 0.03496 0.22567
# Poissons Ratio (z) = 0.72608 0.72327
#
# Static dielectric constant tensor:
#      x y z
#    x 2.061140 0.000000 0.003500 
#    y 0.000000 2.050500 0.000000 
#    z 0.003500 0.000000 2.138330 
# 
# From -- ./inp_files/17935.got.cif
#   From: 2010.05.17/outbox.cif.g08.bks.cpg/sg9_9_cif.got.tgz:17935.got - 2010.06.03 20:04:27.
