data_PCOD9138417
_publ_section_title
;
Structure prediction by ZEFSAII (Michael W. Deem and Ramdas Pophale) SiO2 
 PCOD9138417
Probable space group: C C
;
_chemical_formula_sum "Si O2"
_cell_formula_units_Z 32
_cell_length_a 12.686869
_cell_length_b 20.409992
_cell_length_c 7.962160
_cell_angle_alpha 90.000000
_cell_angle_beta 49.120241
_cell_angle_gamma 90.000000
_cell_volume 1558.829636
_symmetry_space_group_name_H-M "C C"
_symmetry_group_IT_number 9
_symmetry_cell_setting 'monoclinic'
loop_
_space_group_symop_operation_xyz
x,y,z
x,-y,1/2+z
1/2+x,1/2+y,z
1/2+x,1/2-y,1/2+z
loop_
_atom_site_type_symbol
_atom_site_label
_atom_site_fract_x
_atom_site_fract_y
_atom_site_fract_z
Si Si1 0.155540 0.135923 0.477760
Si Si2 0.047217 0.429889 0.119486
Si Si3 0.808665 0.719173 0.079072
Si Si4 0.741392 0.743258 0.616433
Si Si5 0.851713 0.159278 0.763233
Si Si6 0.585987 0.212769 0.591263
Si Si7 0.592481 0.069444 0.960655
Si Si8 0.880756 0.390279 0.977411
O O1 0.257808 0.151066 0.214953
O O2 0.153761 0.209564 0.558555
O O3 0.234445 0.092711 0.536215
O O4 0.996570 0.120126 0.608971
O O5 0.129082 0.362100 0.013373
O O6 0.023905 0.433230 0.345614
O O7 0.921580 0.422540 0.112467
O O8 0.125669 0.495166 0.980326
O O9 0.871132 0.772627 0.141840
O O10 0.673283 0.754208 0.147399
O O11 0.926373 0.710457 0.815818
O O12 0.803282 0.812432 0.494495
O O13 0.860366 0.688113 0.522195
O O14 0.635713 0.747647 0.879036
O O15 0.727444 0.115709 0.818059
O O16 0.494584 0.095451 0.214673
#
# Coordination Sequence:
#
# PCOD9138417 Si02
#       8
#     4   4   4   4   4   4   4   4
#     4   9  22  40  62  95 134 176 214 273 361 412
#     4  12  25  41  69  99 132 187 244 282 325 409
#     4  11  22  36  63 100 138 173 218 282 361 416
#     4   9  24  36  67  99 140 173 219 286 363 406
#     4  11  22  41  65  94 139 182 215 280 359 422
#     4  12  23  38  62 104 136 172 226 293 344 418
#     4  12  25  45  72  95 140 187 241 287 332 409
#     4  10  23  43  68  98 135 178 233 289 339 414
#
# _framework density 20.528222
#
# number of rings (size 3 to 8) (size 9 to 14) (size 15 to 20)
#    0.750    0.500    3.750    2.250    7.000    0.000 
#    0.000    0.000    2.750    1.500    0.000    0.000 
#    0.000    0.000    0.000    0.000    0.000    0.000 
#
# Total GULP energy -89086.557874 kJ/mol
# GULP energy per Si atom -5567.909867 kJ/mol
# Density = 2.048150 g / cm^3
# Si number density = 20.528222 Si / 1000 Ang^3
#
#
#
# Elastic Constant Matrix: (Units=GPa)
#
#
# Indices 1 2 3 4 5 6 
#
# 1 98.8930 7.5100 46.3317 0.0000 1.2914 0.0000
# 2 7.5100 63.0347 14.0613 0.0000 2.8917 0.0000
# 3 46.3317 14.0613 97.6269 0.0000 7.2271 0.0000
# 4 0.0000 0.0000 0.0000 18.1616 0.0000 9.1489
# 5 1.2914 2.8917 7.2271 0.0000 27.9087 0.0000
# 6 0.0000 0.0000 0.0000 9.1489 0.0000 27.3632
#
#
#
# Elastic Compliance Matrix: (Units=1/GPa)
#
#
# Indices 1 2 3 4 5 6 
#
# 1 0.013034 -0.000210 -0.006232 0.000000 0.001032 0.000000
# 2 -0.000210 0.016428 -0.002183 0.000000 -0.001127 0.000000
# 3 -0.006232 -0.002183 0.013740 0.000000 -0.003044 0.000000
# 4 0.000000 0.000000 0.000000 0.066214 0.000000 -0.022139
# 5 0.001032 -0.001127 -0.003044 0.000000 0.036688 0.000000
# 6 0.000000 0.000000 0.000000 -0.022139 0.000000 0.043948
#
#
# Mechanical properties :
#
#
# Convention : Reuss Voigt Hill
#
# Bulk Modulus (GPa) = 38.53198 43.92896 41.23047
# Shear Modulus (GPa) = 23.15322 27.46347 25.30835
#
# Velocity S-wave (km/s) = 3.36203 3.66162 3.51501
# Velocity P-wave (km/s) = 5.82082 6.27075 6.04997
#
# Compressibility (1/GPa) = 0.02595247
#
# Stress axis : x y z
#
# Youngs Moduli (GPa) = 76.72210 60.87171 72.77862
#
# Poissons Ratio (x) = 0.01279 0.45355
# Poissons Ratio (y) = 0.01612 0.15887
# Poissons Ratio (z) = 0.47812 0.13288
#
# Static dielectric constant tensor:
#      x y z
#    x 1.818840 0.000000 0.041710 
#    y 0.000000 1.719240 0.000000 
#    z 0.041710 0.000000 1.781520 
# 
# From -- ./inp_files/10055.got.cif
#   From: 2010.05.17/outbox.cif.g08.bks.cpg/sg9_6_cif.got.tgz:10055.got - 2010.06.03 20:04:27.
