data_PCOD9138128
_publ_section_title
;
Structure prediction by ZEFSAII (Michael W. Deem and Ramdas Pophale) SiO2 
 PCOD9138128
Probable space group: C C
;
_chemical_formula_sum "Si O2"
_cell_formula_units_Z 24
_cell_length_a 14.375265
_cell_length_b 9.046229
_cell_length_c 8.155751
_cell_angle_alpha 90.000000
_cell_angle_beta 70.657661
_cell_angle_gamma 90.000000
_cell_volume 1000.726238
_symmetry_space_group_name_H-M "C C"
_symmetry_group_IT_number 9
_symmetry_cell_setting 'monoclinic'
loop_
_space_group_symop_operation_xyz
x,y,z
x,-y,1/2+z
1/2+x,1/2+y,z
1/2+x,1/2-y,1/2+z
loop_
_atom_site_type_symbol
_atom_site_label
_atom_site_fract_x
_atom_site_fract_y
_atom_site_fract_z
Si Si1 0.839670 0.788713 0.194130
Si Si2 0.717082 0.804632 0.947484
Si Si3 0.519566 0.408386 0.911359
Si Si4 0.499614 0.273959 0.570094
Si Si5 0.293405 0.261859 0.574935
Si Si6 0.732506 0.500303 0.275213
O O1 0.801310 0.837344 0.395487
O O2 0.823828 0.611242 0.215336
O O3 0.775033 0.843181 0.077333
O O4 0.951675 0.833374 0.088827
O O5 0.760025 0.860723 0.748909
O O6 0.734023 0.626165 0.914581
O O7 0.599205 0.820959 0.018035
O O8 0.484110 0.342311 0.759708
O O9 0.637496 0.393791 0.841059
O O10 0.510155 0.583998 0.945005
O O11 0.400908 0.200001 0.562970
O O12 0.224975 0.116655 0.627426
#
# Coordination Sequence:
#
# PCOD9138128 Si02
#       6
#     4   4   4   4   4   4
#     4  12  20  37  63  96 126 168 210 266 314 377
#     4   9  21  37  61  88 124 163 211 261 306 374
#     4  11  22  34  66  93 130 164 214 258 322 375
#     4  11  21  40  60  96 126 169 213 269 311 384
#     4  10  23  37  62  94 129 164 221 254 316 383
#     4   9  21  39  62  93 123 170 209 258 311 385
#
# _framework density 23.982583999999999
#
# number of rings (size 3 to 8) (size 9 to 14) (size 15 to 20)
#    1.000    0.667    3.333    2.000    2.333    1.333 
#    0.000    0.000    3.667    0.000    0.000    0.000 
#    0.000    0.000    0.000    0.000    0.000    0.000 
#
# Total GULP energy -66926.151972 kJ/mol
# GULP energy per Si atom -5577.179331 kJ/mol
# Density = 2.392800 g / cm^3
# Si number density = 23.982584 Si / 1000 Ang^3
#
#
#
# Elastic Constant Matrix: (Units=GPa)
#
#
# Indices 1 2 3 4 5 6 
#
# 1 87.8697 27.4209 70.2256 0.0000 -13.4665 0.0000
# 2 27.4209 60.8420 23.3138 0.0000 -1.7450 0.0000
# 3 70.2256 23.3138 205.7484 0.0000 11.4613 0.0000
# 4 0.0000 0.0000 0.0000 41.3078 0.0000 -2.7571
# 5 -13.4665 -1.7450 11.4613 0.0000 48.3714 0.0000
# 6 0.0000 0.0000 0.0000 -2.7571 0.0000 24.6649
#
#
#
# Elastic Compliance Matrix: (Units=1/GPa)
#
#
# Indices 1 2 3 4 5 6 
#
# 1 0.019318 -0.006113 -0.006271 0.000000 0.006643 0.000000
# 2 -0.006113 0.019174 -0.000030 0.000000 -0.001003 0.000000
# 3 -0.006271 -0.000030 0.007196 0.000000 -0.003452 0.000000
# 4 0.000000 0.000000 0.000000 0.024390 0.000000 0.002726
# 5 0.006643 -0.001003 -0.003452 0.000000 0.023305 0.000000
# 6 0.000000 0.000000 0.000000 0.002726 0.000000 0.040848
#
#
# Mechanical properties :
#
#
# Convention : Reuss Voigt Hill
#
# Bulk Modulus (GPa) = 47.93893 66.26452 57.10173
# Shear Modulus (GPa) = 30.11799 38.43545 34.27672
#
# Velocity S-wave (km/s) = 3.54761 4.00764 3.78462
# Velocity P-wave (km/s) = 6.06739 7.00751 6.55432
#
# Compressibility (1/GPa) = 0.02085987
#
# Stress axis : x y z
#
# Youngs Moduli (GPa) = 51.76501 52.15415 138.95764
#
# Poissons Ratio (x) = 0.31882 0.87140
# Poissons Ratio (y) = 0.31644 0.00421
# Poissons Ratio (z) = 0.32462 0.00158
#
# Static dielectric constant tensor:
#      x y z
#    x 1.969000 0.000000 -0.006570 
#    y 0.000000 1.938500 0.000000 
#    z -0.006570 0.000000 2.087980 
# 
# From -- ./inp_files/8808.got.cif
#   From: 2010.05.17/outbox.cif.g08.bks.cpg/sg9_5_cif.got.tgz:8808.got - 2010.06.03 20:04:27.
