data_PCOD9138535
_publ_section_title
;
Structure prediction by ZEFSAII (Michael W. Deem and Ramdas Pophale) SiO2 
 PCOD9138535
Probable space group: C C
;
_chemical_formula_sum "Si O2"
_cell_formula_units_Z 32
_cell_length_a 9.403698
_cell_length_b 28.870951
_cell_length_c 5.044573
_cell_angle_alpha 90.000000
_cell_angle_beta 108.812362
_cell_angle_gamma 90.000000
_cell_volume 1296.406989
_symmetry_space_group_name_H-M "C C"
_symmetry_group_IT_number 9
_symmetry_cell_setting 'monoclinic'
loop_
_space_group_symop_operation_xyz
x,y,z
x,-y,1/2+z
1/2+x,1/2+y,z
1/2+x,1/2-y,1/2+z
loop_
_atom_site_type_symbol
_atom_site_label
_atom_site_fract_x
_atom_site_fract_y
_atom_site_fract_z
Si Si1 0.527490 0.972904 0.855880
Si Si2 0.708872 0.788284 0.095473
Si Si3 0.887077 0.028887 0.527966
Si Si4 0.533015 0.387350 0.395562
Si Si5 0.867005 0.825183 0.686481
Si Si6 0.331173 0.888553 0.793633
Si Si7 0.676692 0.316541 0.084740
Si Si8 0.904042 0.293249 0.608390
O O1 0.706941 0.968106 0.950201
O O2 0.455285 0.926194 0.921330
O O3 0.482446 0.986491 0.531663
O O4 0.795893 0.821290 0.935767
O O5 0.787071 0.739032 0.191214
O O6 0.558605 0.778455 0.838198
O O7 0.734086 0.810622 0.400269
O O8 0.951217 0.078167 0.650138
O O9 0.931964 0.989507 0.767947
O O10 0.430256 0.371514 0.581095
O O11 0.686692 0.412073 0.575548
O O12 0.595025 0.340555 0.290487
O O13 0.029746 0.798617 0.833826
O O14 0.256033 0.858899 0.981191
O O15 0.401101 0.848089 0.654277
O O16 0.821394 0.287318 0.272649
#
# Coordination Sequence:
#
# PCOD9138535 Si02
#       8
#     4   4   4   4   4   4   4   4
#     4  10  24  45  66  99 140 185 232 290 348 422
#     4  12  28  45  72 104 138 187 234 292 354 421
#     4  10  24  42  67 100 136 180 230 289 352 422
#     4  10  23  44  70 101 138 181 230 295 347 426
#     4  11  25  46  71 102 135 185 230 288 353 416
#     4  10  25  43  71 104 142 185 237 290 356 420
#     4  10  23  47  70 104 139 188 232 294 349 425
#     4  11  28  46  71 106 144 187 237 298 351 428
#
# _framework density 24.683606000000001
#
# number of rings (size 3 to 8) (size 9 to 14) (size 15 to 20)
#    0.000    1.500    1.250    0.750   15.750    1.000 
#    2.250    0.000    0.000    0.000    0.000    0.000 
#    0.000    0.000    0.000    0.000    0.000    0.000 
#
# Total GULP energy -89192.470658 kJ/mol
# GULP energy per Si atom -5574.529416 kJ/mol
# Density = 2.462743 g / cm^3
# Si number density = 24.683606 Si / 1000 Ang^3
#
#
#
# Elastic Constant Matrix: (Units=GPa)
#
#
# Indices 1 2 3 4 5 6 
#
# 1 58.5378 5.6188 36.2040 0.0000 21.6708 0.0000
# 2 5.6188 60.5404 10.7129 0.0000 18.5089 0.0000
# 3 36.2040 10.7129 141.6971 0.0000 11.2596 0.0000
# 4 0.0000 0.0000 0.0000 41.1950 0.0000 14.6619
# 5 21.6708 18.5089 11.2596 0.0000 42.9354 0.0000
# 6 0.0000 0.0000 0.0000 14.6619 0.0000 39.5485
#
#
#
# Elastic Compliance Matrix: (Units=1/GPa)
#
#
# Indices 1 2 3 4 5 6 
#
# 1 0.024749 0.002371 -0.005544 0.000000 -0.012060 0.000000
# 2 0.002371 0.019343 -0.001338 0.000000 -0.009184 0.000000
# 3 -0.005544 -0.001338 0.008484 0.000000 0.001151 0.000000
# 4 0.000000 0.000000 0.000000 0.027965 0.000000 -0.010367
# 5 -0.012060 -0.009184 0.001151 0.000000 0.033035 0.000000
# 6 0.000000 0.000000 0.000000 -0.010367 0.000000 0.029129
#
#
# Mechanical properties :
#
#
# Convention : Reuss Voigt Hill
#
# Bulk Modulus (GPa) = 22.96118 40.64964 31.80541
# Shear Modulus (GPa) = 30.07619 38.61843 34.34731
#
# Velocity S-wave (km/s) = 3.49444 3.95971 3.73433
# Velocity P-wave (km/s) = 5.06003 6.11636 5.61310
#
# Compressibility (1/GPa) = 0.04355177
#
# Stress axis : x y z
#
# Youngs Moduli (GPa) = 40.40578 51.69955 117.87343
#
# Poissons Ratio (x) = -0.12259 0.65354
# Poissons Ratio (y) = -0.09581 0.15776
# Poissons Ratio (z) = 0.22403 0.06920
#
# Static dielectric constant tensor:
#      x y z
#    x 1.985000 0.000000 -0.007610 
#    y 0.000000 1.934900 0.000000 
#    z -0.007610 0.000000 2.064410 
# 
# From -- ./inp_files/1417.got.cif
#   From: 2010.05.17/outbox.cif.g08.bks.cpg/sg9_1_cif.got.tgz:1417.got - 2010.06.03 20:04:27.
