data_PCOD9138611
_publ_section_title
;
Structure prediction by ZEFSAII (Michael W. Deem and Ramdas Pophale) SiO2 
 PCOD9138611
Probable space group: C C
;
_chemical_formula_sum "Si O2"
_cell_formula_units_Z 32
_cell_length_a 16.651422
_cell_length_b 7.815988
_cell_length_c 19.428480
_cell_angle_alpha 90.000000
_cell_angle_beta 145.389072
_cell_angle_gamma 90.000000
_cell_volume 1436.226483
_symmetry_space_group_name_H-M "C C"
_symmetry_group_IT_number 9
_symmetry_cell_setting 'monoclinic'
loop_
_space_group_symop_operation_xyz
x,y,z
x,-y,1/2+z
1/2+x,1/2+y,z
1/2+x,1/2-y,1/2+z
loop_
_atom_site_type_symbol
_atom_site_label
_atom_site_fract_x
_atom_site_fract_y
_atom_site_fract_z
Si Si1 0.132920 0.400116 0.472040
Si Si2 0.055354 0.508173 0.281825
Si Si3 0.329215 0.911559 0.420139
Si Si4 0.732391 0.461564 0.092055
Si Si5 0.827414 0.040582 0.717886
Si Si6 0.614430 0.615493 0.885361
Si Si7 0.842576 0.589704 0.298564
Si Si8 0.639541 0.140310 0.199102
O O1 0.152829 0.405203 0.404069
O O2 0.158194 0.214776 0.521213
O O3 0.233399 0.528843 0.583813
O O4 0.977835 0.472003 0.377735
O O5 0.066457 0.704144 0.318802
O O6 0.101997 0.510813 0.235708
O O7 0.894707 0.449710 0.180838
O O8 0.241720 0.945594 0.427397
O O9 0.484593 0.838183 0.552064
O O10 0.229080 0.786688 0.302838
O O11 0.335786 0.077780 0.375714
O O12 0.723013 0.502550 0.166180
O O13 0.667957 0.613692 0.001243
O O14 0.850575 0.222406 0.771682
O O15 0.980464 0.990658 0.796478
O O16 0.747682 0.928050 0.718192
#
# Coordination Sequence:
#
# PCOD9138611 Si02
#       8
#     4   4   4   4   4   4   4   4
#     4  11  24  42  69 102 141 179 243 293 363 420
#     4  10  23  45  67 102 139 192 232 291 358 439
#     4  11  25  48  70 110 145 193 237 303 359 445
#     4  11  23  41  70 101 139 182 238 294 354 424
#     4  12  25  44  72 102 142 189 241 300 357 431
#     4  11  24  42  74  99 144 187 237 288 367 432
#     4  11  25  44  69 100 140 188 239 295 365 435
#     4  11  25  46  75 104 152 186 245 298 367 428
#
# _framework density 22.280608999999998
#
# number of rings (size 3 to 8) (size 9 to 14) (size 15 to 20)
#    0.000    1.000    5.000    1.500    5.250    2.000 
#    0.000    0.000    0.000    0.000    0.000    0.000 
#    0.000    0.000    0.000    0.000    0.000    0.000 
#
# Total GULP energy -89215.462811 kJ/mol
# GULP energy per Si atom -5575.966426 kJ/mol
# Density = 2.222990 g / cm^3
# Si number density = 22.280609 Si / 1000 Ang^3
#
#
#
# Elastic Constant Matrix: (Units=GPa)
#
#
# Indices 1 2 3 4 5 6 
#
# 1 64.3735 17.2141 36.5550 0.0000 3.5720 0.0000
# 2 17.2141 65.7943 37.9493 0.0000 0.0743 0.0000
# 3 36.5550 37.9493 134.6395 0.0000 -18.3468 0.0000
# 4 0.0000 0.0000 0.0000 35.3742 0.0000 -5.1033
# 5 3.5720 0.0743 -18.3468 0.0000 36.6975 0.0000
# 6 0.0000 0.0000 0.0000 -5.1033 0.0000 19.8907
#
#
#
# Elastic Compliance Matrix: (Units=1/GPa)
#
#
# Indices 1 2 3 4 5 6 
#
# 1 0.019330 -0.001993 -0.005304 0.000000 -0.004529 0.000000
# 2 -0.001993 0.018624 -0.005029 0.000000 -0.002358 0.000000
# 3 -0.005304 -0.005029 0.011114 0.000000 0.006083 0.000000
# 4 0.000000 0.000000 0.000000 0.029356 0.000000 0.007532
# 5 -0.004529 -0.002358 0.006083 0.000000 0.030736 0.000000
# 6 0.000000 0.000000 0.000000 0.007532 0.000000 0.052207
#
#
# Mechanical properties :
#
#
# Convention : Reuss Voigt Hill
#
# Bulk Modulus (GPa) = 40.95805 49.80490 45.38147
# Shear Modulus (GPa) = 25.75216 29.93174 27.84195
#
# Velocity S-wave (km/s) = 3.40341 3.66922 3.53881
# Velocity P-wave (km/s) = 5.81954 6.35239 6.09179
#
# Compressibility (1/GPa) = 0.02441523
#
# Stress axis : x y z
#
# Youngs Moduli (GPa) = 51.73212 53.69408 89.97971
#
# Poissons Ratio (x) = 0.10703 0.47721
# Poissons Ratio (y) = 0.10312 0.45255
# Poissons Ratio (z) = 0.27436 0.27005
#
# Static dielectric constant tensor:
#      x y z
#    x 1.861010 0.000000 -0.016390 
#    y 0.000000 1.877800 0.000000 
#    z -0.016390 0.000000 1.903460 
# 
# From -- ./inp_files/34050.got.cif
#   From: 2010.05.17/outbox.cif.g08.bks.cpg/sg9_18_cif.got.tgz:34050.got - 2010.06.03 20:04:27.
