data_PCOD9138998
_publ_section_title
;
Structure prediction by ZEFSAII (Michael W. Deem and Ramdas Pophale) SiO2 
 PCOD9138998
Probable space group: C C
;
_chemical_formula_sum "Si O2"
_cell_formula_units_Z 28
_cell_length_a 21.716553
_cell_length_b 8.798891
_cell_length_c 11.092964
_cell_angle_alpha 90.000000
_cell_angle_beta 31.529306
_cell_angle_gamma 90.000000
_cell_volume 1108.444160
_symmetry_space_group_name_H-M "C C"
_symmetry_group_IT_number 9
_symmetry_cell_setting 'monoclinic'
loop_
_space_group_symop_operation_xyz
x,y,z
x,-y,1/2+z
1/2+x,1/2+y,z
1/2+x,1/2-y,1/2+z
loop_
_atom_site_type_symbol
_atom_site_label
_atom_site_fract_x
_atom_site_fract_y
_atom_site_fract_z
Si Si1 0.566150 0.843778 0.582020
Si Si2 0.491320 0.680403 0.944530
Si Si3 0.826783 0.089988 0.638104
Si Si4 0.857940 0.479615 0.196712
Si Si5 0.175626 0.831660 0.341216
Si Si6 0.334228 0.740471 0.877805
Si Si7 0.499406 0.843386 0.283441
O O1 0.566507 0.767839 0.715331
O O2 0.692550 0.887155 0.318876
O O3 0.473735 0.736229 0.669441
O O4 0.500882 0.007244 0.698803
O O5 0.572026 0.625654 0.920839
O O6 0.415241 0.551518 0.005760
O O7 0.403764 0.810625 0.142112
O O8 0.810221 0.132602 0.807170
O O9 0.899444 0.216759 0.444017
O O10 0.760017 0.460990 0.254412
O O11 0.803171 0.586809 0.388437
O O12 0.969278 0.577757 0.961509
O O13 0.118754 0.743478 0.549765
O O14 0.258242 0.719665 0.124376
#
# Coordination Sequence:
#
# PCOD9138998 Si02
#       7
#     4   4   4   4   4   4   4
#     4  11  23  49  70  97 147 183 237 296 349 430
#     4  11  24  42  71 107 137 184 238 296 358 417
#     4  11  26  45  68 108 138 180 246 292 353 424
#     4  10  24  47  71 102 144 189 237 286 365 427
#     4  12  23  44  74 102 147 183 236 300 350 430
#     4  11  24  46  74 104 140 196 235 290 367 414
#     4  10  24  43  70 100 133 187 233 286 354 420
#
# _framework density 25.260632000000001
#
# number of rings (size 3 to 8) (size 9 to 14) (size 15 to 20)
#    0.000    1.143    4.286    1.714    2.000    3.429 
#    0.000    2.857    0.000    0.000    0.000    0.000 
#    0.000    0.000    0.000    0.000    0.000    0.000 
#
# Total GULP energy -78135.842233 kJ/mol
# GULP energy per Si atom -5581.131588 kJ/mol
# Density = 2.520314 g / cm^3
# Si number density = 25.260632 Si / 1000 Ang^3
#
#
#
# Elastic Constant Matrix: (Units=GPa)
#
#
# Indices 1 2 3 4 5 6 
#
# 1 86.1711 2.8903 24.8550 0.0000 -22.2217 0.0000
# 2 2.8903 84.2124 54.9302 0.0000 -12.0992 0.0000
# 3 24.8550 54.9302 150.0000 0.0000 -16.0918 0.0000
# 4 0.0000 0.0000 0.0000 41.7336 0.0000 7.3864
# 5 -22.2217 -12.0992 -16.0918 0.0000 33.4644 0.0000
# 6 0.0000 0.0000 0.0000 7.3864 0.0000 27.0685
#
#
#
# Elastic Compliance Matrix: (Units=1/GPa)
#
#
# Indices 1 2 3 4 5 6 
#
# 1 0.014619 0.002333 -0.002262 0.000000 0.009464 0.000000
# 2 0.002333 0.016275 -0.005851 0.000000 0.004620 0.000000
# 3 -0.002262 -0.005851 0.009274 0.000000 0.000843 0.000000
# 4 0.000000 0.000000 0.000000 0.025178 0.000000 -0.006870
# 5 0.009464 0.004620 0.000843 0.000000 0.038243 0.000000
# 6 0.000000 0.000000 0.000000 -0.006870 0.000000 0.038818
#
#
# Mechanical properties :
#
#
# Convention : Reuss Voigt Hill
#
# Bulk Modulus (GPa) = 34.95264 53.97052 44.46158
# Shear Modulus (GPa) = 30.58067 36.30050 33.44058
#
# Velocity S-wave (km/s) = 3.48315 3.79494 3.64238
# Velocity P-wave (km/s) = 5.48118 6.37291 5.94379
#
# Compressibility (1/GPa) = 0.02861014
#
# Stress axis : x y z
#
# Youngs Moduli (GPa) = 68.40215 61.44455 107.82398
#
# Poissons Ratio (x) = -0.14336 0.24385
# Poissons Ratio (y) = -0.15959 0.63086
# Poissons Ratio (z) = 0.15470 0.35950
#
# Static dielectric constant tensor:
#      x y z
#    x 2.075540 0.000000 0.008000 
#    y 0.000000 2.022960 0.000000 
#    z 0.008000 0.000000 2.003360 
# 
# From -- ./inp_files/20789.got.cif
#   From: 2010.05.17/outbox.cif.g08.bks.cpg/sg9_11_cif.got.tgz:20789.got - 2010.06.03 20:04:27.
