data_PCOD9138942
_publ_section_title
;
Structure prediction by ZEFSAII (Michael W. Deem and Ramdas Pophale) SiO2 
 PCOD9138942
Probable space group: C C
;
_chemical_formula_sum "Si O2"
_cell_formula_units_Z 32
_cell_length_a 8.188303
_cell_length_b 22.111108
_cell_length_c 15.029005
_cell_angle_alpha 90.000000
_cell_angle_beta 34.788656
_cell_angle_gamma 90.000000
_cell_volume 1552.491007
_symmetry_space_group_name_H-M "C C"
_symmetry_group_IT_number 9
_symmetry_cell_setting 'monoclinic'
loop_
_space_group_symop_operation_xyz
x,y,z
x,-y,1/2+z
1/2+x,1/2+y,z
1/2+x,1/2-y,1/2+z
loop_
_atom_site_type_symbol
_atom_site_label
_atom_site_fract_x
_atom_site_fract_y
_atom_site_fract_z
Si Si1 0.938230 0.605846 0.899380
Si Si2 0.076457 0.890217 0.139912
Si Si3 0.514826 0.202140 0.520741
Si Si4 0.482384 0.607556 0.256951
Si Si5 0.009521 0.461623 0.848281
Si Si6 0.687776 0.323254 0.347609
Si Si7 0.970260 0.939985 0.370004
Si Si8 0.897996 0.537121 0.203130
O O1 0.848085 0.635784 0.847740
O O2 0.253456 0.630221 0.777895
O O3 0.975139 0.533103 0.878261
O O4 0.712998 0.622317 0.077069
O O5 0.084436 0.936474 0.218920
O O6 0.279790 0.834393 0.069269
O O7 0.207345 0.928340 0.001410
O O8 0.804988 0.163689 0.376272
O O9 0.554024 0.267814 0.461183
O O10 0.396039 0.199532 0.674930
O O11 0.247245 0.565671 0.309562
O O12 0.663524 0.577801 0.256662
O O13 0.061943 0.445823 0.721213
O O14 0.462597 0.370292 0.404674
O O15 0.662063 0.970115 0.517404
O O16 0.213067 0.978319 0.310206
#
# Coordination Sequence:
#
# PCOD9138942 Si02
#       8
#     4   4   4   4   4   4   4   4
#     4  12  21  41  65 101 138 177 224 280 339 408
#     4  10  24  42  65 100 135 182 225 278 342 405
#     4  10  25  49  69  94 131 182 233 287 338 401
#     4  11  25  43  69 100 141 187 223 277 346 406
#     4  11  24  39  65 102 145 182 220 275 344 413
#     4  11  24  45  74  93 135 178 234 284 344 397
#     4  11  24  43  66 100 139 180 217 284 340 418
#     4  12  25  40  67 104 144 176 226 273 347 412
#
# _framework density 20.612036
#
# number of rings (size 3 to 8) (size 9 to 14) (size 15 to 20)
#    0.000    1.000    2.500    3.750    8.750    1.000 
#    2.250    1.250    0.000    0.000    0.000    0.000 
#    0.000    0.000    0.000    0.000    0.000    0.000 
#
# Total GULP energy -89319.275214 kJ/mol
# GULP energy per Si atom -5582.454701 kJ/mol
# Density = 2.056512 g / cm^3
# Si number density = 20.612036 Si / 1000 Ang^3
#
#
#
# Elastic Constant Matrix: (Units=GPa)
#
#
# Indices 1 2 3 4 5 6 
#
# 1 59.5562 19.6439 18.0358 0.0006 3.9521 -0.0003
# 2 19.6439 85.6019 46.8210 0.0000 -3.9195 0.0000
# 3 18.0358 46.8210 113.3415 0.0007 -10.6089 -0.0003
# 4 0.0006 0.0000 0.0007 -13.7286 -0.0005 46.8775
# 5 3.9521 -3.9195 -10.6089 -0.0005 40.7181 0.0003
# 6 -0.0003 0.0000 -0.0003 46.8775 0.0003 -9.9291
#
#
#
# Elastic Compliance Matrix: (Units=1/GPa)
#
#
# Indices 1 2 3 4 5 6 
#
# 1 0.018634 -0.003411 -0.001800 0.000000 -0.002606 0.000000
# 2 -0.003411 0.015718 -0.005922 0.000000 0.000301 0.000000
# 3 -0.001800 -0.005922 0.011807 0.000000 0.002681 0.000000
# 4 0.000000 0.000000 0.000000 0.004817 0.000000 0.022743
# 5 -0.002606 0.000301 0.002681 0.000000 0.025539 0.000000
# 6 0.000000 0.000000 0.000000 0.022743 0.000000 0.006660
#
#
# Mechanical properties :
#
#
# Convention : Reuss Voigt Hill
#
# Bulk Modulus (GPa) = 41.85437 47.50010 44.67723
# Shear Modulus (GPa) = 44.08973 15.01201 29.55087
#
# Velocity S-wave (km/s) = 4.62998 2.70166 3.79049
# Velocity P-wave (km/s) = 6.99515 5.72947 6.39371
#
# Compressibility (1/GPa) = 0.02389237
#
# Stress axis : x y z
#
# Youngs Moduli (GPa) = 53.66550 63.62315 84.69849
#
# Poissons Ratio (x) = 0.21701 0.15246
# Poissons Ratio (y) = 0.18305 0.50158
# Poissons Ratio (z) = 0.09660 0.37677
#
# Static dielectric constant tensor:
#      x y z
#    x 1.845290 0.000000 0.028730 
#    y 0.000000 1.751260 0.000000 
#    z 0.028730 0.000000 1.717190 
# 
# From -- ./inp_files/6182.got.cif
#   From: 2010.05.17/outbox.cif.g08.bks.cpg/sg9_4_cif.got.tgz:6182.got - 2010.06.03 20:04:27.
