data_PCOD9138252
_publ_section_title
;
Structure prediction by ZEFSAII (Michael W. Deem and Ramdas Pophale) SiO2 
 PCOD9138252
Probable space group: C C
;
_chemical_formula_sum "Si O2"
_cell_formula_units_Z 32
_cell_length_a 12.725967
_cell_length_b 9.342729
_cell_length_c 17.109793
_cell_angle_alpha 90.000000
_cell_angle_beta 143.840235
_cell_angle_gamma 90.000000
_cell_volume 1200.300276
_symmetry_space_group_name_H-M "C C"
_symmetry_group_IT_number 9
_symmetry_cell_setting 'monoclinic'
loop_
_space_group_symop_operation_xyz
x,y,z
x,-y,1/2+z
1/2+x,1/2+y,z
1/2+x,1/2-y,1/2+z
loop_
_atom_site_type_symbol
_atom_site_label
_atom_site_fract_x
_atom_site_fract_y
_atom_site_fract_z
Si Si1 0.928230 0.193963 0.595020
Si Si2 0.639063 0.884300 0.042311
Si Si3 0.708122 0.284364 0.964825
Si Si4 0.876851 0.550120 0.268039
Si Si5 0.037502 0.899487 0.005697
Si Si6 0.367714 0.325529 0.354091
Si Si7 0.938026 0.929401 0.690102
Si Si8 0.017854 0.498707 0.183288
O O1 0.745741 0.203374 0.537084
O O2 0.897733 0.145270 0.487618
O O3 0.028260 0.344549 0.651703
O O4 0.027739 0.068412 0.703965
O O5 0.500589 0.987060 0.914189
O O6 0.488063 0.775091 0.984377
O O7 0.792105 0.995006 0.160474
O O8 0.599037 0.286193 0.980249
O O9 0.835678 0.147477 0.056008
O O10 0.840818 0.419910 0.046839
O O11 0.706534 0.452783 0.156831
O O12 0.835853 0.719168 0.261346
O O13 0.986703 0.529552 0.255516
O O14 0.986670 0.034750 0.922557
O O15 0.067273 0.180556 0.311616
O O16 0.180775 0.392474 0.266224
#
# Coordination Sequence:
#
# PCOD9138252 Si02
#       8
#     4   4   4   4   4   4   4   4
#     4  10  24  47  74 111 159 217 269 357 423 499
#     4   8  20  44  75 102 151 208 267 335 430 489
#     4  11  27  47  80 115 163 219 277 348 418 505
#     4   9  22  43  74 109 155 208 263 351 411 507
#     4  11  24  43  70 114 156 206 279 347 419 506
#     4  10  23  41  74 115 150 210 277 331 431 506
#     4  10  26  47  82 112 164 221 277 342 434 492
#     4  11  24  46  77 116 158 211 283 337 428 510
#
# _framework density 26.659998000000002
#
# number of rings (size 3 to 8) (size 9 to 14) (size 15 to 20)
#    1.500    0.500    0.000    2.250    7.000    2.000 
#    0.000    0.000    0.000    0.000    0.000    0.000 
#    0.000    0.000    0.000    0.000    0.000    0.000 
#
# Total GULP energy -89269.940266 kJ/mol
# GULP energy per Si atom -5579.371267 kJ/mol
# Density = 2.659932 g / cm^3
# Si number density = 26.659998 Si / 1000 Ang^3
#
#
#
# Elastic Constant Matrix: (Units=GPa)
#
#
# Indices 1 2 3 4 5 6 
#
# 1 92.9569 50.6635 25.2647 0.0000 13.9281 0.0000
# 2 50.6635 179.2847 52.5039 0.0000 6.7120 0.0000
# 3 25.2647 52.5039 134.0924 0.0000 2.8173 0.0000
# 4 0.0000 0.0000 0.0000 35.6243 0.0000 3.5601
# 5 13.9281 6.7120 2.8173 0.0000 24.5070 0.0000
# 6 0.0000 0.0000 0.0000 3.5601 0.0000 40.3028
#
#
#
# Elastic Compliance Matrix: (Units=1/GPa)
#
#
# Indices 1 2 3 4 5 6 
#
# 1 0.013922 -0.003333 -0.001174 0.000000 -0.006864 0.000000
# 2 -0.003333 0.007150 -0.002175 0.000000 0.000186 0.000000
# 3 -0.001174 -0.002175 0.008524 0.000000 0.000283 0.000000
# 4 0.000000 0.000000 0.000000 0.028321 0.000000 -0.002502
# 5 -0.006864 0.000186 0.000283 0.000000 0.044622 0.000000
# 6 0.000000 0.000000 0.000000 -0.002502 0.000000 0.025033
#
#
# Mechanical properties :
#
#
# Convention : Reuss Voigt Hill
#
# Bulk Modulus (GPa) = 61.60921 73.68870 67.64895
# Shear Modulus (GPa) = 34.16519 38.61362 36.38940
#
# Velocity S-wave (km/s) = 3.58371 3.80988 3.69852
# Velocity P-wave (km/s) = 6.34692 6.85957 6.60822
#
# Compressibility (1/GPa) = 0.01623134
#
# Stress axis : x y z
#
# Youngs Moduli (GPa) = 71.82879 139.86410 117.30909
#
# Poissons Ratio (x) = 0.46624 0.13768
# Poissons Ratio (y) = 0.23944 0.25519
# Poissons Ratio (z) = 0.08430 0.30425
#
# Static dielectric constant tensor:
#      x y z
#    x 2.213000 0.000000 -0.059580 
#    y 0.000000 2.076580 0.000000 
#    z -0.059580 0.000000 2.144630 
# 
# From -- ./inp_files/17771.got.cif
#   From: 2010.05.17/outbox.cif.g08.bks.cpg/sg9_9_cif.got.tgz:17771.got - 2010.06.03 20:04:27.
