data_PCOD9138921
_publ_section_title
;
Structure prediction by ZEFSAII (Michael W. Deem and Ramdas Pophale) SiO2 
 PCOD9138921
Probable space group: C C
;
_chemical_formula_sum "Si O2"
_cell_formula_units_Z 20
_cell_length_a 8.958637
_cell_length_b 22.597195
_cell_length_c 7.352449
_cell_angle_alpha 90.000000
_cell_angle_beta 34.844006
_cell_angle_gamma 90.000000
_cell_volume 850.405827
_symmetry_space_group_name_H-M "C C"
_symmetry_group_IT_number 9
_symmetry_cell_setting 'monoclinic'
loop_
_space_group_symop_operation_xyz
x,y,z
x,-y,1/2+z
1/2+x,1/2+y,z
1/2+x,1/2-y,1/2+z
loop_
_atom_site_type_symbol
_atom_site_label
_atom_site_fract_x
_atom_site_fract_y
_atom_site_fract_z
Si Si1 0.869950 0.875242 0.406570
Si Si2 0.645282 0.788557 0.335669
Si Si3 0.166844 0.478833 0.814106
Si Si4 0.369949 0.375241 0.815431
Si Si5 0.170195 0.938318 0.810755
O O1 0.717492 0.827731 0.439270
O O2 0.687898 0.932673 0.625879
O O3 0.942669 0.855048 0.538281
O O4 0.114073 0.897810 0.043210
O O5 0.350521 0.765695 0.630430
O O6 0.717492 0.827731 0.087647
O O7 0.187897 0.432673 0.960226
O O8 0.435008 0.514590 0.545943
O O9 0.925223 0.522136 0.055727
O O10 0.614072 0.397810 0.690546
#
# Coordination Sequence:
#
# PCOD9138921 Si02
#       5
#     4   4   4   4   4
#     4   9  24  46  66 108 138 185 239 289 343 435
#     4  11  26  49  74  96 136 186 242 312 364 400
#     4  10  24  41  66 100 144 186 223 276 345 426
#     4   9  24  46  66 108 138 185 239 289 343 435
#     4  11  22  44  64 100 146 186 221 274 349 420
#
# _framework density 23.518180999999998
#
# number of rings (size 3 to 8) (size 9 to 14) (size 15 to 20)
#    1.200    0.800    0.000    1.200    0.000   17.600 
#    7.200    0.000    0.000    0.000    0.000    0.000 
#    0.000    0.000    0.000    0.000    0.000    0.000 
#
# Total GULP energy -55939.693472 kJ/mol
# GULP energy per Si atom -5593.969347 kJ/mol
# Density = 2.346465 g / cm^3
# Si number density = 23.518181 Si / 1000 Ang^3
#
#
#
# Elastic Constant Matrix: (Units=GPa)
#
#
# Indices 1 2 3 4 5 6 
#
# 1 147.7030 38.0597 47.2062 0.0000 45.2718 0.0000
# 2 38.0597 75.4431 20.4706 0.0000 9.5036 0.0000
# 3 47.2062 20.4706 88.0509 0.0000 -13.0412 0.0000
# 4 0.0000 0.0000 0.0000 55.5830 0.0000 -2.9248
# 5 45.2718 9.5036 -13.0412 0.0000 39.8604 0.0000
# 6 0.0000 0.0000 0.0000 -2.9248 0.0000 50.1697
#
#
#
# Elastic Compliance Matrix: (Units=1/GPa)
#
#
# Indices 1 2 3 4 5 6 
#
# 1 0.020436 -0.003013 -0.014279 0.000000 -0.027164 0.000000
# 2 -0.003013 0.015473 -0.002124 0.000000 -0.000961 0.000000
# 3 -0.014279 -0.002124 0.023103 0.000000 0.024283 0.000000
# 4 0.000000 0.000000 0.000000 0.018046 0.000000 0.001052
# 5 -0.027164 -0.000961 0.024283 0.000000 0.064113 0.000000
# 6 0.000000 0.000000 0.000000 0.001052 0.000000 0.019994
#
#
# Mechanical properties :
#
#
# Convention : Reuss Voigt Hill
#
# Bulk Modulus (GPa) = 49.55723 58.07444 53.81584
# Shear Modulus (GPa) = 24.18673 42.81998 33.50336
#
# Velocity S-wave (km/s) = 3.21039 4.27162 3.77845
# Velocity P-wave (km/s) = 5.90421 7.00542 6.47826
#
# Compressibility (1/GPa) = 0.02017869
#
# Stress axis : x y z
#
# Youngs Moduli (GPa) = 48.93214 64.63003 43.28484
#
# Poissons Ratio (x) = 0.19476 0.61807
# Poissons Ratio (y) = 0.14745 0.09194
# Poissons Ratio (z) = 0.69871 0.13727
#
# Static dielectric constant tensor:
#      x y z
#    x 1.961770 0.000000 0.055220 
#    y 0.000000 1.917080 0.000000 
#    z 0.055220 0.000000 1.859560 
# 
# From -- ./inp_files/795.got.cif
#   From: 2010.05.17/outbox.cif.g08.bks.cpg/sg9_1_cif.got.tgz:795.got - 2010.06.03 20:04:27.
