data_PCOD9138139
_publ_section_title
;
Structure prediction by ZEFSAII (Michael W. Deem and Ramdas Pophale) SiO2 
 PCOD9138139
Probable space group: C C
;
_chemical_formula_sum "Si O2"
_cell_formula_units_Z 32
_cell_length_a 11.751910
_cell_length_b 9.636453
_cell_length_c 13.895234
_cell_angle_alpha 90.000000
_cell_angle_beta 122.961317
_cell_angle_gamma 90.000000
_cell_volume 1320.301768
_symmetry_space_group_name_H-M "C C"
_symmetry_group_IT_number 9
_symmetry_cell_setting 'monoclinic'
loop_
_space_group_symop_operation_xyz
x,y,z
x,-y,1/2+z
1/2+x,1/2+y,z
1/2+x,1/2-y,1/2+z
loop_
_atom_site_type_symbol
_atom_site_label
_atom_site_fract_x
_atom_site_fract_y
_atom_site_fract_z
Si Si1 0.176150 0.995482 0.347840
Si Si2 0.124391 0.433251 0.380092
Si Si3 0.721490 0.924489 0.642845
Si Si4 0.798368 0.613789 0.717976
Si Si5 0.938517 0.355823 0.550834
Si Si6 0.510749 0.214063 0.290472
Si Si7 0.555695 0.392959 0.969534
Si Si8 0.850344 0.127843 0.840692
O O1 0.221965 0.987714 0.258145
O O2 0.314608 0.946411 0.461061
O O3 0.082793 0.860081 0.313391
O O4 0.093356 0.110468 0.371954
O O5 0.196176 0.410074 0.516905
O O6 0.218759 0.360518 0.345320
O O7 0.961030 0.406001 0.297360
O O8 0.124043 0.597709 0.357844
O O9 0.773222 0.781074 0.716321
O O10 0.571526 0.950519 0.613389
O O11 0.809903 0.049347 0.723071
O O12 0.705871 0.588529 0.582159
O O13 0.925341 0.307391 0.654284
O O14 0.981802 0.232172 0.495276
O O15 0.418775 0.228672 0.342695
O O16 0.459680 0.525842 0.940322
#
# Coordination Sequence:
#
# PCOD9138139 Si02
#       8
#     4   4   4   4   4   4   4   4
#     4  11  21  41  69  97 134 181 242 287 353 435
#     4  12  25  47  71 106 148 191 248 303 380 442
#     4  11  24  43  75  97 137 195 241 303 368 444
#     4  11  23  44  71 104 136 192 244 309 367 437
#     4  11  20  42  70  97 135 188 233 291 368 430
#     4  11  24  44  69 100 142 193 237 303 367 443
#     4  10  23  38  70 103 133 180 251 294 353 444
#     4  11  26  45  67 108 145 190 244 306 370 439
#
# _framework density 24.236882999999999
#
# number of rings (size 3 to 8) (size 9 to 14) (size 15 to 20)
#    0.000    1.000    5.000    2.250    5.250    0.000 
#    6.750    0.000    0.000    0.000    0.000    0.000 
#    0.000    0.000    0.000    0.000    0.000    0.000 
#
# Total GULP energy -89276.311856 kJ/mol
# GULP energy per Si atom -5579.769491 kJ/mol
# Density = 2.418172 g / cm^3
# Si number density = 24.236883 Si / 1000 Ang^3
#
#
#
# Elastic Constant Matrix: (Units=GPa)
#
#
# Indices 1 2 3 4 5 6 
#
# 1 103.3976 12.9173 19.2088 0.0000 -12.4808 0.0000
# 2 12.9173 36.4772 7.9045 0.0000 -9.0618 0.0000
# 3 19.2088 7.9045 81.9268 0.0000 -4.2321 0.0000
# 4 0.0000 0.0000 0.0000 52.6017 0.0000 -5.0507
# 5 -12.4808 -9.0618 -4.2321 0.0000 48.9241 0.0000
# 6 0.0000 0.0000 0.0000 -5.0507 0.0000 35.2463
#
#
#
# Elastic Compliance Matrix: (Units=1/GPa)
#
#
# Indices 1 2 3 4 5 6 
#
# 1 0.010661 -0.002814 -0.002124 0.000000 0.002015 0.000000
# 2 -0.002814 0.030002 -0.001994 0.000000 0.004667 0.000000
# 3 -0.002124 -0.001994 0.012907 0.000000 0.000205 0.000000
# 4 0.000000 0.000000 0.000000 0.019276 0.000000 0.002762
# 5 0.002015 0.004667 0.000205 0.000000 0.021836 0.000000
# 6 0.000000 0.000000 0.000000 0.002762 0.000000 0.028768
#
#
# Mechanical properties :
#
#
# Convention : Reuss Voigt Hill
#
# Bulk Modulus (GPa) = 25.18522 33.54029 29.36275
# Shear Modulus (GPa) = 33.21175 39.47250 36.34213
#
# Velocity S-wave (km/s) = 3.70577 4.03999 3.87648
# Velocity P-wave (km/s) = 5.35949 5.96913 5.67251
#
# Compressibility (1/GPa) = 0.03970582
#
# Stress axis : x y z
#
# Youngs Moduli (GPa) = 93.80198 33.33069 77.47746
#
# Poissons Ratio (x) = 0.09381 0.16456
# Poissons Ratio (y) = 0.26400 0.15447
# Poissons Ratio (z) = 0.19923 0.06645
#
# Static dielectric constant tensor:
#      x y z
#    x 1.983450 0.000000 -0.079580 
#    y 0.000000 1.980210 0.000000 
#    z -0.079580 0.000000 2.080570 
# 
# From -- ./inp_files/16599.got.cif
#   From: 2010.05.17/outbox.cif.g08.bks.cpg/sg9_9_cif.got.tgz:16599.got - 2010.06.03 20:04:27.
