data_PCOD9138253
_publ_section_title
;
Structure prediction by ZEFSAII (Michael W. Deem and Ramdas Pophale) SiO2 
 PCOD9138253
Probable space group: C C
;
_chemical_formula_sum "Si O2"
_cell_formula_units_Z 28
_cell_length_a 5.097992
_cell_length_b 19.128309
_cell_length_c 14.386684
_cell_angle_alpha 90.000000
_cell_angle_beta 52.009485
_cell_angle_gamma 90.000000
_cell_volume 1105.667994
_symmetry_space_group_name_H-M "C C"
_symmetry_group_IT_number 9
_symmetry_cell_setting 'monoclinic'
loop_
_space_group_symop_operation_xyz
x,y,z
x,-y,1/2+z
1/2+x,1/2+y,z
1/2+x,1/2-y,1/2+z
loop_
_atom_site_type_symbol
_atom_site_label
_atom_site_fract_x
_atom_site_fract_y
_atom_site_fract_z
Si Si1 0.126880 0.763786 0.961590
Si Si2 0.944437 0.388111 0.961952
Si Si3 0.112310 0.543899 0.241798
Si Si4 0.159524 0.846348 0.564350
Si Si5 0.602460 0.300695 0.772979
Si Si6 0.712622 0.339828 0.351874
Si Si7 0.203463 0.045392 0.693953
O O1 0.160722 0.828335 0.022828
O O2 0.357846 0.699252 0.940689
O O3 0.291883 0.788662 0.827984
O O4 0.756957 0.735480 0.021414
O O5 0.909380 0.435208 0.878165
O O6 0.290894 0.348245 0.870989
O O7 0.932816 0.430078 0.058991
O O8 0.331434 0.608076 0.153936
O O9 0.369844 0.483767 0.218831
O O10 0.872301 0.516186 0.214999
O O11 0.292421 0.874957 0.435352
O O12 0.268076 0.838214 0.649622
O O13 0.470418 0.223135 0.775628
O O14 0.674269 0.392737 0.275425
#
# Coordination Sequence:
#
# PCOD9138253 Si02
#       7
#     4   4   4   4   4   4   4
#     4  10  23  41  77 106 143 180 241 323 370 438
#     4  10  26  47  71 108 142 193 246 308 373 425
#     4  11  30  48  74 105 147 204 241 299 358 450
#     4  10  24  44  74 100 146 183 244 303 376 429
#     4   9  22  43  69 105 141 182 237 315 376 422
#     4  10  25  41  68 107 138 186 247 296 371 433
#     4  12  30  46  77 101 153 198 248 296 352 457
#
# _framework density 25.324057
#
# number of rings (size 3 to 8) (size 9 to 14) (size 15 to 20)
#    0.000    1.714    0.000    0.000   24.000    1.143 
#    0.000    0.000    0.000    0.000    0.000    0.000 
#    0.000    0.000    0.000    0.000    0.000    0.000 
#
# Total GULP energy -78109.183923 kJ/mol
# GULP energy per Si atom -5579.227423 kJ/mol
# Density = 2.526642 g / cm^3
# Si number density = 25.324057 Si / 1000 Ang^3
#
#
#
# Elastic Constant Matrix: (Units=GPa)
#
#
# Indices 1 2 3 4 5 6 
#
# 1 44.8148 13.2980 24.1100 0.0000 9.5765 0.0000
# 2 13.2980 79.6562 45.3140 0.0000 1.8852 0.0000
# 3 24.1100 45.3140 163.2438 0.0000 23.2245 0.0000
# 4 0.0000 0.0000 0.0000 30.8519 0.0000 15.3179
# 5 9.5765 1.8852 23.2245 0.0000 28.2561 0.0000
# 6 0.0000 0.0000 0.0000 15.3179 0.0000 42.8888
#
#
#
# Elastic Compliance Matrix: (Units=1/GPa)
#
#
# Indices 1 2 3 4 5 6 
#
# 1 0.025748 -0.003004 -0.001988 0.000000 -0.006892 0.000000
# 2 -0.003004 0.015446 -0.004351 0.000000 0.003564 0.000000
# 3 -0.001988 -0.004351 0.008482 0.000000 -0.006007 0.000000
# 4 0.000000 0.000000 0.000000 0.039399 0.000000 -0.014072
# 5 -0.006892 0.003564 -0.006007 0.000000 0.042426 0.000000
# 6 0.000000 0.000000 0.000000 -0.014072 0.000000 0.028342
#
#
# Mechanical properties :
#
#
# Convention : Reuss Voigt Hill
#
# Bulk Modulus (GPa) = 32.26951 50.35097 41.31024
# Shear Modulus (GPa) = 26.47460 34.06555 30.27008
#
# Velocity S-wave (km/s) = 3.23682 3.67166 3.46108
# Velocity P-wave (km/s) = 5.17104 6.15634 5.68508
#
# Compressibility (1/GPa) = 0.03098900
#
# Stress axis : x y z
#
# Youngs Moduli (GPa) = 38.83804 64.74064 117.89817
#
# Poissons Ratio (x) = 0.19449 0.23443
# Poissons Ratio (y) = 0.11668 0.51297
# Poissons Ratio (z) = 0.07723 0.28168
#
# Static dielectric constant tensor:
#      x y z
#    x 2.053950 0.000000 0.013820 
#    y 0.000000 2.028870 0.000000 
#    z 0.013820 0.000000 2.038140 
# 
# From -- ./inp_files/13180.got.cif
#   From: 2010.05.17/outbox.cif.g08.bks.cpg/sg9_7_cif.got.tgz:13180.got - 2010.06.03 20:04:27.
