data_PCOD9138115
_publ_section_title
;
Structure prediction by ZEFSAII (Michael W. Deem and Ramdas Pophale) SiO2 
 PCOD9138115
Probable space group: C C
;
_chemical_formula_sum "Si O2"
_cell_formula_units_Z 32
_cell_length_a 11.753515
_cell_length_b 10.215760
_cell_length_c 16.240770
_cell_angle_alpha 90.000000
_cell_angle_beta 34.938999
_cell_angle_gamma 90.000000
_cell_volume 1116.799650
_symmetry_space_group_name_H-M "C C"
_symmetry_group_IT_number 9
_symmetry_cell_setting 'monoclinic'
loop_
_space_group_symop_operation_xyz
x,y,z
x,-y,1/2+z
1/2+x,1/2+y,z
1/2+x,1/2-y,1/2+z
loop_
_atom_site_type_symbol
_atom_site_label
_atom_site_fract_x
_atom_site_fract_y
_atom_site_fract_z
Si Si1 0.602480 0.974150 0.576620
Si Si2 0.800292 0.961342 0.783146
Si Si3 0.818556 0.675179 0.839359
Si Si4 0.014762 0.948837 0.420549
Si Si5 0.397851 0.150338 0.983382
Si Si6 0.707385 0.615279 0.557846
Si Si7 0.094428 0.303594 0.764447
Si Si8 0.763933 0.290985 0.733096
O O1 0.673063 0.008619 0.442690
O O2 0.456893 0.076043 0.706606
O O3 0.790657 0.973929 0.525403
O O4 0.476648 0.839999 0.639008
O O5 0.868305 0.815202 0.771784
O O6 0.694215 0.918340 0.759494
O O7 0.636354 0.172850 0.846519
O O8 0.598942 0.610610 0.956100
O O9 0.849596 0.685378 0.918337
O O10 0.125481 0.083276 0.332712
O O11 0.084420 0.827734 0.323868
O O12 0.298410 0.231476 0.115679
O O13 0.315608 0.003954 0.041842
O O14 0.862876 0.651045 0.392531
O O15 0.698966 0.737688 0.624491
O O16 0.491489 0.557684 0.664660
#
# Coordination Sequence:
#
# PCOD9138115 Si02
#       8
#     4   4   4   4   4   4   4   4
#     4  11  23  50  82 123 178 229 286 367 451 522
#     4  11  25  44  89 123 169 233 290 359 439 528
#     4  10  26  41  83 129 164 236 294 360 441 539
#     4  10  22  50  79 116 178 229 280 364 441 523
#     4  12  25  50  81 124 175 221 296 364 441 530
#     4  12  27  53  81 128 172 230 288 369 444 521
#     4  11  26  51  83 119 177 225 291 360 438 527
#     4  11  26  47  86 124 171 227 291 371 441 532
#
# _framework density 28.653303999999999
#
# number of rings (size 3 to 8) (size 9 to 14) (size 15 to 20)
#    0.000    1.000    2.500    2.250   10.500    2.000 
#    4.500    5.000    0.000    0.000    0.000    0.000 
#    0.000    0.000    0.000    0.000    0.000    0.000 
#
# Total GULP energy -89656.095845 kJ/mol
# GULP energy per Si atom -5603.505990 kJ/mol
# Density = 2.858809 g / cm^3
# Si number density = 28.653304 Si / 1000 Ang^3
#
#
#
# Elastic Constant Matrix: (Units=GPa)
#
#
# Indices 1 2 3 4 5 6 
#
# 1 161.8546 33.9158 70.8805 0.0000 -14.8438 0.0000
# 2 33.9158 99.5856 51.9983 -0.0001 11.3853 0.0000
# 3 70.8805 51.9983 165.2896 -0.0012 -0.2878 0.0004
# 4 0.0000 -0.0001 -0.0012 58.9699 0.0004 -2.1303
# 5 -14.8438 11.3853 -0.2878 0.0004 68.8253 0.0000
# 6 0.0000 0.0000 0.0004 -2.1303 0.0000 44.9480
#
#
#
# Elastic Compliance Matrix: (Units=1/GPa)
#
#
# Indices 1 2 3 4 5 6 
#
# 1 0.007944 -0.001375 -0.002971 0.000000 0.001928 0.000000
# 2 -0.001375 0.012536 -0.003358 0.000000 -0.002384 0.000000
# 3 -0.002971 -0.003358 0.008380 0.000000 -0.000050 0.000000
# 4 0.000000 0.000000 0.000000 0.016987 0.000000 0.000805
# 5 0.001928 -0.002384 -0.000050 0.000000 0.015340 0.000000
# 6 0.000000 0.000000 0.000000 0.000805 0.000000 0.022286
#
#
# Mechanical properties :
#
#
# Convention : Reuss Voigt Hill
#
# Bulk Modulus (GPa) = 74.33448 82.25768 78.29608
# Shear Modulus (GPa) = 48.37206 52.54432 50.45819
#
# Velocity S-wave (km/s) = 4.11321 4.28693 4.20097
# Velocity P-wave (km/s) = 6.96829 7.29890 7.13551
#
# Compressibility (1/GPa) = 0.01345271
#
# Stress axis : x y z
#
# Youngs Moduli (GPa) = 125.87554 79.77067 119.32662
#
# Poissons Ratio (x) = 0.10967 0.35450
# Poissons Ratio (y) = 0.17306 0.40073
# Poissons Ratio (z) = 0.37396 0.26789
#
# Static dielectric constant tensor:
#      x y z
#    x 2.376860 0.000000 -0.109590 
#    y 0.000000 2.224930 0.000000 
#    z -0.109590 0.000000 2.323730 
# 
# From -- ./inp_files/30063.got.cif
#   From: 2010.05.17/outbox.cif.g08.bks.cpg/sg9_16_cif.got.tgz:30063.got - 2010.06.03 20:04:27.
