data_PCOD9138896
_publ_section_title
;
Structure prediction by ZEFSAII (Michael W. Deem and Ramdas Pophale) SiO2 
 PCOD9138896
Probable space group: C C
;
_chemical_formula_sum "Si O2"
_cell_formula_units_Z 20
_cell_length_a 9.138313
_cell_length_b 5.234602
_cell_length_c 18.079150
_cell_angle_alpha 90.000000
_cell_angle_beta 102.382936
_cell_angle_gamma 90.000000
_cell_volume 844.704840
_symmetry_space_group_name_H-M "C C"
_symmetry_group_IT_number 9
_symmetry_cell_setting 'monoclinic'
loop_
_space_group_symop_operation_xyz
x,y,z
x,-y,1/2+z
1/2+x,1/2+y,z
1/2+x,1/2-y,1/2+z
loop_
_atom_site_type_symbol
_atom_site_label
_atom_site_fract_x
_atom_site_fract_y
_atom_site_fract_z
Si Si1 0.090690 0.266922 0.585670
Si Si2 0.002854 0.241705 0.998990
Si Si3 0.620173 0.699781 0.265776
Si Si4 0.891298 0.379603 0.127845
Si Si5 0.474173 0.202957 0.321737
O O1 0.108989 0.534688 0.543450
O O2 0.950976 0.333156 0.624810
O O3 0.053712 0.040315 0.525791
O O4 0.236429 0.191107 0.648171
O O5 0.864964 0.295136 0.039729
O O6 0.974443 0.279974 0.910656
O O7 0.529142 0.732183 0.179295
O O8 0.565096 0.443283 0.299690
O O9 0.799579 0.709815 0.278675
O O10 0.556124 0.944313 0.304413
#
# Coordination Sequence:
#
# PCOD9138896 Si02
#       5
#     4   4   4   4   4
#     4  10  24  39  72  97 129 173 230 284 327 404
#     4  10  26  42  71  97 135 177 230 281 334 413
#     4  12  28  47  71 103 143 186 226 291 345 420
#     4  10  26  42  72  95 138 173 237 270 348 396
#     4  12  28  46  72 102 145 181 233 282 358 401
#
# _framework density 23.676909999999999
#
# number of rings (size 3 to 8) (size 9 to 14) (size 15 to 20)
#    1.200    0.000    0.000    3.600   14.000    0.000 
#    0.000    0.000    0.000    0.000    0.000    0.000 
#    0.000    0.000    0.000    0.000    0.000    0.000 
#
# Total GULP energy -55840.655366 kJ/mol
# GULP energy per Si atom -5584.065537 kJ/mol
# Density = 2.362302 g / cm^3
# Si number density = 23.676910 Si / 1000 Ang^3
#
#
#
# Elastic Constant Matrix: (Units=GPa)
#
#
# Indices 1 2 3 4 5 6 
#
# 1 126.2763 51.0408 -2.6492 0.0000 19.3297 0.0000
# 2 51.0408 168.3275 29.4197 0.0000 -3.3617 0.0000
# 3 -2.6492 29.4197 95.4712 0.0000 -12.1684 0.0000
# 4 0.0000 0.0000 0.0000 36.9966 0.0000 -6.4515
# 5 19.3297 -3.3617 -12.1684 0.0000 27.5721 0.0000
# 6 0.0000 0.0000 0.0000 -6.4515 0.0000 36.1878
#
#
#
# Elastic Compliance Matrix: (Units=1/GPa)
#
#
# Indices 1 2 3 4 5 6 
#
# 1 0.010456 -0.003386 0.000367 0.000000 -0.007581 0.000000
# 2 -0.003386 0.007376 -0.002066 0.000000 0.002361 0.000000
# 3 0.000367 -0.002066 0.011715 0.000000 0.004661 0.000000
# 4 0.000000 0.000000 0.000000 0.027897 0.000000 0.004973
# 5 -0.007581 0.002361 0.004661 0.000000 0.043928 0.000000
# 6 0.000000 0.000000 0.000000 0.004973 0.000000 0.028520
#
#
# Mechanical properties :
#
#
# Convention : Reuss Voigt Hill
#
# Bulk Modulus (GPa) = 51.60567 60.63307 56.11937
# Shear Modulus (GPa) = 34.12492 40.96888 37.54690
#
# Velocity S-wave (km/s) = 3.80053 4.16424 3.98653
# Velocity P-wave (km/s) = 6.41107 6.98465 6.70399
#
# Compressibility (1/GPa) = 0.01937772
#
# Stress axis : x y z
#
# Youngs Moduli (GPa) = 95.63929 135.57917 85.35918
#
# Poissons Ratio (x) = 0.45908 -0.03136
# Poissons Ratio (y) = 0.32384 0.17634
# Poissons Ratio (z) = -0.03513 0.28009
#
# Static dielectric constant tensor:
#      x y z
#    x 1.963660 0.000000 -0.051690 
#    y 0.000000 1.909090 0.000000 
#    z -0.051690 0.000000 1.912670 
# 
# From -- ./inp_files/11092.got.cif
#   From: 2010.05.17/outbox.cif.g08.bks.cpg/sg9_6_cif.got.tgz:11092.got - 2010.06.03 20:04:27.
