data_PCOD9138494
_publ_section_title
;
Structure prediction by ZEFSAII (Michael W. Deem and Ramdas Pophale) SiO2 
 PCOD9138494
Probable space group: C C
;
_chemical_formula_sum "Si O2"
_cell_formula_units_Z 32
_cell_length_a 5.076303
_cell_length_b 31.059941
_cell_length_c 8.038760
_cell_angle_alpha 90.000000
_cell_angle_beta 99.797460
_cell_angle_gamma 90.000000
_cell_volume 1248.983181
_symmetry_space_group_name_H-M "C C"
_symmetry_group_IT_number 9
_symmetry_cell_setting 'monoclinic'
loop_
_space_group_symop_operation_xyz
x,y,z
x,-y,1/2+z
1/2+x,1/2+y,z
1/2+x,1/2-y,1/2+z
loop_
_atom_site_type_symbol
_atom_site_label
_atom_site_fract_x
_atom_site_fract_y
_atom_site_fract_z
Si Si1 0.221610 0.542573 0.668220
Si Si2 0.754431 0.179818 0.859197
Si Si3 0.750450 0.947166 0.793311
Si Si4 0.572388 0.378921 0.207774
Si Si5 0.306414 0.772117 0.469539
Si Si6 0.171715 0.130607 0.357379
Si Si7 0.156715 0.313273 0.798453
Si Si8 0.013733 0.596176 0.960517
O O1 0.305925 0.495044 0.731271
O O2 0.122814 0.546921 0.465226
O O3 0.476080 0.572800 0.679397
O O4 0.066934 0.564847 0.806987
O O5 0.700896 0.137883 0.968439
O O6 0.832875 0.154603 0.699424
O O7 0.492938 0.209858 0.837536
O O8 0.018682 0.205225 0.939038
O O9 0.546904 0.929009 0.633210
O O10 0.008842 0.914904 0.814644
O O11 0.733953 0.381108 0.395479
O O12 0.730925 0.367657 0.061234
O O13 0.232755 0.722474 0.443724
O O14 0.499176 0.784931 0.642855
O O15 0.448558 0.147720 0.310718
O O16 0.943880 0.165702 0.293075
#
# Coordination Sequence:
#
# PCOD9138494 Si02
#       8
#     4   4   4   4   4   4   4   4
#     4  10  23  44  66 111 152 205 268 324 394 461
#     4  11  24  45  76 108 144 199 250 312 398 468
#     4  11  22  48  72 109 158 207 269 331 387 479
#     4  10  25  46  75 109 151 202 260 317 399 472
#     4  12  26  46  76 106 151 191 259 314 394 476
#     4  11  28  48  77 110 157 202 261 322 394 473
#     4  12  28  50  73 115 148 202 257 324 397 468
#     4  11  22  45  75 106 153 204 258 322 397 465
#
# _framework density 25.620844999999999
#
# number of rings (size 3 to 8) (size 9 to 14) (size 15 to 20)
#    0.000    1.000    2.500    3.000    7.000    0.000 
#    6.750    0.000    0.000    0.000    0.000    0.000 
#    0.000    0.000    0.000    0.000    0.000    0.000 
#
# Total GULP energy -89371.252458 kJ/mol
# GULP energy per Si atom -5585.703279 kJ/mol
# Density = 2.556253 g / cm^3
# Si number density = 25.620845 Si / 1000 Ang^3
#
#
#
# Elastic Constant Matrix: (Units=GPa)
#
#
# Indices 1 2 3 4 5 6 
#
# 1 119.6422 34.2589 31.8053 0.0000 14.8336 0.0000
# 2 34.2589 173.4664 57.9792 0.0000 1.9750 0.0000
# 3 31.8053 57.9792 125.5161 0.0000 2.0800 0.0000
# 4 0.0000 0.0000 0.0000 44.9537 0.0000 -0.1003
# 5 14.8336 1.9750 2.0800 0.0000 33.2949 0.0000
# 6 0.0000 0.0000 0.0000 -0.1003 0.0000 20.8233
#
#
#
# Elastic Compliance Matrix: (Units=1/GPa)
#
#
# Indices 1 2 3 4 5 6 
#
# 1 0.009715 -0.001267 -0.001808 0.000000 -0.004140 0.000000
# 2 -0.001267 0.006984 -0.002911 0.000000 0.000332 0.000000
# 3 -0.001808 -0.002911 0.009764 0.000000 0.000368 0.000000
# 4 0.000000 0.000000 0.000000 0.022245 0.000000 0.000107
# 5 -0.004140 0.000332 0.000368 0.000000 0.031836 0.000000
# 6 0.000000 0.000000 0.000000 0.000107 0.000000 0.048024
#
#
# Mechanical properties :
#
#
# Convention : Reuss Voigt Hill
#
# Bulk Modulus (GPa) = 69.00589 74.07905 71.54247
# Shear Modulus (GPa) = 34.39504 39.45312 36.92408
#
# Velocity S-wave (km/s) = 3.66794 3.92839 3.80040
# Velocity P-wave (km/s) = 6.70301 7.03937 6.87325
#
# Compressibility (1/GPa) = 0.01449152
#
# Stress axis : x y z
#
# Youngs Moduli (GPa) = 102.93345 143.18187 102.42202
#
# Poissons Ratio (x) = 0.18146 0.18515
# Poissons Ratio (y) = 0.13045 0.29810
# Poissons Ratio (z) = 0.18608 0.41673
#
# Static dielectric constant tensor:
#      x y z
#    x 2.048720 0.000000 -0.073690 
#    y 0.000000 1.979270 0.000000 
#    z -0.073690 0.000000 2.207730 
# 
# From -- ./inp_files/4410.got.cif
#   From: 2010.05.17/outbox.cif.g08.bks.cpg/sg9_3_cif.got.tgz:4410.got - 2010.06.03 20:04:27.
