data_PCOD9138125
_publ_section_title
;
Structure prediction by ZEFSAII (Michael W. Deem and Ramdas Pophale) SiO2 
 PCOD9138125
Probable space group: C C
;
_chemical_formula_sum "Si O2"
_cell_formula_units_Z 24
_cell_length_a 14.814611
_cell_length_b 9.242151
_cell_length_c 14.122598
_cell_angle_alpha 90.000000
_cell_angle_beta 32.136508
_cell_angle_gamma 90.000000
_cell_volume 1028.582486
_symmetry_space_group_name_H-M "C C"
_symmetry_group_IT_number 9
_symmetry_cell_setting 'monoclinic'
loop_
_space_group_symop_operation_xyz
x,y,z
x,-y,1/2+z
1/2+x,1/2+y,z
1/2+x,1/2-y,1/2+z
loop_
_atom_site_type_symbol
_atom_site_label
_atom_site_fract_x
_atom_site_fract_y
_atom_site_fract_z
Si Si1 0.452400 0.978934 0.830700
Si Si2 0.335979 0.934874 0.240740
Si Si3 0.620114 0.306374 0.937254
Si Si4 0.595021 0.672807 0.671559
Si Si5 0.480974 0.441302 0.468738
Si Si6 0.630773 0.004092 0.356418
O O1 0.576615 0.845972 0.693019
O O2 0.399699 0.082954 0.791263
O O3 0.546579 0.051828 0.833979
O O4 0.280829 0.897801 0.017013
O O5 0.150421 0.883788 0.372228
O O6 0.300174 0.109452 0.267641
O O7 0.486104 0.901591 0.035615
O O8 0.051318 0.141840 0.600868
O O9 0.506811 0.384397 0.958099
O O10 0.655410 0.138467 0.897144
O O11 0.489034 0.608571 0.853215
O O12 0.303667 0.413804 0.678068
#
# Coordination Sequence:
#
# PCOD9138125 Si02
#       6
#     4   4   4   4   4   4
#     4  11  22  36  65  91 130 167 213 270 310 385
#     4   9  21  38  57  93 118 166 208 265 309 372
#     4   9  21  38  66  88 129 164 212 261 311 379
#     4  11  21  38  61  98 125 168 214 257 319 379
#     4  10  23  36  63  94 129 163 215 265 312 379
#     4  12  20  38  62  96 127 166 216 258 321 376
#
# _framework density 23.333082999999998
#
# number of rings (size 3 to 8) (size 9 to 14) (size 15 to 20)
#    1.000    0.667    3.333    2.000    2.333    1.333 
#    0.000    0.000    3.667    0.000    0.000    0.000 
#    0.000    0.000    0.000    0.000    0.000    0.000 
#
# Total GULP energy -66894.537632 kJ/mol
# GULP energy per Si atom -5574.544803 kJ/mol
# Density = 2.327998 g / cm^3
# Si number density = 23.333083 Si / 1000 Ang^3
#
#
#
# Elastic Constant Matrix: (Units=GPa)
#
#
# Indices 1 2 3 4 5 6 
#
# 1 101.8290 35.2403 93.5084 0.0000 11.7428 0.0000
# 2 35.2403 54.2941 21.5712 0.0000 5.5823 0.0000
# 3 93.5084 21.5712 187.0656 0.0000 -3.9773 0.0000
# 4 0.0000 0.0000 0.0000 28.0721 0.0000 0.4707
# 5 11.7428 5.5823 -3.9773 0.0000 41.7745 0.0000
# 6 0.0000 0.0000 0.0000 0.4707 0.0000 25.5775
#
#
#
# Elastic Compliance Matrix: (Units=1/GPa)
#
#
# Indices 1 2 3 4 5 6 
#
# 1 0.024598 -0.010851 -0.011184 0.000000 -0.006529 0.000000
# 2 -0.010851 0.024421 0.002609 0.000000 0.000035 0.000000
# 3 -0.011184 0.002609 0.010716 0.000000 0.003815 0.000000
# 4 0.000000 0.000000 0.000000 0.035634 0.000000 -0.000656
# 5 -0.006529 0.000035 0.003815 0.000000 0.026132 0.000000
# 6 0.000000 0.000000 0.000000 -0.000656 0.000000 0.039109
#
#
# Mechanical properties :
#
#
# Convention : Reuss Voigt Hill
#
# Bulk Modulus (GPa) = 47.88346 71.53651 59.70999
# Shear Modulus (GPa) = 24.22203 31.94274 28.08239
#
# Velocity S-wave (km/s) = 3.22545 3.70400 3.47298
# Velocity P-wave (km/s) = 5.86836 7.00130 6.45971
#
# Compressibility (1/GPa) = 0.02088404
#
# Stress axis : x y z
#
# Youngs Moduli (GPa) = 40.65302 40.94793 93.31580
#
# Poissons Ratio (x) = 0.44434 1.04360
# Poissons Ratio (y) = 0.44114 -0.24345
# Poissons Ratio (z) = 0.45464 -0.10683
#
# Static dielectric constant tensor:
#      x y z
#    x 1.904980 0.000000 -0.017710 
#    y 0.000000 1.901000 0.000000 
#    z -0.017710 0.000000 1.942570 
# 
# From -- ./inp_files/25884.got.cif
#   From: 2010.05.17/outbox.cif.g08.bks.cpg/sg9_13_cif.got.tgz:25884.got - 2010.06.03 20:04:27.
