data_PCOD9138236
_publ_section_title
;
Structure prediction by ZEFSAII (Michael W. Deem and Ramdas Pophale) SiO2 
 PCOD9138236
Probable space group: C C
;
_chemical_formula_sum "Si O2"
_cell_formula_units_Z 32
_cell_length_a 18.893414
_cell_length_b 5.189135
_cell_length_c 14.733466
_cell_angle_alpha 90.000000
_cell_angle_beta 61.424233
_cell_angle_gamma 90.000000
_cell_volume 1268.517688
_symmetry_space_group_name_H-M "C C"
_symmetry_group_IT_number 9
_symmetry_cell_setting 'monoclinic'
loop_
_space_group_symop_operation_xyz
x,y,z
x,-y,1/2+z
1/2+x,1/2+y,z
1/2+x,1/2-y,1/2+z
loop_
_atom_site_type_symbol
_atom_site_label
_atom_site_fract_x
_atom_site_fract_y
_atom_site_fract_z
Si Si1 0.674360 0.075854 0.265420
Si Si2 0.120616 0.781920 0.953657
Si Si3 0.699145 0.099879 0.552480
Si Si4 0.771835 0.344318 0.348890
Si Si5 0.402832 0.035429 0.634959
Si Si6 0.018049 0.207886 0.797426
Si Si7 0.444591 0.471029 0.020631
Si Si8 0.529560 0.229811 0.681737
O O1 0.745438 0.133778 0.291661
O O2 0.611765 0.300750 0.273385
O O3 0.619442 0.890052 0.362292
O O4 0.712385 0.982333 0.147462
O O5 0.193018 0.980351 0.896040
O O6 0.154645 0.618204 0.018486
O O7 0.033662 0.918911 0.010573
O O8 0.771842 0.216962 0.448766
O O9 0.623405 0.290261 0.610861
O O10 0.847164 0.489764 0.258506
O O11 0.389079 0.310566 0.598400
O O12 0.492275 0.090088 0.617889
O O13 0.402150 0.803076 0.564930
O O14 0.013949 0.505800 0.767164
O O15 0.995043 0.004767 0.732672
O O16 0.965307 0.099030 0.911740
#
# Coordination Sequence:
#
# PCOD9138236 Si02
#       8
#     4   4   4   4   4   4   4   4
#     4  10  23  42  70 107 136 176 239 308 342 424
#     4  11  22  43  74  99 136 181 246 283 355 418
#     4  10  23  41  69 100 132 183 236 296 341 412
#     4  11  26  43  68 100 144 191 230 290 364 431
#     4  12  27  44  69  99 149 182 230 283 364 432
#     4  11  23  42  73 101 133 170 241 296 343 408
#     4  12  23  45  70 100 133 189 231 289 347 421
#     4  11  23  42  69 104 133 176 231 293 348 418
#
# _framework density 25.226296000000001
#
# number of rings (size 3 to 8) (size 9 to 14) (size 15 to 20)
#    0.000    1.000    2.500    4.500    8.750    0.000 
#    2.250    2.500    0.000    0.000    0.000    0.000 
#    0.000    0.000    0.000    0.000    0.000    0.000 
#
# Total GULP energy -89266.838607 kJ/mol
# GULP energy per Si atom -5579.177413 kJ/mol
# Density = 2.516888 g / cm^3
# Si number density = 25.226296 Si / 1000 Ang^3
#
#
#
# Elastic Constant Matrix: (Units=GPa)
#
#
# Indices 1 2 3 4 5 6 
#
# 1 20.0377 -0.2989 19.5191 0.0005 2.4128 0.0005
# 2 -0.2989 111.6867 50.7890 0.0015 -4.8616 0.0004
# 3 19.5191 50.7890 172.8716 0.0003 4.2806 0.0000
# 4 0.0005 0.0015 0.0003 41.2441 0.0001 11.0458
# 5 2.4128 -4.8616 4.2806 0.0001 48.7752 0.0001
# 6 0.0005 0.0004 0.0000 11.0458 0.0001 9.8610
#
#
#
# Elastic Compliance Matrix: (Units=1/GPa)
#
#
# Indices 1 2 3 4 5 6 
#
# 1 0.057445 0.003465 -0.007459 0.000000 -0.001842 -0.000003
# 2 0.003465 0.010626 -0.003543 0.000000 0.001199 0.000000
# 3 -0.007459 -0.003543 0.007684 0.000000 -0.000659 0.000001
# 4 0.000000 0.000000 0.000000 0.034637 0.000000 -0.038798
# 5 -0.001842 0.001199 -0.000659 0.000000 0.020771 0.000000
# 6 -0.000003 0.000000 0.000001 -0.038798 0.000000 0.144869
#
#
# Mechanical properties :
#
#
# Convention : Reuss Voigt Hill
#
# Bulk Modulus (GPa) = 16.47910 49.40160 32.94035
# Shear Modulus (GPa) = 16.06005 35.61517 25.83761
#
# Velocity S-wave (km/s) = 2.52591 3.76150 3.20384
# Velocity P-wave (km/s) = 3.87990 6.20412 5.17420
#
# Compressibility (1/GPa) = 0.06068292
#
# Stress axis : x y z
#
# Youngs Moduli (GPa) = 17.40790 94.10714 130.14041
#
# Poissons Ratio (x) = -0.32612 0.97068
# Poissons Ratio (y) = -0.06032 0.46107
# Poissons Ratio (z) = 0.12984 0.33341
#
# Static dielectric constant tensor:
#      x y z
#    x 2.041340 0.000000 0.040460 
#    y 0.000000 2.099100 0.000000 
#    z 0.040460 0.000000 2.104310 
# 
# From -- ./inp_files/27611.got.cif
#   From: 2010.05.17/outbox.cif.g08.bks.cpg/sg9_14_cif.got.tgz:27611.got - 2010.06.03 20:04:27.
