data_PCOD9138855
_publ_section_title
;
Structure prediction by ZEFSAII (Michael W. Deem and Ramdas Pophale) SiO2 
 PCOD9138855
Probable space group: C C
;
_chemical_formula_sum "Si O2"
_cell_formula_units_Z 32
_cell_length_a 7.773323
_cell_length_b 13.966234
_cell_length_c 19.595849
_cell_angle_alpha 90.000000
_cell_angle_beta 36.016531
_cell_angle_gamma 90.000000
_cell_volume 1250.953625
_symmetry_space_group_name_H-M "C C"
_symmetry_group_IT_number 9
_symmetry_cell_setting 'monoclinic'
loop_
_space_group_symop_operation_xyz
x,y,z
x,-y,1/2+z
1/2+x,1/2+y,z
1/2+x,1/2-y,1/2+z
loop_
_atom_site_type_symbol
_atom_site_label
_atom_site_fract_x
_atom_site_fract_y
_atom_site_fract_z
Si Si1 0.962100 0.669935 0.180660
Si Si2 0.959546 0.823312 0.624324
Si Si3 0.460302 0.055138 0.513193
Si Si4 0.888856 0.448568 0.197915
Si Si5 0.143541 0.284785 0.854614
Si Si6 0.444084 0.181590 0.868934
Si Si7 0.316187 0.452800 0.177839
Si Si8 0.256447 0.357053 0.438475
O O1 0.858138 0.561045 0.228028
O O2 0.695636 0.742452 0.273303
O O3 0.212312 0.710365 0.150743
O O4 0.102901 0.655701 0.061343
O O5 0.907989 0.788502 0.716677
O O6 0.277246 0.801659 0.492666
O O7 0.884697 0.935628 0.650478
O O8 0.471219 0.068960 0.592068
O O9 0.640798 0.122050 0.403435
O O10 0.132994 0.084902 0.595958
O O11 0.553835 0.944170 0.474196
O O12 0.575921 0.402232 0.315785
O O13 0.162204 0.417786 0.157927
O O14 0.199872 0.199956 0.890260
O O15 0.861014 0.256100 0.899144
O O16 0.586551 0.078452 0.809732
#
# Coordination Sequence:
#
# PCOD9138855 Si02
#       8
#     4   4   4   4   4   4   4   4
#     4  10  23  49  76 111 154 209 266 335 410 491
#     4  11  28  48  72 115 156 203 273 338 413 496
#     4  11  28  47  83 117 162 214 280 335 415 501
#     4  10  23  49  79 114 163 216 259 339 426 479
#     4  12  27  49  77 122 160 214 282 337 418 514
#     4  12  26  51  76 109 163 206 268 349 408 498
#     4  11  26  49  78 116 155 210 273 331 414 502
#     4  11  23  48  81 114 163 212 271 344 414 499
#
# _framework density 25.580483000000001
#
# number of rings (size 3 to 8) (size 9 to 14) (size 15 to 20)
#    0.000    1.000    2.500    1.500    8.750    1.000 
#    9.000    0.000    0.000    0.000    0.000    0.000 
#    0.000    0.000    0.000    0.000    0.000    0.000 
#
# Total GULP energy -89278.820068 kJ/mol
# GULP energy per Si atom -5579.926254 kJ/mol
# Density = 2.552226 g / cm^3
# Si number density = 25.580483 Si / 1000 Ang^3
#
#
#
# Elastic Constant Matrix: (Units=GPa)
#
#
# Indices 1 2 3 4 5 6 
#
# 1 108.5392 42.1769 78.3284 -0.0076 9.8828 0.0036
# 2 42.1769 88.5075 41.0598 -0.0010 1.4674 0.0023
# 3 78.3284 41.0598 178.7618 -0.0224 16.8391 0.0001
# 4 -0.0076 -0.0010 -0.0224 23.2167 0.0120 -1.0924
# 5 9.8828 1.4674 16.8391 0.0120 36.4876 -0.0048
# 6 0.0036 0.0023 0.0001 -1.0924 -0.0048 28.2257
#
#
#
# Elastic Compliance Matrix: (Units=1/GPa)
#
#
# Indices 1 2 3 4 5 6 
#
# 1 0.015033 -0.004640 -0.005390 0.000000 -0.001398 -0.000002
# 2 -0.004640 0.014105 -0.001329 -0.000003 0.001303 0.000000
# 3 -0.005390 -0.001329 0.008487 0.000008 -0.002404 0.000001
# 4 0.000000 -0.000003 0.000008 0.043151 -0.000017 0.001670
# 5 -0.001398 0.001303 -0.002404 -0.000017 0.028842 0.000004
# 6 -0.000002 0.000000 0.000001 0.001670 0.000004 0.035493
#
#
# Mechanical properties :
#
#
# Convention : Reuss Voigt Hill
#
# Bulk Modulus (GPa) = 67.08257 77.65986 72.37122
# Shear Modulus (GPa) = 28.93532 31.86888 30.40210
#
# Velocity S-wave (km/s) = 3.36690 3.53346 3.45119
# Velocity P-wave (km/s) = 6.43395 6.86091 6.65086
#
# Compressibility (1/GPa) = 0.01490700
#
# Stress axis : x y z
#
# Youngs Moduli (GPa) = 66.51949 70.89788 117.82256
#
# Poissons Ratio (x) = 0.32899 0.63502
# Poissons Ratio (y) = 0.30867 0.15661
# Poissons Ratio (z) = 0.35851 0.09424
#
# Static dielectric constant tensor:
#      x y z
#    x 2.207830 0.000030 -0.040360 
#    y 0.000030 2.124990 -0.000030 
#    z -0.040360 -0.000030 1.979800 
# 
# From -- ./inp_files/32780.got.cif
#   From: 2010.05.17/outbox.cif.g08.bks.cpg/sg9_17_cif.got.tgz:32780.got - 2010.06.03 20:04:27.
