data_PCOD9138671
_publ_section_title
;
Structure prediction by ZEFSAII (Michael W. Deem and Ramdas Pophale) SiO2 
 PCOD9138671
Probable space group: C C
;
_chemical_formula_sum "Si O2"
_cell_formula_units_Z 28
_cell_length_a 8.951756
_cell_length_b 28.203772
_cell_length_c 5.401586
_cell_angle_alpha 90.000000
_cell_angle_beta 126.177119
_cell_angle_gamma 90.000000
_cell_volume 1100.818663
_symmetry_space_group_name_H-M "C C"
_symmetry_group_IT_number 9
_symmetry_cell_setting 'monoclinic'
loop_
_space_group_symop_operation_xyz
x,y,z
x,-y,1/2+z
1/2+x,1/2+y,z
1/2+x,1/2-y,1/2+z
loop_
_atom_site_type_symbol
_atom_site_label
_atom_site_fract_x
_atom_site_fract_y
_atom_site_fract_z
Si Si1 0.473630 0.833276 0.555740
Si Si2 0.996528 0.183686 0.176046
Si Si3 0.175803 0.889746 0.508143
Si Si4 0.829055 0.888087 0.865716
Si Si5 0.598326 0.212472 0.666563
Si Si6 0.925161 0.522802 0.232604
Si Si7 0.843551 0.014129 0.141048
O O1 0.276812 0.857049 0.403101
O O2 0.627151 0.873845 0.758895
O O3 0.507229 0.815280 0.310131
O O4 0.501038 0.795232 0.805441
O O5 0.807421 0.193797 0.838309
O O6 0.123083 0.143687 0.182212
O O7 0.911560 0.161133 0.340171
O O8 0.100315 0.233586 0.266150
O O9 0.324279 0.929617 0.719161
O O10 0.979765 0.906179 0.207226
O O11 0.808966 0.929887 0.643720
O O12 0.870205 0.485756 0.393978
O O13 0.149901 0.516096 0.446237
O O14 0.942978 0.995799 0.482982
#
# Coordination Sequence:
#
# PCOD9138671 Si02
#       7
#     4   4   4   4   4   4   4
#     4  11  26  47  75 108 152 198 241 308 366 432
#     4  11  27  47  74 111 151 193 249 305 365 437
#     4  12  27  45  78 109 149 191 254 302 367 438
#     4  11  27  47  72 112 149 192 251 305 364 437
#     4  11  26  48  74 107 154 197 243 301 373 432
#     4  10  24  45  70 104 140 189 240 295 367 433
#     4  10  23  45  73  99 143 192 236 298 366 431
#
# _framework density 25.435616
#
# number of rings (size 3 to 8) (size 9 to 14) (size 15 to 20)
#    0.000    1.143    1.429    2.571   10.000    6.857 
#    0.000    0.000    0.000    0.000    0.000    0.000 
#    0.000    0.000    0.000    0.000    0.000    0.000 
#
# Total GULP energy -78313.445839 kJ/mol
# GULP energy per Si atom -5593.817560 kJ/mol
# Density = 2.537772 g / cm^3
# Si number density = 25.435616 Si / 1000 Ang^3
#
#
#
# Elastic Constant Matrix: (Units=GPa)
#
#
# Indices 1 2 3 4 5 6 
#
# 1 117.5858 12.1441 33.9932 0.0000 0.6386 0.0000
# 2 12.1441 81.4421 9.2945 0.0000 -0.4892 0.0000
# 3 33.9932 9.2945 75.7800 0.0000 -2.5301 0.0000
# 4 0.0000 0.0000 0.0000 29.5411 0.0000 -3.0385
# 5 0.6386 -0.4892 -2.5301 0.0000 53.5237 0.0000
# 6 0.0000 0.0000 0.0000 -3.0385 0.0000 54.2397
#
#
#
# Elastic Compliance Matrix: (Units=1/GPa)
#
#
# Indices 1 2 3 4 5 6 
#
# 1 0.009854 -0.000979 -0.004311 0.000000 -0.000330 0.000000
# 2 -0.000979 0.012550 -0.001098 0.000000 0.000075 0.000000
# 3 -0.004311 -0.001098 0.015290 0.000000 0.000764 0.000000
# 4 0.000000 0.000000 0.000000 0.034047 0.000000 0.001907
# 5 -0.000330 0.000075 0.000764 0.000000 0.018724 0.000000
# 6 0.000000 0.000000 0.000000 0.001907 0.000000 0.018544
#
#
# Mechanical properties :
#
#
# Convention : Reuss Voigt Hill
#
# Bulk Modulus (GPa) = 40.13110 42.85239 41.49175
# Shear Modulus (GPa) = 38.43466 42.08596 40.26031
#
# Velocity S-wave (km/s) = 3.89145 4.07210 3.98280
# Velocity P-wave (km/s) = 6.00024 6.24446 6.12357
#
# Compressibility (1/GPa) = 0.02491833
#
# Stress axis : x y z
#
# Youngs Moduli (GPa) = 101.48520 79.67882 65.40204
#
# Poissons Ratio (x) = 0.07803 0.28195
# Poissons Ratio (y) = 0.09938 0.07178
# Poissons Ratio (z) = 0.43751 0.08745
#
# Static dielectric constant tensor:
#      x y z
#    x 1.964110 0.000000 -0.004580 
#    y 0.000000 2.031110 0.000000 
#    z -0.004580 0.000000 2.055290 
# 
# From -- ./inp_files/1334.got.cif
#   From: 2010.05.17/outbox.cif.g08.bks.cpg/sg9_1_cif.got.tgz:1334.got - 2010.06.03 20:04:27.
