data_PCOD9138969
_publ_section_title
;
Structure prediction by ZEFSAII (Michael W. Deem and Ramdas Pophale) SiO2 
 PCOD9138969
Probable space group: C C
;
_chemical_formula_sum "Si O2"
_cell_formula_units_Z 20
_cell_length_a 4.928572
_cell_length_b 19.639964
_cell_length_c 8.189404
_cell_angle_alpha 90.000000
_cell_angle_beta 74.012088
_cell_angle_gamma 90.000000
_cell_volume 762.047406
_symmetry_space_group_name_H-M "C C"
_symmetry_group_IT_number 9
_symmetry_cell_setting 'monoclinic'
loop_
_space_group_symop_operation_xyz
x,y,z
x,-y,1/2+z
1/2+x,1/2+y,z
1/2+x,1/2-y,1/2+z
loop_
_atom_site_type_symbol
_atom_site_label
_atom_site_fract_x
_atom_site_fract_y
_atom_site_fract_z
Si Si1 0.754030 0.418060 0.678590
Si Si2 0.689931 0.241188 0.414051
Si Si3 0.223196 0.594042 0.482446
Si Si4 0.966530 0.464302 0.328927
Si Si5 0.167660 0.302010 0.568681
O O1 0.523004 0.390632 0.843410
O O2 0.753484 0.423707 0.482406
O O3 0.779707 0.495304 0.730824
O O4 0.040857 0.374142 0.643250
O O5 0.569432 0.166463 0.483469
O O6 0.919694 0.265385 0.507874
O O7 0.797530 0.229514 0.212572
O O8 0.445695 0.296041 0.417064
O O9 0.113683 0.526110 0.406100
O O10 0.188693 0.576933 0.680704
#
# Coordination Sequence:
#
# PCOD9138969 Si02
#       5
#     4   4   4   4   4
#     4  11  23  46  71 106 151 193 254 317 379 456
#     4  12  27  48  75 109 150 199 254 315 382 453
#     4  11  23  46  71 106 151 193 254 317 379 456
#     4  10  24  42  74 106 144 198 254 306 390 450
#     4  12  27  48  75 109 150 199 254 315 382 453
#
# _framework density 26.245086000000001
#
# number of rings (size 3 to 8) (size 9 to 14) (size 15 to 20)
#    0.000    0.800    2.000    4.800    5.600    0.000 
#    0.000    0.000    0.000    0.000    0.000    0.000 
#    0.000    0.000    0.000    0.000    0.000    0.000 
#
# Total GULP energy -55724.204510 kJ/mol
# GULP energy per Si atom -5572.420451 kJ/mol
# Density = 2.618535 g / cm^3
# Si number density = 26.245086 Si / 1000 Ang^3
#
#
#
# Elastic Constant Matrix: (Units=GPa)
#
#
# Indices 1 2 3 4 5 6 
#
# 1 74.2447 16.9360 3.1688 0.0000 9.3687 0.0000
# 2 16.9360 97.0223 28.7397 0.0000 2.8310 0.0000
# 3 3.1688 28.7397 123.4719 0.0000 2.8646 0.0000
# 4 0.0000 0.0000 0.0000 23.3153 0.0000 3.8916
# 5 9.3687 2.8310 2.8646 0.0000 41.4015 0.0000
# 6 0.0000 0.0000 0.0000 3.8916 0.0000 41.2621
#
#
#
# Elastic Compliance Matrix: (Units=1/GPa)
#
#
# Indices 1 2 3 4 5 6 
#
# 1 0.014422 -0.002512 0.000287 0.000000 -0.003112 0.000000
# 2 -0.002512 0.011521 -0.002616 0.000000 -0.000038 0.000000
# 3 0.000287 -0.002616 0.008712 0.000000 -0.000489 0.000000
# 4 0.000000 0.000000 0.000000 0.043576 0.000000 -0.004110
# 5 -0.003112 -0.000038 -0.000489 0.000000 0.024894 0.000000
# 6 0.000000 0.000000 0.000000 -0.004110 0.000000 0.024623
#
#
# Mechanical properties :
#
#
# Convention : Reuss Voigt Hill
#
# Bulk Modulus (GPa) = 40.04325 43.60311 41.82318
# Shear Modulus (GPa) = 34.30379 37.58874 35.94627
#
# Velocity S-wave (km/s) = 3.61924 3.78857 3.70488
# Velocity P-wave (km/s) = 5.72327 5.98227 5.85420
#
# Compressibility (1/GPa) = 0.02497300
#
# Stress axis : x y z
#
# Youngs Moduli (GPa) = 69.33696 86.79429 114.78417
#
# Poissons Ratio (x) = 0.21800 -0.03291
# Poissons Ratio (y) = 0.17415 0.30032
# Poissons Ratio (z) = -0.01988 0.22709
#
# Static dielectric constant tensor:
#      x y z
#    x 2.130460 0.000000 0.063440 
#    y 0.000000 2.135980 0.000000 
#    z 0.063440 0.000000 2.119290 
# 
# From -- ./inp_files/3592.got.cif
#   From: 2010.05.17/outbox.cif.g08.bks.cpg/sg9_2_cif.got.tgz:3592.got - 2010.06.03 20:04:27.
