data_PCOD9138281
_publ_section_title
;
Structure prediction by ZEFSAII (Michael W. Deem and Ramdas Pophale) SiO2 
 PCOD9138281
Probable space group: C C
;
_chemical_formula_sum "Si O2"
_cell_formula_units_Z 28
_cell_length_a 26.432575
_cell_length_b 6.642507
_cell_length_c 20.258640
_cell_angle_alpha 90.000000
_cell_angle_beta 20.924441
_cell_angle_gamma 90.000000
_cell_volume 1270.328348
_symmetry_space_group_name_H-M "C C"
_symmetry_group_IT_number 9
_symmetry_cell_setting 'monoclinic'
loop_
_space_group_symop_operation_xyz
x,y,z
x,-y,1/2+z
1/2+x,1/2+y,z
1/2+x,1/2-y,1/2+z
loop_
_atom_site_type_symbol
_atom_site_label
_atom_site_fract_x
_atom_site_fract_y
_atom_site_fract_z
Si Si1 0.134580 0.053505 0.711230
Si Si2 0.268837 0.089190 0.925740
Si Si3 0.567354 0.103513 0.607819
Si Si4 0.024195 0.910599 0.485646
Si Si5 0.830991 0.562015 0.660168
Si Si6 0.931095 0.374770 0.897368
Si Si7 0.297598 0.712324 0.804214
O O1 0.197345 0.890493 0.584691
O O2 0.066803 0.987761 0.862915
O O3 0.275500 0.180507 0.559015
O O4 0.023216 0.182807 0.805304
O O5 0.508196 0.009609 0.748700
O O6 0.279680 0.856660 0.889604
O O7 0.170573 0.212137 0.996519
O O8 0.429645 0.163410 0.734382
O O9 0.673323 0.354062 0.337222
O O10 0.660271 0.926744 0.463015
O O11 0.928935 0.721900 0.579055
O O12 0.932672 0.065598 0.640084
O O13 0.901151 0.517020 0.503607
O O14 0.815053 0.363981 0.722583
#
# Coordination Sequence:
#
# PCOD9138281 Si02
#       7
#     4   4   4   4   4   4   4
#     4   9  19  40  65  93 125 162 209 256 309 370
#     4  11  25  42  64  94 128 167 211 260 312 371
#     4  11  25  42  64  94 128 167 211 260 312 371
#     4  10  23  42  66  95 128 165 208 259 312 373
#     4  10  23  42  66  95 128 165 208 259 312 373
#     4   9  19  40  65  93 125 162 209 256 309 370
#     4  12  24  40  66  94 130 164 208 258 318 370
#
# _framework density 22.041546
#
# number of rings (size 3 to 8) (size 9 to 14) (size 15 to 20)
#    0.000    1.714    1.429    1.714    2.000    8.000 
#    0.000    0.000    0.000    0.000    0.000    0.000 
#    0.000    0.000    0.000    0.000    0.000    0.000 
#
# Total GULP energy -78253.221465 kJ/mol
# GULP energy per Si atom -5589.515819 kJ/mol
# Density = 2.199138 g / cm^3
# Si number density = 22.041546 Si / 1000 Ang^3
#
#
#
# Elastic Constant Matrix: (Units=GPa)
#
#
# Indices 1 2 3 4 5 6 
#
# 1 63.8095 17.0481 14.6033 -0.0007 -15.3632 -0.0004
# 2 17.0481 64.6138 34.8760 -0.0057 -7.8856 0.0008
# 3 14.6033 34.8760 110.5469 -0.0025 -4.8942 0.0000
# 4 -0.0007 -0.0057 -0.0025 26.0951 -0.0006 -2.2756
# 5 -15.3632 -7.8856 -4.8942 -0.0006 51.3732 0.0001
# 6 -0.0004 0.0008 0.0000 -2.2756 0.0001 31.9237
#
#
#
# Elastic Compliance Matrix: (Units=1/GPa)
#
#
# Indices 1 2 3 4 5 6 
#
# 1 0.018014 -0.003620 -0.001028 0.000000 0.004733 0.000000
# 2 -0.003620 0.019658 -0.005662 0.000004 0.001395 0.000000
# 3 -0.001028 -0.005662 0.010962 0.000000 -0.000132 0.000000
# 4 0.000000 0.000004 0.000000 0.038561 0.000001 0.002749
# 5 0.004733 0.001395 -0.000132 0.000001 0.021083 0.000000
# 6 0.000000 0.000000 0.000000 0.002749 0.000000 0.031521
#
#
# Mechanical properties :
#
#
# Convention : Reuss Voigt Hill
#
# Bulk Modulus (GPa) = 35.69665 41.33610 38.51637
# Shear Modulus (GPa) = 29.45398 33.37459 31.41429
#
# Velocity S-wave (km/s) = 3.65950 3.89545 3.77932
# Velocity P-wave (km/s) = 5.83834 6.24717 6.04621
#
# Compressibility (1/GPa) = 0.02801383
#
# Stress axis : x y z
#
# Youngs Moduli (GPa) = 55.51302 50.86955 91.22334
#
# Poissons Ratio (x) = 0.18417 0.09377
# Poissons Ratio (y) = 0.20098 0.51649
# Poissons Ratio (z) = 0.05706 0.28802
#
# Static dielectric constant tensor:
#      x y z
#    x 1.821900 0.000000 0.036630 
#    y 0.000000 1.757460 0.000000 
#    z 0.036630 0.000000 1.836160 
# 
# From -- ./inp_files/19673.got.cif
#   From: 2010.05.17/outbox.cif.g08.bks.cpg/sg9_10_cif.got.tgz:19673.got - 2010.06.03 20:04:27.
