data_PCOD9138474
_publ_section_title
;
Structure prediction by ZEFSAII (Michael W. Deem and Ramdas Pophale) SiO2 
 PCOD9138474
Probable space group: C C
;
_chemical_formula_sum "Si O2"
_cell_formula_units_Z 28
_cell_length_a 11.351773
_cell_length_b 14.607097
_cell_length_c 8.543024
_cell_angle_alpha 90.000000
_cell_angle_beta 54.560925
_cell_angle_gamma 90.000000
_cell_volume 1154.128862
_symmetry_space_group_name_H-M "C C"
_symmetry_group_IT_number 9
_symmetry_cell_setting 'monoclinic'
loop_
_space_group_symop_operation_xyz
x,y,z
x,-y,1/2+z
1/2+x,1/2+y,z
1/2+x,1/2-y,1/2+z
loop_
_atom_site_type_symbol
_atom_site_label
_atom_site_fract_x
_atom_site_fract_y
_atom_site_fract_z
Si Si1 0.216650 0.957988 0.663410
Si Si2 0.394150 0.103243 0.310582
Si Si3 0.229222 0.635545 0.601972
Si Si4 0.656406 0.385504 0.416859
Si Si5 0.917666 0.796050 0.458846
Si Si6 0.919547 0.271487 0.296457
Si Si7 0.716935 0.054346 0.959169
O O1 0.319094 0.899876 0.697949
O O2 0.110807 0.901862 0.631906
O O3 0.311399 0.032094 0.490305
O O4 0.129119 0.019466 0.852586
O O5 0.387517 0.203712 0.389586
O O6 0.559935 0.075193 0.155801
O O7 0.355506 0.710845 0.485756
O O8 0.242504 0.552912 0.467765
O O9 0.081434 0.692734 0.687775
O O10 0.219268 0.586348 0.777358
O O11 0.589502 0.313906 0.347576
O O12 0.821610 0.360551 0.330708
O O13 0.886506 0.786292 0.666202
O O14 0.835413 0.881680 0.451016
#
# Coordination Sequence:
#
# PCOD9138474 Si02
#       7
#     4   4   4   4   4   4   4
#     4  10  23  43  75  99 144 190 256 301 384 460
#     4  11  23  44  74 110 141 200 256 318 377 466
#     4  12  29  51  83 112 159 201 266 316 398 460
#     4  11  23  44  69 108 143 197 242 318 380 453
#     4  12  27  43  72 109 156 195 255 318 384 452
#     4  12  25  49  78 112 152 203 251 323 386 465
#     4  12  28  48  77 110 153 206 258 320 385 472
#
# _framework density 24.260724
#
# number of rings (size 3 to 8) (size 9 to 14) (size 15 to 20)
#    0.000    0.571    2.857    5.143    6.000    2.286 
#    0.000    1.429    0.000    0.000    0.000    0.000 
#    0.000    0.000    0.000    0.000    0.000    0.000 
#
# Total GULP energy -78266.388566 kJ/mol
# GULP energy per Si atom -5590.456326 kJ/mol
# Density = 2.420551 g / cm^3
# Si number density = 24.260724 Si / 1000 Ang^3
#
#
#
# Elastic Constant Matrix: (Units=GPa)
#
#
# Indices 1 2 3 4 5 6 
#
# 1 137.4829 80.6545 54.6957 0.0000 21.5357 0.0000
# 2 80.6545 174.4291 48.0815 0.0000 13.7769 0.0000
# 3 54.6957 48.0815 66.1244 0.0000 27.2194 0.0000
# 4 0.0000 0.0000 0.0000 48.9689 0.0000 11.6998
# 5 21.5357 13.7769 27.2194 0.0000 39.1140 0.0000
# 6 0.0000 0.0000 0.0000 11.6998 0.0000 44.9751
#
#
#
# Elastic Compliance Matrix: (Units=1/GPa)
#
#
# Indices 1 2 3 4 5 6 
#
# 1 0.012464 -0.003669 -0.007496 0.000000 -0.000353 0.000000
# 2 -0.003669 0.008317 -0.003698 0.000000 0.001664 0.000000
# 3 -0.007496 -0.003698 0.030520 0.000000 -0.015809 0.000000
# 4 0.000000 0.000000 0.000000 0.021774 0.000000 -0.005664
# 5 -0.000353 0.001664 -0.015809 0.000000 0.036176 0.000000
# 6 0.000000 0.000000 0.000000 -0.005664 0.000000 0.023708
#
#
# Mechanical properties :
#
#
# Convention : Reuss Voigt Hill
#
# Bulk Modulus (GPa) = 46.34992 82.76666 64.55829
# Shear Modulus (GPa) = 29.43289 39.58523 34.50906
#
# Velocity S-wave (km/s) = 3.48687 4.04376 3.77560
# Velocity P-wave (km/s) = 5.94621 7.48280 6.75831
#
# Compressibility (1/GPa) = 0.02157501
#
# Stress axis : x y z
#
# Youngs Moduli (GPa) = 80.23392 120.23017 32.76513
#
# Poissons Ratio (x) = 0.44110 0.24561
# Poissons Ratio (y) = 0.29436 0.12117
# Poissons Ratio (z) = 0.60145 0.44463
#
# Static dielectric constant tensor:
#      x y z
#    x 1.922190 0.000000 -0.097730 
#    y 0.000000 2.012880 0.000000 
#    z -0.097730 0.000000 2.156990 
# 
# From -- ./inp_files/7344.got.cif
#   From: 2010.05.17/outbox.cif.g08.bks.cpg/sg9_4_cif.got.tgz:7344.got - 2010.06.03 20:04:27.
