data_PCOD9138161
_publ_section_title
;
Structure prediction by ZEFSAII (Michael W. Deem and Ramdas Pophale) SiO2 
 PCOD9138161
Probable space group: C C
;
_chemical_formula_sum "Si O2"
_cell_formula_units_Z 32
_cell_length_a 20.048096
_cell_length_b 8.768675
_cell_length_c 9.946271
_cell_angle_alpha 90.000000
_cell_angle_beta 134.355743
_cell_angle_gamma 90.000000
_cell_volume 1250.205131
_symmetry_space_group_name_H-M "C C"
_symmetry_group_IT_number 9
_symmetry_cell_setting 'monoclinic'
loop_
_space_group_symop_operation_xyz
x,y,z
x,-y,1/2+z
1/2+x,1/2+y,z
1/2+x,1/2-y,1/2+z
loop_
_atom_site_type_symbol
_atom_site_label
_atom_site_fract_x
_atom_site_fract_y
_atom_site_fract_z
Si Si1 0.443870 0.331749 0.279810
Si Si2 0.722236 0.123661 0.504762
Si Si3 0.742872 0.881302 0.738587
Si Si4 0.964498 0.639285 0.546441
Si Si5 0.934218 0.287481 0.483562
Si Si6 0.133577 0.862545 0.856369
Si Si7 0.079112 0.902442 0.067113
Si Si8 0.767632 0.223653 0.830605
O O1 0.335338 0.368699 0.153504
O O2 0.464869 0.175481 0.387436
O O3 0.461355 0.313018 0.149528
O O4 0.509759 0.460670 0.427669
O O5 0.689761 0.161558 0.305994
O O6 0.706247 0.241628 0.606229
O O7 0.694922 0.962155 0.539303
O O8 0.785404 0.042360 0.856898
O O9 0.826127 0.765473 0.815532
O O10 0.959878 0.459430 0.556686
O O11 0.865768 0.696503 0.460720
O O12 0.044014 0.751098 0.713820
O O13 0.005116 0.235089 0.470202
O O14 0.147707 0.875786 0.036887
O O15 0.213402 0.784918 0.880675
O O16 0.122393 0.024716 0.763400
#
# Coordination Sequence:
#
# PCOD9138161 Si02
#       8
#     4   4   4   4   4   4   4   4
#     4   9  18  37  59  93 121 167 217 260 318 385
#     4   8  16  32  61  84 116 159 211 257 302 381
#     4   9  17  35  62  88 119 171 212 254 316 396
#     4  10  23  40  64  97 134 167 212 289 328 385
#     4  11  20  36  64 100 125 167 225 262 335 394
#     4  11  24  46  68  95 132 178 222 278 330 395
#     4  11  21  40  69  90 127 177 226 265 330 401
#     4   9  21  44  61  91 132 170 217 271 329 385
#
# _framework density 25.595800000000001
#
# number of rings (size 3 to 8) (size 9 to 14) (size 15 to 20)
#    0.750    1.500    2.500    0.750    3.500    0.000 
#    9.000    1.250    0.000    0.000    0.000    0.000 
#    0.000    0.000    0.000    0.000    0.000    0.000 
#
# Total GULP energy -89272.033530 kJ/mol
# GULP energy per Si atom -5579.502096 kJ/mol
# Density = 2.553754 g / cm^3
# Si number density = 25.595800 Si / 1000 Ang^3
#
#
#
# Elastic Constant Matrix: (Units=GPa)
#
#
# Indices 1 2 3 4 5 6 
#
# 1 143.9896 45.6179 41.8008 0.0000 -14.1397 0.0000
# 2 45.6179 86.8002 5.1499 0.0000 10.6362 0.0000
# 3 41.8008 5.1499 92.6524 0.0000 -23.3149 0.0000
# 4 0.0000 0.0000 0.0000 25.3339 0.0000 -10.2139
# 5 -14.1397 10.6362 -23.3149 0.0000 31.7240 0.0000
# 6 0.0000 0.0000 0.0000 -10.2139 0.0000 39.3200
#
#
#
# Elastic Compliance Matrix: (Units=1/GPa)
#
#
# Indices 1 2 3 4 5 6 
#
# 1 0.010034 -0.005569 -0.003217 0.000000 0.003975 0.000000
# 2 -0.005569 0.015436 -0.000334 0.000000 -0.007903 0.000000
# 3 -0.003217 -0.000334 0.014637 0.000000 0.009436 0.000000
# 4 0.000000 0.000000 0.000000 0.044090 0.000000 0.011453
# 5 0.003975 -0.007903 0.009436 0.000000 0.042878 0.000000
# 6 0.000000 0.000000 0.000000 0.011453 0.000000 0.028407
#
#
# Mechanical properties :
#
#
# Convention : Reuss Voigt Hill
#
# Bulk Modulus (GPa) = 45.73264 56.50882 51.12073
# Shear Modulus (GPa) = 27.62253 34.66717 31.14485
#
# Velocity S-wave (km/s) = 3.28865 3.68422 3.49204
# Velocity P-wave (km/s) = 5.68563 6.34218 6.02286
#
# Compressibility (1/GPa) = 0.02186622
#
# Stress axis : x y z
#
# Youngs Moduli (GPa) = 99.66452 64.78372 68.31886
#
# Poissons Ratio (x) = 0.36081 0.21977
# Poissons Ratio (y) = 0.55508 0.02282
# Poissons Ratio (z) = 0.32061 0.02164
#
# Static dielectric constant tensor:
#      x y z
#    x 2.047610 0.000000 -0.056310 
#    y 0.000000 2.088750 0.000000 
#    z -0.056310 0.000000 2.109370 
# 
# From -- ./inp_files/20032.got.cif
#   From: 2010.05.17/outbox.cif.g08.bks.cpg/sg9_11_cif.got.tgz:20032.got - 2010.06.03 20:04:27.
