data_PCOD9138251
_publ_section_title
;
Structure prediction by ZEFSAII (Michael W. Deem and Ramdas Pophale) SiO2 
 PCOD9138251
Probable space group: C C
;
_chemical_formula_sum "Si O2"
_cell_formula_units_Z 24
_cell_length_a 11.296463
_cell_length_b 10.321644
_cell_length_c 9.335273
_cell_angle_alpha 90.000000
_cell_angle_beta 127.101751
_cell_angle_gamma 90.000000
_cell_volume 868.129950
_symmetry_space_group_name_H-M "C C"
_symmetry_group_IT_number 9
_symmetry_cell_setting 'monoclinic'
loop_
_space_group_symop_operation_xyz
x,y,z
x,-y,1/2+z
1/2+x,1/2+y,z
1/2+x,1/2-y,1/2+z
loop_
_atom_site_type_symbol
_atom_site_label
_atom_site_fract_x
_atom_site_fract_y
_atom_site_fract_z
Si Si1 0.388080 0.886629 0.941790
Si Si2 0.147102 0.494489 0.475113
Si Si3 0.055113 0.869301 0.639879
Si Si4 0.932893 0.892185 0.164647
Si Si5 0.196838 0.253915 0.851979
Si Si6 0.686034 0.300136 0.010686
O O1 0.500926 0.991066 0.963572
O O2 0.232098 0.877787 0.743266
O O3 0.323488 0.887870 0.056242
O O4 0.478112 0.752124 0.011327
O O5 0.297292 0.551859 0.657996
O O6 0.135948 0.601381 0.340507
O O7 0.186467 0.350036 0.457953
O O8 0.052012 0.852340 0.814189
O O9 0.971520 0.004765 0.568194
O O10 0.088336 0.850933 0.344193
O O11 0.860347 0.765601 0.036523
O O12 0.191335 0.215166 0.683063
#
# Coordination Sequence:
#
# PCOD9138251 Si02
#       6
#     4   4   4   4   4   4
#     4  10  23  41  74 110 143 202 254 304 393 460
#     4  10  24  45  74 107 158 191 256 324 388 457
#     4  10  23  46  70 112 147 207 247 317 391 464
#     4  10  23  47  69 107 150 201 245 324 379 465
#     4  10  25  43  72 108 147 196 259 311 391 453
#     4  10  24  46  77 106 151 199 259 316 390 461
#
# _framework density 27.645627999999999
#
# number of rings (size 3 to 8) (size 9 to 14) (size 15 to 20)
#    2.000    0.000    1.667    0.000    7.000    1.333 
#    3.000    0.000    0.000    0.000    0.000    0.000 
#    0.000    0.000    0.000    0.000    0.000    0.000 
#
# Total GULP energy -66990.757165 kJ/mol
# GULP energy per Si atom -5582.563097 kJ/mol
# Density = 2.758271 g / cm^3
# Si number density = 27.645628 Si / 1000 Ang^3
#
#
#
# Elastic Constant Matrix: (Units=GPa)
#
#
# Indices 1 2 3 4 5 6 
#
# 1 118.9065 29.8694 57.3618 0.0000 18.2545 0.0000
# 2 29.8694 83.0569 35.3975 0.0000 17.3896 0.0000
# 3 57.3618 35.3975 112.7783 0.0000 20.1568 0.0000
# 4 0.0000 0.0000 0.0000 41.4920 0.0000 4.0014
# 5 18.2545 17.3896 20.1568 0.0000 56.7457 0.0000
# 6 0.0000 0.0000 0.0000 4.0014 0.0000 34.5649
#
#
#
# Elastic Compliance Matrix: (Units=1/GPa)
#
#
# Indices 1 2 3 4 5 6 
#
# 1 0.011490 -0.001683 -0.005069 0.000000 -0.001380 0.000000
# 2 -0.001683 0.014605 -0.003230 0.000000 -0.002787 0.000000
# 3 -0.005069 -0.003230 0.012804 0.000000 -0.001927 0.000000
# 4 0.000000 0.000000 0.000000 0.024373 0.000000 -0.002822
# 5 -0.001380 -0.002787 -0.001927 0.000000 0.019605 0.000000
# 6 0.000000 0.000000 0.000000 -0.002822 0.000000 0.029258
#
#
# Mechanical properties :
#
#
# Convention : Reuss Voigt Hill
#
# Bulk Modulus (GPa) = 52.81351 62.22213 57.51782
# Shear Modulus (GPa) = 36.12437 39.36805 37.74621
#
# Velocity S-wave (km/s) = 3.61874 3.77772 3.69909
# Velocity P-wave (km/s) = 6.05026 6.44857 6.25259
#
# Compressibility (1/GPa) = 0.01893455
#
# Stress axis : x y z
#
# Youngs Moduli (GPa) = 87.03213 68.46861 78.10270
#
# Poissons Ratio (x) = 0.11521 0.39593
# Poissons Ratio (y) = 0.14645 0.25228
# Poissons Ratio (z) = 0.44119 0.22116
#
# Static dielectric constant tensor:
#      x y z
#    x 2.242870 0.000000 -0.060540 
#    y 0.000000 2.075020 0.000000 
#    z -0.060540 0.000000 2.201280 
# 
# From -- ./inp_files/16322.got.cif
#   From: 2010.05.17/outbox.cif.g08.bks.cpg/sg9_9_cif.got.tgz:16322.got - 2010.06.03 20:04:27.
