data_PCOD9138453
_publ_section_title
;
Structure prediction by ZEFSAII (Michael W. Deem and Ramdas Pophale) SiO2 
 PCOD9138453
Probable space group: C C
;
_chemical_formula_sum "Si O2"
_cell_formula_units_Z 32
_cell_length_a 15.212410
_cell_length_b 13.714839
_cell_length_c 8.159400
_cell_angle_alpha 90.000000
_cell_angle_beta 125.229864
_cell_angle_gamma 90.000000
_cell_volume 1390.548887
_symmetry_space_group_name_H-M "C C"
_symmetry_group_IT_number 9
_symmetry_cell_setting 'monoclinic'
loop_
_space_group_symop_operation_xyz
x,y,z
x,-y,1/2+z
1/2+x,1/2+y,z
1/2+x,1/2-y,1/2+z
loop_
_atom_site_type_symbol
_atom_site_label
_atom_site_fract_x
_atom_site_fract_y
_atom_site_fract_z
Si Si1 0.388340 0.275207 0.982800
Si Si2 0.748049 0.921169 0.043170
Si Si3 0.371708 0.904317 0.932898
Si Si4 0.465275 0.451511 0.483047
Si Si5 0.476493 0.737069 0.219337
Si Si6 0.054806 0.119681 0.785316
Si Si7 0.615936 0.097359 0.724327
Si Si8 0.788011 0.405353 0.478869
O O1 0.290203 0.342080 0.951730
O O2 0.446756 0.290877 0.871813
O O3 0.356392 0.163094 0.936725
O O4 0.482194 0.285273 0.221792
O O5 0.688602 0.015257 0.895978
O O6 0.855868 0.951732 0.260094
O O7 0.671901 0.880735 0.108648
O O8 0.327435 0.888068 0.705195
O O9 0.300288 0.982727 0.948838
O O10 0.382055 0.804683 0.043550
O O11 0.495488 0.943783 0.059521
O O12 0.473301 0.361879 0.614400
O O13 0.481344 0.549709 0.596740
O O14 0.563912 0.435327 0.465526
O O15 0.582712 0.805123 0.294789
O O16 0.168116 0.132136 0.829914
#
# Coordination Sequence:
#
# PCOD9138453 Si02
#       8
#     4   4   4   4   4   4   4   4
#     4  11  26  45  72 108 148 188 254 312 367 458
#     4  11  23  45  75 112 146 199 243 313 382 446
#     4  10  23  43  72 102 148 187 251 306 363 449
#     4  11  23  46  72 103 152 182 250 297 377 440
#     4  10  25  48  70 102 152 192 238 320 369 436
#     4  11  25  44  72 100 145 196 229 309 360 459
#     4  10  25  45  76 110 146 197 249 313 376 443
#     4  12  24  44  71 103 143 197 244 294 386 437
#
# _framework density 23.012497
#
# number of rings (size 3 to 8) (size 9 to 14) (size 15 to 20)
#    0.750    0.500    0.000    6.000    3.500    3.000 
#    6.750    0.000    0.000    0.000    0.000    0.000 
#    0.000    0.000    0.000    0.000    0.000    0.000 
#
# Total GULP energy -89263.707056 kJ/mol
# GULP energy per Si atom -5578.981691 kJ/mol
# Density = 2.296012 g / cm^3
# Si number density = 23.012497 Si / 1000 Ang^3
#
#
#
# Elastic Constant Matrix: (Units=GPa)
#
#
# Indices 1 2 3 4 5 6 
#
# 1 93.8924 36.3777 25.8190 0.0000 -18.4867 0.0000
# 2 36.3777 93.7445 30.6464 0.0000 -9.0389 0.0000
# 3 25.8190 30.6464 67.6182 0.0000 -8.9666 0.0000
# 4 0.0000 0.0000 0.0000 61.6550 0.0000 1.0339
# 5 -18.4867 -9.0389 -8.9666 0.0000 44.9777 0.0000
# 6 0.0000 0.0000 0.0000 1.0339 0.0000 38.7955
#
#
#
# Elastic Compliance Matrix: (Units=1/GPa)
#
#
# Indices 1 2 3 4 5 6 
#
# 1 0.013850 -0.004011 -0.002899 0.000000 0.004309 0.000000
# 2 -0.004011 0.013774 -0.004686 0.000000 0.000185 0.000000
# 3 -0.002899 -0.004686 0.018219 0.000000 0.001499 0.000000
# 4 0.000000 0.000000 0.000000 0.016227 0.000000 -0.000432
# 5 0.004309 0.000185 0.001499 0.000000 0.024340 0.000000
# 6 0.000000 0.000000 0.000000 -0.000432 0.000000 0.025788
#
#
# Mechanical properties :
#
#
# Convention : Reuss Voigt Hill
#
# Bulk Modulus (GPa) = 44.15240 48.99347 46.57294
# Shear Modulus (GPa) = 34.97961 39.91311 37.44636
#
# Velocity S-wave (km/s) = 3.90298 4.16914 4.03826
# Velocity P-wave (km/s) = 6.28800 6.67172 6.48270
#
# Compressibility (1/GPa) = 0.02264882
#
# Stress axis : x y z
#
# Youngs Moduli (GPa) = 72.20114 72.60147 54.88886
#
# Poissons Ratio (x) = 0.29123 0.15913
# Poissons Ratio (y) = 0.28963 0.25723
# Poissons Ratio (z) = 0.20932 0.34024
#
# Static dielectric constant tensor:
#      x y z
#    x 1.942580 0.000000 0.005670 
#    y 0.000000 1.804950 0.000000 
#    z 0.005670 0.000000 1.879150 
# 
# From -- ./inp_files/9697.got.cif
#   From: 2010.05.17/outbox.cif.g08.bks.cpg/sg9_5_cif.got.tgz:9697.got - 2010.06.03 20:04:27.
