data_PCOD9138655
_publ_section_title
;
Structure prediction by ZEFSAII (Michael W. Deem and Ramdas Pophale) SiO2 
 PCOD9138655
Probable space group: C C
;
_chemical_formula_sum "Si O2"
_cell_formula_units_Z 32
_cell_length_a 22.060161
_cell_length_b 6.798911
_cell_length_c 12.905756
_cell_angle_alpha 90.000000
_cell_angle_beta 38.008820
_cell_angle_gamma 90.000000
_cell_volume 1191.952692
_symmetry_space_group_name_H-M "C C"
_symmetry_group_IT_number 9
_symmetry_cell_setting 'monoclinic'
loop_
_space_group_symop_operation_xyz
x,y,z
x,-y,1/2+z
1/2+x,1/2+y,z
1/2+x,1/2-y,1/2+z
loop_
_atom_site_type_symbol
_atom_site_label
_atom_site_fract_x
_atom_site_fract_y
_atom_site_fract_z
Si Si1 0.524380 0.797951 0.905830
Si Si2 0.499937 0.174868 0.028256
Si Si3 0.843895 0.047071 0.840969
Si Si4 0.604300 0.820809 0.195551
Si Si5 0.338854 0.230200 0.545353
Si Si6 0.207207 0.699338 0.851005
Si Si7 0.314345 0.204077 0.002807
Si Si8 0.149598 0.854783 0.422885
O O1 0.588090 0.947225 0.746596
O O2 0.586237 0.668068 0.902293
O O3 0.443411 0.694758 0.944840
O O4 0.458493 0.959512 0.058625
O O5 0.433827 0.318404 0.183034
O O6 0.523118 0.265015 0.883900
O O7 0.605823 0.124149 0.937040
O O8 0.801770 0.136131 0.003152
O O9 0.758409 0.076473 0.872135
O O10 0.375496 0.666772 0.338822
O O11 0.706298 0.722955 0.095815
O O12 0.598412 0.760403 0.085046
O O13 0.256393 0.223980 0.744157
O O14 0.350777 0.014793 0.476507
O O15 0.290194 0.715898 0.650316
O O16 0.173489 0.921548 0.924785
#
# Coordination Sequence:
#
# PCOD9138655 Si02
#       8
#     4   4   4   4   4   4   4   4
#     4  10  24  45  73 110 159 201 263 337 395 471
#     4   9  23  45  65 106 148 190 253 317 387 472
#     4  12  25  45  77 107 152 206 251 335 395 470
#     4   9  22  43  74 100 148 203 254 323 395 470
#     4  11  26  46  71 117 151 202 270 318 401 487
#     4  10  24  48  71 110 148 192 270 320 391 492
#     4  10  23  45  72 107 150 197 251 326 396 473
#     4  11  23  47  77 105 150 217 256 330 404 465
#
# _framework density 26.846699000000001
#
# number of rings (size 3 to 8) (size 9 to 14) (size 15 to 20)
#    0.750    1.000    0.000    3.000    3.500    2.000 
#    6.750    0.000    0.000    0.000    0.000    0.000 
#    0.000    0.000    0.000    0.000    0.000    0.000 
#
# Total GULP energy -89528.983761 kJ/mol
# GULP energy per Si atom -5595.561485 kJ/mol
# Density = 2.678560 g / cm^3
# Si number density = 26.846699 Si / 1000 Ang^3
#
#
#
# Elastic Constant Matrix: (Units=GPa)
#
#
# Indices 1 2 3 4 5 6 
#
# 1 170.4543 53.3967 42.1651 -0.0006 -7.8370 -0.0002
# 2 53.3967 114.1616 35.3708 -0.0047 18.6962 0.0022
# 3 42.1651 35.3708 94.0142 -0.0024 0.4733 0.0009
# 4 -0.0006 -0.0047 -0.0024 41.4877 0.0013 3.6619
# 5 -7.8370 18.6962 0.4733 0.0013 50.3965 0.0004
# 6 -0.0002 0.0022 0.0009 3.6619 0.0004 42.7832
#
#
#
# Elastic Compliance Matrix: (Units=1/GPa)
#
#
# Indices 1 2 3 4 5 6 
#
# 1 0.007529 -0.003241 -0.002169 0.000000 0.002394 0.000000
# 2 -0.003241 0.012028 -0.003047 0.000001 -0.004938 -0.000001
# 3 -0.002169 -0.003047 0.012752 0.000000 0.000673 0.000000
# 4 0.000000 0.000001 0.000000 0.024287 -0.000001 -0.002079
# 5 0.002394 -0.004938 0.000673 -0.000001 0.022040 0.000000
# 6 0.000000 -0.000001 0.000000 -0.002079 0.000000 0.023552
#
#
# Mechanical properties :
#
#
# Convention : Reuss Voigt Hill
#
# Bulk Modulus (GPa) = 64.95687 71.16615 68.06151
# Shear Modulus (GPa) = 40.24648 43.44664 41.84656
#
# Velocity S-wave (km/s) = 3.87605 4.02720 3.95235
# Velocity P-wave (km/s) = 6.65430 6.94193 6.79963
#
# Compressibility (1/GPa) = 0.01539483
#
# Stress axis : x y z
#
# Youngs Moduli (GPa) = 132.82524 83.13792 78.41626
#
# Poissons Ratio (x) = 0.26948 0.17010
# Poissons Ratio (y) = 0.43053 0.23892
# Poissons Ratio (z) = 0.28812 0.25330
#
# Static dielectric constant tensor:
#      x y z
#    x 2.075950 0.000000 0.002500 
#    y 0.000000 2.197350 0.000000 
#    z 0.002500 0.000000 2.098380 
# 
# From -- ./inp_files/27709.got.cif
#   From: 2010.05.17/outbox.cif.g08.bks.cpg/sg9_14_cif.got.tgz:27709.got - 2010.06.03 20:04:27.
