data_PCOD9138387
_publ_section_title
;
Structure prediction by ZEFSAII (Michael W. Deem and Ramdas Pophale) SiO2 
 PCOD9138387
Probable space group: C C
;
_chemical_formula_sum "Si O2"
_cell_formula_units_Z 24
_cell_length_a 18.418066
_cell_length_b 12.435058
_cell_length_c 11.762290
_cell_angle_alpha 90.000000
_cell_angle_beta 156.211699
_cell_angle_gamma 90.000000
_cell_volume 1086.613007
_symmetry_space_group_name_H-M "C C"
_symmetry_group_IT_number 9
_symmetry_cell_setting 'monoclinic'
loop_
_space_group_symop_operation_xyz
x,y,z
x,-y,1/2+z
1/2+x,1/2+y,z
1/2+x,1/2-y,1/2+z
loop_
_atom_site_type_symbol
_atom_site_label
_atom_site_fract_x
_atom_site_fract_y
_atom_site_fract_z
Si Si1 0.992190 0.927898 0.684090
Si Si2 0.517080 0.208457 0.826103
Si Si3 0.105344 0.204762 0.148362
Si Si4 0.604469 0.922393 0.247146
Si Si5 0.499521 0.335893 0.249131
Si Si6 0.075037 0.341465 0.671154
O O1 0.079690 0.828600 0.879899
O O2 0.792423 0.934269 0.449806
O O3 0.999338 0.888100 0.564295
O O4 0.067277 0.047315 0.804597
O O5 0.309513 0.199612 0.488041
O O6 0.624177 0.120315 0.904635
O O7 0.530242 0.187836 0.977492
O O8 0.021123 0.319086 0.064584
O O9 0.102915 0.195182 0.011105
O O10 0.509812 0.037431 0.106196
O O11 0.508898 0.247596 0.164216
O O12 0.291521 0.342869 0.989017
#
# Coordination Sequence:
#
# PCOD9138387 Si02
#       6
#     4   4   4   4   4   4
#     4   9  22  42  67  89 128 172 209 250 323 380
#     4  10  23  43  66  95 126 170 210 256 319 378
#     4  10  23  43  66  95 126 170 210 256 319 378
#     4   9  22  42  67  89 128 172 209 250 323 380
#     4  11  27  42  65  96 130 165 213 265 313 372
#     4  11  27  42  65  96 130 165 213 265 313 372
#
# _framework density 22.086981999999999
#
# number of rings (size 3 to 8) (size 9 to 14) (size 15 to 20)
#    0.000    2.000    0.000    0.000   18.667    5.333 
#    0.000    0.000    0.000    0.000    0.000    0.000 
#    0.000    0.000    0.000    0.000    0.000    0.000 
#
# Total GULP energy -67028.844374 kJ/mol
# GULP energy per Si atom -5585.737031 kJ/mol
# Density = 2.203671 g / cm^3
# Si number density = 22.086982 Si / 1000 Ang^3
#
#
#
# Elastic Constant Matrix: (Units=GPa)
#
#
# Indices 1 2 3 4 5 6 
#
# 1 109.9814 47.0475 3.2309 0.0000 -25.3001 0.0000
# 2 47.0475 156.7206 -7.6506 0.0000 -19.8717 0.0000
# 3 3.2309 -7.6506 60.4032 0.0000 -11.2199 0.0000
# 4 0.0000 0.0000 0.0000 10.9225 0.0000 6.8363
# 5 -25.3001 -19.8717 -11.2199 0.0000 46.6225 0.0000
# 6 0.0000 0.0000 0.0000 6.8363 0.0000 26.5712
#
#
#
# Elastic Compliance Matrix: (Units=1/GPa)
#
#
# Indices 1 2 3 4 5 6 
#
# 1 0.011444 -0.002802 -0.000037 0.000000 0.005007 0.000000
# 2 -0.002802 0.007556 0.001489 0.000000 0.002058 0.000000
# 3 -0.000037 0.001489 0.017649 0.000000 0.004862 0.000000
# 4 0.000000 0.000000 0.000000 0.109127 0.000000 -0.028076
# 5 0.005007 0.002058 0.004862 0.000000 0.026213 0.000000
# 6 0.000000 0.000000 0.000000 -0.028076 0.000000 0.044858
#
#
# Mechanical properties :
#
#
# Convention : Reuss Voigt Hill
#
# Bulk Modulus (GPa) = 29.45659 45.81786 37.63722
# Shear Modulus (GPa) = 21.65773 35.78840 28.72306
#
# Velocity S-wave (km/s) = 3.13480 4.02971 3.61009
# Velocity P-wave (km/s) = 5.14472 6.51466 5.86979
#
# Compressibility (1/GPa) = 0.03394826
#
# Stress axis : x y z
#
# Youngs Moduli (GPa) = 87.38082 132.34974 56.66003
#
# Poissons Ratio (x) = 0.37091 0.00210
# Poissons Ratio (y) = 0.24488 -0.08438
# Poissons Ratio (z) = 0.00324 -0.19709
#
# Static dielectric constant tensor:
#      x y z
#    x 1.805760 0.000000 0.046370 
#    y 0.000000 1.857620 0.000000 
#    z 0.046370 0.000000 1.840340 
# 
# From -- ./inp_files/6937.got.cif
#   From: 2010.05.17/outbox.cif.g08.bks.cpg/sg9_4_cif.got.tgz:6937.got - 2010.06.03 20:04:27.
