data_PCOD9138289
_publ_section_title
;
Structure prediction by ZEFSAII (Michael W. Deem and Ramdas Pophale) SiO2 
 PCOD9138289
Probable space group: C C
;
_chemical_formula_sum "Si O2"
_cell_formula_units_Z 24
_cell_length_a 17.974554
_cell_length_b 5.608301
_cell_length_c 9.017473
_cell_angle_alpha 90.000000
_cell_angle_beta 78.336400
_cell_angle_gamma 90.000000
_cell_volume 890.251791
_symmetry_space_group_name_H-M "C C"
_symmetry_group_IT_number 9
_symmetry_cell_setting 'monoclinic'
loop_
_space_group_symop_operation_xyz
x,y,z
x,-y,1/2+z
1/2+x,1/2+y,z
1/2+x,1/2-y,1/2+z
loop_
_atom_site_type_symbol
_atom_site_label
_atom_site_fract_x
_atom_site_fract_y
_atom_site_fract_z
Si Si1 0.088680 0.779135 0.451250
Si Si2 0.839047 0.698090 0.828501
Si Si3 0.938416 0.021114 0.072315
Si Si4 0.966652 0.323967 0.792517
Si Si5 0.207351 0.166260 0.364105
Si Si6 0.223618 0.465223 0.077288
O O1 0.151460 0.645999 0.519856
O O2 0.015945 0.834828 0.583120
O O3 0.051224 0.648580 0.323729
O O4 0.128678 0.024762 0.384807
O O5 0.867227 0.861950 0.682510
O O6 0.910493 0.538520 0.848362
O O7 0.775194 0.513043 0.800536
O O8 0.798007 0.840304 0.977020
O O9 0.955507 0.759218 0.128252
O O10 0.938551 0.090886 0.899307
O O11 0.214678 0.387531 0.249551
O O12 0.220457 0.262468 0.525486
#
# Coordination Sequence:
#
# PCOD9138289 Si02
#       6
#     4   4   4   4   4   4
#     4   9  24  44  70  98 135 182 235 289 348 415
#     4  11  24  42  69 103 142 184 238 291 350 421
#     4  10  23  42  67 100 137 182 234 289 352 411
#     4  10  23  42  68  98 139 181 231 289 350 412
#     4  11  25  45  71 101 143 186 238 289 353 427
#     4  11  25  45  71 102 140 189 232 287 357 424
#
# _framework density 26.958666000000001
#
# number of rings (size 3 to 8) (size 9 to 14) (size 15 to 20)
#    1.000    0.667    0.000    3.000    0.000   17.333 
#    0.000    0.000    0.000    0.000    0.000    0.000 
#    0.000    0.000    0.000    0.000    0.000    0.000 
#
# Total GULP energy -67222.345150 kJ/mol
# GULP energy per Si atom -5601.862096 kJ/mol
# Density = 2.689731 g / cm^3
# Si number density = 26.958666 Si / 1000 Ang^3
#
#
#
# Elastic Constant Matrix: (Units=GPa)
#
#
# Indices 1 2 3 4 5 6 
#
# 1 111.6759 57.1991 40.6855 0.0000 -12.8166 0.0000
# 2 57.1991 62.2556 33.8983 0.0000 4.9041 0.0000
# 3 40.6855 33.8983 117.8168 0.0000 4.4995 0.0000
# 4 0.0000 0.0000 0.0000 49.2252 0.0000 2.9771
# 5 -12.8166 4.9041 4.4995 0.0000 48.7861 0.0000
# 6 0.0000 0.0000 0.0000 2.9771 0.0000 57.3724
#
#
#
# Elastic Compliance Matrix: (Units=1/GPa)
#
#
# Indices 1 2 3 4 5 6 
#
# 1 0.019277 -0.017183 -0.001979 0.000000 0.006974 0.000000
# 2 -0.017183 0.034461 -0.003690 0.000000 -0.007638 0.000000
# 3 -0.001979 -0.003690 0.010275 0.000000 -0.001097 0.000000
# 4 0.000000 0.000000 0.000000 0.020379 0.000000 -0.001057
# 5 0.006974 -0.007638 -0.001097 0.000000 0.023199 0.000000
# 6 0.000000 0.000000 0.000000 -0.001057 0.000000 0.017485
#
#
# Mechanical properties :
#
#
# Convention : Reuss Voigt Hill
#
# Bulk Modulus (GPa) = 54.61872 61.70157 58.16015
# Shear Modulus (GPa) = 28.26767 41.74111 35.00439
#
# Velocity S-wave (km/s) = 3.24165 3.93916 3.60731
# Velocity P-wave (km/s) = 5.85792 6.60503 6.24266
#
# Compressibility (1/GPa) = 0.01830874
#
# Stress axis : x y z
#
# Youngs Moduli (GPa) = 51.87601 29.01868 97.32595
#
# Poissons Ratio (x) = 0.49862 0.19264
# Poissons Ratio (y) = 0.89137 0.35910
# Poissons Ratio (z) = 0.10268 0.10707
#
# Static dielectric constant tensor:
#      x y z
#    x 2.127660 0.000000 0.040800 
#    y 0.000000 2.095640 0.000000 
#    z 0.040800 0.000000 2.046950 
# 
# From -- ./inp_files/18799.got.cif
#   From: 2010.05.17/outbox.cif.g08.bks.cpg/sg9_10_cif.got.tgz:18799.got - 2010.06.03 20:04:27.
