data_PCOD9138327
_publ_section_title
;
Structure prediction by ZEFSAII (Michael W. Deem and Ramdas Pophale) SiO2 
 PCOD9138327
Probable space group: C C
;
_chemical_formula_sum "Si O2"
_cell_formula_units_Z 32
_cell_length_a 9.072057
_cell_length_b 16.586463
_cell_length_c 14.436049
_cell_angle_alpha 90.000000
_cell_angle_beta 141.135477
_cell_angle_gamma 90.000000
_cell_volume 1363.039750
_symmetry_space_group_name_H-M "C C"
_symmetry_group_IT_number 9
_symmetry_cell_setting 'monoclinic'
loop_
_space_group_symop_operation_xyz
x,y,z
x,-y,1/2+z
1/2+x,1/2+y,z
1/2+x,1/2-y,1/2+z
loop_
_atom_site_type_symbol
_atom_site_label
_atom_site_fract_x
_atom_site_fract_y
_atom_site_fract_z
Si Si1 0.211800 0.402787 0.344450
Si Si2 0.339342 0.086367 0.967781
Si Si3 0.237822 0.025720 0.270523
Si Si4 0.965625 0.203597 0.823710
Si Si5 0.080119 0.974613 0.990666
Si Si6 0.286755 0.368358 0.591497
Si Si7 0.271327 0.818127 0.042460
Si Si8 0.525159 0.158748 0.480137
O O1 0.395368 0.342835 0.384281
O O2 0.317895 0.488745 0.370080
O O3 0.187259 0.389732 0.440881
O O4 0.973424 0.375751 0.181746
O O5 0.224791 0.172635 0.930484
O O6 0.220707 0.058252 0.814049
O O7 0.233304 0.020635 0.986908
O O8 0.614749 0.096522 0.085204
O O9 0.199712 0.005988 0.144861
O O10 0.476767 0.066544 0.427207
O O11 0.036297 0.087014 0.207365
O O12 0.773770 0.179959 0.651432
O O13 0.972190 0.295196 0.858579
O O14 0.059354 0.878884 0.960543
O O15 0.287235 0.270609 0.593750
O O16 0.337619 0.813091 0.966804
#
# Coordination Sequence:
#
# PCOD9138327 Si02
#       8
#     4   4   4   4   4   4   4   4
#     4   9  20  40  67  94 135 185 230 282 344 432
#     4  11  25  45  65 104 144 177 238 304 352 417
#     4  11  24  45  72  99 137 193 237 287 358 431
#     4  10  23  42  70 100 141 182 234 288 348 432
#     4  10  23  43  68  98 140 184 237 291 348 424
#     4  11  24  42  71 103 140 180 239 300 358 418
#     4  11  21  42  70 104 135 185 238 287 354 425
#     4  11  22  43  77 100 134 192 239 277 356 441
#
# _framework density 23.476939999999999
#
# number of rings (size 3 to 8) (size 9 to 14) (size 15 to 20)
#    0.000    1.500    2.500    2.250    5.250    1.000 
#    4.500    0.000    0.000    0.000    0.000    0.000 
#    0.000    0.000    0.000    0.000    0.000    0.000 
#
# Total GULP energy -89296.761454 kJ/mol
# GULP energy per Si atom -5581.047591 kJ/mol
# Density = 2.342351 g / cm^3
# Si number density = 23.476940 Si / 1000 Ang^3
#
#
#
# Elastic Constant Matrix: (Units=GPa)
#
#
# Indices 1 2 3 4 5 6 
#
# 1 79.6751 25.2153 39.7797 0.0003 2.7392 0.0001
# 2 25.2153 114.1704 9.7829 0.0001 18.1643 0.0001
# 3 39.7797 9.7829 72.4351 0.0003 -14.5860 0.0005
# 4 0.0003 0.0001 0.0003 25.3216 0.0003 -5.8384
# 5 2.7392 18.1643 -14.5860 0.0003 17.5097 0.0002
# 6 0.0001 0.0001 0.0005 -5.8384 0.0002 37.6545
#
#
#
# Elastic Compliance Matrix: (Units=1/GPa)
#
#
# Indices 1 2 3 4 5 6 
#
# 1 0.020159 -0.001183 -0.013576 0.000000 -0.013235 0.000000
# 2 -0.001183 0.011830 -0.004064 0.000000 -0.015472 0.000000
# 3 -0.013576 -0.004064 0.027740 -0.000001 0.029447 -0.000001
# 4 0.000000 0.000000 -0.000001 0.040956 -0.000001 0.006350
# 5 -0.013235 -0.015472 0.029447 -0.000001 0.099763 -0.000001
# 6 0.000000 0.000000 -0.000001 0.006350 -0.000001 0.027542
#
#
# Mechanical properties :
#
#
# Convention : Reuss Voigt Hill
#
# Bulk Modulus (GPa) = 45.28433 46.20404 45.74419
# Shear Modulus (GPa) = 18.31535 28.86401 23.58968
#
# Velocity S-wave (km/s) = 2.79613 3.51017 3.17330
# Velocity P-wave (km/s) = 5.45483 6.01263 5.74051
#
# Compressibility (1/GPa) = 0.02208269
#
# Stress axis : x y z
#
# Youngs Moduli (GPa) = 49.60664 84.53145 36.04957
#
# Poissons Ratio (x) = 0.10001 0.48941
# Poissons Ratio (y) = 0.05869 0.14649
# Poissons Ratio (z) = 0.67346 0.34350
#
# Static dielectric constant tensor:
#      x y z
#    x 1.919310 0.000000 0.052530 
#    y 0.000000 1.925020 0.000000 
#    z 0.052530 0.000000 1.945990 
# 
# From -- ./inp_files/20394.got.cif
#   From: 2010.05.17/outbox.cif.g08.bks.cpg/sg9_11_cif.got.tgz:20394.got - 2010.06.03 20:04:27.
