data_PCOD9138455
_publ_section_title
;
Structure prediction by ZEFSAII (Michael W. Deem and Ramdas Pophale) SiO2 
 PCOD9138455
Probable space group: C C
;
_chemical_formula_sum "Si O2"
_cell_formula_units_Z 28
_cell_length_a 18.452148
_cell_length_b 11.011227
_cell_length_c 11.100766
_cell_angle_alpha 90.000000
_cell_angle_beta 150.756518
_cell_angle_gamma 90.000000
_cell_volume 1101.842968
_symmetry_space_group_name_H-M "C C"
_symmetry_group_IT_number 9
_symmetry_cell_setting 'monoclinic'
loop_
_space_group_symop_operation_xyz
x,y,z
x,-y,1/2+z
1/2+x,1/2+y,z
1/2+x,1/2-y,1/2+z
loop_
_atom_site_type_symbol
_atom_site_label
_atom_site_fract_x
_atom_site_fract_y
_atom_site_fract_z
Si Si1 0.231420 0.712941 0.869650
Si Si2 0.887341 0.418379 0.958910
Si Si3 0.620584 0.742375 0.838521
Si Si4 0.137511 0.300562 0.476480
Si Si5 0.957420 0.820037 0.350239
Si Si6 0.115151 0.461949 0.664326
Si Si7 0.088530 0.926575 0.063346
O O1 0.064833 0.765968 0.608746
O O2 0.230934 0.570849 0.843982
O O3 0.316600 0.789381 0.894949
O O4 0.259404 0.731769 0.052347
O O5 0.029290 0.399016 0.254169
O O6 0.957570 0.465459 0.933974
O O7 0.750783 0.509221 0.787256
O O8 0.533322 0.712560 0.832781
O O9 0.795312 0.762610 0.114363
O O10 0.587952 0.641511 0.690285
O O11 0.578667 0.871455 0.720612
O O12 0.178959 0.374337 0.655106
O O13 0.074080 0.173901 0.436235
O O14 0.968574 0.965613 0.380852
#
# Coordination Sequence:
#
# PCOD9138455 Si02
#       7
#     4   4   4   4   4   4   4
#     4  10  25  42  70 111 136 203 242 307 385 446
#     4  10  23  43  72 104 146 192 251 304 380 447
#     4  11  26  51  72 113 151 200 252 315 387 450
#     4  10  24  44  71 107 144 190 253 311 383 448
#     4  11  27  46  77 106 157 194 253 319 377 458
#     4  10  24  46  71 107 145 200 250 316 375 461
#     4  10  25  46  73 108 143 203 247 316 379 458
#
# _framework density 25.411968999999999
#
# number of rings (size 3 to 8) (size 9 to 14) (size 15 to 20)
#    0.000    1.714    0.000    0.857   22.000    0.000 
#    5.143    0.000    0.000    0.000    0.000    0.000 
#    0.000    0.000    0.000    0.000    0.000    0.000 
#
# Total GULP energy -78156.751740 kJ/mol
# GULP energy per Si atom -5582.625124 kJ/mol
# Density = 2.535413 g / cm^3
# Si number density = 25.411969 Si / 1000 Ang^3
#
#
#
# Elastic Constant Matrix: (Units=GPa)
#
#
# Indices 1 2 3 4 5 6 
#
# 1 172.4160 58.8309 28.8620 0.0000 -4.9742 0.0000
# 2 58.8309 168.8192 21.2257 0.0000 -20.2479 0.0000
# 3 28.8620 21.2257 50.2981 0.0000 11.0234 0.0000
# 4 0.0000 0.0000 0.0000 29.4986 0.0000 -13.6285
# 5 -4.9742 -20.2479 11.0234 0.0000 36.0054 0.0000
# 6 0.0000 0.0000 0.0000 -13.6285 0.0000 31.9946
#
#
#
# Elastic Compliance Matrix: (Units=1/GPa)
#
#
# Indices 1 2 3 4 5 6 
#
# 1 0.007058 -0.001910 -0.003454 0.000000 0.000958 0.000000
# 2 -0.001910 0.007589 -0.003198 0.000000 0.004983 0.000000
# 3 -0.003454 -0.003198 0.025417 0.000000 -0.010057 0.000000
# 4 0.000000 0.000000 0.000000 0.042206 0.000000 0.017978
# 5 0.000958 0.004983 -0.010057 0.000000 0.033787 0.000000
# 6 0.000000 0.000000 0.000000 0.017978 0.000000 0.038913
#
#
# Mechanical properties :
#
#
# Convention : Reuss Voigt Hill
#
# Bulk Modulus (GPa) = 43.59393 67.70783 55.65088
# Shear Modulus (GPa) = 27.81777 38.34070 33.07923
#
# Velocity S-wave (km/s) = 3.31217 3.88850 3.61185
# Velocity P-wave (km/s) = 5.64087 6.84562 6.27224
#
# Compressibility (1/GPa) = 0.02293897
#
# Stress axis : x y z
#
# Youngs Moduli (GPa) = 141.69307 131.76943 39.34357
#
# Poissons Ratio (x) = 0.25172 0.13588
# Poissons Ratio (y) = 0.27068 0.12584
# Poissons Ratio (z) = 0.48935 0.42146
#
# Static dielectric constant tensor:
#      x y z
#    x 2.060790 0.000000 0.024710 
#    y 0.000000 2.136960 0.000000 
#    z 0.024710 0.000000 2.197620 
# 
# From -- ./inp_files/16100.got.cif
#   From: 2010.05.17/outbox.cif.g08.bks.cpg/sg9_9_cif.got.tgz:16100.got - 2010.06.03 20:04:27.
