data_PCOD9138654
_publ_section_title
;
Structure prediction by ZEFSAII (Michael W. Deem and Ramdas Pophale) SiO2 
 PCOD9138654
Probable space group: C C
;
_chemical_formula_sum "Si O2"
_cell_formula_units_Z 32
_cell_length_a 6.930837
_cell_length_b 7.230035
_cell_length_c 27.631287
_cell_angle_alpha 90.000000
_cell_angle_beta 125.033570
_cell_angle_gamma 90.000000
_cell_volume 1133.739910
_symmetry_space_group_name_H-M "C C"
_symmetry_group_IT_number 9
_symmetry_cell_setting 'monoclinic'
loop_
_space_group_symop_operation_xyz
x,y,z
x,-y,1/2+z
1/2+x,1/2+y,z
1/2+x,1/2-y,1/2+z
loop_
_atom_site_type_symbol
_atom_site_label
_atom_site_fract_x
_atom_site_fract_y
_atom_site_fract_z
Si Si1 0.876060 0.217857 0.333170
Si Si2 0.828013 0.059474 0.481169
Si Si3 0.611436 0.147323 0.203161
Si Si4 0.947129 0.319423 0.578603
Si Si5 0.131887 0.226412 0.185262
Si Si6 0.443537 0.746781 0.058351
Si Si7 0.994357 0.896731 0.404209
Si Si8 0.375193 0.872511 0.812110
O O1 0.828329 0.176198 0.270067
O O2 0.627900 0.175006 0.324468
O O3 0.907731 0.434594 0.343739
O O4 0.065574 0.080034 0.384181
O O5 0.991585 0.170258 0.543242
O O6 0.660320 0.226588 0.441395
O O7 0.755362 0.877622 0.501843
O O8 0.921051 0.977783 0.444834
O O9 0.626562 0.203253 0.149374
O O10 0.385912 0.243267 0.194907
O O11 0.564193 0.928766 0.193871
O O12 0.688866 0.284875 0.564632
O O13 0.933206 0.531304 0.558956
O O14 0.191445 0.107569 0.241287
O O15 0.969435 0.168445 0.116902
O O16 0.820063 0.795103 0.340727
#
# Coordination Sequence:
#
# PCOD9138654 Si02
#       8
#     4   4   4   4   4   4   4   4
#     4  11  25  47  74 106 145 190 244 303 366 429
#     4  12  26  48  76 103 154 194 246 294 360 440
#     4   9  19  41  70 104 142 182 238 303 365 427
#     4  10  23  45  72 106 143 189 243 301 364 428
#     4   9  19  41  70 104 142 182 238 303 365 427
#     4  10  23  45  72 106 143 189 243 301 364 428
#     4  12  26  50  72 109 148 198 244 296 358 442
#     4  11  25  47  74 106 145 190 244 303 366 429
#
# _framework density 28.225166999999999
#
# number of rings (size 3 to 8) (size 9 to 14) (size 15 to 20)
#    0.000    1.500    3.750    0.000    1.750    4.000 
#    0.000    0.000    0.000    0.000    0.000    0.000 
#    0.000    0.000    0.000    0.000    0.000    0.000 
#
# Total GULP energy -89722.830208 kJ/mol
# GULP energy per Si atom -5607.676888 kJ/mol
# Density = 2.816092 g / cm^3
# Si number density = 28.225167 Si / 1000 Ang^3
#
#
#
# Elastic Constant Matrix: (Units=GPa)
#
#
# Indices 1 2 3 4 5 6 
#
# 1 108.2213 72.3761 40.3761 0.0000 -20.4022 0.0000
# 2 72.3761 227.8401 68.9703 0.0000 -29.9857 0.0000
# 3 40.3761 68.9703 186.8064 0.0000 -40.6434 0.0000
# 4 0.0000 0.0000 0.0000 66.8197 0.0000 -11.4088
# 5 -20.4022 -29.9857 -40.6434 0.0000 46.5735 0.0000
# 6 0.0000 0.0000 0.0000 -11.4088 0.0000 50.0808
#
#
#
# Elastic Compliance Matrix: (Units=1/GPa)
#
#
# Indices 1 2 3 4 5 6 
#
# 1 0.012241 -0.003294 -0.000894 0.000000 0.002461 0.000000
# 2 -0.003294 0.005977 -0.001199 0.000000 0.001359 0.000000
# 3 -0.000894 -0.001199 0.007080 0.000000 0.005015 0.000000
# 4 0.000000 0.000000 0.000000 0.015571 0.000000 0.003547
# 5 0.002461 0.001359 0.005015 0.000000 0.027801 0.000000
# 6 0.000000 0.000000 0.000000 0.003547 0.000000 0.020776
#
#
# Mechanical properties :
#
#
# Convention : Reuss Voigt Hill
#
# Bulk Modulus (GPa) = 68.85209 98.47919 83.66564
# Shear Modulus (GPa) = 47.59094 55.43783 51.51438
#
# Velocity S-wave (km/s) = 4.11069 4.43666 4.27678
# Velocity P-wave (km/s) = 6.85399 7.82378 7.35489
#
# Compressibility (1/GPa) = 0.01452389
#
# Stress axis : x y z
#
# Youngs Moduli (GPa) = 81.69422 167.30117 141.23776
#
# Poissons Ratio (x) = 0.55106 0.12628
# Poissons Ratio (y) = 0.26909 0.16938
# Poissons Ratio (z) = 0.07304 0.20064
#
# Static dielectric constant tensor:
#      x y z
#    x 2.295200 0.000000 0.093190 
#    y 0.000000 2.085440 0.000000 
#    z 0.093190 0.000000 2.238820 
# 
# From -- ./inp_files/37140.got.cif
#   From: 2010.05.17/outbox.cif.g08.bks.cpg/sg9_19_cif.got.tgz:37140.got - 2010.06.03 20:04:27.
