data_PCOD9138142
_publ_section_title
;
Structure prediction by ZEFSAII (Michael W. Deem and Ramdas Pophale) SiO2 
 PCOD9138142
Probable space group: C C
;
_chemical_formula_sum "Si O2"
_cell_formula_units_Z 32
_cell_length_a 11.107844
_cell_length_b 8.084362
_cell_length_c 27.359426
_cell_angle_alpha 90.000000
_cell_angle_beta 32.763111
_cell_angle_gamma 90.000000
_cell_volume 1329.577756
_symmetry_space_group_name_H-M "C C"
_symmetry_group_IT_number 9
_symmetry_cell_setting 'monoclinic'
loop_
_space_group_symop_operation_xyz
x,y,z
x,-y,1/2+z
1/2+x,1/2+y,z
1/2+x,1/2-y,1/2+z
loop_
_atom_site_type_symbol
_atom_site_label
_atom_site_fract_x
_atom_site_fract_y
_atom_site_fract_z
Si Si1 0.076800 0.003288 0.614380
Si Si2 0.055230 0.977519 0.006805
Si Si3 0.911373 0.524741 0.576367
Si Si4 0.825488 0.837837 0.389295
Si Si5 0.055431 0.875184 0.758597
Si Si6 0.688183 0.130710 0.314030
Si Si7 0.949085 0.701864 0.888594
Si Si8 0.736703 0.856692 0.043317
O O1 0.234257 0.106453 0.598590
O O2 0.216670 0.832884 0.565866
O O3 0.844682 0.944391 0.717557
O O4 0.046945 0.059586 0.568311
O O5 0.820301 0.971827 0.058656
O O6 0.194833 0.836397 0.930271
O O7 0.202877 0.144303 0.954245
O O8 0.764881 0.382765 0.652230
O O9 0.131952 0.459017 0.474380
O O10 0.007143 0.610742 0.592869
O O11 0.020952 0.775380 0.357798
O O12 0.960968 0.939388 0.302064
O O13 0.853468 0.798946 0.797603
O O14 0.088274 0.776183 0.796805
O O15 0.550656 0.966422 0.375810
O O16 0.919173 0.844936 0.938132
#
# Coordination Sequence:
#
# PCOD9138142 Si02
#       8
#     4   4   4   4   4   4   4   4
#     4  10  23  44  64  97 137 169 217 280 324 393
#     4  10  23  40  70  92 130 174 218 267 331 392
#     4  11  24  41  69  97 130 174 220 269 332 387
#     4  11  22  42  67  94 128 179 215 267 332 392
#     4  11  24  43  64  97 134 170 218 280 321 395
#     4  10  24  41  66  93 131 174 221 266 334 386
#     4  10  23  39  61  94 128 167 218 269 322 386
#     4  11  21  42  63  96 130 171 213 274 324 389
#
# _framework density 24.067789999999999
#
# number of rings (size 3 to 8) (size 9 to 14) (size 15 to 20)
#    0.000    1.500    2.500    1.500    7.000    0.000 
#    2.250    3.750    0.000    0.000    0.000    0.000 
#    0.000    0.000    0.000    0.000    0.000    0.000 
#
# Total GULP energy -89169.327610 kJ/mol
# GULP energy per Si atom -5573.082976 kJ/mol
# Density = 2.401301 g / cm^3
# Si number density = 24.067790 Si / 1000 Ang^3
#
#
#
# Elastic Constant Matrix: (Units=GPa)
#
#
# Indices 1 2 3 4 5 6 
#
# 1 119.3843 37.3423 22.7304 -0.0001 7.0508 0.0000
# 2 37.3423 52.3745 7.1390 -0.0001 -5.0457 -0.0001
# 3 22.7304 7.1390 91.2685 -0.0005 6.8875 0.0003
# 4 -0.0001 -0.0001 -0.0005 23.1476 -0.0005 1.6363
# 5 7.0508 -5.0457 6.8875 -0.0005 27.4256 0.0000
# 6 0.0000 -0.0001 0.0003 1.6363 0.0000 18.7585
#
#
#
# Elastic Compliance Matrix: (Units=1/GPa)
#
#
# Indices 1 2 3 4 5 6 
#
# 1 0.011612 -0.008406 -0.001929 0.000000 -0.004047 0.000000
# 2 -0.008406 0.025826 -0.000457 0.000000 0.007027 0.000000
# 3 -0.001929 -0.000457 0.011663 0.000000 -0.002517 0.000000
# 4 0.000000 0.000000 0.000000 0.043469 0.000001 -0.003792
# 5 -0.004047 0.007027 -0.002517 0.000001 0.039428 0.000000
# 6 0.000000 0.000000 0.000000 -0.003792 0.000000 0.053640
#
#
# Mechanical properties :
#
#
# Convention : Reuss Voigt Hill
#
# Bulk Modulus (GPa) = 36.34155 44.16121 40.25138
# Shear Modulus (GPa) = 23.10598 26.92070 25.01334
#
# Velocity S-wave (km/s) = 3.10181 3.34808 3.22730
# Velocity P-wave (km/s) = 5.28779 5.77362 5.53604
#
# Compressibility (1/GPa) = 0.02751672
#
# Stress axis : x y z
#
# Youngs Moduli (GPa) = 86.11779 38.72062 85.74284
#
# Poissons Ratio (x) = 0.32549 0.16540
# Poissons Ratio (y) = 0.72392 0.03917
# Poissons Ratio (z) = 0.16612 0.01769
#
# Static dielectric constant tensor:
#      x y z
#    x 2.089140 0.000000 -0.028010 
#    y 0.000000 1.943980 0.000000 
#    z -0.028010 0.000000 1.959160 
# 
# From -- ./inp_files/37270.got.cif
#   From: 2010.05.17/outbox.cif.g08.bks.cpg/sg9_19_cif.got.tgz:37270.got - 2010.06.03 20:04:27.
