data_PCOD9138380
_publ_section_title
;
Structure prediction by ZEFSAII (Michael W. Deem and Ramdas Pophale) SiO2 
 PCOD9138380
Probable space group: C C
;
_chemical_formula_sum "Si O2"
_cell_formula_units_Z 24
_cell_length_a 11.917734
_cell_length_b 7.419366
_cell_length_c 12.353204
_cell_angle_alpha 90.000000
_cell_angle_beta 71.347088
_cell_angle_gamma 90.000000
_cell_volume 1034.920873
_symmetry_space_group_name_H-M "C C"
_symmetry_group_IT_number 9
_symmetry_cell_setting 'monoclinic'
loop_
_space_group_symop_operation_xyz
x,y,z
x,-y,1/2+z
1/2+x,1/2+y,z
1/2+x,1/2-y,1/2+z
loop_
_atom_site_type_symbol
_atom_site_label
_atom_site_fract_x
_atom_site_fract_y
_atom_site_fract_z
Si Si1 0.348050 0.700643 0.053140
Si Si2 0.745843 0.710792 0.354137
Si Si3 0.997193 0.601660 0.205987
Si Si4 0.527352 0.414019 0.024078
Si Si5 0.089646 0.289159 0.049210
Si Si6 0.696663 0.884602 0.802691
O O1 0.404892 0.501194 0.021526
O O2 0.284001 0.702242 0.188361
O O3 0.272630 0.752698 0.973206
O O4 0.462581 0.826096 0.030340
O O5 0.857372 0.598650 0.274859
O O6 0.732392 0.904792 0.301930
O O7 0.117778 0.117915 0.397894
O O8 0.010220 0.740752 0.102895
O O9 0.068655 0.661787 0.290173
O O10 0.075881 0.426694 0.150495
O O11 0.582265 0.578365 0.078746
O O12 0.189889 0.318875 0.928961
#
# Coordination Sequence:
#
# PCOD9138380 Si02
#       6
#     4   4   4   4   4   4
#     4  10  23  43  66 103 137 176 230 287 336 411
#     4  12  23  46  74  95 144 187 220 295 343 402
#     4  12  23  46  66 101 141 174 235 284 340 413
#     4  10  23  43  67  99 132 181 228 277 352 393
#     4  10  24  43  64 104 132 177 238 273 341 415
#     4  12  22  43  71 100 138 181 229 286 340 414
#
# _framework density 23.190179000000001
#
# number of rings (size 3 to 8) (size 9 to 14) (size 15 to 20)
#    1.000    0.000    6.667    0.000    2.333    0.000 
#   12.000    1.667    0.000    0.000    0.000    0.000 
#    0.000    0.000    0.000    0.000    0.000    0.000 
#
# Total GULP energy -66900.272031 kJ/mol
# GULP energy per Si atom -5575.022669 kJ/mol
# Density = 2.313740 g / cm^3
# Si number density = 23.190179 Si / 1000 Ang^3
#
#
#
# Elastic Constant Matrix: (Units=GPa)
#
#
# Indices 1 2 3 4 5 6 
#
# 1 68.9790 -12.0238 39.0097 0.0000 -27.6125 0.0000
# 2 -12.0238 70.8926 19.1394 0.0000 -12.7218 0.0000
# 3 39.0097 19.1394 104.9571 0.0000 -43.1451 0.0000
# 4 0.0000 0.0000 0.0000 18.2047 0.0000 -5.3413
# 5 -27.6125 -12.7218 -43.1451 0.0000 52.6047 0.0000
# 6 0.0000 0.0000 0.0000 -5.3413 0.0000 29.6248
#
#
#
# Elastic Compliance Matrix: (Units=1/GPa)
#
#
# Indices 1 2 3 4 5 6 
#
# 1 0.022632 0.007038 -0.006204 0.000000 0.008494 0.000000
# 2 0.007038 0.017175 -0.003804 0.000000 0.004727 0.000000
# 3 -0.006204 -0.003804 0.016309 0.000000 0.009200 0.000000
# 4 0.000000 0.000000 0.000000 0.057999 0.000000 0.010457
# 5 0.008494 0.004727 0.009200 0.000000 0.032157 0.000000
# 6 0.000000 0.000000 0.000000 0.010457 0.000000 0.035641
#
#
# Mechanical properties :
#
#
# Convention : Reuss Voigt Hill
#
# Bulk Modulus (GPa) = 19.92999 37.45325 28.69162
# Shear Modulus (GPa) = 24.44048 33.33373 28.88711
#
# Velocity S-wave (km/s) = 3.24993 3.79543 3.53322
# Velocity P-wave (km/s) = 4.76398 5.94917 5.38925
#
# Compressibility (1/GPa) = 0.05017563
#
# Stress axis : x y z
#
# Youngs Moduli (GPa) = 44.18470 58.22460 61.31601
#
# Poissons Ratio (x) = -0.40976 0.38038
# Poissons Ratio (y) = -0.31095 0.23326
# Poissons Ratio (z) = 0.27410 0.22150
#
# Static dielectric constant tensor:
#      x y z
#    x 1.901000 0.000000 0.001670 
#    y 0.000000 1.914140 0.000000 
#    z 0.001670 0.000000 2.021610 
# 
# From -- ./inp_files/15924.got.cif
#   From: 2010.05.17/outbox.cif.g08.bks.cpg/sg9_8_cif.got.tgz:15924.got - 2010.06.03 20:04:27.
