data_PCOD9138807
_publ_section_title
;
Structure prediction by ZEFSAII (Michael W. Deem and Ramdas Pophale) SiO2 
 PCOD9138807
Probable space group: C C
;
_chemical_formula_sum "Si O2"
_cell_formula_units_Z 32
_cell_length_a 10.919123
_cell_length_b 9.328584
_cell_length_c 14.279373
_cell_angle_alpha 90.000000
_cell_angle_beta 104.198070
_cell_angle_gamma 90.000000
_cell_volume 1410.066699
_symmetry_space_group_name_H-M "C C"
_symmetry_group_IT_number 9
_symmetry_cell_setting 'monoclinic'
loop_
_space_group_symop_operation_xyz
x,y,z
x,-y,1/2+z
1/2+x,1/2+y,z
1/2+x,1/2-y,1/2+z
loop_
_atom_site_type_symbol
_atom_site_label
_atom_site_fract_x
_atom_site_fract_y
_atom_site_fract_z
Si Si1 0.127500 0.537166 0.076330
Si Si2 0.805535 0.493258 0.212342
Si Si3 0.493257 0.231265 0.197182
Si Si4 0.546871 0.189928 0.716613
Si Si5 0.747509 0.662281 0.375571
Si Si6 0.542822 0.804796 0.919388
Si Si7 0.113941 0.995652 0.513224
Si Si8 0.420407 0.528995 0.110881
O O1 0.274132 0.566001 0.087996
O O2 0.061440 0.671701 0.116202
O O3 0.103385 0.414952 0.149674
O O4 0.076330 0.457945 0.973064
O O5 0.866493 0.638751 0.183320
O O6 0.919300 0.380759 0.232879
O O7 0.758828 0.528292 0.306379
O O8 0.692504 0.466829 0.121128
O O9 0.560909 0.198886 0.309849
O O10 0.453230 0.395250 0.183056
O O11 0.655874 0.222730 0.810872
O O12 0.501395 0.335233 0.658735
O O13 0.892172 0.713641 0.413418
O O14 0.675330 0.601487 0.450771
O O15 0.617879 0.669586 0.977598
O O16 0.968801 0.016133 0.516907
#
# Coordination Sequence:
#
# PCOD9138807 Si02
#       8
#     4   4   4   4   4   4   4   4
#     4  11  24  47  67 100 143 180 230 292 342 411
#     4  10  23  47  72  97 135 186 229 288 350 411
#     4  10  24  45  71 101 136 183 232 284 349 408
#     4  11  23  46  72  99 135 186 230 289 350 405
#     4  11  23  44  68 100 143 177 234 291 342 414
#     4  11  23  46  72 103 140 186 229 292 348 407
#     4  12  25  42  71 102 140 186 231 282 353 415
#     4  12  25  43  69 100 138 186 229 282 350 411
#
# _framework density 22.693961999999999
#
# number of rings (size 3 to 8) (size 9 to 14) (size 15 to 20)
#    0.000    1.000    2.500    4.500    1.750    0.000 
#   22.500    0.000    0.000    0.000    0.000    0.000 
#    0.000    0.000    0.000    0.000    0.000    0.000 
#
# Total GULP energy -89439.212437 kJ/mol
# GULP energy per Si atom -5589.950777 kJ/mol
# Density = 2.264231 g / cm^3
# Si number density = 22.693962 Si / 1000 Ang^3
#
#
#
# Elastic Constant Matrix: (Units=GPa)
#
#
# Indices 1 2 3 4 5 6 
#
# 1 80.6816 -4.6001 -0.2683 0.0000 2.6493 0.0000
# 2 -4.6001 70.9252 -4.6537 0.0000 4.7035 0.0000
# 3 -0.2683 -4.6537 47.6548 0.0000 2.7487 0.0000
# 4 0.0000 0.0000 0.0000 20.3484 0.0000 8.3177
# 5 2.6493 4.7035 2.7487 0.0000 37.5770 0.0000
# 6 0.0000 0.0000 0.0000 8.3177 0.0000 32.3149
#
#
#
# Elastic Compliance Matrix: (Units=1/GPa)
#
#
# Indices 1 2 3 4 5 6 
#
# 1 0.012479 0.000890 0.000215 0.000000 -0.001007 0.000000
# 2 0.000890 0.014388 0.001524 0.000000 -0.001975 0.000000
# 3 0.000215 0.001524 0.021236 0.000000 -0.001759 0.000000
# 4 0.000000 0.000000 0.000000 0.054923 0.000000 -0.014137
# 5 -0.001007 -0.001975 -0.001759 0.000000 0.027059 0.000000
# 6 0.000000 0.000000 0.000000 -0.014137 0.000000 0.034584
#
#
# Mechanical properties :
#
#
# Convention : Reuss Voigt Hill
#
# Bulk Modulus (GPa) = 18.73994 20.02414 19.38204
# Shear Modulus (GPa) = 28.21724 31.96699 30.09212
#
# Velocity S-wave (km/s) = 3.52999 3.75722 3.64537
# Velocity P-wave (km/s) = 4.98899 5.25975 5.12616
#
# Compressibility (1/GPa) = 0.05336196
#
# Stress axis : x y z
#
# Youngs Moduli (GPa) = 80.13504 69.50193 47.09034
#
# Poissons Ratio (x) = -0.06188 -0.01014
# Poissons Ratio (y) = -0.07134 -0.07177
# Poissons Ratio (z) = -0.01725 -0.10592
#
# Static dielectric constant tensor:
#      x y z
#    x 1.831450 0.000000 -0.022640 
#    y 0.000000 1.863900 0.000000 
#    z -0.022640 0.000000 1.886420 
# 
# From -- ./inp_files/24303.got.cif
#   From: 2010.05.17/outbox.cif.g08.bks.cpg/sg9_13_cif.got.tgz:24303.got - 2010.06.03 20:04:27.
