data_PCOD9138689
_publ_section_title
;
Structure prediction by ZEFSAII (Michael W. Deem and Ramdas Pophale) SiO2 
 PCOD9138689
Probable space group: C C
;
_chemical_formula_sum "Si O2"
_cell_formula_units_Z 28
_cell_length_a 11.792997
_cell_length_b 8.025826
_cell_length_c 11.998386
_cell_angle_alpha 90.000000
_cell_angle_beta 68.899617
_cell_angle_gamma 90.000000
_cell_volume 1059.487048
_symmetry_space_group_name_H-M "C C"
_symmetry_group_IT_number 9
_symmetry_cell_setting 'monoclinic'
loop_
_space_group_symop_operation_xyz
x,y,z
x,-y,1/2+z
1/2+x,1/2+y,z
1/2+x,1/2-y,1/2+z
loop_
_atom_site_type_symbol
_atom_site_label
_atom_site_fract_x
_atom_site_fract_y
_atom_site_fract_z
Si Si1 0.349310 0.800040 0.010010
Si Si2 0.320741 0.321466 0.921156
Si Si3 0.965014 0.019607 0.534478
Si Si4 0.566656 0.911130 0.084093
Si Si5 0.483362 0.761565 0.741279
Si Si6 0.180734 0.905783 0.330691
Si Si7 0.195898 0.898285 0.627884
O O1 0.464479 0.890726 0.026546
O O2 0.232736 0.912326 0.074516
O O3 0.374536 0.779898 0.869749
O O4 0.599637 0.558561 0.969306
O O5 0.297276 0.202003 0.825520
O O6 0.442761 0.408182 0.916054
O O7 0.197595 0.432279 0.975103
O O8 0.305084 0.203422 0.034458
O O9 0.961582 0.128674 0.647904
O O10 0.860511 0.878196 0.569006
O O11 0.087590 0.760362 0.648618
O O12 0.527706 0.065799 0.172595
O O13 0.589685 0.698034 0.785890
O O14 0.211160 0.071151 0.253587
#
# Coordination Sequence:
#
# PCOD9138689 Si02
#       7
#     4   4   4   4   4   4   4
#     4  11  24  48  71 106 154 196 250 317 381 461
#     4  10  23  46  63 107 145 186 257 300 378 454
#     4  11  24  45  74 108 145 198 255 308 395 454
#     4  10  23  47  65 105 150 183 261 303 380 454
#     4  11  23  45  78 101 149 206 242 321 388 454
#     4  11  23  47  70 107 152 189 251 320 378 454
#     4  10  24  40  69 104 143 196 244 305 370 451
#
# _framework density 26.427883000000001
#
# number of rings (size 3 to 8) (size 9 to 14) (size 15 to 20)
#    0.857    0.571    2.857    2.571    2.000    8.000 
#    0.000    0.000    0.000    0.000    0.000    0.000 
#    0.000    0.000    0.000    0.000    0.000    0.000 
#
# Total GULP energy -78031.800829 kJ/mol
# GULP energy per Si atom -5573.700059 kJ/mol
# Density = 2.636773 g / cm^3
# Si number density = 26.427883 Si / 1000 Ang^3
#
#
#
# Elastic Constant Matrix: (Units=GPa)
#
#
# Indices 1 2 3 4 5 6 
#
# 1 130.2647 64.6860 28.5771 0.0000 34.1242 0.0000
# 2 64.6860 154.1131 82.3141 0.0000 22.0932 0.0000
# 3 28.5771 82.3141 129.7945 0.0000 13.1627 0.0000
# 4 0.0000 0.0000 0.0000 59.6235 0.0000 23.1217
# 5 34.1242 22.0932 13.1627 0.0000 41.1443 0.0000
# 6 0.0000 0.0000 0.0000 23.1217 0.0000 51.8922
#
#
#
# Elastic Compliance Matrix: (Units=1/GPa)
#
#
# Indices 1 2 3 4 5 6 
#
# 1 0.011587 -0.004267 0.000927 0.000000 -0.007615 0.000000
# 2 -0.004267 0.011863 -0.006508 0.000000 -0.000749 0.000000
# 3 0.000927 -0.006508 0.011732 0.000000 -0.001028 0.000000
# 4 0.000000 0.000000 0.000000 0.020275 0.000000 -0.009034
# 5 -0.007615 -0.000749 -0.001028 0.000000 0.031352 0.000000
# 6 0.000000 0.000000 0.000000 -0.009034 0.000000 0.023296
#
#
# Mechanical properties :
#
#
# Convention : Reuss Voigt Hill
#
# Bulk Modulus (GPa) = 64.57223 85.03628 74.80426
# Shear Modulus (GPa) = 37.04720 46.43835 41.74277
#
# Velocity S-wave (km/s) = 3.74815 4.19641 3.97860
# Velocity P-wave (km/s) = 6.57404 7.46501 7.03365
#
# Compressibility (1/GPa) = 0.01548653
#
# Stress axis : x y z
#
# Youngs Moduli (GPa) = 86.30305 84.29476 85.23802
#
# Poissons Ratio (x) = 0.35968 -0.07903
# Poissons Ratio (y) = 0.36825 0.55473
# Poissons Ratio (z) = -0.08002 0.54859
#
# Static dielectric constant tensor:
#      x y z
#    x 2.068500 0.000000 0.013300 
#    y 0.000000 2.251330 0.000000 
#    z 0.013300 0.000000 2.278090 
# 
# From -- ./inp_files/24161.got.cif
#   From: 2010.05.17/outbox.cif.g08.bks.cpg/sg9_13_cif.got.tgz:24161.got - 2010.06.03 20:04:27.
