data_PCOD9138171
_publ_section_title
;
Structure prediction by ZEFSAII (Michael W. Deem and Ramdas Pophale) SiO2 
 PCOD9138171
Probable space group: C C
;
_chemical_formula_sum "Si O2"
_cell_formula_units_Z 32
_cell_length_a 25.445224
_cell_length_b 8.983777
_cell_length_c 14.790807
_cell_angle_alpha 90.000000
_cell_angle_beta 153.326813
_cell_angle_gamma 90.000000
_cell_volume 1517.775585
_symmetry_space_group_name_H-M "C C"
_symmetry_group_IT_number 9
_symmetry_cell_setting 'monoclinic'
loop_
_space_group_symop_operation_xyz
x,y,z
x,-y,1/2+z
1/2+x,1/2+y,z
1/2+x,1/2-y,1/2+z
loop_
_atom_site_type_symbol
_atom_site_label
_atom_site_fract_x
_atom_site_fract_y
_atom_site_fract_z
Si Si1 0.234700 0.151346 0.858380
Si Si2 0.103423 0.168148 0.494977
Si Si3 0.922475 0.297214 0.354206
Si Si4 0.580565 0.160743 0.258515
Si Si5 0.663614 0.826825 0.417721
Si Si6 0.186303 0.159467 0.070792
Si Si7 0.630035 0.320793 0.672647
Si Si8 0.907586 0.634433 0.276220
O O1 0.217081 0.211139 0.730317
O O2 0.168956 0.263559 0.823388
O O3 0.166758 0.991550 0.751519
O O4 0.357831 0.135010 0.097517
O O5 0.083358 0.263473 0.374840
O O6 0.000230 0.190591 0.409048
O O7 0.130874 0.002430 0.503005
O O8 0.792469 0.231315 0.145012
O O9 0.945966 0.463913 0.351973
O O10 0.962135 0.317788 0.519472
O O11 0.592401 0.248754 0.369629
O O12 0.629651 0.998013 0.354715
O O13 0.646903 0.760676 0.292704
O O14 0.208948 0.221036 0.206450
O O15 0.301506 0.152419 0.185913
O O16 0.502134 0.263400 0.442080
#
# Coordination Sequence:
#
# PCOD9138171 Si02
#       8
#     4   4   4   4   4   4   4   4
#     4   9  21  43  66  95 136 174 223 296 340 420
#     4  10  23  42  67  95 135 179 226 286 358 414
#     4  11  23  43  70 100 135 183 230 293 360 415
#     4  10  23  40  66  97 137 169 229 292 347 413
#     4  12  23  41  65 100 138 176 232 291 336 432
#     4  10  23  44  65  98 135 180 228 292 353 424
#     4  11  23  40  68  99 133 178 240 275 342 432
#     4  11  21  43  73  98 133 189 228 285 368 418
#
# _framework density 21.083486000000001
#
# number of rings (size 3 to 8) (size 9 to 14) (size 15 to 20)
#    0.000    1.500    3.750    0.750    1.750    8.000 
#    0.000    2.500    0.000    0.000    0.000    0.000 
#    0.000    0.000    0.000    0.000    0.000    0.000 
#
# Total GULP energy -89115.373711 kJ/mol
# GULP energy per Si atom -5569.710857 kJ/mol
# Density = 2.103550 g / cm^3
# Si number density = 21.083486 Si / 1000 Ang^3
#
#
#
# Elastic Constant Matrix: (Units=GPa)
#
#
# Indices 1 2 3 4 5 6 
#
# 1 83.6786 29.5745 15.9288 0.0000 -28.0257 0.0000
# 2 29.5745 70.2728 43.0017 0.0000 -18.3481 0.0000
# 3 15.9288 43.0017 102.3448 0.0000 -29.1904 0.0000
# 4 0.0000 0.0000 0.0000 27.1153 0.0000 -35.8854
# 5 -28.0257 -18.3481 -29.1904 0.0000 53.9375 0.0000
# 6 0.0000 0.0000 0.0000 -35.8854 0.0000 -264.9238
#
#
#
# Elastic Compliance Matrix: (Units=1/GPa)
#
#
# Indices 1 2 3 4 5 6 
#
# 1 0.016255 -0.006247 0.002244 0.000000 0.007535 0.000000
# 2 -0.006247 0.021858 -0.008298 0.000000 -0.000301 0.000000
# 3 0.002244 -0.008298 0.014705 0.000000 0.006302 0.000000
# 4 0.000000 0.000000 0.000000 0.031273 0.000000 -0.004236
# 5 0.007535 -0.000301 0.006302 0.000000 0.025763 0.000000
# 6 0.000000 0.000000 0.000000 -0.004236 0.000000 -0.003201
#
#
# Mechanical properties :
#
#
# Convention : Reuss Voigt Hill
#
# Bulk Modulus (GPa) = 35.43846 48.14516 41.79181
# Shear Modulus (GPa) = 35.54656 -25.58814 4.97921
#
# Velocity S-wave (km/s) = 4.11054 -3.48754 1.53844
# Velocity P-wave (km/s) = 6.27485 2.58221 4.79800
#
# Compressibility (1/GPa) = 0.02821793
#
# Stress axis : x y z
#
# Youngs Moduli (GPa) = 61.52021 45.74959 68.00246
#
# Poissons Ratio (x) = 0.28578 -0.15259
# Poissons Ratio (y) = 0.38429 0.56426
# Poissons Ratio (z) = -0.13805 0.37961
#
# Static dielectric constant tensor:
#      x y z
#    x 1.769540 0.000000 0.006840 
#    y 0.000000 1.794710 0.000000 
#    z 0.006840 0.000000 1.853110 
# 
# From -- ./inp_files/25490.got.cif
#   From: 2010.05.17/outbox.cif.g08.bks.cpg/sg9_13_cif.got.tgz:25490.got - 2010.06.03 20:04:27.
