data_PCOD9138702
_publ_section_title
;
Structure prediction by ZEFSAII (Michael W. Deem and Ramdas Pophale) SiO2 
 PCOD9138702
Probable space group: C C
;
_chemical_formula_sum "Si O2"
_cell_formula_units_Z 20
_cell_length_a 13.559199
_cell_length_b 7.202073
_cell_length_c 18.398878
_cell_angle_alpha 90.000000
_cell_angle_beta 152.566851
_cell_angle_gamma 90.000000
_cell_volume 827.777659
_symmetry_space_group_name_H-M "C C"
_symmetry_group_IT_number 9
_symmetry_cell_setting 'monoclinic'
loop_
_space_group_symop_operation_xyz
x,y,z
x,-y,1/2+z
1/2+x,1/2+y,z
1/2+x,1/2-y,1/2+z
loop_
_atom_site_type_symbol
_atom_site_label
_atom_site_fract_x
_atom_site_fract_y
_atom_site_fract_z
Si Si1 0.982510 0.887973 0.265550
Si Si2 0.652425 0.646926 0.631063
Si Si3 0.048483 0.422657 0.916921
Si Si4 0.669269 0.905467 0.772665
Si Si5 0.027418 0.698085 0.777361
O O1 0.035693 0.780245 0.373503
O O2 0.054025 0.750673 0.247445
O O3 0.727031 0.912305 0.094117
O O4 0.086736 0.088595 0.324091
O O5 0.647872 0.829722 0.677690
O O6 0.416205 0.584655 0.458145
O O7 0.779150 0.679406 0.638908
O O8 0.812188 0.503528 0.777325
O O9 0.132212 0.563986 0.907818
O O10 0.069766 0.397386 0.228559
#
# Coordination Sequence:
#
# PCOD9138702 Si02
#       5
#     4   4   4   4   4
#     4  11  21  44  69  96 138 186 232 294 354 426
#     4  10  23  46  67 102 145 181 240 297 361 432
#     4   9  23  40  69  94 139 182 229 294 357 414
#     4  11  22  44  68 103 144 183 241 297 360 438
#     4   9  23  42  67  99 142 180 236 296 360 418
#
# _framework density 24.161079000000001
#
# number of rings (size 3 to 8) (size 9 to 14) (size 15 to 20)
#    1.200    0.800    0.000    3.600    0.000    6.400 
#   10.800    0.000    0.000    0.000    0.000    0.000 
#    0.000    0.000    0.000    0.000    0.000    0.000 
#
# Total GULP energy -55894.043927 kJ/mol
# GULP energy per Si atom -5589.404393 kJ/mol
# Density = 2.410609 g / cm^3
# Si number density = 24.161079 Si / 1000 Ang^3
#
#
#
# Elastic Constant Matrix: (Units=GPa)
#
#
# Indices 1 2 3 4 5 6 
#
# 1 75.8384 36.0378 31.9547 0.0002 5.2936 0.0000
# 2 36.0378 179.6072 22.1759 0.0011 -5.1922 0.0000
# 3 31.9547 22.1759 103.9397 0.0038 5.8686 0.0000
# 4 0.0002 0.0011 0.0038 26.0419 0.0001 3.4750
# 5 5.2936 -5.1922 5.8686 0.0001 12.5669 -0.0004
# 6 0.0000 0.0000 0.0000 3.4750 -0.0004 43.6583
#
#
#
# Elastic Compliance Matrix: (Units=1/GPa)
#
#
# Indices 1 2 3 4 5 6 
#
# 1 0.016837 -0.003049 -0.004164 0.000001 -0.006408 0.000000
# 2 -0.003049 0.006384 -0.000663 0.000000 0.004232 0.000000
# 3 -0.004164 -0.000663 0.011256 -0.000002 -0.003777 0.000000
# 4 0.000001 0.000000 -0.000002 0.038812 0.000000 -0.003089
# 5 -0.006408 0.004232 -0.003777 0.000000 0.085786 0.000001
# 6 0.000000 0.000000 0.000000 -0.003089 0.000001 0.023151
#
#
# Mechanical properties :
#
#
# Convention : Reuss Voigt Hill
#
# Bulk Modulus (GPa) = 53.41013 59.96911 56.68962
# Shear Modulus (GPa) = 24.48351 34.40122 29.44237
#
# Velocity S-wave (km/s) = 3.18676 3.77746 3.49461
# Velocity P-wave (km/s) = 5.97448 6.62571 6.30850
#
# Compressibility (1/GPa) = 0.01872304
#
# Stress axis : x y z
#
# Youngs Moduli (GPa) = 59.39421 156.64628 88.84278
#
# Poissons Ratio (x) = 0.47767 0.36992
# Poissons Ratio (y) = 0.18112 0.05894
# Poissons Ratio (z) = 0.24731 0.10393
#
# Static dielectric constant tensor:
#      x y z
#    x 1.933060 0.000000 0.002260 
#    y 0.000000 1.951960 0.000000 
#    z 0.002260 0.000000 1.910480 
# 
# From -- ./inp_files/36826.got.cif
#   From: 2010.05.17/outbox.cif.g08.bks.cpg/sg9_19_cif.got.tgz:36826.got - 2010.06.03 20:04:27.
