data_PCOD9138601
_publ_section_title
;
Structure prediction by ZEFSAII (Michael W. Deem and Ramdas Pophale) SiO2 
 PCOD9138601
Probable space group: C C
;
_chemical_formula_sum "Si O2"
_cell_formula_units_Z 24
_cell_length_a 5.837340
_cell_length_b 23.439603
_cell_length_c 9.406044
_cell_angle_alpha 90.000000
_cell_angle_beta 132.184917
_cell_angle_gamma 90.000000
_cell_volume 953.629229
_symmetry_space_group_name_H-M "C C"
_symmetry_group_IT_number 9
_symmetry_cell_setting 'monoclinic'
loop_
_space_group_symop_operation_xyz
x,y,z
x,-y,1/2+z
1/2+x,1/2+y,z
1/2+x,1/2-y,1/2+z
loop_
_atom_site_type_symbol
_atom_site_label
_atom_site_fract_x
_atom_site_fract_y
_atom_site_fract_z
Si Si1 0.585960 0.321446 0.452270
Si Si2 0.180461 0.484424 0.099269
Si Si3 0.860194 0.452019 0.261682
Si Si4 0.108928 0.829993 0.142380
Si Si5 0.417081 0.125225 0.333461
Si Si6 0.951874 0.290278 0.065693
O O1 0.715782 0.320855 0.348365
O O2 0.729210 0.370538 0.609751
O O3 0.600202 0.263028 0.547602
O O4 0.226408 0.324577 0.259016
O O5 0.097079 0.544261 0.991396
O O6 0.991407 0.436144 0.930136
O O7 0.538037 0.473130 0.205347
O O8 0.045022 0.480429 0.203384
O O9 0.760722 0.390500 0.166393
O O10 0.222064 0.777100 0.097158
O O11 0.748816 0.842543 0.963727
O O12 0.263174 0.167687 0.383805
#
# Coordination Sequence:
#
# PCOD9138601 Si02
#       6
#     4   4   4   4   4   4
#     4  11  24  42  66  95 131 182 231 292 345 419
#     4  11  24  44  73 105 144 187 232 295 353 429
#     4  11  24  45  72 107 145 184 236 291 358 425
#     4  10  25  44  68  96 143 181 230 299 347 422
#     4  10  23  45  65  96 141 177 232 286 355 408
#     4  11  22  44  62  95 134 177 233 287 344 415
#
# _framework density 25.167013000000001
#
# number of rings (size 3 to 8) (size 9 to 14) (size 15 to 20)
#    0.000    1.333    3.333    1.000    2.333    5.333 
#    0.000    0.000    0.000    0.000    0.000    0.000 
#    0.000    0.000    0.000    0.000    0.000    0.000 
#
# Total GULP energy -66893.176864 kJ/mol
# GULP energy per Si atom -5574.431405 kJ/mol
# Density = 2.510973 g / cm^3
# Si number density = 25.167013 Si / 1000 Ang^3
#
#
#
# Elastic Constant Matrix: (Units=GPa)
#
#
# Indices 1 2 3 4 5 6 
#
# 1 141.3490 23.2541 39.0061 0.0000 -29.3683 0.0000
# 2 23.2541 22.9830 -0.9900 0.0000 6.9754 0.0000
# 3 39.0061 -0.9900 99.5676 0.0000 -20.1683 0.0000
# 4 0.0000 0.0000 0.0000 45.3350 0.0000 -3.1271
# 5 -29.3683 6.9754 -20.1683 0.0000 33.3085 0.0000
# 6 0.0000 0.0000 0.0000 -3.1271 0.0000 17.1742
#
#
#
# Elastic Compliance Matrix: (Units=1/GPa)
#
#
# Indices 1 2 3 4 5 6 
#
# 1 0.013883 -0.018564 -0.002686 0.000000 0.014502 0.000000
# 2 -0.018564 0.071546 0.001862 0.000000 -0.030224 0.000000
# 3 -0.002686 0.001862 0.012031 0.000000 0.004527 0.000000
# 4 0.000000 0.000000 0.000000 0.022339 0.000000 0.004067
# 5 0.014502 -0.030224 0.004527 0.000000 0.051879 0.000000
# 6 0.000000 0.000000 0.000000 0.004067 0.000000 0.058967
#
#
# Mechanical properties :
#
#
# Convention : Reuss Voigt Hill
#
# Bulk Modulus (GPa) = 17.04017 42.93775 29.98896
# Shear Modulus (GPa) = 17.30207 32.67219 24.98713
#
# Velocity S-wave (km/s) = 2.62485 3.60698 3.15437
# Velocity P-wave (km/s) = 3.99649 5.86901 5.02082
#
# Compressibility (1/GPa) = 0.05868488
#
# Stress axis : x y z
#
# Youngs Moduli (GPa) = 72.03061 13.97694 83.11812
#
# Poissons Ratio (x) = 0.25947 0.22324
# Poissons Ratio (y) = 1.33717 -0.15475
# Poissons Ratio (z) = 0.19346 -0.02602
#
# Static dielectric constant tensor:
#      x y z
#    x 2.227430 0.000000 -0.068630 
#    y 0.000000 2.029630 0.000000 
#    z -0.068630 0.000000 1.964200 
# 
# From -- ./inp_files/357.got.cif
#   From: 2010.05.17/outbox.cif.g08.bks.cpg/sg9_1_cif.got.tgz:357.got - 2010.06.03 20:04:27.
