data_PCOD9138755
_publ_section_title
;
Structure prediction by ZEFSAII (Michael W. Deem and Ramdas Pophale) SiO2 
 PCOD9138755
Probable space group: C C
;
_chemical_formula_sum "Si O2"
_cell_formula_units_Z 32
_cell_length_a 6.484007
_cell_length_b 13.745672
_cell_length_c 17.738006
_cell_angle_alpha 90.000000
_cell_angle_beta 57.291994
_cell_angle_gamma 90.000000
_cell_volume 1330.255212
_symmetry_space_group_name_H-M "C C"
_symmetry_group_IT_number 9
_symmetry_cell_setting 'monoclinic'
loop_
_space_group_symop_operation_xyz
x,y,z
x,-y,1/2+z
1/2+x,1/2+y,z
1/2+x,1/2-y,1/2+z
loop_
_atom_site_type_symbol
_atom_site_label
_atom_site_fract_x
_atom_site_fract_y
_atom_site_fract_z
Si Si1 0.559860 0.742356 0.612050
Si Si2 0.137156 0.415590 0.158719
Si Si3 0.940999 0.851833 0.860062
Si Si4 0.193598 0.830702 0.336077
Si Si5 0.352714 0.976995 0.418979
Si Si6 0.635499 0.196212 0.933539
Si Si7 0.464539 0.100688 0.254246
Si Si8 0.467424 0.086708 0.524825
O O1 0.342694 0.662469 0.642460
O O2 0.557864 0.808784 0.536605
O O3 0.535232 0.800379 0.695655
O O4 0.822228 0.688020 0.558070
O O5 0.164266 0.521957 0.188871
O O6 0.084351 0.433003 0.081878
O O7 0.871949 0.381144 0.241890
O O8 0.019730 0.793508 0.920519
O O9 0.179073 0.906592 0.783037
O O10 0.844273 0.765479 0.827418
O O11 0.707411 0.915098 0.925061
O O12 0.163539 0.910000 0.409539
O O13 0.925111 0.798472 0.367624
O O14 0.551706 0.894383 0.399633
O O15 0.427725 0.065568 0.348614
O O16 0.282171 0.017950 0.514781
#
# Coordination Sequence:
#
# PCOD9138755 Si02
#       8
#     4   4   4   4   4   4   4   4
#     4  12  25  47  74 108 153 196 248 321 382 442
#     4  11  26  47  69 111 151 192 251 314 377 455
#     4  11  23  44  72 103 143 197 245 294 379 449
#     4  10  23  46  73 103 143 196 243 302 378 456
#     4  10  26  43  71 109 143 194 248 303 372 459
#     4  11  23  46  76 104 147 196 246 304 378 458
#     4  11  26  49  72 104 153 196 246 316 375 455
#     4  12  26  44  73 108 143 193 247 310 371 448
#
# _framework density 24.055533
#
# number of rings (size 3 to 8) (size 9 to 14) (size 15 to 20)
#    0.000    1.000    3.750    1.500    5.250    1.000 
#    0.000    0.000    0.000    0.000    0.000    0.000 
#    0.000    0.000    0.000    0.000    0.000    0.000 
#
# Total GULP energy -89263.270966 kJ/mol
# GULP energy per Si atom -5578.954435 kJ/mol
# Density = 2.400078 g / cm^3
# Si number density = 24.055533 Si / 1000 Ang^3
#
#
#
# Elastic Constant Matrix: (Units=GPa)
#
#
# Indices 1 2 3 4 5 6 
#
# 1 68.7385 20.9628 14.5536 0.0000 -3.4854 0.0000
# 2 20.9628 74.5974 14.7075 0.0000 3.6122 0.0000
# 3 14.5536 14.7075 26.1584 0.0000 -13.4812 0.0000
# 4 0.0000 0.0000 0.0000 32.0970 0.0000 -1.3948
# 5 -3.4854 3.6122 -13.4812 0.0000 38.9192 0.0000
# 6 0.0000 0.0000 0.0000 -1.3948 0.0000 31.5899
#
#
#
# Elastic Compliance Matrix: (Units=1/GPa)
#
#
# Indices 1 2 3 4 5 6 
#
# 1 0.017222 -0.003139 -0.008366 0.000000 -0.001064 0.000000
# 2 -0.003139 0.016595 -0.010375 0.000000 -0.005415 0.000000
# 3 -0.008366 -0.010375 0.059437 0.000000 0.020802 0.000000
# 4 0.000000 0.000000 0.000000 0.031215 0.000000 0.001378
# 5 -0.001064 -0.005415 0.020802 0.000000 0.033307 0.000000
# 6 0.000000 0.000000 0.000000 0.001378 0.000000 0.031717
#
#
# Mechanical properties :
#
#
# Convention : Reuss Voigt Hill
#
# Bulk Modulus (GPa) = 20.20377 29.99356 25.09867
# Shear Modulus (GPa) = 20.01997 28.47259 24.24628
#
# Velocity S-wave (km/s) = 2.88799 3.44411 3.17823
# Velocity P-wave (km/s) = 4.42014 5.32084 4.89127
#
# Compressibility (1/GPa) = 0.04949571
#
# Stress axis : x y z
#
# Youngs Moduli (GPa) = 58.06411 60.25890 16.82457
#
# Poissons Ratio (x) = 0.18914 0.14075
# Poissons Ratio (y) = 0.18225 0.17455
# Poissons Ratio (z) = 0.48574 0.62518
#
# Static dielectric constant tensor:
#      x y z
#    x 1.913570 0.000000 0.047570 
#    y 0.000000 1.988190 0.000000 
#    z 0.047570 0.000000 1.956400 
# 
# From -- ./inp_files/28675.got.cif
#   From: 2010.05.17/outbox.cif.g08.bks.cpg/sg9_15_cif.got.tgz:28675.got - 2010.06.03 20:04:27.
