data_PCOD9138606
_publ_section_title
;
Structure prediction by ZEFSAII (Michael W. Deem and Ramdas Pophale) SiO2 
 PCOD9138606
Probable space group: C C
;
_chemical_formula_sum "Si O2"
_cell_formula_units_Z 24
_cell_length_a 10.184831
_cell_length_b 9.941932
_cell_length_c 12.165085
_cell_angle_alpha 90.000000
_cell_angle_beta 117.666284
_cell_angle_gamma 90.000000
_cell_volume 1090.963528
_symmetry_space_group_name_H-M "C C"
_symmetry_group_IT_number 9
_symmetry_cell_setting 'monoclinic'
loop_
_space_group_symop_operation_xyz
x,y,z
x,-y,1/2+z
1/2+x,1/2+y,z
1/2+x,1/2-y,1/2+z
loop_
_atom_site_type_symbol
_atom_site_label
_atom_site_fract_x
_atom_site_fract_y
_atom_site_fract_z
Si Si1 0.803930 0.330726 0.589300
Si Si2 0.956220 0.241070 0.317510
Si Si3 0.228462 0.074888 0.400666
Si Si4 0.034631 0.862346 0.628244
Si Si5 0.481340 0.951239 0.855729
Si Si6 0.325686 0.417361 0.952179
O O1 0.747992 0.449447 0.487734
O O2 0.659694 0.290078 0.604827
O O3 0.869486 0.208109 0.546367
O O4 0.922180 0.388314 0.720109
O O5 0.848696 0.137719 0.337798
O O6 0.123774 0.190091 0.411149
O O7 0.934676 0.392849 0.344809
O O8 0.948688 0.230161 0.182404
O O9 0.389119 0.118876 0.418130
O O10 0.131785 0.044964 0.252021
O O11 0.927916 0.955165 0.515988
O O12 0.657021 0.945560 0.918945
#
# Coordination Sequence:
#
# PCOD9138606 Si02
#       6
#     4   4   4   4   4   4
#     4  11  23  42  69  92 136 172 213 272 326 386
#     4  10  23  45  66  96 132 172 216 268 325 391
#     4   9  21  46  64  91 133 172 211 269 332 377
#     4   9  22  44  65  94 130 177 209 263 336 377
#     4  11  26  41  66 104 122 172 228 266 324 387
#     4  12  25  42  70 101 129 173 221 272 321 392
#
# _framework density 21.998904
#
# number of rings (size 3 to 8) (size 9 to 14) (size 15 to 20)
#    1.000    0.667    3.333    0.000    2.333    6.667 
#    0.000    0.000    0.000    0.000    0.000    0.000 
#    0.000    0.000    0.000    0.000    0.000    0.000 
#
# Total GULP energy -66970.329532 kJ/mol
# GULP energy per Si atom -5580.860794 kJ/mol
# Density = 2.194883 g / cm^3
# Si number density = 21.998904 Si / 1000 Ang^3
#
#
#
# Elastic Constant Matrix: (Units=GPa)
#
#
# Indices 1 2 3 4 5 6 
#
# 1 92.4532 -7.0002 4.0606 0.0000 -2.6065 0.0000
# 2 -7.0002 38.3586 -11.5239 0.0000 2.7140 0.0000
# 3 4.0606 -11.5239 23.0889 0.0000 -6.3823 0.0000
# 4 0.0000 0.0000 0.0000 24.6249 0.0000 -2.0001
# 5 -2.6065 2.7140 -6.3823 0.0000 40.3833 0.0000
# 6 0.0000 0.0000 0.0000 -2.0001 0.0000 30.4696
#
#
#
# Elastic Compliance Matrix: (Units=1/GPa)
#
#
# Indices 1 2 3 4 5 6 
#
# 1 0.010999 0.001684 -0.000971 0.000000 0.000443 0.000000
# 2 0.001684 0.030932 0.015264 0.000000 0.000442 0.000000
# 3 -0.000971 0.015264 0.053120 0.000000 0.007307 0.000000
# 4 0.000000 0.000000 0.000000 0.040827 0.000000 0.002680
# 5 0.000443 0.000442 0.007307 0.000000 0.025916 0.000000
# 6 0.000000 0.000000 0.000000 0.002680 0.000000 0.032996
#
#
# Mechanical properties :
#
#
# Convention : Reuss Voigt Hill
#
# Bulk Modulus (GPa) = 7.87370 13.88596 10.87983
# Shear Modulus (GPa) = 24.37003 30.31986 27.34494
#
# Velocity S-wave (km/s) = 3.33195 3.71650 3.52947
# Velocity P-wave (km/s) = 4.28829 4.97416 4.64391
#
# Compressibility (1/GPa) = 0.12700506
#
# Stress axis : x y z
#
# Youngs Moduli (GPa) = 90.91773 32.32935 18.82528
#
# Poissons Ratio (x) = -0.05444 0.01829
# Poissons Ratio (y) = -0.15311 -0.28736
# Poissons Ratio (z) = 0.08831 -0.49349
#
# Static dielectric constant tensor:
#      x y z
#    x 1.832610 0.000000 -0.015170 
#    y 0.000000 1.771420 0.000000 
#    z -0.015170 0.000000 1.804450 
# 
# From -- ./inp_files/14103.got.cif
#   From: 2010.05.17/outbox.cif.g08.bks.cpg/sg9_8_cif.got.tgz:14103.got - 2010.06.03 20:04:27.
