data_PCOD9138622
_publ_section_title
;
Structure prediction by ZEFSAII (Michael W. Deem and Ramdas Pophale) SiO2 
 PCOD9138622
Probable space group: C C
;
_chemical_formula_sum "Si O2"
_cell_formula_units_Z 32
_cell_length_a 11.713173
_cell_length_b 8.782935
_cell_length_c 13.529065
_cell_angle_alpha 90.000000
_cell_angle_beta 76.025492
_cell_angle_gamma 90.000000
_cell_volume 1350.623367
_symmetry_space_group_name_H-M "C C"
_symmetry_group_IT_number 9
_symmetry_cell_setting 'monoclinic'
loop_
_space_group_symop_operation_xyz
x,y,z
x,-y,1/2+z
1/2+x,1/2+y,z
1/2+x,1/2-y,1/2+z
loop_
_atom_site_type_symbol
_atom_site_label
_atom_site_fract_x
_atom_site_fract_y
_atom_site_fract_z
Si Si1 0.516030 0.607362 0.768500
Si Si2 0.972924 0.091023 0.543916
Si Si3 0.772145 0.063260 0.330103
Si Si4 0.902983 0.595119 0.328492
Si Si5 0.807477 0.678329 0.970559
Si Si6 0.681406 0.785504 0.443538
Si Si7 0.809349 0.164198 0.102235
Si Si8 0.766284 0.501091 0.666743
O O1 0.497695 0.614728 0.653990
O O2 0.404883 0.503642 0.827464
O O3 0.508660 0.782360 0.807575
O O4 0.644983 0.533965 0.750808
O O5 0.870223 0.200087 0.528117
O O6 0.082027 0.159508 0.462424
O O7 0.926893 0.919769 0.540642
O O8 0.750314 0.215141 0.398543
O O9 0.776611 0.092938 0.213642
O O10 0.679901 0.929877 0.372672
O O11 0.894054 0.438377 0.393027
O O12 0.799474 0.695563 0.396505
O O13 0.859158 0.568520 0.224710
O O14 0.737043 0.584777 0.069444
O O15 0.703045 0.854709 0.547664
O O16 0.823226 0.341432 0.119309
#
# Coordination Sequence:
#
# PCOD9138622 Si02
#       8
#     4   4   4   4   4   4   4   4
#     4  10  23  45  68  97 135 189 227 283 362 406
#     4  11  23  42  68  97 137 179 232 284 344 414
#     4  10  24  42  69 102 138 181 233 292 345 422
#     4  11  24  42  67  99 140 174 236 285 338 425
#     4  12  23  42  64 102 141 177 232 298 337 413
#     4  11  23  44  70  98 135 188 226 285 358 409
#     4  11  22  43  71  94 142 182 227 286 348 417
#     4  12  24  44  71  99 140 186 229 293 350 412
#
# _framework density 23.692765999999999
#
# number of rings (size 3 to 8) (size 9 to 14) (size 15 to 20)
#    0.000    1.000    6.250    0.000    1.750    1.000 
#    0.000    5.000    2.750    0.000    0.000    0.000 
#    0.000    0.000    0.000    0.000    0.000    0.000 
#
# Total GULP energy -89351.011855 kJ/mol
# GULP energy per Si atom -5584.438241 kJ/mol
# Density = 2.363884 g / cm^3
# Si number density = 23.692766 Si / 1000 Ang^3
#
#
#
# Elastic Constant Matrix: (Units=GPa)
#
#
# Indices 1 2 3 4 5 6 
#
# 1 51.2420 34.1920 12.6932 0.0000 -17.0464 0.0000
# 2 34.1920 117.7379 48.9718 0.0000 -16.9658 0.0000
# 3 12.6932 48.9718 107.0775 0.0000 6.7118 0.0000
# 4 0.0000 0.0000 0.0000 51.8489 0.0000 -2.0337
# 5 -17.0464 -16.9658 6.7118 0.0000 36.5225 0.0000
# 6 0.0000 0.0000 0.0000 -2.0337 0.0000 27.7532
#
#
#
# Elastic Compliance Matrix: (Units=1/GPa)
#
#
# Indices 1 2 3 4 5 6 
#
# 1 0.027128 -0.005954 -0.001126 0.000000 0.010103 0.000000
# 2 -0.005954 0.013180 -0.005596 0.000000 0.004372 0.000000
# 3 -0.001126 -0.005596 0.012370 0.000000 -0.005398 0.000000
# 4 0.000000 0.000000 0.000000 0.019342 0.000000 0.001417
# 5 0.010103 0.004372 -0.005398 0.000000 0.035119 0.000000
# 6 0.000000 0.000000 0.000000 0.001417 0.000000 0.036136
#
#
# Mechanical properties :
#
#
# Convention : Reuss Voigt Hill
#
# Bulk Modulus (GPa) = 36.59520 51.97459 44.28490
# Shear Modulus (GPa) = 28.13156 35.23829 31.68492
#
# Velocity S-wave (km/s) = 3.44953 3.86074 3.66091
# Velocity P-wave (km/s) = 5.59865 6.46980 6.04993
#
# Compressibility (1/GPa) = 0.02732599
#
# Stress axis : x y z
#
# Youngs Moduli (GPa) = 36.86247 75.87126 80.83878
#
# Poissons Ratio (x) = 0.45174 0.09102
# Poissons Ratio (y) = 0.21948 0.45239
# Poissons Ratio (z) = 0.04151 0.42459
#
# Static dielectric constant tensor:
#      x y z
#    x 1.961990 0.000000 0.018260 
#    y 0.000000 1.945190 0.000000 
#    z 0.018260 0.000000 1.989510 
# 
# From -- ./inp_files/24361.got.cif
#   From: 2010.05.17/outbox.cif.g08.bks.cpg/sg9_13_cif.got.tgz:24361.got - 2010.06.03 20:04:27.
