data_PCOD9138653
_publ_section_title
;
Structure prediction by ZEFSAII (Michael W. Deem and Ramdas Pophale) SiO2 
 PCOD9138653
Probable space group: C C
;
_chemical_formula_sum "Si O2"
_cell_formula_units_Z 28
_cell_length_a 8.023187
_cell_length_b 18.048946
_cell_length_c 7.738638
_cell_angle_alpha 90.000000
_cell_angle_beta 83.330695
_cell_angle_gamma 90.000000
_cell_volume 1113.049393
_symmetry_space_group_name_H-M "C C"
_symmetry_group_IT_number 9
_symmetry_cell_setting 'monoclinic'
loop_
_space_group_symop_operation_xyz
x,y,z
x,-y,1/2+z
1/2+x,1/2+y,z
1/2+x,1/2-y,1/2+z
loop_
_atom_site_type_symbol
_atom_site_label
_atom_site_fract_x
_atom_site_fract_y
_atom_site_fract_z
Si Si1 0.140200 0.046889 0.658820
Si Si2 0.150677 0.477348 0.030267
Si Si3 0.399495 0.394117 0.449891
Si Si4 0.956333 0.588840 0.851725
Si Si5 0.226231 0.795781 0.501257
Si Si6 0.629498 0.385214 0.793957
Si Si7 0.244750 0.650373 0.289502
O O1 0.291220 0.062711 0.771901
O O2 0.184355 0.083751 0.471946
O O3 0.968832 0.084193 0.751112
O O4 0.128925 0.958044 0.669356
O O5 0.107193 0.426641 0.200127
O O6 0.323379 0.524464 0.012676
O O7 0.149434 0.422441 0.866177
O O8 0.005574 0.537760 0.007756
O O9 0.561964 0.344957 0.479944
O O10 0.259814 0.346505 0.578255
O O11 0.900864 0.671317 0.907385
O O12 0.233541 0.815759 0.704971
O O13 0.188751 0.719880 0.408994
O O14 0.435916 0.362553 0.828879
#
# Coordination Sequence:
#
# PCOD9138653 Si02
#       7
#     4   4   4   4   4   4   4
#     4  11  22  44  75 111 137 195 250 309 350 440
#     4  12  23  42  72 106 138 185 251 307 351 427
#     4  10  23  45  72 103 140 195 242 291 367 439
#     4  11  25  41  71 106 143 182 248 309 357 421
#     4  10  25  47  70 102 151 191 233 301 386 438
#     4  11  22  40  77 101 143 191 250 289 368 439
#     4  11  24  43  71 105 146 187 240 306 363 436
#
# _framework density 25.156113999999999
#
# number of rings (size 3 to 8) (size 9 to 14) (size 15 to 20)
#    0.000    1.143    2.857    4.286    6.000    0.000 
#    0.000    5.714    3.143    0.000    0.000    0.000 
#    0.000    0.000    0.000    0.000    0.000    0.000 
#
# Total GULP energy -77949.192216 kJ/mol
# GULP energy per Si atom -5567.799444 kJ/mol
# Density = 2.509886 g / cm^3
# Si number density = 25.156114 Si / 1000 Ang^3
#
#
#
# Elastic Constant Matrix: (Units=GPa)
#
#
# Indices 1 2 3 4 5 6 
#
# 1 98.3177 22.0826 13.0629 0.0000 -1.5262 0.0000
# 2 22.0826 99.6823 44.6908 0.0000 -1.2388 0.0000
# 3 13.0629 44.6908 122.4536 0.0000 -23.3497 0.0000
# 4 0.0000 0.0000 0.0000 42.1697 0.0000 -18.6789
# 5 -1.5262 -1.2388 -23.3497 0.0000 30.9409 0.0000
# 6 0.0000 0.0000 0.0000 -18.6789 0.0000 23.4801
#
#
#
# Elastic Compliance Matrix: (Units=1/GPa)
#
#
# Indices 1 2 3 4 5 6 
#
# 1 0.010716 -0.002245 -0.000280 0.000000 0.000227 0.000000
# 2 -0.002245 0.012760 -0.005071 0.000000 -0.003427 0.000000
# 3 -0.000280 -0.005071 0.011687 0.000000 0.008603 0.000000
# 4 0.000000 0.000000 0.000000 0.036616 0.000000 0.029129
# 5 0.000227 -0.003427 0.008603 0.000000 0.038686 0.000000
# 6 0.000000 0.000000 0.000000 0.029129 0.000000 0.065762
#
#
# Mechanical properties :
#
#
# Convention : Reuss Voigt Hill
#
# Bulk Modulus (GPa) = 50.07387 53.34736 51.71061
# Shear Modulus (GPa) = 25.24256 35.35930 30.30093
#
# Velocity S-wave (km/s) = 3.17114 3.75319 3.47438
# Velocity P-wave (km/s) = 5.77552 6.32728 6.05769
#
# Compressibility (1/GPa) = 0.01997050
#
# Stress axis : x y z
#
# Youngs Moduli (GPa) = 93.31652 78.36915 85.56239
#
# Poissons Ratio (x) = 0.17597 0.02399
# Poissons Ratio (y) = 0.20954 0.43387
# Poissons Ratio (z) = 0.02616 0.39739
#
# Static dielectric constant tensor:
#      x y z
#    x 2.037170 0.000000 0.059500 
#    y 0.000000 1.989870 0.000000 
#    z 0.059500 0.000000 2.226030 
# 
# From -- ./inp_files/5328.got.cif
#   From: 2010.05.17/outbox.cif.g08.bks.cpg/sg9_3_cif.got.tgz:5328.got - 2010.06.03 20:04:27.
