data_PCOD9138978
_publ_section_title
;
Structure prediction by ZEFSAII (Michael W. Deem and Ramdas Pophale) SiO2 
 PCOD9138978
Probable space group: C C
;
_chemical_formula_sum "Si O2"
_cell_formula_units_Z 28
_cell_length_a 7.426351
_cell_length_b 23.178277
_cell_length_c 8.984816
_cell_angle_alpha 90.000000
_cell_angle_beta 129.144927
_cell_angle_gamma 90.000000
_cell_volume 1199.434479
_symmetry_space_group_name_H-M "C C"
_symmetry_group_IT_number 9
_symmetry_cell_setting 'monoclinic'
loop_
_space_group_symop_operation_xyz
x,y,z
x,-y,1/2+z
1/2+x,1/2+y,z
1/2+x,1/2-y,1/2+z
loop_
_atom_site_type_symbol
_atom_site_label
_atom_site_fract_x
_atom_site_fract_y
_atom_site_fract_z
Si Si1 0.111800 0.604382 0.454930
Si Si2 0.876880 0.826311 0.309947
Si Si3 0.970345 0.006314 0.717401
Si Si4 0.145945 0.066212 0.059855
Si Si5 0.255463 0.822340 0.246260
Si Si6 0.767687 0.793362 0.560845
Si Si7 0.458283 0.383936 0.871861
O O1 0.152253 0.654258 0.598011
O O2 0.248356 0.548267 0.590303
O O3 0.246035 0.623669 0.376076
O O4 0.859027 0.587795 0.268331
O O5 0.829687 0.782653 0.419547
O O6 0.965079 0.882411 0.445392
O O7 0.079930 0.815036 0.294875
O O8 0.936988 0.945141 0.780841
O O9 0.037775 0.987662 0.588577
O O10 0.174159 0.042102 0.907111
O O11 0.520845 0.826657 0.433853
O O12 0.239085 0.764734 0.138850
O O13 0.175039 0.874013 0.095902
O O14 0.946300 0.833748 0.743128
#
# Coordination Sequence:
#
# PCOD9138978 Si02
#       7
#     4   4   4   4   4   4   4
#     4  10  24  43  65  98 138 181 213 280 341 400
#     4  10  25  45  68 102 137 176 233 274 342 415
#     4  11  23  39  64 100 135 168 226 268 325 418
#     4  11  23  41  65 100 138 179 218 272 338 406
#     4  11  26  46  65  99 134 176 226 290 339 392
#     4  12  24  45  72  95 130 182 227 284 344 394
#     4  11  23  45  63  96 136 168 229 278 329 409
#
# _framework density 23.344335000000001
#
# number of rings (size 3 to 8) (size 9 to 14) (size 15 to 20)
#    0.000    1.143    4.286    0.857    4.000    2.286 
#    0.000    0.000    0.000    0.000    0.000    0.000 
#    0.000    0.000    0.000    0.000    0.000    0.000 
#
# Total GULP energy -78232.547929 kJ/mol
# GULP energy per Si atom -5588.039138 kJ/mol
# Density = 2.329120 g / cm^3
# Si number density = 23.344335 Si / 1000 Ang^3
#
#
#
# Elastic Constant Matrix: (Units=GPa)
#
#
# Indices 1 2 3 4 5 6 
#
# 1 51.4451 6.2907 30.3809 0.0000 -15.5606 0.0000
# 2 6.2907 45.3000 35.1673 0.0000 -21.6831 0.0000
# 3 30.3809 35.1673 137.0675 0.0000 -3.5775 0.0000
# 4 0.0000 0.0000 0.0000 62.6161 0.0000 -14.0125
# 5 -15.5606 -21.6831 -3.5775 0.0000 48.5919 0.0000
# 6 0.0000 0.0000 0.0000 -14.0125 0.0000 29.6710
#
#
#
# Elastic Compliance Matrix: (Units=1/GPa)
#
#
# Indices 1 2 3 4 5 6 
#
# 1 0.026331 0.007526 -0.007474 0.000000 0.011240 0.000000
# 2 0.007526 0.038665 -0.011097 0.000000 0.018847 0.000000
# 3 -0.007474 -0.011097 0.011630 0.000000 -0.006489 0.000000
# 4 0.000000 0.000000 0.000000 0.017858 0.000000 0.008433
# 5 0.011240 0.018847 -0.006489 0.000000 0.032111 0.000000
# 6 0.000000 0.000000 0.000000 0.008433 0.000000 0.037686
#
#
# Mechanical properties :
#
#
# Convention : Reuss Voigt Hill
#
# Bulk Modulus (GPa) = 18.33609 41.94339 30.13974
# Shear Modulus (GPa) = 24.44392 38.97404 31.70898
#
# Velocity S-wave (km/s) = 3.23941 4.09042 3.68953
# Velocity P-wave (km/s) = 4.67583 6.34941 5.57577
#
# Compressibility (1/GPa) = 0.05453725
#
# Stress axis : x y z
#
# Youngs Moduli (GPa) = 37.97751 25.86287 85.98528
#
# Poissons Ratio (x) = -0.19463 0.64264
# Poissons Ratio (y) = -0.28580 0.95414
# Poissons Ratio (z) = 0.28384 0.28699
#
# Static dielectric constant tensor:
#      x y z
#    x 1.919700 0.000000 -0.022540 
#    y 0.000000 1.867050 0.000000 
#    z -0.022540 0.000000 1.880150 
# 
# From -- ./inp_files/5725.got.cif
#   From: 2010.05.17/outbox.cif.g08.bks.cpg/sg9_3_cif.got.tgz:5725.got - 2010.06.03 20:04:27.
