data_PCOD9138001
_publ_section_title
;
Structure prediction by ZEFSAII (Michael W. Deem and Ramdas Pophale) SiO2 
 PCOD9138001
Probable space group: C C
;
_chemical_formula_sum "Si O2"
_cell_formula_units_Z 28
_cell_length_a 5.142655
_cell_length_b 21.943547
_cell_length_c 10.348863
_cell_angle_alpha 90.000000
_cell_angle_beta 85.140672
_cell_angle_gamma 90.000000
_cell_volume 1163.651815
_symmetry_space_group_name_H-M "C C"
_symmetry_group_IT_number 9
_symmetry_cell_setting 'monoclinic'
loop_
_space_group_symop_operation_xyz
x,y,z
x,-y,1/2+z
1/2+x,1/2+y,z
1/2+x,1/2-y,1/2+z
loop_
_atom_site_type_symbol
_atom_site_label
_atom_site_fract_x
_atom_site_fract_y
_atom_site_fract_z
Si Si1 0.129440 0.648568 0.949180
Si Si2 0.228429 0.602033 0.222343
Si Si3 0.609382 0.628739 0.525884
Si Si4 0.701018 0.538497 0.323599
Si Si5 0.653094 0.604758 0.804369
Si Si6 0.961240 0.284995 0.841678
Si Si7 0.810853 0.242039 0.560219
O O1 0.376495 0.635096 0.849321
O O2 0.869516 0.624319 0.895088
O O3 0.179949 0.609417 0.074170
O O4 0.050994 0.717416 0.993421
O O5 0.514388 0.576609 0.236336
O O6 0.192631 0.670692 0.278623
O O7 0.003141 0.557837 0.290480
O O8 0.598760 0.561478 0.468056
O O9 0.737482 0.627515 0.659917
O O10 0.352447 0.669322 0.553311
O O11 0.769822 0.666790 0.415289
O O12 0.645349 0.468048 0.305473
O O13 0.823585 0.259061 0.714495
O O14 0.087505 0.247742 0.958896
#
# Coordination Sequence:
#
# PCOD9138001 Si02
#       7
#     4   4   4   4   4   4   4
#     4  11  27  45  73 109 147 193 246 307 383 444
#     4  10  22  46  72 103 144 193 246 296 375 447
#     4  11  27  44  76 105 146 195 253 300 383 444
#     4  11  24  47  73 104 144 197 241 315 367 448
#     4  12  28  47  72 111 149 193 253 314 370 454
#     4  10  24  45  72 108 149 192 246 307 376 451
#     4  11  24  46  76 106 151 195 245 317 372 460
#
# _framework density 24.062177999999999
#
# number of rings (size 3 to 8) (size 9 to 14) (size 15 to 20)
#    0.000    1.143    1.429    2.571   10.000    1.143 
#    0.000    0.000    0.000    0.000    0.000    0.000 
#    0.000    0.000    0.000    0.000    0.000    0.000 
#
# Total GULP energy -78184.556948 kJ/mol
# GULP energy per Si atom -5584.611211 kJ/mol
# Density = 2.400741 g / cm^3
# Si number density = 24.062178 Si / 1000 Ang^3
#
#
#
# Elastic Constant Matrix: (Units=GPa)
#
#
# Indices 1 2 3 4 5 6 
#
# 1 93.0488 9.6298 17.9367 0.0000 7.1238 0.0000
# 2 9.6298 57.3767 17.9197 0.0000 -8.1645 0.0000
# 3 17.9367 17.9197 143.7408 0.0000 6.7384 0.0000
# 4 0.0000 0.0000 0.0000 11.3550 0.0000 8.9431
# 5 7.1238 -8.1645 6.7384 0.0000 32.6621 0.0000
# 6 0.0000 0.0000 0.0000 8.9431 0.0000 20.8123
#
#
#
# Elastic Compliance Matrix: (Units=1/GPa)
#
#
# Indices 1 2 3 4 5 6 
#
# 1 0.011363 -0.001974 -0.001043 0.000000 -0.002757 0.000000
# 2 -0.001974 0.019341 -0.002435 0.000000 0.005768 0.000000
# 3 -0.001043 -0.002435 0.007481 0.000000 -0.001925 0.000000
# 4 0.000000 0.000000 0.000000 0.133118 0.000000 -0.057201
# 5 -0.002757 0.005768 -0.001925 0.000000 0.033057 0.000000
# 6 0.000000 0.000000 0.000000 -0.057201 0.000000 0.072628
#
#
# Mechanical properties :
#
#
# Convention : Reuss Voigt Hill
#
# Bulk Modulus (GPa) = 36.65422 42.79318 39.72370
# Shear Modulus (GPa) = 16.83581 29.54455 23.19018
#
# Velocity S-wave (km/s) = 2.64801 3.50786 3.10782
# Velocity P-wave (km/s) = 4.96140 5.85062 5.42426
#
# Compressibility (1/GPa) = 0.02728199
#
# Stress axis : x y z
#
# Youngs Moduli (GPa) = 88.00210 51.70304 133.67366
#
# Poissons Ratio (x) = 0.10205 0.13938
# Poissons Ratio (y) = 0.17370 0.32553
# Poissons Ratio (z) = 0.09176 0.12591
#
# Static dielectric constant tensor:
#      x y z
#    x 1.939590 0.000000 -0.025590 
#    y 0.000000 2.047980 0.000000 
#    z -0.025590 0.000000 1.938370 
# 
# From -- ./inp_files/3984.got.cif
#   From: 2010.05.17/outbox.cif.g08.bks.cpg/sg9_2_cif.got.tgz:3984.got - 2010.06.03 20:04:27.
