data_PCOD9138999
_publ_section_title
;
Structure prediction by ZEFSAII (Michael W. Deem and Ramdas Pophale) SiO2 
 PCOD9138999
Probable space group: C C
;
_chemical_formula_sum "Si O2"
_cell_formula_units_Z 32
_cell_length_a 5.190440
_cell_length_b 23.425650
_cell_length_c 12.112785
_cell_angle_alpha 90.000000
_cell_angle_beta 76.959301
_cell_angle_gamma 90.000000
_cell_volume 1434.803509
_symmetry_space_group_name_H-M "C C"
_symmetry_group_IT_number 9
_symmetry_cell_setting 'monoclinic'
loop_
_space_group_symop_operation_xyz
x,y,z
x,-y,1/2+z
1/2+x,1/2+y,z
1/2+x,1/2-y,1/2+z
loop_
_atom_site_type_symbol
_atom_site_label
_atom_site_fract_x
_atom_site_fract_y
_atom_site_fract_z
Si Si1 0.437110 0.490762 0.332820
Si Si2 0.751005 0.586771 0.404536
Si Si3 0.943893 0.312634 0.401398
Si Si4 0.766264 0.857781 0.170816
Si Si5 0.807350 0.424090 0.143390
Si Si6 0.352783 0.320276 0.926591
Si Si7 0.202905 0.405051 0.739010
Si Si8 0.884024 0.122326 0.980397
O O1 0.547141 0.535136 0.412502
O O2 0.659523 0.473847 0.222201
O O3 0.245328 0.531952 0.284318
O O4 0.349808 0.433221 0.404339
O O5 0.887095 0.570275 0.507305
O O6 0.628311 0.649262 0.430692
O O7 0.886445 0.594449 0.271816
O O8 0.866218 0.246628 0.409507
O O9 0.673244 0.349994 0.429259
O O10 0.133508 0.320441 0.277420
O O11 0.142486 0.334275 0.478047
O O12 0.574334 0.912439 0.184527
O O13 0.069001 0.875888 0.165418
O O14 0.707099 0.830668 0.056901
O O15 0.262855 0.357066 0.828283
O O16 0.349839 0.394770 0.611480
#
# Coordination Sequence:
#
# PCOD9138999 Si02
#       8
#     4   4   4   4   4   4   4   4
#     4  11  24  44  69 104 139 192 231 295 356 429
#     4  10  24  43  70 100 139 187 233 292 347 430
#     4  12  27  48  74 105 146 190 233 307 350 430
#     4  11  22  45  71  98 135 183 233 288 341 425
#     4  11  22  43  67  99 136 171 240 279 339 421
#     4  10  26  46  72 106 139 191 244 283 370 417
#     4  11  26  46  72 104 149 190 236 302 357 433
#     4  12  29  47  71 112 145 186 244 296 366 421
#
# _framework density 22.302707000000002
#
# number of rings (size 3 to 8) (size 9 to 14) (size 15 to 20)
#    0.000    1.000    3.750    0.750   10.500    1.000 
#    0.000    0.000    0.000    0.000    0.000    0.000 
#    0.000    0.000    0.000    0.000    0.000    0.000 
#
# Total GULP energy -89117.607326 kJ/mol
# GULP energy per Si atom -5569.850458 kJ/mol
# Density = 2.225194 g / cm^3
# Si number density = 22.302707 Si / 1000 Ang^3
#
#
#
# Elastic Constant Matrix: (Units=GPa)
#
#
# Indices 1 2 3 4 5 6 
#
# 1 46.0891 18.5016 17.9103 0.0000 0.3257 0.0000
# 2 18.5016 127.9266 44.1563 0.0000 -2.9364 0.0000
# 3 17.9103 44.1563 147.6225 0.0000 -8.4576 0.0000
# 4 0.0000 0.0000 0.0000 11.6820 0.0000 -12.4422
# 5 0.3257 -2.9364 -8.4576 0.0000 32.8233 0.0000
# 6 0.0000 0.0000 0.0000 -12.4422 0.0000 9.6340
#
#
#
# Elastic Compliance Matrix: (Units=1/GPa)
#
#
# Indices 1 2 3 4 5 6 
#
# 1 0.023613 -0.002709 -0.002113 0.000000 -0.001021 0.000000
# 2 -0.002709 0.009028 -0.002359 0.000000 0.000227 0.000000
# 3 -0.002113 -0.002359 0.007841 0.000000 0.001830 0.000000
# 4 0.000000 0.000000 0.000000 -0.227958 0.000000 -0.294403
# 5 -0.001021 0.000227 0.001830 0.000000 0.030968 0.000000
# 6 0.000000 0.000000 0.000000 -0.294403 0.000000 -0.276417
#
#
# Mechanical properties :
#
#
# Convention : Reuss Voigt Hill
#
# Bulk Modulus (GPa) = 38.28476 53.64164 45.96320
# Shear Modulus (GPa) = -12.19941 26.89920 7.34989
#
# Velocity S-wave (km/s) = -2.34132 3.47666 1.81732
# Velocity P-wave (km/s) = 3.14550 6.34193 5.00571
#
# Compressibility (1/GPa) = 0.02612006
#
# Stress axis : x y z
#
# Youngs Moduli (GPa) = 42.34961 110.76417 127.53782
#
# Poissons Ratio (x) = 0.30008 0.26949
# Poissons Ratio (y) = 0.11473 0.30084
# Poissons Ratio (z) = 0.08948 0.26127
#
# Static dielectric constant tensor:
#      x y z
#    x 1.939520 0.000000 -0.010640 
#    y 0.000000 1.825680 0.000000 
#    z -0.010640 0.000000 1.864310 
# 
# From -- ./inp_files/13356.got.cif
#   From: 2010.05.17/outbox.cif.g08.bks.cpg/sg9_7_cif.got.tgz:13356.got - 2010.06.03 20:04:27.
