data_PCOD9138625
_publ_section_title
;
Structure prediction by ZEFSAII (Michael W. Deem and Ramdas Pophale) SiO2 
 PCOD9138625
Probable space group: C C
;
_chemical_formula_sum "Si O2"
_cell_formula_units_Z 32
_cell_length_a 5.524910
_cell_length_b 21.846057
_cell_length_c 10.286785
_cell_angle_alpha 90.000000
_cell_angle_beta 79.499484
_cell_angle_gamma 90.000000
_cell_volume 1220.796656
_symmetry_space_group_name_H-M "C C"
_symmetry_group_IT_number 9
_symmetry_cell_setting 'monoclinic'
loop_
_space_group_symop_operation_xyz
x,y,z
x,-y,1/2+z
1/2+x,1/2+y,z
1/2+x,1/2-y,1/2+z
loop_
_atom_site_type_symbol
_atom_site_label
_atom_site_fract_x
_atom_site_fract_y
_atom_site_fract_z
Si Si1 0.850840 0.467226 0.987230
Si Si2 0.400370 0.162668 0.502330
Si Si3 0.172315 0.284720 0.195650
Si Si4 0.083012 0.716589 0.030795
Si Si5 0.349713 0.678442 0.272021
Si Si6 0.345370 0.377196 0.347180
Si Si7 0.028887 0.080954 0.093163
Si Si8 0.132101 0.510828 0.710705
O O1 0.744185 0.398637 0.991963
O O2 0.930623 0.490292 0.837383
O O3 0.695140 0.521560 0.065404
O O4 0.060142 0.461235 0.078077
O O5 0.490779 0.169082 0.641499
O O6 0.266917 0.226394 0.482167
O O7 0.652860 0.156776 0.395636
O O8 0.310857 0.241881 0.078891
O O9 0.392791 0.322797 0.240948
O O10 0.996503 0.239849 0.293346
O O11 0.189883 0.693652 0.159338
O O12 0.109070 0.656601 0.937441
O O13 0.555547 0.629535 0.205461
O O14 0.521142 0.388789 0.451280
O O15 0.291057 0.439595 0.276954
O O16 0.767278 0.051115 0.155736
#
# Coordination Sequence:
#
# PCOD9138625 Si02
#       8
#     4   4   4   4   4   4   4   4
#     4  12  28  47  77 107 145 203 250 311 383 446
#     4  11  23  45  68 104 145 185 250 302 366 453
#     4  11  23  42  73 103 141 193 241 306 376 441
#     4  10  24  42  69 104 140 190 241 304 373 444
#     4  10  23  45  69 103 147 186 246 304 372 451
#     4  11  24  47  69 102 150 185 248 313 374 446
#     4  11  27  47  73 108 149 197 250 316 375 454
#     4  12  26  49  72 107 149 193 256 310 377 451
#
# _framework density 26.212391
#
# number of rings (size 3 to 8) (size 9 to 14) (size 15 to 20)
#    0.000    1.000    3.750    1.500    5.250    0.000 
#    6.750    0.000    0.000    0.000    0.000    0.000 
#    0.000    0.000    0.000    0.000    0.000    0.000 
#
# Total GULP energy -89457.587599 kJ/mol
# GULP energy per Si atom -5591.099225 kJ/mol
# Density = 2.615273 g / cm^3
# Si number density = 26.212391 Si / 1000 Ang^3
#
#
#
# Elastic Constant Matrix: (Units=GPa)
#
#
# Indices 1 2 3 4 5 6 
#
# 1 37.4659 16.3804 9.0692 0.0000 -0.2733 0.0000
# 2 16.3804 148.9069 27.7887 0.0000 -1.0557 0.0000
# 3 9.0692 27.7887 101.6628 0.0000 7.8983 0.0000
# 4 0.0000 0.0000 0.0000 44.5145 0.0000 -2.9803
# 5 -0.2733 -1.0557 7.8983 0.0000 38.9560 0.0000
# 6 0.0000 0.0000 0.0000 -2.9803 0.0000 43.4992
#
#
#
# Elastic Compliance Matrix: (Units=1/GPa)
#
#
# Indices 1 2 3 4 5 6 
#
# 1 0.028346 -0.002777 -0.001808 0.000000 0.000490 0.000000
# 2 -0.002777 0.007362 -0.001807 0.000000 0.000546 0.000000
# 3 -0.001808 -0.001807 0.010664 0.000000 -0.002224 0.000000
# 4 0.000000 0.000000 0.000000 0.022568 0.000000 0.001546
# 5 0.000490 0.000546 -0.002224 0.000000 0.026139 0.000000
# 6 0.000000 0.000000 0.000000 0.001546 0.000000 0.023095
#
#
# Mechanical properties :
#
#
# Convention : Reuss Voigt Hill
#
# Bulk Modulus (GPa) = 29.77185 43.83469 36.80327
# Shear Modulus (GPa) = 35.17269 41.04708 38.10988
#
# Velocity S-wave (km/s) = 3.66708 3.96149 3.81713
# Velocity P-wave (km/s) = 5.41411 6.13871 5.78776
#
# Compressibility (1/GPa) = 0.03358878
#
# Stress axis : x y z
#
# Youngs Moduli (GPa) = 35.27785 135.82822 93.76967
#
# Poissons Ratio (x) = 0.37725 0.16950
# Poissons Ratio (y) = 0.09798 0.16945
# Poissons Ratio (z) = 0.06377 0.24545
#
# Static dielectric constant tensor:
#      x y z
#    x 2.063090 0.000000 0.016370 
#    y 0.000000 2.091660 0.000000 
#    z 0.016370 0.000000 2.150100 
# 
# From -- ./inp_files/13725.got.cif
#   From: 2010.05.17/outbox.cif.g08.bks.cpg/sg9_7_cif.got.tgz:13725.got - 2010.06.03 20:04:27.
