data_PCOD9138107
_publ_section_title
;
Structure prediction by ZEFSAII (Michael W. Deem and Ramdas Pophale) SiO2 
 PCOD9138107
Probable space group: C C
;
_chemical_formula_sum "Si O2"
_cell_formula_units_Z 28
_cell_length_a 12.043626
_cell_length_b 8.803809
_cell_length_c 13.501813
_cell_angle_alpha 90.000000
_cell_angle_beta 48.264783
_cell_angle_gamma 90.000000
_cell_volume 1068.297407
_symmetry_space_group_name_H-M "C C"
_symmetry_group_IT_number 9
_symmetry_cell_setting 'monoclinic'
loop_
_space_group_symop_operation_xyz
x,y,z
x,-y,1/2+z
1/2+x,1/2+y,z
1/2+x,1/2-y,1/2+z
loop_
_atom_site_type_symbol
_atom_site_label
_atom_site_fract_x
_atom_site_fract_y
_atom_site_fract_z
Si Si1 0.684160 0.997862 0.481160
Si Si2 0.437981 0.662322 0.932066
Si Si3 0.348404 0.967542 0.883488
Si Si4 0.177762 0.934340 0.794695
Si Si5 0.044356 0.827218 0.060085
Si Si6 0.050154 0.267540 0.212652
Si Si7 0.325035 0.426513 0.715194
O O1 0.636795 0.124743 0.585631
O O2 0.679455 0.057398 0.370921
O O3 0.851870 0.950388 0.409248
O O4 0.596159 0.841211 0.552370
O O5 0.426660 0.826208 0.889526
O O6 0.606707 0.602148 0.833176
O O7 0.350926 0.639028 0.088720
O O8 0.320913 0.946258 0.780406
O O9 0.444664 0.118108 0.839307
O O10 0.175612 0.943088 0.019975
O O11 0.166360 0.839438 0.701970
O O12 0.060948 0.843985 0.932791
O O13 0.887356 0.899876 0.177258
O O14 0.935043 0.174059 0.215256
#
# Coordination Sequence:
#
# PCOD9138107 Si02
#       7
#     4   4   4   4   4   4   4
#     4  11  25  42  71 107 144 197 242 302 378 445
#     4  10  22  49  74 102 148 196 243 315 368 439
#     4   9  23  48  72 113 138 193 250 298 381 440
#     4   9  21  46  73 102 141 192 239 311 365 435
#     4   8  22  44  70  95 144 191 239 303 358 434
#     4  12  26  43  72 112 150 188 249 312 371 451
#     4  11  25  46  72 107 151 191 252 309 371 446
#
# _framework density 26.209931000000001
#
# number of rings (size 3 to 8) (size 9 to 14) (size 15 to 20)
#    0.857    1.143    1.429    0.000    8.000    1.143 
#   10.286    0.000    0.000    0.000    0.000    0.000 
#    0.000    0.000    0.000    0.000    0.000    0.000 
#
# Total GULP energy -78187.626472 kJ/mol
# GULP energy per Si atom -5584.830462 kJ/mol
# Density = 2.615028 g / cm^3
# Si number density = 26.209931 Si / 1000 Ang^3
#
#
#
# Elastic Constant Matrix: (Units=GPa)
#
#
# Indices 1 2 3 4 5 6 
#
# 1 99.9495 51.5156 17.3566 0.0000 25.0006 0.0000
# 2 51.5156 101.3025 25.0781 0.0000 29.2116 0.0000
# 3 17.3566 25.0781 77.6809 0.0000 19.7705 0.0000
# 4 0.0000 0.0000 0.0000 36.7287 0.0000 14.9001
# 5 25.0006 29.2116 19.7705 0.0000 34.3326 0.0000
# 6 0.0000 0.0000 0.0000 14.9001 0.0000 43.5417
#
#
#
# Elastic Compliance Matrix: (Units=1/GPa)
#
#
# Indices 1 2 3 4 5 6 
#
# 1 0.014331 -0.005677 0.000067 0.000000 -0.005644 0.000000
# 2 -0.005677 0.015508 -0.001678 0.000000 -0.008095 0.000000
# 3 0.000067 -0.001678 0.015290 0.000000 -0.007426 0.000000
# 4 0.000000 0.000000 0.000000 0.031616 0.000000 -0.010819
# 5 -0.005644 -0.008095 -0.007426 0.000000 0.044401 0.000000
# 6 0.000000 0.000000 0.000000 -0.010819 0.000000 0.026669
#
#
# Mechanical properties :
#
#
# Convention : Reuss Voigt Hill
#
# Bulk Modulus (GPa) = 32.72939 51.87040 42.29989
# Shear Modulus (GPa) = 28.97314 35.25278 32.11296
#
# Velocity S-wave (km/s) = 3.32840 3.67142 3.50411
# Velocity P-wave (km/s) = 5.22355 6.14864 5.70488
#
# Compressibility (1/GPa) = 0.03055358
#
# Stress axis : x y z
#
# Youngs Moduli (GPa) = 69.77793 64.48343 65.40298
#
# Poissons Ratio (x) = 0.36607 -0.00439
# Poissons Ratio (y) = 0.39612 0.10974
# Poissons Ratio (z) = -0.00468 0.10820
#
# Static dielectric constant tensor:
#      x y z
#    x 2.092600 0.000000 -0.044210 
#    y 0.000000 2.083890 0.000000 
#    z -0.044210 0.000000 2.184860 
# 
# From -- ./inp_files/26713.got.cif
#   From: 2010.05.17/outbox.cif.g08.bks.cpg/sg9_14_cif.got.tgz:26713.got - 2010.06.03 20:04:27.
