data_PCOD9138473
_publ_section_title
;
Structure prediction by ZEFSAII (Michael W. Deem and Ramdas Pophale) SiO2 
 PCOD9138473
Probable space group: C C
;
_chemical_formula_sum "Si O2"
_cell_formula_units_Z 32
_cell_length_a 10.929846
_cell_length_b 17.214619
_cell_length_c 8.030484
_cell_angle_alpha 90.000000
_cell_angle_beta 122.688494
_cell_angle_gamma 90.000000
_cell_volume 1271.653649
_symmetry_space_group_name_H-M "C C"
_symmetry_group_IT_number 9
_symmetry_cell_setting 'monoclinic'
loop_
_space_group_symop_operation_xyz
x,y,z
x,-y,1/2+z
1/2+x,1/2+y,z
1/2+x,1/2-y,1/2+z
loop_
_atom_site_type_symbol
_atom_site_label
_atom_site_fract_x
_atom_site_fract_y
_atom_site_fract_z
Si Si1 0.852890 0.180594 0.095140
Si Si2 0.976726 0.910954 0.162949
Si Si3 0.430585 0.913046 0.429645
Si Si4 0.846719 0.407553 0.854546
Si Si5 0.195976 0.360433 0.833107
Si Si6 0.702736 0.312265 0.448986
Si Si7 0.060744 0.671745 0.717523
Si Si8 0.077573 0.930676 0.863081
O O1 0.770882 0.167240 0.211618
O O2 0.963451 0.252254 0.177450
O O3 0.957657 0.106838 0.153148
O O4 0.729704 0.189209 0.865453
O O5 0.038375 0.910172 0.021163
O O6 0.805176 0.917287 0.011628
O O7 0.034658 0.833881 0.292824
O O8 0.056035 0.978537 0.321232
O O9 0.546625 0.901754 0.667078
O O10 0.303563 0.851401 0.379306
O O11 0.518456 0.888149 0.331972
O O12 0.370036 0.999752 0.355012
O O13 0.000478 0.368633 0.008364
O O14 0.735941 0.402204 0.929139
O O15 0.765614 0.357706 0.654287
O O16 0.201853 0.279925 0.938792
#
# Coordination Sequence:
#
# PCOD9138473 Si02
#       8
#     4   4   4   4   4   4   4   4
#     4  10  23  43  75  99 130 187 234 284 350 431
#     4  11  24  44  73  99 135 181 234 291 349 427
#     4  11  23  43  73  99 138 188 235 280 357 434
#     4  12  26  43  69 107 145 183 231 299 355 422
#     4  10  24  44  73 101 137 183 236 286 353 434
#     4  12  23  44  70 105 138 186 234 289 353 425
#     4  11  23  45  71 100 137 180 232 288 351 430
#     4  11  24  44  70 104 134 184 236 287 352 421
#
# _framework density 25.164083000000002
#
# number of rings (size 3 to 8) (size 9 to 14) (size 15 to 20)
#    0.000    1.000    2.500    3.750    7.000    0.000 
#   13.500    0.000    0.000    0.000    0.000    0.000 
#    0.000    0.000    0.000    0.000    0.000    0.000 
#
# Total GULP energy -89583.401723 kJ/mol
# GULP energy per Si atom -5598.962608 kJ/mol
# Density = 2.510681 g / cm^3
# Si number density = 25.164083 Si / 1000 Ang^3
#
#
#
# Elastic Constant Matrix: (Units=GPa)
#
#
# Indices 1 2 3 4 5 6 
#
# 1 50.1394 17.6956 19.8820 0.0000 9.3722 0.0000
# 2 17.6956 76.5635 14.1620 0.0000 -3.1268 0.0000
# 3 19.8820 14.1620 163.0959 0.0000 21.8942 0.0000
# 4 0.0000 0.0000 0.0000 35.2023 0.0000 16.6952
# 5 9.3722 -3.1268 21.8942 0.0000 44.5978 0.0000
# 6 0.0000 0.0000 0.0000 16.6952 0.0000 15.5816
#
#
#
# Elastic Compliance Matrix: (Units=1/GPa)
#
#
# Indices 1 2 3 4 5 6 
#
# 1 0.023326 -0.005237 -0.001800 0.000000 -0.004386 0.000000
# 2 -0.005237 0.014558 -0.000975 0.000000 0.002600 0.000000
# 3 -0.001800 -0.000975 0.006845 0.000000 -0.003050 0.000000
# 4 0.000000 0.000000 0.000000 0.057757 0.000000 -0.061885
# 5 -0.004386 0.002600 -0.003050 0.000000 0.025024 0.000000
# 6 0.000000 0.000000 0.000000 -0.061885 0.000000 0.130486
#
#
# Mechanical properties :
#
#
# Convention : Reuss Voigt Hill
#
# Bulk Modulus (GPa) = 34.83710 43.69755 39.26732
# Shear Modulus (GPa) = 17.63119 34.94696 26.28907
#
# Velocity S-wave (km/s) = 2.64985 3.73065 3.23570
# Velocity P-wave (km/s) = 4.82040 5.99665 5.44041
#
# Compressibility (1/GPa) = 0.02870503
#
# Stress axis : x y z
#
# Youngs Moduli (GPa) = 42.86989 68.69078 146.09377
#
# Poissons Ratio (x) = 0.35976 0.26298
# Poissons Ratio (y) = 0.22453 0.14239
# Poissons Ratio (z) = 0.07717 0.06695
#
# Static dielectric constant tensor:
#      x y z
#    x 2.011160 0.000000 -0.037840 
#    y 0.000000 1.949600 0.000000 
#    z -0.037840 0.000000 2.010000 
# 
# From -- ./inp_files/18494.got.cif
#   From: 2010.05.17/outbox.cif.g08.bks.cpg/sg9_10_cif.got.tgz:18494.got - 2010.06.03 20:04:27.
