data_PCOD9138944
_publ_section_title
;
Structure prediction by ZEFSAII (Michael W. Deem and Ramdas Pophale) SiO2 
 PCOD9138944
Probable space group: C C
;
_chemical_formula_sum "Si O2"
_cell_formula_units_Z 24
_cell_length_a 7.385179
_cell_length_b 11.399013
_cell_length_c 13.026098
_cell_angle_alpha 90.000000
_cell_angle_beta 95.079515
_cell_angle_gamma 90.000000
_cell_volume 1092.279267
_symmetry_space_group_name_H-M "C C"
_symmetry_group_IT_number 9
_symmetry_cell_setting 'monoclinic'
loop_
_space_group_symop_operation_xyz
x,y,z
x,-y,1/2+z
1/2+x,1/2+y,z
1/2+x,1/2-y,1/2+z
loop_
_atom_site_type_symbol
_atom_site_label
_atom_site_fract_x
_atom_site_fract_y
_atom_site_fract_z
Si Si1 0.207330 0.457626 0.130160
Si Si2 0.003354 0.402916 0.793679
Si Si3 0.829515 0.614597 0.861871
Si Si4 0.051200 0.181392 0.674051
Si Si5 0.089529 0.740307 0.479707
Si Si6 0.680736 0.184899 0.984471
O O1 0.416239 0.427748 0.164118
O O2 0.191232 0.560996 0.045557
O O3 0.105283 0.507131 0.224137
O O4 0.124524 0.336341 0.082031
O O5 0.851428 0.475962 0.845773
O O6 0.948875 0.292637 0.721060
O O7 0.130236 0.349562 0.888416
O O8 0.722202 0.658391 0.756389
O O9 0.718348 0.650482 0.958775
O O10 0.028550 0.669747 0.889836
O O11 0.113044 0.220317 0.564653
O O12 0.881839 0.780671 0.459626
#
# Coordination Sequence:
#
# PCOD9138944 Si02
#       6
#     4   4   4   4   4   4
#     4  11  23  46  70  98 138 176 229 285 335 407
#     4  10  24  42  65  99 137 172 226 280 329 410
#     4  11  23  44  68 100 134 181 226 273 343 401
#     4  10  24  44  67 102 135 178 227 283 342 400
#     4  11  24  43  70 100 136 182 222 281 339 397
#     4  11  24  45  68  99 138 177 230 282 332 407
#
# _framework density 21.972401000000001
#
# number of rings (size 3 to 8) (size 9 to 14) (size 15 to 20)
#    0.000    1.333    3.333    1.000    4.667    2.667 
#    9.000    0.000    0.000    0.000    0.000    0.000 
#    0.000    0.000    0.000    0.000    0.000    0.000 
#
# Total GULP energy -67016.328826 kJ/mol
# GULP energy per Si atom -5584.694069 kJ/mol
# Density = 2.192239 g / cm^3
# Si number density = 21.972401 Si / 1000 Ang^3
#
#
#
# Elastic Constant Matrix: (Units=GPa)
#
#
# Indices 1 2 3 4 5 6 
#
# 1 98.8818 33.5999 34.5822 0.0000 20.0610 0.0000
# 2 33.5999 64.2043 10.6413 0.0000 0.5888 0.0000
# 3 34.5822 10.6413 63.6837 0.0000 22.3744 0.0000
# 4 0.0000 0.0000 0.0000 23.3786 0.0000 -1.2533
# 5 20.0610 0.5888 22.3744 0.0000 40.3558 0.0000
# 6 0.0000 0.0000 0.0000 -1.2533 0.0000 34.2351
#
#
#
# Elastic Compliance Matrix: (Units=1/GPa)
#
#
# Indices 1 2 3 4 5 6 
#
# 1 0.015380 -0.007078 -0.005612 0.000000 -0.004430 0.000000
# 2 -0.007078 0.019355 -0.000655 0.000000 0.003599 0.000000
# 3 -0.005612 -0.000655 0.022201 0.000000 -0.009509 0.000000
# 4 0.000000 0.000000 0.000000 0.042858 0.000000 0.001569
# 5 -0.004430 0.003599 -0.009509 0.000000 0.032202 0.000000
# 6 0.000000 0.000000 0.000000 0.001569 0.000000 0.029267
#
#
# Mechanical properties :
#
#
# Convention : Reuss Voigt Hill
#
# Bulk Modulus (GPa) = 33.06394 42.71293 37.88843
# Shear Modulus (GPa) = 25.24806 29.45701 27.35254
#
# Velocity S-wave (km/s) = 3.39349 3.66544 3.53208
# Velocity P-wave (km/s) = 5.51679 6.11519 5.82368
#
# Compressibility (1/GPa) = 0.03024443
#
# Stress axis : x y z
#
# Youngs Moduli (GPa) = 65.02025 51.66653 45.04352
#
# Poissons Ratio (x) = 0.36569 0.25281
# Poissons Ratio (y) = 0.46020 0.02951
# Poissons Ratio (z) = 0.36492 0.03385
#
# Static dielectric constant tensor:
#      x y z
#    x 1.812650 0.000000 -0.004810 
#    y 0.000000 1.834730 0.000000 
#    z -0.004810 0.000000 1.822790 
# 
# From -- ./inp_files/21564.got.cif
#   From: 2010.05.17/outbox.cif.g08.bks.cpg/sg9_11_cif.got.tgz:21564.got - 2010.06.03 20:04:27.
