data_PCOD9138507
_publ_section_title
;
Structure prediction by ZEFSAII (Michael W. Deem and Ramdas Pophale) SiO2 
 PCOD9138507
Probable space group: C C
;
_chemical_formula_sum "Si O2"
_cell_formula_units_Z 24
_cell_length_a 9.101336
_cell_length_b 9.408840
_cell_length_c 21.086182
_cell_angle_alpha 90.000000
_cell_angle_beta 150.995591
_cell_angle_gamma 90.000000
_cell_volume 875.529323
_symmetry_space_group_name_H-M "C C"
_symmetry_group_IT_number 9
_symmetry_cell_setting 'monoclinic'
loop_
_space_group_symop_operation_xyz
x,y,z
x,-y,1/2+z
1/2+x,1/2+y,z
1/2+x,1/2-y,1/2+z
loop_
_atom_site_type_symbol
_atom_site_label
_atom_site_fract_x
_atom_site_fract_y
_atom_site_fract_z
Si Si1 0.462370 0.887695 0.420270
Si Si2 0.241268 0.143322 0.957262
Si Si3 0.139216 0.369177 0.294042
Si Si4 0.399728 0.630826 0.620947
Si Si5 0.797684 0.356672 0.957732
Si Si6 0.076570 0.887689 0.994719
O O1 0.216433 0.903953 0.272061
O O2 0.140846 0.238758 0.342471
O O3 0.751770 0.993075 0.532213
O O4 0.270939 0.984688 0.407289
O O5 0.880635 0.171989 0.829785
O O6 0.398108 0.238752 0.072523
O O7 0.268014 0.984683 0.007706
O O8 0.898449 0.736605 0.956136
O O9 0.287164 0.506934 0.382770
O O10 0.822506 0.403948 0.142928
O O11 0.158315 0.671994 0.585208
O O12 0.640494 0.263389 0.958854
#
# Coordination Sequence:
#
# PCOD9138507 Si02
#       6
#     4   4   4   4   4   4
#     4  11  25  41  70 102 141 184 233 291 356 422
#     4   9  21  43  71  93 135 186 234 288 348 415
#     4  10  23  44  68 102 138 182 240 289 351 422
#     4  10  23  44  68 102 138 182 240 289 351 422
#     4   9  21  43  71  93 135 186 234 288 348 415
#     4  11  25  41  70 102 141 184 233 291 356 422
#
# _framework density 27.411989999999999
#
# number of rings (size 3 to 8) (size 9 to 14) (size 15 to 20)
#    0.000    2.000    0.000    1.000   14.000    2.667 
#    0.000    0.000    0.000    0.000    0.000    0.000 
#    0.000    0.000    0.000    0.000    0.000    0.000 
#
# Total GULP energy -67090.461109 kJ/mol
# GULP energy per Si atom -5590.871759 kJ/mol
# Density = 2.734960 g / cm^3
# Si number density = 27.411990 Si / 1000 Ang^3
#
#
#
# Elastic Constant Matrix: (Units=GPa)
#
#
# Indices 1 2 3 4 5 6 
#
# 1 200.1820 109.2353 26.9847 0.0010 -1.9296 0.0004
# 2 109.2353 328.6622 153.1900 0.0001 -36.9541 0.0001
# 3 26.9847 153.1900 254.3062 0.0086 2.7188 0.0031
# 4 0.0010 0.0001 0.0086 37.8888 0.0012 -5.6068
# 5 -1.9296 -36.9541 2.7188 0.0012 37.6003 -0.0001
# 6 0.0004 0.0001 0.0031 -5.6068 -0.0001 45.5611
#
#
#
# Elastic Compliance Matrix: (Units=1/GPa)
#
#
# Indices 1 2 3 4 5 6 
#
# 1 0.006436 -0.002967 0.001133 0.000000 -0.002668 0.000000
# 2 -0.002967 0.006451 -0.003640 0.000001 0.006451 0.000000
# 3 0.001133 -0.003640 0.006047 -0.000001 -0.003956 -0.000001
# 4 0.000000 0.000001 -0.000001 0.026883 0.000000 0.003308
# 5 -0.002668 0.006451 -0.003956 0.000000 0.033085 0.000000
# 6 0.000000 0.000000 -0.000001 0.003308 0.000000 0.022356
#
#
# Mechanical properties :
#
#
# Convention : Reuss Voigt Hill
#
# Bulk Modulus (GPa) = 125.22624 151.33004 138.27814
# Shear Modulus (GPa) = 43.52871 57.12607 50.32739
#
# Velocity S-wave (km/s) = 3.98922 4.57002 4.28946
# Velocity P-wave (km/s) = 8.18540 9.11989 8.66525
#
# Compressibility (1/GPa) = 0.00798555
#
# Stress axis : x y z
#
# Youngs Moduli (GPa) = 155.37268 155.02211 165.37206
#
# Poissons Ratio (x) = 0.45998 -0.18736
# Poissons Ratio (y) = 0.46102 0.60194
# Poissons Ratio (z) = -0.17603 0.56427
#
# Static dielectric constant tensor:
#      x y z
#    x 2.253490 0.000000 -0.007050 
#    y 0.000000 2.148690 0.000000 
#    z -0.007050 0.000000 1.849970 
# 
# From -- ./inp_files/37418.got.cif
#   From: 2010.05.17/outbox.cif.g08.bks.cpg/sg9_19_cif.got.tgz:37418.got - 2010.06.03 20:04:27.
