data_PCOD9138895
_publ_section_title
;
Structure prediction by ZEFSAII (Michael W. Deem and Ramdas Pophale) SiO2 
 PCOD9138895
Probable space group: C C
;
_chemical_formula_sum "Si O2"
_cell_formula_units_Z 20
_cell_length_a 9.010946
_cell_length_b 5.297182
_cell_length_c 21.491829
_cell_angle_alpha 90.000000
_cell_angle_beta 55.467239
_cell_angle_gamma 90.000000
_cell_volume 845.106808
_symmetry_space_group_name_H-M "C C"
_symmetry_group_IT_number 9
_symmetry_cell_setting 'monoclinic'
loop_
_space_group_symop_operation_xyz
x,y,z
x,-y,1/2+z
1/2+x,1/2+y,z
1/2+x,1/2-y,1/2+z
loop_
_atom_site_type_symbol
_atom_site_label
_atom_site_fract_x
_atom_site_fract_y
_atom_site_fract_z
Si Si1 0.869900 0.656170 0.028920
Si Si2 0.861088 0.154106 0.986559
Si Si3 0.697013 0.977202 0.899644
Si Si4 0.363013 0.990234 0.165909
Si Si5 0.448893 0.491729 0.221957
O O1 0.934984 0.554528 0.079685
O O2 0.761899 0.420426 0.025999
O O3 0.035316 0.680684 0.940917
O O4 0.799141 0.937732 0.048879
O O5 0.071724 0.233129 0.942706
O O6 0.820701 0.058667 0.927326
O O7 0.804421 0.962763 0.810993
O O8 0.409374 0.223402 0.199570
O O9 0.147460 0.986448 0.204697
O O10 0.427626 0.724819 0.178984
#
# Coordination Sequence:
#
# PCOD9138895 Si02
#       5
#     4   4   4   4   4
#     4  10  26  42  72  96 136 177 232 281 335 413
#     4  10  24  39  72  96 130 171 232 282 333 399
#     4  10  26  42  71  97 137 175 235 274 347 398
#     4  12  28  47  71 103 144 184 233 283 357 405
#     4  12  28  46  72 102 145 185 228 290 348 419
#
# _framework density 23.665649999999999
#
# number of rings (size 3 to 8) (size 9 to 14) (size 15 to 20)
#    1.200    0.000    0.000    3.600   14.000    0.000 
#    0.000    0.000    0.000    0.000    0.000    0.000 
#    0.000    0.000    0.000    0.000    0.000    0.000 
#
# Total GULP energy -55837.786515 kJ/mol
# GULP energy per Si atom -5583.778652 kJ/mol
# Density = 2.361179 g / cm^3
# Si number density = 23.665650 Si / 1000 Ang^3
#
#
#
# Elastic Constant Matrix: (Units=GPa)
#
#
# Indices 1 2 3 4 5 6 
#
# 1 106.7520 58.3965 15.4522 0.0000 0.6775 0.0000
# 2 58.3965 166.5612 29.0121 0.0000 23.1885 0.0000
# 3 15.4522 29.0121 99.3696 0.0000 -4.2950 0.0000
# 4 0.0000 0.0000 0.0000 27.8758 0.0000 10.0673
# 5 0.6775 23.1885 -4.2950 0.0000 40.4780 0.0000
# 6 0.0000 0.0000 0.0000 10.0673 0.0000 41.7827
#
#
#
# Elastic Compliance Matrix: (Units=1/GPa)
#
#
# Indices 1 2 3 4 5 6 
#
# 1 0.011814 -0.004376 -0.000462 0.000000 0.002260 0.000000
# 2 -0.004376 0.008601 -0.002050 0.000000 -0.005072 0.000000
# 3 -0.000462 -0.002050 0.010835 0.000000 0.002332 0.000000
# 4 0.000000 0.000000 0.000000 0.039292 0.000000 -0.009467
# 5 0.002260 -0.005072 0.002332 0.000000 0.027820 0.000000
# 6 0.000000 0.000000 0.000000 -0.009467 0.000000 0.026214
#
#
# Mechanical properties :
#
#
# Convention : Reuss Voigt Hill
#
# Bulk Modulus (GPa) = 57.22802 64.26716 60.74759
# Shear Modulus (GPa) = 34.67969 40.01545 37.34757
#
# Velocity S-wave (km/s) = 3.83221 4.11648 3.97688
# Velocity P-wave (km/s) = 6.61933 7.05755 6.84195
#
# Compressibility (1/GPa) = 0.01747396
#
# Stress axis : x y z
#
# Youngs Moduli (GPa) = 84.64596 116.26244 92.29768
#
# Poissons Ratio (x) = 0.50879 0.04261
# Poissons Ratio (y) = 0.37043 0.18920
# Poissons Ratio (z) = 0.03908 0.23833
#
# Static dielectric constant tensor:
#      x y z
#    x 1.930420 0.000000 -0.062600 
#    y 0.000000 1.970700 0.000000 
#    z -0.062600 0.000000 1.897030 
# 
# From -- ./inp_files/28868.got.cif
#   From: 2010.05.17/outbox.cif.g08.bks.cpg/sg9_15_cif.got.tgz:28868.got - 2010.06.03 20:04:27.
