data_PCOD9138449
_publ_section_title
;
Structure prediction by ZEFSAII (Michael W. Deem and Ramdas Pophale) SiO2 
 PCOD9138449
Probable space group: C C
;
_chemical_formula_sum "Si O2"
_cell_formula_units_Z 32
_cell_length_a 16.301096
_cell_length_b 12.411706
_cell_length_c 9.123734
_cell_angle_alpha 90.000000
_cell_angle_beta 124.273484
_cell_angle_gamma 90.000000
_cell_volume 1525.420793
_symmetry_space_group_name_H-M "C C"
_symmetry_group_IT_number 9
_symmetry_cell_setting 'monoclinic'
loop_
_space_group_symop_operation_xyz
x,y,z
x,-y,1/2+z
1/2+x,1/2+y,z
1/2+x,1/2-y,1/2+z
loop_
_atom_site_type_symbol
_atom_site_label
_atom_site_fract_x
_atom_site_fract_y
_atom_site_fract_z
Si Si1 0.834420 0.847994 0.317830
Si Si2 0.551199 0.866349 0.676781
Si Si3 0.688506 0.284327 0.170105
Si Si4 0.636818 0.951783 0.071774
Si Si5 0.164107 0.712191 0.842805
Si Si6 0.041994 0.907961 0.652046
Si Si7 0.665791 0.477431 0.509715
Si Si8 0.836872 0.679259 0.065987
O O1 0.757032 0.941651 0.191019
O O2 0.766011 0.772074 0.353867
O O3 0.862857 0.769852 0.212835
O O4 0.927645 0.899378 0.494614
O O5 0.590578 0.749540 0.663265
O O6 0.436133 0.868861 0.598181
O O7 0.582010 0.941818 0.571260
O O8 0.602885 0.904787 0.881297
O O9 0.775631 0.267586 0.373140
O O10 0.700467 0.204225 0.044757
O O11 0.691208 0.406517 0.109619
O O12 0.613980 0.877476 0.191405
O O13 0.079082 0.801144 0.769725
O O14 0.087458 0.000924 0.799884
O O15 0.106809 0.909407 0.569892
O O16 0.762927 0.412757 0.555750
#
# Coordination Sequence:
#
# PCOD9138449 Si02
#       8
#     4   4   4   4   4   4   4   4
#     4  10  23  43  71  97 135 191 226 285 361 421
#     4  12  26  44  71 101 142 185 235 294 359 419
#     4  11  24  46  66 101 141 181 231 299 345 431
#     4  10  23  46  66 100 138 180 233 291 344 428
#     4   9  21  44  68  97 139 174 235 292 342 423
#     4  11  22  42  70  98 136 184 226 290 356 418
#     4  11  24  43  69 103 142 172 240 293 346 428
#     4  12  25  44  73 103 139 187 234 292 363 422
#
# _framework density 20.977819
#
# number of rings (size 3 to 8) (size 9 to 14) (size 15 to 20)
#    0.750    0.500    3.750    1.500    3.500    3.000 
#    6.750    0.000    0.000    0.000    0.000    0.000 
#    0.000    0.000    0.000    0.000    0.000    0.000 
#
# Total GULP energy -89080.308020 kJ/mol
# GULP energy per Si atom -5567.519251 kJ/mol
# Density = 2.093007 g / cm^3
# Si number density = 20.977819 Si / 1000 Ang^3
#
#
#
# Elastic Constant Matrix: (Units=GPa)
#
#
# Indices 1 2 3 4 5 6 
#
# 1 76.7125 16.6638 25.6734 0.0000 5.5229 0.0000
# 2 16.6638 36.2279 12.1139 0.0000 -8.5140 0.0000
# 3 25.6734 12.1139 75.7266 0.0000 -9.1584 0.0000
# 4 0.0000 0.0000 0.0000 22.7652 0.0000 -5.1276
# 5 5.5229 -8.5140 -9.1584 0.0000 37.5580 0.0000
# 6 0.0000 0.0000 0.0000 -5.1276 0.0000 32.0567
#
#
#
# Elastic Compliance Matrix: (Units=1/GPa)
#
#
# Indices 1 2 3 4 5 6 
#
# 1 0.016717 -0.007222 -0.005160 0.000000 -0.005353 0.000000
# 2 -0.007222 0.033490 -0.001919 0.000000 0.008186 0.000000
# 3 -0.005160 -0.001919 0.015766 0.000000 0.004168 0.000000
# 4 0.000000 0.000000 0.000000 0.045568 0.000000 0.007289
# 5 -0.005353 0.008186 0.004168 0.000000 0.030285 0.000000
# 6 0.000000 0.000000 0.000000 0.007289 0.000000 0.032361
#
#
# Mechanical properties :
#
#
# Convention : Reuss Voigt Hill
#
# Bulk Modulus (GPa) = 26.75821 33.06323 29.91072
# Shear Modulus (GPa) = 23.22936 27.42372 25.32654
#
# Velocity S-wave (km/s) = 3.33127 3.61954 3.47839
# Velocity P-wave (km/s) = 5.25163 5.76744 5.51557
#
# Compressibility (1/GPa) = 0.03737171
#
# Stress axis : x y z
#
# Youngs Moduli (GPa) = 59.82058 29.85927 63.42890
#
# Poissons Ratio (x) = 0.21565 0.32726
# Poissons Ratio (y) = 0.43203 0.12172
# Poissons Ratio (z) = 0.30865 0.05730
#
# Static dielectric constant tensor:
#      x y z
#    x 1.722790 0.000000 -0.029450 
#    y 0.000000 1.860260 0.000000 
#    z -0.029450 0.000000 1.795940 
# 
# From -- ./inp_files/9695.got.cif
#   From: 2010.05.17/outbox.cif.g08.bks.cpg/sg9_5_cif.got.tgz:9695.got - 2010.06.03 20:04:27.
