data_PCOD9138977
_publ_section_title
;
Structure prediction by ZEFSAII (Michael W. Deem and Ramdas Pophale) SiO2 
 PCOD9138977
Probable space group: C C
;
_chemical_formula_sum "Si O2"
_cell_formula_units_Z 32
_cell_length_a 22.639464
_cell_length_b 6.872887
_cell_length_c 15.286286
_cell_angle_alpha 90.000000
_cell_angle_beta 138.252951
_cell_angle_gamma 90.000000
_cell_volume 1583.723349
_symmetry_space_group_name_H-M "C C"
_symmetry_group_IT_number 9
_symmetry_cell_setting 'monoclinic'
loop_
_space_group_symop_operation_xyz
x,y,z
x,-y,1/2+z
1/2+x,1/2+y,z
1/2+x,1/2-y,1/2+z
loop_
_atom_site_type_symbol
_atom_site_label
_atom_site_fract_x
_atom_site_fract_y
_atom_site_fract_z
Si Si1 0.852470 0.441000 0.119620
Si Si2 0.889546 0.854335 0.953756
Si Si3 0.685204 0.711333 0.882203
Si Si4 0.490799 0.731023 0.738397
Si Si5 0.841582 0.517565 0.306373
Si Si6 0.661580 0.578832 0.201299
Si Si7 0.262938 0.391385 0.415685
Si Si8 0.470290 0.375637 0.410335
O O1 0.849123 0.416424 0.220277
O O2 0.942780 0.556603 0.194041
O O3 0.768410 0.582295 0.005974
O O4 0.832637 0.243699 0.044840
O O5 0.948939 0.864012 0.105882
O O6 0.865167 0.632128 0.909440
O O7 0.808280 0.996374 0.885024
O O8 0.935492 0.931943 0.918167
O O9 0.596112 0.716872 0.841089
O O10 0.659961 0.619448 0.758421
O O11 0.721033 0.931027 0.921721
O O12 0.465582 0.626162 0.800766
O O13 0.740974 0.573683 0.218432
O O14 0.909562 0.697293 0.377496
O O15 0.687888 0.746582 0.298690
O O16 0.571008 0.635545 0.054407
#
# Coordination Sequence:
#
# PCOD9138977 Si02
#       8
#     4   4   4   4   4   4   4   4
#     4  10  24  43  65  98 134 174 227 272 333 400
#     4  12  23  42  70  93 134 176 223 272 336 393
#     4  11  22  43  67 100 131 176 218 277 330 402
#     4  11  24  45  68  97 138 175 221 277 332 401
#     4  11  24  43  64  99 136 171 225 277 327 403
#     4  11  22  42  67 100 135 170 221 273 338 398
#     4  11  23  41  71  93 128 181 221 272 337 385
#     4  11  26  43  68 100 134 177 220 276 333 398
#
# _framework density 20.205551
#
# number of rings (size 3 to 8) (size 9 to 14) (size 15 to 20)
#    0.000    1.000    5.000    1.500    3.500    0.000 
#    2.250    1.250    0.000    0.000    0.000    0.000 
#    0.000    0.000    0.000    0.000    0.000    0.000 
#
# Total GULP energy -89307.952369 kJ/mol
# GULP energy per Si atom -5581.747023 kJ/mol
# Density = 2.015956 g / cm^3
# Si number density = 20.205551 Si / 1000 Ang^3
#
#
#
# Elastic Constant Matrix: (Units=GPa)
#
#
# Indices 1 2 3 4 5 6 
#
# 1 116.0129 35.1269 25.5287 0.0000 14.6266 0.0000
# 2 35.1269 69.4002 7.9609 0.0000 1.7864 0.0000
# 3 25.5287 7.9609 57.2299 0.0000 2.4123 0.0000
# 4 0.0000 0.0000 0.0000 17.8152 0.0000 -2.4339
# 5 14.6266 1.7864 2.4123 0.0000 41.0490 0.0000
# 6 0.0000 0.0000 0.0000 -2.4339 0.0000 27.2855
#
#
#
# Elastic Compliance Matrix: (Units=1/GPa)
#
#
# Indices 1 2 3 4 5 6 
#
# 1 0.011632 -0.005300 -0.004297 0.000000 -0.003661 0.000000
# 2 -0.005300 0.017069 -0.000059 0.000000 0.001149 0.000000
# 3 -0.004297 -0.000059 0.019382 0.000000 0.000395 0.000000
# 4 0.000000 0.000000 0.000000 0.056824 0.000000 0.005069
# 5 -0.003661 0.001149 0.000395 0.000000 0.025593 0.000000
# 6 0.000000 0.000000 0.000000 0.005069 0.000000 0.037102
#
#
# Mechanical properties :
#
#
# Convention : Reuss Voigt Hill
#
# Bulk Modulus (GPa) = 34.75731 42.20846 38.48289
# Shear Modulus (GPa) = 25.44494 28.83171 27.13833
#
# Velocity S-wave (km/s) = 3.55252 3.78156 3.66883
# Velocity P-wave (km/s) = 5.83664 6.32470 6.08556
#
# Compressibility (1/GPa) = 0.02877092
#
# Stress axis : x y z
#
# Youngs Moduli (GPa) = 85.97151 58.58556 51.59520
#
# Poissons Ratio (x) = 0.31052 0.22170
# Poissons Ratio (y) = 0.45567 0.00302
# Poissons Ratio (z) = 0.36942 0.00343
#
# Static dielectric constant tensor:
#      x y z
#    x 1.730790 0.000000 0.008690 
#    y 0.000000 1.716140 0.000000 
#    z 0.008690 0.000000 1.718290 
# 
# From -- ./inp_files/31512.got.cif
#   From: 2010.05.17/outbox.cif.g08.bks.cpg/sg9_16_cif.got.tgz:31512.got - 2010.06.03 20:04:27.
