data_PCOD9138707
_publ_section_title
;
Structure prediction by ZEFSAII (Michael W. Deem and Ramdas Pophale) SiO2 
 PCOD9138707
Probable space group: C C
;
_chemical_formula_sum "Si O2"
_cell_formula_units_Z 28
_cell_length_a 21.377996
_cell_length_b 11.837535
_cell_length_c 9.427022
_cell_angle_alpha 90.000000
_cell_angle_beta 27.663390
_cell_angle_gamma 90.000000
_cell_volume 1107.590504
_symmetry_space_group_name_H-M "C C"
_symmetry_group_IT_number 9
_symmetry_cell_setting 'monoclinic'
loop_
_space_group_symop_operation_xyz
x,y,z
x,-y,1/2+z
1/2+x,1/2+y,z
1/2+x,1/2-y,1/2+z
loop_
_atom_site_type_symbol
_atom_site_label
_atom_site_fract_x
_atom_site_fract_y
_atom_site_fract_z
Si Si1 0.087980 0.242682 0.779610
Si Si2 0.460861 0.487059 0.662624
Si Si3 0.041578 0.883939 0.757913
Si Si4 0.058568 0.539709 0.542016
Si Si5 0.685307 0.942630 0.058114
Si Si6 0.334887 0.190024 0.076096
Si Si7 0.799025 0.705863 0.809273
O O1 0.212374 0.210844 0.429330
O O2 0.041330 0.126393 0.951440
O O3 0.107589 0.346114 0.854585
O O4 0.955597 0.284801 0.959553
O O5 0.480676 0.488106 0.790432
O O6 0.520174 0.594810 0.466499
O O7 0.310746 0.478347 0.902988
O O8 0.202872 0.881199 0.422285
O O9 0.948061 0.781305 0.896093
O O10 0.058079 0.448905 0.418093
O O11 0.152191 0.493264 0.480425
O O12 0.919623 0.574074 0.895599
O O13 0.721295 0.820394 0.930138
O O14 0.295477 0.203865 0.989172
#
# Coordination Sequence:
#
# PCOD9138707 Si02
#       7
#     4   4   4   4   4   4   4
#     4  10  23  47  69  98 150 184 235 295 355 428
#     4  11  24  42  72 101 140 184 236 290 357 422
#     4  12  23  47  70 103 140 182 242 290 352 428
#     4  11  23  43  73 105 142 185 245 293 355 428
#     4  11  21  42  71 104 138 191 237 292 355 435
#     4  11  23  47  68 104 141 187 236 298 357 418
#     4  10  23  46  67  97 145 185 235 290 357 427
#
# _framework density 25.280100999999998
#
# number of rings (size 3 to 8) (size 9 to 14) (size 15 to 20)
#    0.000    1.143    5.714    1.714    4.000    0.000 
#   10.286    0.000    0.000    0.000    0.000    0.000 
#    0.000    0.000    0.000    0.000    0.000    0.000 
#
# Total GULP energy -78144.830523 kJ/mol
# GULP energy per Si atom -5581.773609 kJ/mol
# Density = 2.522256 g / cm^3
# Si number density = 25.280101 Si / 1000 Ang^3
#
#
#
# Elastic Constant Matrix: (Units=GPa)
#
#
# Indices 1 2 3 4 5 6 
#
# 1 119.0690 14.9898 63.9424 0.0000 -18.6026 0.0000
# 2 14.9898 31.3524 21.3363 0.0000 -14.1300 0.0000
# 3 63.9424 21.3363 186.1771 0.0000 -8.8006 0.0000
# 4 0.0000 0.0000 0.0000 27.4025 0.0000 -4.8618
# 5 -18.6026 -14.1300 -8.8006 0.0000 17.9380 0.0000
# 6 0.0000 0.0000 0.0000 -4.8618 0.0000 24.6665
#
#
#
# Elastic Compliance Matrix: (Units=1/GPa)
#
#
# Indices 1 2 3 4 5 6 
#
# 1 0.012134 0.002547 -0.003859 0.000000 0.012697 0.000000
# 2 0.002547 0.052943 -0.004961 0.000000 0.041911 0.000000
# 3 -0.003859 -0.004961 0.007055 0.000000 -0.004449 0.000000
# 4 0.000000 0.000000 0.000000 0.037815 0.000000 0.007453
# 5 0.012697 0.041911 -0.004449 0.000000 0.099746 0.000000
# 6 0.000000 0.000000 0.000000 0.007453 0.000000 0.042010
#
#
# Mechanical properties :
#
#
# Convention : Reuss Voigt Hill
#
# Bulk Modulus (GPa) = 16.78262 59.68172 38.23217
# Shear Modulus (GPa) = 17.59876 29.75674 23.67775
#
# Velocity S-wave (km/s) = 2.64133 3.43458 3.06374
# Velocity P-wave (km/s) = 3.99440 6.27598 5.26038
#
# Compressibility (1/GPa) = 0.05958545
#
# Stress axis : x y z
#
# Youngs Moduli (GPa) = 82.41378 18.88836 141.74569
#
# Poissons Ratio (x) = -0.04811 0.54701
# Poissons Ratio (y) = -0.20992 0.70320
# Poissons Ratio (z) = 0.31804 0.09371
#
# Static dielectric constant tensor:
#      x y z
#    x 2.003630 0.000000 -0.009130 
#    y 0.000000 2.107950 0.000000 
#    z -0.009130 0.000000 2.079460 
# 
# From -- ./inp_files/11730.got.cif
#   From: 2010.05.17/outbox.cif.g08.bks.cpg/sg9_6_cif.got.tgz:11730.got - 2010.06.03 20:04:27.
