data_PCOD9138934
_publ_section_title
;
Structure prediction by ZEFSAII (Michael W. Deem and Ramdas Pophale) SiO2 
 PCOD9138934
Probable space group: C C
;
_chemical_formula_sum "Si O2"
_cell_formula_units_Z 20
_cell_length_a 20.389804
_cell_length_b 5.366269
_cell_length_c 8.983616
_cell_angle_alpha 90.000000
_cell_angle_beta 124.532088
_cell_angle_gamma 90.000000
_cell_volume 809.772684
_symmetry_space_group_name_H-M "C C"
_symmetry_group_IT_number 9
_symmetry_cell_setting 'monoclinic'
loop_
_space_group_symop_operation_xyz
x,y,z
x,-y,1/2+z
1/2+x,1/2+y,z
1/2+x,1/2-y,1/2+z
loop_
_atom_site_type_symbol
_atom_site_label
_atom_site_fract_x
_atom_site_fract_y
_atom_site_fract_z
Si Si1 0.113320 0.245859 0.715970
Si Si2 0.905359 0.231173 0.916581
Si Si3 0.284525 0.994106 0.918357
Si Si4 0.552770 0.751359 0.300021
Si Si5 0.376813 0.785904 0.297389
O O1 0.078529 0.255296 0.504409
O O2 0.096467 0.512706 0.773851
O O3 0.076359 0.018149 0.762584
O O4 0.203924 0.145917 0.817857
O O5 0.811615 0.276336 0.835869
O O6 0.959714 0.255647 0.131380
O O7 0.930430 0.468885 0.852710
O O8 0.913571 0.981983 0.837591
O O9 0.303142 0.852717 0.095940
O O10 0.348313 0.193375 0.934833
#
# Coordination Sequence:
#
# PCOD9138934 Si02
#       5
#     4   4   4   4   4
#     4  12  28  50  74 113 152 207 242 320 377 466
#     4  10  26  42  74 106 143 190 248 308 359 448
#     4  10  26  44  75 100 150 187 254 295 375 434
#     4  12  28  47  79 107 161 193 260 302 397 439
#     4  10  24  41  74 102 138 187 246 305 354 435
#
# _framework density 24.698288999999999
#
# number of rings (size 3 to 8) (size 9 to 14) (size 15 to 20)
#    1.200    0.000    0.000    3.600   11.200    1.600 
#    0.000    0.000    0.000    0.000    0.000    0.000 
#    0.000    0.000    0.000    0.000    0.000    0.000 
#
# Total GULP energy -55698.673880 kJ/mol
# GULP energy per Si atom -5569.867388 kJ/mol
# Density = 2.464207 g / cm^3
# Si number density = 24.698289 Si / 1000 Ang^3
#
#
#
# Elastic Constant Matrix: (Units=GPa)
#
#
# Indices 1 2 3 4 5 6 
#
# 1 64.7727 27.4143 25.5912 0.0000 10.0205 0.0000
# 2 27.4143 194.5602 66.5704 0.0000 -5.8566 0.0000
# 3 25.5912 66.5704 136.7474 0.0000 -12.4326 0.0000
# 4 0.0000 0.0000 0.0000 45.0564 0.0000 -6.8625
# 5 10.0205 -5.8566 -12.4326 0.0000 41.5038 0.0000
# 6 0.0000 0.0000 0.0000 -6.8625 0.0000 45.1555
#
#
#
# Elastic Compliance Matrix: (Units=1/GPa)
#
#
# Indices 1 2 3 4 5 6 
#
# 1 0.018235 -0.001675 -0.003103 0.000000 -0.005569 0.000000
# 2 -0.001675 0.006321 -0.002720 0.000000 0.000482 0.000000
# 3 -0.003103 -0.002720 0.009510 0.000000 0.003214 0.000000
# 4 0.000000 0.000000 0.000000 0.022720 0.000000 0.003453
# 5 -0.005569 0.000482 0.003214 0.000000 0.026469 0.000000
# 6 0.000000 0.000000 0.000000 0.003453 0.000000 0.022670
#
#
# Mechanical properties :
#
#
# Convention : Reuss Voigt Hill
#
# Bulk Modulus (GPa) = 52.44060 70.58134 61.51097
# Shear Modulus (GPa) = 39.28369 44.77677 42.03023
#
# Velocity S-wave (km/s) = 3.99249 4.26249 4.12970
# Velocity P-wave (km/s) = 6.52165 7.27080 6.90639
#
# Compressibility (1/GPa) = 0.01906919
#
# Stress axis : x y z
#
# Youngs Moduli (GPa) = 54.83900 158.20402 105.15485
#
# Poissons Ratio (x) = 0.26502 0.32633
# Poissons Ratio (y) = 0.09187 0.28600
# Poissons Ratio (z) = 0.17018 0.43029
#
# Static dielectric constant tensor:
#      x y z
#    x 2.154950 0.000000 -0.077030 
#    y 0.000000 2.021570 0.000000 
#    z -0.077030 0.000000 2.057470 
# 
# From -- ./inp_files/10218.got.cif
#   From: 2010.05.17/outbox.cif.g08.bks.cpg/sg9_6_cif.got.tgz:10218.got - 2010.06.03 20:04:27.
