data_PCOD9138195
_publ_section_title
;
Structure prediction by ZEFSAII (Michael W. Deem and Ramdas Pophale) SiO2 
 PCOD9138195
Probable space group: C C
;
_chemical_formula_sum "Si O2"
_cell_formula_units_Z 32
_cell_length_a 8.408223
_cell_length_b 20.417990
_cell_length_c 10.332074
_cell_angle_alpha 90.000000
_cell_angle_beta 129.340346
_cell_angle_gamma 90.000000
_cell_volume 1371.846502
_symmetry_space_group_name_H-M "C C"
_symmetry_group_IT_number 9
_symmetry_cell_setting 'monoclinic'
loop_
_space_group_symop_operation_xyz
x,y,z
x,-y,1/2+z
1/2+x,1/2+y,z
1/2+x,1/2-y,1/2+z
loop_
_atom_site_type_symbol
_atom_site_label
_atom_site_fract_x
_atom_site_fract_y
_atom_site_fract_z
Si Si1 0.838350 0.097092 0.761510
Si Si2 0.045248 0.032436 0.426098
Si Si3 0.878513 0.659971 0.216757
Si Si4 0.974648 0.421314 0.276410
Si Si5 0.290147 0.788217 0.175279
Si Si6 0.570430 0.663204 0.298945
Si Si7 0.654585 0.046795 0.411153
Si Si8 0.108112 0.216070 0.858233
O O1 0.659621 0.082997 0.770204
O O2 0.730722 0.087015 0.570897
O O3 0.924851 0.169704 0.812211
O O4 0.019785 0.042552 0.866272
O O5 0.261390 0.051017 0.605347
O O6 0.011939 0.087830 0.298894
O O7 0.854688 0.040164 0.425558
O O8 0.700944 0.662104 0.234267
O O9 0.975987 0.588686 0.251308
O O10 0.054087 0.709283 0.357425
O O11 0.795875 0.689287 0.039875
O O12 0.942761 0.346537 0.299898
O O13 0.057911 0.478469 0.411663
O O14 0.390898 0.717424 0.204070
O O15 0.138196 0.788283 0.219305
O O16 0.199366 0.812993 0.992011
#
# Coordination Sequence:
#
# PCOD9138195 Si02
#       8
#     4   4   4   4   4   4   4   4
#     4  11  23  40  64  93 128 168 214 265 321 380
#     4  10  23  41  62  91 126 167 214 264 318 381
#     4  12  25  42  66  96 132 169 213 264 319 382
#     4  10  23  41  62  91 126 167 214 264 318 381
#     4  11  23  41  65  91 126 166 210 259 313 376
#     4  11  23  41  65  91 126 166 210 259 313 376
#     4  11  23  40  64  93 128 168 214 265 321 380
#     4  12  25  42  66  96 132 169 213 264 319 382
#
# _framework density 23.326225000000001
#
# number of rings (size 3 to 8) (size 9 to 14) (size 15 to 20)
#    0.000    1.000    0.000    7.500    0.000    9.000 
#    0.000    0.000    0.000    0.000    0.000    0.000 
#    0.000    0.000    0.000    0.000    0.000    0.000 
#
# Total GULP energy -89421.668779 kJ/mol
# GULP energy per Si atom -5588.854299 kJ/mol
# Density = 2.327313 g / cm^3
# Si number density = 23.326225 Si / 1000 Ang^3
#
#
#
# Elastic Constant Matrix: (Units=GPa)
#
#
# Indices 1 2 3 4 5 6 
#
# 1 67.8534 12.9861 2.6480 0.0000 10.4086 0.0000
# 2 12.9861 73.1900 -12.5232 0.0000 12.5752 0.0000
# 3 2.6480 -12.5232 45.6557 0.0000 7.4311 0.0000
# 4 0.0000 0.0000 0.0000 38.5989 0.0000 16.4494
# 5 10.4086 12.5752 7.4311 0.0000 27.0832 0.0000
# 6 0.0000 0.0000 0.0000 16.4494 0.0000 38.7624
#
#
#
# Elastic Compliance Matrix: (Units=1/GPa)
#
#
# Indices 1 2 3 4 5 6 
#
# 1 0.015926 -0.002092 -0.000690 0.000000 -0.004960 0.000000
# 2 -0.002092 0.016535 0.006045 0.000000 -0.008532 0.000000
# 3 -0.000690 0.006045 0.025138 0.000000 -0.009439 0.000000
# 4 0.000000 0.000000 0.000000 0.031627 0.000000 -0.013421
# 5 -0.004960 -0.008532 -0.009439 0.000000 0.045381 0.000000
# 6 0.000000 0.000000 0.000000 -0.013421 0.000000 0.031494
#
#
# Mechanical properties :
#
#
# Convention : Reuss Voigt Hill
#
# Bulk Modulus (GPa) = 15.59439 21.43565 18.51502
# Shear Modulus (GPa) = 27.63230 33.12812 30.38021
#
# Velocity S-wave (km/s) = 3.44554 3.77265 3.61280
# Velocity P-wave (km/s) = 4.74646 5.30911 5.03565
#
# Compressibility (1/GPa) = 0.06412564
#
# Stress axis : x y z
#
# Youngs Moduli (GPa) = 62.79143 60.47935 39.78088
#
# Poissons Ratio (x) = 0.12650 0.02745
# Poissons Ratio (y) = 0.13133 -0.24049
# Poissons Ratio (z) = 0.04333 -0.36562
#
# Static dielectric constant tensor:
#      x y z
#    x 1.892940 0.000000 0.029190 
#    y 0.000000 1.882820 0.000000 
#    z 0.029190 0.000000 1.907350 
# 
# From -- ./inp_files/15494.got.cif
#   From: 2010.05.17/outbox.cif.g08.bks.cpg/sg9_8_cif.got.tgz:15494.got - 2010.06.03 20:04:27.
