data_PCOD9138610
_publ_section_title
;
Structure prediction by ZEFSAII (Michael W. Deem and Ramdas Pophale) SiO2 
 PCOD9138610
Probable space group: C C
;
_chemical_formula_sum "Si O2"
_cell_formula_units_Z 32
_cell_length_a 7.031039
_cell_length_b 17.687150
_cell_length_c 12.393021
_cell_angle_alpha 90.000000
_cell_angle_beta 76.313966
_cell_angle_gamma 90.000000
_cell_volume 1497.425093
_symmetry_space_group_name_H-M "C C"
_symmetry_group_IT_number 9
_symmetry_cell_setting 'monoclinic'
loop_
_space_group_symop_operation_xyz
x,y,z
x,-y,1/2+z
1/2+x,1/2+y,z
1/2+x,1/2-y,1/2+z
loop_
_atom_site_type_symbol
_atom_site_label
_atom_site_fract_x
_atom_site_fract_y
_atom_site_fract_z
Si Si1 0.231360 0.488559 0.198090
Si Si2 0.711281 0.734153 0.192792
Si Si3 0.250319 0.579889 0.381788
Si Si4 0.676133 0.925195 0.516278
Si Si5 0.376549 0.179552 0.395868
Si Si6 0.555613 0.328450 0.486392
Si Si7 0.973739 0.360582 0.346458
Si Si8 0.971970 0.859859 0.046640
O O1 0.347951 0.541956 0.265228
O O2 0.108076 0.546834 0.141425
O O3 0.389015 0.434255 0.118370
O O4 0.074356 0.431707 0.273068
O O5 0.799821 0.690662 0.283957
O O6 0.621155 0.692476 0.100043
O O7 0.548818 0.788570 0.269788
O O8 0.880085 0.789123 0.122020
O O9 0.188285 0.505491 0.455462
O O10 0.377016 0.633475 0.440315
O O11 0.056895 0.623042 0.373971
O O12 0.890905 0.892186 0.506151
O O13 0.559825 0.867141 0.456957
O O14 0.459167 0.256729 0.438262
O O15 0.201148 0.149203 0.495547
O O16 0.742969 0.356589 0.393541
#
# Coordination Sequence:
#
# PCOD9138610 Si02
#       8
#     4   4   4   4   4   4   4   4
#     4   9  22  42  72  94 138 193 228 292 353 424
#     4  11  24  44  70 106 140 189 234 298 365 420
#     4  10  23  45  67 101 141 184 239 292 351 431
#     4  10  23  45  67 101 141 184 239 292 351 431
#     4  12  26  43  73 105 141 188 237 300 359 427
#     4  12  26  43  73 105 141 188 237 300 359 427
#     4  10  23  47  66 102 146 179 241 296 351 426
#     4  10  23  47  66 102 146 179 241 296 351 426
#
# _framework density 21.370018000000002
#
# number of rings (size 3 to 8) (size 9 to 14) (size 15 to 20)
#    0.000    1.500    2.500    0.750    3.500    5.000 
#    0.000    5.000    0.000    0.000    0.000    0.000 
#    0.000    0.000    0.000    0.000    0.000    0.000 
#
# Total GULP energy -89280.712763 kJ/mol
# GULP energy per Si atom -5580.044548 kJ/mol
# Density = 2.132138 g / cm^3
# Si number density = 21.370018 Si / 1000 Ang^3
#
#
#
# Elastic Constant Matrix: (Units=GPa)
#
#
# Indices 1 2 3 4 5 6 
#
# 1 77.6750 18.8441 18.3121 0.0000 -21.0245 0.0000
# 2 18.8441 56.7281 26.0109 0.0000 -20.1090 0.0000
# 3 18.3121 26.0109 63.9684 0.0000 0.1951 0.0000
# 4 0.0000 0.0000 0.0000 40.2572 0.0000 7.7575
# 5 -21.0245 -20.1090 0.1951 0.0000 24.9005 0.0000
# 6 0.0000 0.0000 0.0000 7.7575 0.0000 22.1245
#
#
#
# Elastic Compliance Matrix: (Units=1/GPa)
#
#
# Indices 1 2 3 4 5 6 
#
# 1 0.018692 0.003573 -0.006861 0.000000 0.018722 0.000000
# 2 0.003573 0.034259 -0.015047 0.000000 0.030802 0.000000
# 3 -0.006861 -0.015047 0.023771 0.000000 -0.018131 0.000000
# 4 0.000000 0.000000 0.000000 0.026640 0.000000 -0.009341
# 5 0.018722 0.030802 -0.018131 0.000000 0.080984 0.000000
# 6 0.000000 0.000000 0.000000 -0.009341 0.000000 0.048474
#
#
# Mechanical properties :
#
#
# Convention : Reuss Voigt Hill
#
# Bulk Modulus (GPa) = 24.96762 36.07841 30.52302
# Shear Modulus (GPa) = 17.67777 26.47009 22.07393
#
# Velocity S-wave (km/s) = 2.87927 3.52327 3.21742
# Velocity P-wave (km/s) = 4.77100 5.78538 5.30250
#
# Compressibility (1/GPa) = 0.04005188
#
# Stress axis : x y z
#
# Youngs Moduli (GPa) = 53.49786 29.18934 42.06866
#
# Poissons Ratio (x) = -0.10430 0.28864
# Poissons Ratio (y) = -0.19116 0.63302
# Poissons Ratio (z) = 0.36705 0.43922
#
# Static dielectric constant tensor:
#      x y z
#    x 1.766100 0.000000 0.107570 
#    y 0.000000 1.773140 0.000000 
#    z 0.107570 0.000000 1.957670 
# 
# From -- ./inp_files/13472.got.cif
#   From: 2010.05.17/outbox.cif.g08.bks.cpg/sg9_7_cif.got.tgz:13472.got - 2010.06.03 20:04:27.
