data_PCOD9138609
_publ_section_title
;
Structure prediction by ZEFSAII (Michael W. Deem and Ramdas Pophale) SiO2 
 PCOD9138609
Probable space group: C C
;
_chemical_formula_sum "Si O2"
_cell_formula_units_Z 32
_cell_length_a 7.384819
_cell_length_b 16.208783
_cell_length_c 11.573081
_cell_angle_alpha 90.000000
_cell_angle_beta 80.263473
_cell_angle_gamma 90.000000
_cell_volume 1365.331544
_symmetry_space_group_name_H-M "C C"
_symmetry_group_IT_number 9
_symmetry_cell_setting 'monoclinic'
loop_
_space_group_symop_operation_xyz
x,y,z
x,-y,1/2+z
1/2+x,1/2+y,z
1/2+x,1/2-y,1/2+z
loop_
_atom_site_type_symbol
_atom_site_label
_atom_site_fract_x
_atom_site_fract_y
_atom_site_fract_z
Si Si1 0.742280 0.129308 0.863570
Si Si2 0.172342 0.045987 0.586362
Si Si3 0.368903 0.125797 0.016363
Si Si4 0.147755 0.843010 0.310841
Si Si5 0.129928 0.763195 0.690330
Si Si6 0.023470 0.372370 0.015679
Si Si7 0.254911 0.509236 0.648332
Si Si8 0.249823 0.337034 0.761469
O O1 0.583874 0.118800 0.972732
O O2 0.693279 0.206440 0.787744
O O3 0.742863 0.052264 0.775848
O O4 0.946485 0.144704 0.886645
O O5 0.176252 0.084537 0.714864
O O6 0.312664 0.107462 0.504906
O O7 0.957964 0.034277 0.578708
O O8 0.266299 0.957682 0.562561
O O9 0.291745 0.151817 0.898514
O O10 0.303850 0.192109 0.116053
O O11 0.168608 0.754511 0.246050
O O12 0.044303 0.706028 0.597819
O O13 0.969081 0.823980 0.748096
O O14 0.105672 0.447184 0.083447
O O15 0.149679 0.360584 0.891192
O O16 0.228178 0.413120 0.677019
#
# Coordination Sequence:
#
# PCOD9138609 Si02
#       8
#     4   4   4   4   4   4   4   4
#     4  10  23  45  67 100 141 178 232 282 341 417
#     4  11  24  42  69 102 137 180 228 282 344 411
#     4  12  23  45  70  99 142 186 223 285 350 405
#     4  11  24  46  72 102 141 179 234 287 345 414
#     4  11  21  45  70  98 142 179 224 291 344 408
#     4  11  23  44  68  97 137 180 221 285 347 405
#     4  10  24  43  66 101 139 176 229 281 335 412
#     4  12  22  46  72  99 137 182 225 285 342 400
#
# _framework density 23.437531
#
# number of rings (size 3 to 8) (size 9 to 14) (size 15 to 20)
#    0.000    1.000    5.000    1.500    0.000    4.000 
#   11.250    0.000    0.000    0.000    0.000    0.000 
#    0.000    0.000    0.000    0.000    0.000    0.000 
#
# Total GULP energy -89558.845132 kJ/mol
# GULP energy per Si atom -5597.427821 kJ/mol
# Density = 2.338419 g / cm^3
# Si number density = 23.437531 Si / 1000 Ang^3
#
#
#
# Elastic Constant Matrix: (Units=GPa)
#
#
# Indices 1 2 3 4 5 6 
#
# 1 109.6818 10.4347 48.8203 0.0000 -41.5570 0.0000
# 2 10.4347 78.2482 22.3010 0.0000 -18.9227 0.0000
# 3 48.8203 22.3010 76.2152 0.0000 -25.8970 0.0000
# 4 0.0000 0.0000 0.0000 -30.3802 0.0000 13.1404
# 5 -41.5570 -18.9227 -25.8970 0.0000 44.9409 0.0000
# 6 0.0000 0.0000 0.0000 13.1404 0.0000 20.6261
#
#
#
# Elastic Compliance Matrix: (Units=1/GPa)
#
#
# Indices 1 2 3 4 5 6 
#
# 1 0.016905 0.002899 -0.007399 0.000000 0.012589 0.000000
# 2 0.002899 0.015168 -0.003997 0.000000 0.006764 0.000000
# 3 -0.007399 -0.003997 0.020061 0.000000 0.003035 0.000000
# 4 0.000000 0.000000 0.000000 -0.025805 0.000000 0.016440
# 5 0.012589 0.006764 0.003035 0.000000 0.038489 0.000000
# 6 0.000000 0.000000 0.000000 0.016440 0.000000 0.038009
#
#
# Mechanical properties :
#
#
# Convention : Reuss Voigt Hill
#
# Bulk Modulus (GPa) = 28.45794 47.47302 37.96548
# Shear Modulus (GPa) = 38.01304 19.20997 28.61150
#
# Velocity S-wave (km/s) = 4.03164 2.86601 3.49772
# Velocity P-wave (km/s) = 5.81726 5.59027 5.70490
#
# Compressibility (1/GPa) = 0.03513958
#
# Stress axis : x y z
#
# Youngs Moduli (GPa) = 59.15568 65.92776 49.84763
#
# Poissons Ratio (x) = -0.19111 0.36883
# Poissons Ratio (y) = -0.17148 0.19923
# Poissons Ratio (z) = 0.43770 0.26350
#
# Static dielectric constant tensor:
#      x y z
#    x 1.874580 0.000000 -0.029090 
#    y 0.000000 1.897930 0.000000 
#    z -0.029090 0.000000 1.838470 
# 
# From -- ./inp_files/14744.got.cif
#   From: 2010.05.17/outbox.cif.g08.bks.cpg/sg9_8_cif.got.tgz:14744.got - 2010.06.03 20:04:27.
