data_PCOD9138774
_publ_section_title
;
Structure prediction by ZEFSAII (Michael W. Deem and Ramdas Pophale) SiO2 
 PCOD9138774
Probable space group: C C
;
_chemical_formula_sum "Si O2"
_cell_formula_units_Z 28
_cell_length_a 7.846539
_cell_length_b 17.543047
_cell_length_c 8.502655
_cell_angle_alpha 90.000000
_cell_angle_beta 75.356399
_cell_angle_gamma 90.000000
_cell_volume 1132.390868
_symmetry_space_group_name_H-M "C C"
_symmetry_group_IT_number 9
_symmetry_cell_setting 'monoclinic'
loop_
_space_group_symop_operation_xyz
x,y,z
x,-y,1/2+z
1/2+x,1/2+y,z
1/2+x,1/2-y,1/2+z
loop_
_atom_site_type_symbol
_atom_site_label
_atom_site_fract_x
_atom_site_fract_y
_atom_site_fract_z
Si Si1 0.316420 0.778297 0.134220
Si Si2 0.663553 0.677838 0.000369
Si Si3 0.998536 0.726826 0.010269
Si Si4 0.093559 0.427960 0.546796
Si Si5 0.013826 0.588694 0.429759
Si Si6 0.977258 0.032668 0.084732
Si Si7 0.912417 0.109488 0.431008
O O1 0.275379 0.796210 0.323715
O O2 0.476115 0.719132 0.065196
O O3 0.368992 0.854657 0.030295
O O4 0.134332 0.743472 0.117496
O O5 0.797919 0.705752 0.104138
O O6 0.631329 0.587804 0.989713
O O7 0.992983 0.806994 0.921755
O O8 0.071152 0.644441 0.937241
O O9 0.005192 0.502313 0.493393
O O10 0.018300 0.412879 0.739574
O O11 0.298588 0.444179 0.534018
O O12 0.201706 0.617643 0.458183
O O13 0.964704 0.059932 0.267117
O O14 0.977204 0.942220 0.061371
#
# Coordination Sequence:
#
# PCOD9138774 Si02
#       7
#     4   4   4   4   4   4   4
#     4  12  27  48  75 111 155 198 263 324 386 465
#     4  12  27  48  75 111 155 198 263 324 386 465
#     4  12  26  46  78 108 148 208 252 322 388 454
#     4  10  23  46  76 107 150 201 253 318 383 462
#     4  10  23  48  71 108 154 196 254 314 387 461
#     4  10  23  48  71 108 154 196 254 314 387 461
#     4  10  23  46  76 107 150 201 253 318 383 462
#
# _framework density 24.726444999999998
#
# number of rings (size 3 to 8) (size 9 to 14) (size 15 to 20)
#    0.000    1.143    2.857    1.714    4.000    5.714 
#    0.000    0.000    0.000    0.000    0.000    0.000 
#    0.000    0.000    0.000    0.000    0.000    0.000 
#
# Total GULP energy -78286.836781 kJ/mol
# GULP energy per Si atom -5591.916913 kJ/mol
# Density = 2.467017 g / cm^3
# Si number density = 24.726445 Si / 1000 Ang^3
#
#
#
# Elastic Constant Matrix: (Units=GPa)
#
#
# Indices 1 2 3 4 5 6 
#
# 1 108.6850 41.0263 36.3813 0.0000 8.2359 0.0000
# 2 41.0263 164.3743 53.3958 0.0000 7.1392 0.0000
# 3 36.3813 53.3958 69.4911 0.0000 -8.0944 0.0000
# 4 0.0000 0.0000 0.0000 31.5379 0.0000 4.9437
# 5 8.2359 7.1392 -8.0944 0.0000 25.7767 0.0000
# 6 0.0000 0.0000 0.0000 4.9437 0.0000 57.5568
#
#
#
# Elastic Compliance Matrix: (Units=1/GPa)
#
#
# Indices 1 2 3 4 5 6 
#
# 1 0.012045 -0.000660 -0.006462 0.000000 -0.005695 0.000000
# 2 -0.000660 0.008645 -0.006800 0.000000 -0.004319 0.000000
# 3 -0.006462 -0.006800 0.024349 0.000000 0.011594 0.000000
# 4 0.000000 0.000000 0.000000 0.032141 0.000000 -0.002761
# 5 -0.005695 -0.004319 0.011594 0.000000 0.045451 0.000000
# 6 0.000000 0.000000 0.000000 -0.002761 0.000000 0.017611
#
#
# Mechanical properties :
#
#
# Convention : Reuss Voigt Hill
#
# Bulk Modulus (GPa) = 58.15866 67.12857 62.64362
# Shear Modulus (GPa) = 28.76560 37.09074 32.92817
#
# Velocity S-wave (km/s) = 3.41450 3.87724 3.65320
# Velocity P-wave (km/s) = 6.25435 6.87397 6.57147
#
# Compressibility (1/GPa) = 0.01719434
#
# Stress axis : x y z
#
# Youngs Moduli (GPa) = 83.02425 115.67429 41.06861
#
# Poissons Ratio (x) = 0.07630 0.26540
# Poissons Ratio (y) = 0.05477 0.27928
# Poissons Ratio (z) = 0.53653 0.78663
#
# Static dielectric constant tensor:
#      x y z
#    x 2.001800 0.000000 0.018500 
#    y 0.000000 1.999780 0.000000 
#    z 0.018500 0.000000 1.977980 
# 
# From -- ./inp_files/5344.got.cif
#   From: 2010.05.17/outbox.cif.g08.bks.cpg/sg9_3_cif.got.tgz:5344.got - 2010.06.03 20:04:27.
