data_PCOD9138469
_publ_section_title
;
Structure prediction by ZEFSAII (Michael W. Deem and Ramdas Pophale) SiO2 
 PCOD9138469
Probable space group: C C
;
_chemical_formula_sum "Si O2"
_cell_formula_units_Z 24
_cell_length_a 18.551483
_cell_length_b 10.066817
_cell_length_c 11.400538
_cell_angle_alpha 90.000000
_cell_angle_beta 25.915620
_cell_angle_gamma 90.000000
_cell_volume 930.516988
_symmetry_space_group_name_H-M "C C"
_symmetry_group_IT_number 9
_symmetry_cell_setting 'monoclinic'
loop_
_space_group_symop_operation_xyz
x,y,z
x,-y,1/2+z
1/2+x,1/2+y,z
1/2+x,1/2-y,1/2+z
loop_
_atom_site_type_symbol
_atom_site_label
_atom_site_fract_x
_atom_site_fract_y
_atom_site_fract_z
Si Si1 0.923120 0.771923 0.712510
Si Si2 0.052908 0.039545 0.592081
Si Si3 0.876960 0.710559 0.372027
Si Si4 0.371820 0.934156 0.106614
Si Si5 0.044504 0.297573 0.277339
Si Si6 0.730926 0.218278 0.833161
O O1 0.956796 0.688428 0.546877
O O2 0.961502 0.928534 0.653263
O O3 0.026136 0.702937 0.664577
O O4 0.732309 0.770698 0.029006
O O5 0.209491 0.968195 0.422562
O O6 0.928442 0.139561 0.838788
O O7 0.160498 0.151560 0.367208
O O8 0.804405 0.623781 0.582002
O O9 0.776879 0.738630 0.399632
O O10 0.058692 0.639779 0.085072
O O11 0.486047 0.061988 0.918887
O O12 0.907278 0.188283 0.519579
#
# Coordination Sequence:
#
# PCOD9138469 Si02
#       6
#     4   4   4   4   4   4
#     4  12  25  49  68 109 139 192 240 285 366 416
#     4   9  24  44  66 107 140 184 232 287 351 413
#     4  10  23  43  74 103 144 184 237 284 361 418
#     4  11  26  45  73 103 147 188 232 302 347 424
#     4  11  26  44  74  98 148 184 236 296 348 426
#     4   9  22  45  67 106 136 188 233 288 355 413
#
# _framework density 25.792114000000002
#
# number of rings (size 3 to 8) (size 9 to 14) (size 15 to 20)
#    1.000    0.667    1.667    1.000    9.333    0.000 
#    6.000    0.000    0.000    0.000    0.000    0.000 
#    0.000    0.000    0.000    0.000    0.000    0.000 
#
# Total GULP energy -66822.711168 kJ/mol
# GULP energy per Si atom -5568.559264 kJ/mol
# Density = 2.573341 g / cm^3
# Si number density = 25.792114 Si / 1000 Ang^3
#
#
#
# Elastic Constant Matrix: (Units=GPa)
#
#
# Indices 1 2 3 4 5 6 
#
# 1 115.4635 6.0788 6.2568 0.0000 -1.2714 0.0000
# 2 6.0788 96.2609 13.0403 0.0000 7.7289 0.0000
# 3 6.2568 13.0403 78.2329 0.0000 -9.7183 0.0000
# 4 0.0000 0.0000 0.0000 32.2224 0.0000 -2.8593
# 5 -1.2714 7.7289 -9.7183 0.0000 32.0712 0.0000
# 6 0.0000 0.0000 0.0000 -2.8593 0.0000 30.3814
#
#
#
# Elastic Compliance Matrix: (Units=1/GPa)
#
#
# Indices 1 2 3 4 5 6 
#
# 1 0.008721 -0.000496 -0.000579 0.000000 0.000290 0.000000
# 2 -0.000496 0.010986 -0.002206 0.000000 -0.003336 0.000000
# 3 -0.000579 -0.002206 0.013778 0.000000 0.004684 0.000000
# 4 0.000000 0.000000 0.000000 0.031296 0.000000 0.002945
# 5 0.000290 -0.003336 0.004684 0.000000 0.033415 0.000000
# 6 0.000000 0.000000 0.000000 0.002945 0.000000 0.033192
#
#
# Mechanical properties :
#
#
# Convention : Reuss Voigt Hill
#
# Bulk Modulus (GPa) = 37.14027 37.85658 37.49843
# Shear Modulus (GPa) = 34.03095 36.57375 35.30235
#
# Velocity S-wave (km/s) = 3.63634 3.76975 3.70364
# Velocity P-wave (km/s) = 5.66231 5.80150 5.73233
#
# Compressibility (1/GPa) = 0.02692495
#
# Stress axis : x y z
#
# Youngs Moduli (GPa) = 114.66048 91.02158 72.57844
#
# Poissons Ratio (x) = 0.04511 0.04202
# Poissons Ratio (y) = 0.05682 0.16011
# Poissons Ratio (z) = 0.06638 0.20080
#
# Static dielectric constant tensor:
#      x y z
#    x 2.025210 0.000000 -0.033380 
#    y 0.000000 2.155470 0.000000 
#    z -0.033380 0.000000 2.188020 
# 
# From -- ./inp_files/6879.got.cif
#   From: 2010.05.17/outbox.cif.g08.bks.cpg/sg9_4_cif.got.tgz:6879.got - 2010.06.03 20:04:27.
