data_PCOD9138108
_publ_section_title
;
Structure prediction by ZEFSAII (Michael W. Deem and Ramdas Pophale) SiO2 
 PCOD9138108
Probable space group: C C
;
_chemical_formula_sum "Si O2"
_cell_formula_units_Z 24
_cell_length_a 6.976095
_cell_length_b 7.185602
_cell_length_c 20.947357
_cell_angle_alpha 90.000000
_cell_angle_beta 116.748050
_cell_angle_gamma 90.000000
_cell_volume 937.677397
_symmetry_space_group_name_H-M "C C"
_symmetry_group_IT_number 9
_symmetry_cell_setting 'monoclinic'
loop_
_space_group_symop_operation_xyz
x,y,z
x,-y,1/2+z
1/2+x,1/2+y,z
1/2+x,1/2-y,1/2+z
loop_
_atom_site_type_symbol
_atom_site_label
_atom_site_fract_x
_atom_site_fract_y
_atom_site_fract_z
Si Si1 0.171870 0.449587 0.803380
Si Si2 0.162858 0.917493 0.574869
Si Si3 0.380542 0.063215 0.987921
Si Si4 0.087078 0.738614 0.896110
Si Si5 0.794082 0.852709 0.603293
Si Si6 0.225340 0.227662 0.214770
O O1 0.192150 0.579051 0.868953
O O2 0.375272 0.314845 0.827942
O O3 0.175352 0.579349 0.741312
O O4 0.940371 0.353474 0.777555
O O5 0.208361 0.850518 0.510602
O O6 0.274780 0.793734 0.646544
O O7 0.914434 0.900569 0.555280
O O8 0.229605 0.134042 0.594651
O O9 0.485226 0.183532 0.948628
O O10 0.259881 0.897760 0.934964
O O11 0.574629 0.033194 0.068038
O O12 0.993324 0.880075 0.682187
#
# Coordination Sequence:
#
# PCOD9138108 Si02
#       6
#     4   4   4   4   4   4
#     4  12  26  52  68 108 146 201 242 288 354 441
#     4  10  23  45  73 111 139 188 227 324 362 419
#     4  12  26  51  72 114 146 186 254 292 378 428
#     4  12  30  46  76 102 152 203 234 298 346 449
#     4  10  23  45  73 111 139 188 227 324 362 419
#     4  10  22  49  74 108 144 184 250 300 366 428
#
# _framework density 25.595154000000001
#
# number of rings (size 3 to 8) (size 9 to 14) (size 15 to 20)
#    1.000    0.000    3.333    2.000    2.333    5.333 
#    6.000    0.000    0.000    0.000    0.000    0.000 
#    0.000    0.000    0.000    0.000    0.000    0.000 
#
# Total GULP energy -67071.726838 kJ/mol
# GULP energy per Si atom -5589.310570 kJ/mol
# Density = 2.553690 g / cm^3
# Si number density = 25.595154 Si / 1000 Ang^3
#
#
#
# Elastic Constant Matrix: (Units=GPa)
#
#
# Indices 1 2 3 4 5 6 
#
# 1 112.3108 33.8059 10.7469 0.0000 24.5938 0.0000
# 2 33.8059 65.7981 8.0985 0.0000 17.3671 0.0000
# 3 10.7469 8.0985 58.5317 0.0000 14.4717 0.0000
# 4 0.0000 0.0000 0.0000 49.6379 0.0000 5.4380
# 5 24.5938 17.3671 14.4717 0.0000 67.4975 0.0000
# 6 0.0000 0.0000 0.0000 5.4380 0.0000 44.2565
#
#
#
# Elastic Compliance Matrix: (Units=1/GPa)
#
#
# Indices 1 2 3 4 5 6 
#
# 1 0.011011 -0.004883 -0.000702 0.000000 -0.002605 0.000000
# 2 -0.004883 0.018563 -0.000983 0.000000 -0.002786 0.000000
# 3 -0.000702 -0.000983 0.018188 0.000000 -0.003391 0.000000
# 4 0.000000 0.000000 0.000000 0.020421 0.000000 -0.002509
# 5 -0.002605 -0.002786 -0.003391 0.000000 0.017209 0.000000
# 6 0.000000 0.000000 0.000000 -0.002509 0.000000 0.022904
#
#
# Mechanical properties :
#
#
# Convention : Reuss Voigt Hill
#
# Bulk Modulus (GPa) = 28.87987 37.99368 33.43678
# Shear Modulus (GPa) = 37.60106 44.54433 41.07270
#
# Velocity S-wave (km/s) = 3.83700 4.17627 4.01022
# Velocity P-wave (km/s) = 5.56219 6.17505 5.87662
#
# Compressibility (1/GPa) = 0.03462619
#
# Stress axis : x y z
#
# Youngs Moduli (GPa) = 90.81452 53.86928 54.98119
#
# Poissons Ratio (x) = 0.26307 0.03860
# Poissons Ratio (y) = 0.44349 0.05404
# Poissons Ratio (z) = 0.06375 0.05295
#
# Static dielectric constant tensor:
#      x y z
#    x 1.949340 0.000000 0.009530 
#    y 0.000000 2.036980 0.000000 
#    z 0.009530 0.000000 2.100160 
# 
# From -- ./inp_files/34707.got.cif
#   From: 2010.05.17/outbox.cif.g08.bks.cpg/sg9_18_cif.got.tgz:34707.got - 2010.06.03 20:04:27.
