data_PCOD9138434
_publ_section_title
;
Structure prediction by ZEFSAII (Michael W. Deem and Ramdas Pophale) SiO2 
 PCOD9138434
Probable space group: C C
;
_chemical_formula_sum "Si O2"
_cell_formula_units_Z 32
_cell_length_a 9.379581
_cell_length_b 11.115728
_cell_length_c 18.076602
_cell_angle_alpha 90.000000
_cell_angle_beta 121.829658
_cell_angle_gamma 90.000000
_cell_volume 1601.263396
_symmetry_space_group_name_H-M "C C"
_symmetry_group_IT_number 9
_symmetry_cell_setting 'monoclinic'
loop_
_space_group_symop_operation_xyz
x,y,z
x,-y,1/2+z
1/2+x,1/2+y,z
1/2+x,1/2-y,1/2+z
loop_
_atom_site_type_symbol
_atom_site_label
_atom_site_fract_x
_atom_site_fract_y
_atom_site_fract_z
Si Si1 0.643940 0.191687 0.642550
Si Si2 0.914185 0.343952 0.798757
Si Si3 0.268900 0.432177 0.642776
Si Si4 0.992756 0.791762 0.463668
Si Si5 0.778847 0.737711 0.536810
Si Si6 0.030274 0.055375 0.417798
Si Si7 0.705414 0.195352 0.277179
Si Si8 0.137928 0.021212 0.782955
O O1 0.789430 0.240037 0.734331
O O2 0.637768 0.266210 0.563730
O O3 0.458223 0.211357 0.624440
O O4 0.667296 0.053448 0.629217
O O5 0.008893 0.288980 0.895613
O O6 0.794816 0.451852 0.790713
O O7 0.048484 0.372150 0.772289
O O8 0.220325 0.362677 0.555139
O O9 0.227651 0.340205 0.697850
O O10 0.463782 0.475223 0.697937
O O11 0.827380 0.753221 0.464002
O O12 0.977950 0.930065 0.439327
O O13 0.654842 0.627078 0.505498
O O14 0.875058 0.144050 0.360004
O O15 0.114305 0.016531 0.362464
O O16 0.668459 0.336338 0.280947
#
# Coordination Sequence:
#
# PCOD9138434 Si02
#       8
#     4   4   4   4   4   4   4   4
#     4  10  23  43  69  97 134 179 215 278 339 398
#     4  12  21  46  71  95 136 182 217 269 354 393
#     4  11  23  44  66 100 136 167 237 277 326 406
#     4  10  23  43  69  97 134 179 215 278 339 398
#     4  10  24  42  66  98 132 184 212 282 338 390
#     4  11  23  44  66 100 136 167 237 277 326 406
#     4  11  26  39  69 105 128 181 224 282 330 395
#     4  11  21  43  70  96 136 171 225 283 330 408
#
# _framework density 19.984220000000001
#
# number of rings (size 3 to 8) (size 9 to 14) (size 15 to 20)
#    0.750    0.500    5.000    0.750    0.000    8.000 
#    2.250    0.000    0.000    0.000    0.000    0.000 
#    0.000    0.000    0.000    0.000    0.000    0.000 
#
# Total GULP energy -89261.633111 kJ/mol
# GULP energy per Si atom -5578.852069 kJ/mol
# Density = 1.993873 g / cm^3
# Si number density = 19.984220 Si / 1000 Ang^3
#
#
#
# Elastic Constant Matrix: (Units=GPa)
#
#
# Indices 1 2 3 4 5 6 
#
# 1 81.7910 31.6646 -4.3242 0.0000 8.6143 0.0000
# 2 31.6646 109.1373 3.9189 0.0000 3.9150 0.0000
# 3 -4.3242 3.9189 29.8763 0.0000 -4.5759 0.0000
# 4 0.0000 0.0000 0.0000 21.3062 0.0000 -3.9633
# 5 8.6143 3.9150 -4.5759 0.0000 9.2563 0.0000
# 6 0.0000 0.0000 0.0000 -3.9633 0.0000 21.7637
#
#
#
# Elastic Compliance Matrix: (Units=1/GPa)
#
#
# Indices 1 2 3 4 5 6 
#
# 1 0.015066 -0.003976 0.000879 0.000000 -0.011905 0.000000
# 2 -0.003976 0.010462 -0.002227 0.000000 -0.001826 0.000000
# 3 0.000879 -0.002227 0.036688 0.000000 0.018261 0.000000
# 4 0.000000 0.000000 0.000000 0.048580 0.000000 0.008847
# 5 -0.011905 -0.001826 0.018261 0.000000 0.128915 0.000000
# 6 0.000000 0.000000 0.000000 0.008847 0.000000 0.047559
#
#
# Mechanical properties :
#
#
# Convention : Reuss Voigt Hill
#
# Bulk Modulus (GPa) = 19.39246 31.48036 25.43641
# Shear Modulus (GPa) = 15.86765 23.10159 19.48462
#
# Velocity S-wave (km/s) = 2.82087 3.40368 3.12589
# Velocity P-wave (km/s) = 4.50940 5.58869 5.07781
#
# Compressibility (1/GPa) = 0.05156643
#
# Stress axis : x y z
#
# Youngs Moduli (GPa) = 66.37595 95.58658 27.25711
#
# Poissons Ratio (x) = 0.38001 -0.02395
# Poissons Ratio (y) = 0.26388 0.06071
# Poissons Ratio (z) = -0.05832 0.21291
#
# Static dielectric constant tensor:
#      x y z
#    x 1.700760 0.000000 0.002770 
#    y 0.000000 1.661990 0.000000 
#    z 0.002770 0.000000 1.701200 
# 
# From -- ./inp_files/32512.got.cif
#   From: 2010.05.17/outbox.cif.g08.bks.cpg/sg9_17_cif.got.tgz:32512.got - 2010.06.03 20:04:27.
