data_PCOD9138603
_publ_section_title
;
Structure prediction by ZEFSAII (Michael W. Deem and Ramdas Pophale) SiO2 
 PCOD9138603
Probable space group: C C
;
_chemical_formula_sum "Si O2"
_cell_formula_units_Z 32
_cell_length_a 10.243543
_cell_length_b 12.195804
_cell_length_c 16.121520
_cell_angle_alpha 90.000000
_cell_angle_beta 138.814746
_cell_angle_gamma 90.000000
_cell_volume 1326.232363
_symmetry_space_group_name_H-M "C C"
_symmetry_group_IT_number 9
_symmetry_cell_setting 'monoclinic'
loop_
_space_group_symop_operation_xyz
x,y,z
x,-y,1/2+z
1/2+x,1/2+y,z
1/2+x,1/2-y,1/2+z
loop_
_atom_site_type_symbol
_atom_site_label
_atom_site_fract_x
_atom_site_fract_y
_atom_site_fract_z
Si Si1 0.516240 0.604783 0.012290
Si Si2 0.466212 0.560088 0.815640
Si Si3 0.196677 0.219036 0.345739
Si Si4 0.902631 0.735843 0.182036
Si Si5 0.807415 0.505661 0.871879
Si Si6 0.535371 0.030815 0.146044
Si Si7 0.306223 0.186560 0.587627
Si Si8 0.073660 0.112686 0.629890
O O1 0.689643 0.692089 0.110145
O O2 0.495213 0.507139 0.066694
O O3 0.578438 0.549891 0.955494
O O4 0.315538 0.666987 0.895095
O O5 0.476144 0.686497 0.791225
O O6 0.585163 0.497192 0.802606
O O7 0.254140 0.507919 0.726994
O O8 0.339731 0.123694 0.374908
O O9 0.203524 0.206209 0.449440
O O10 0.982752 0.230438 0.199896
O O11 0.023808 0.631337 0.205324
O O12 0.919482 0.819248 0.111682
O O13 0.775224 0.584253 0.778727
O O14 0.935487 0.553731 0.008129
O O15 0.425762 0.926896 0.133586
O O16 0.145101 0.177360 0.583208
#
# Coordination Sequence:
#
# PCOD9138603 Si02
#       8
#     4   4   4   4   4   4   4   4
#     4  12  23  46  71  97 141 177 242 291 341 430
#     4  11  24  44  69 103 138 181 233 291 346 422
#     4  11  24  42  74 100 138 190 229 291 366 409
#     4  11  25  45  73 102 139 188 230 287 368 407
#     4  10  23  45  65  99 144 174 238 293 344 427
#     4  11  22  46  70 101 140 184 231 295 353 418
#     4  11  23  45  66 105 141 185 234 291 353 426
#     4  11  26  45  68 103 141 183 233 293 351 425
#
# _framework density 24.128502000000001
#
# number of rings (size 3 to 8) (size 9 to 14) (size 15 to 20)
#    0.000    1.000    3.750    3.000    3.500    2.000 
#    6.750    0.000    0.000    0.000    0.000    0.000 
#    0.000    0.000    0.000    0.000    0.000    0.000 
#
# Total GULP energy -89381.503603 kJ/mol
# GULP energy per Si atom -5586.343975 kJ/mol
# Density = 2.407358 g / cm^3
# Si number density = 24.128502 Si / 1000 Ang^3
#
#
#
# Elastic Constant Matrix: (Units=GPa)
#
#
# Indices 1 2 3 4 5 6 
#
# 1 53.9453 14.5240 13.4744 0.0000 -10.6236 0.0000
# 2 14.5240 100.0870 22.7071 0.0000 -3.9596 0.0000
# 3 13.4744 22.7071 73.7339 0.0001 -13.7053 0.0000
# 4 0.0000 0.0000 0.0001 31.0744 0.0000 -16.1679
# 5 -10.6236 -3.9596 -13.7053 0.0000 37.0295 0.0000
# 6 0.0000 0.0000 0.0000 -16.1679 0.0000 35.5421
#
#
#
# Elastic Compliance Matrix: (Units=1/GPa)
#
#
# Indices 1 2 3 4 5 6 
#
# 1 0.020661 -0.002316 -0.002155 0.000000 0.004882 0.000000
# 2 -0.002316 0.011002 -0.003082 0.000000 -0.000629 0.000000
# 3 -0.002155 -0.003082 0.015817 0.000000 0.004906 0.000000
# 4 0.000000 0.000000 0.000000 0.042159 0.000000 0.019178
# 5 0.004882 -0.000629 0.004906 0.000000 0.030155 0.000000
# 6 0.000000 0.000000 0.000000 0.019178 0.000000 0.036860
#
#
# Mechanical properties :
#
#
# Convention : Reuss Voigt Hill
#
# Bulk Modulus (GPa) = 30.88891 36.57527 33.73209
# Shear Modulus (GPa) = 27.38983 32.53324 29.96154
#
# Velocity S-wave (km/s) = 3.37288 3.67595 3.52767
# Velocity P-wave (km/s) = 5.29132 5.76266 5.53201
#
# Compressibility (1/GPa) = 0.03237408
#
# Stress axis : x y z
#
# Youngs Moduli (GPa) = 48.40138 90.89514 63.22277
#
# Poissons Ratio (x) = 0.21052 0.13623
# Poissons Ratio (y) = 0.11210 0.19483
# Poissons Ratio (z) = 0.10430 0.28011
#
# Static dielectric constant tensor:
#      x y z
#    x 1.950450 0.000000 0.001270 
#    y 0.000000 2.082930 0.000000 
#    z 0.001270 0.000000 1.951660 
# 
# From -- ./inp_files/16228.got.cif
#   From: 2010.05.17/outbox.cif.g08.bks.cpg/sg9_9_cif.got.tgz:16228.got - 2010.06.03 20:04:27.
