data_PCOD9138555
_publ_section_title
;
Structure prediction by ZEFSAII (Michael W. Deem and Ramdas Pophale) SiO2 
 PCOD9138555
Probable space group: C C
;
_chemical_formula_sum "Si O2"
_cell_formula_units_Z 24
_cell_length_a 10.284654
_cell_length_b 8.713045
_cell_length_c 11.269612
_cell_angle_alpha 90.000000
_cell_angle_beta 84.904830
_cell_angle_gamma 90.000000
_cell_volume 1005.886818
_symmetry_space_group_name_H-M "C C"
_symmetry_group_IT_number 9
_symmetry_cell_setting 'monoclinic'
loop_
_space_group_symop_operation_xyz
x,y,z
x,-y,1/2+z
1/2+x,1/2+y,z
1/2+x,1/2-y,1/2+z
loop_
_atom_site_type_symbol
_atom_site_label
_atom_site_fract_x
_atom_site_fract_y
_atom_site_fract_z
Si Si1 0.234560 0.946374 0.344360
Si Si2 0.473533 0.942799 0.457483
Si Si3 0.746063 0.069711 0.042440
Si Si4 0.468521 0.277834 0.400455
Si Si5 0.378445 0.304603 0.150047
Si Si6 0.166846 0.097791 0.601433
O O1 0.386759 0.902185 0.349318
O O2 0.119436 0.819441 0.368029
O O3 0.214278 0.000380 0.210899
O O4 0.203236 0.048318 0.464521
O O5 0.628560 0.923790 0.456234
O O6 0.406227 0.835164 0.559673
O O7 0.460573 0.124598 0.478218
O O8 0.883522 0.089162 0.965595
O O9 0.717824 0.227033 0.116401
O O10 0.759925 0.915458 0.119732
O O11 0.391953 0.249029 0.283687
O O12 0.511461 0.403610 0.126323
#
# Coordination Sequence:
#
# PCOD9138555 Si02
#       6
#     4   4   4   4   4   4
#     4  11  23  45  70 103 142 188 236 303 349 432
#     4  11  25  42  67 104 140 179 242 296 353 423
#     4  11  23  46  68 103 144 186 238 300 356 431
#     4  11  24  44  71  99 144 191 241 288 363 427
#     4  10  24  45  70 102 144 189 242 297 358 430
#     4  10  23  44  72 103 144 189 247 288 367 427
#
# _framework density 23.859545000000001
#
# number of rings (size 3 to 8) (size 9 to 14) (size 15 to 20)
#    0.000    1.333    3.333    1.000    2.333    5.333 
#    3.000    3.333    0.000    0.000    0.000    0.000 
#    0.000    0.000    0.000    0.000    0.000    0.000 
#
# Total GULP energy -66875.617248 kJ/mol
# GULP energy per Si atom -5572.968104 kJ/mol
# Density = 2.380524 g / cm^3
# Si number density = 23.859545 Si / 1000 Ang^3
#
#
#
# Elastic Constant Matrix: (Units=GPa)
#
#
# Indices 1 2 3 4 5 6 
#
# 1 133.3253 25.2047 24.4008 0.0000 27.8277 0.0000
# 2 25.2047 82.2902 42.7135 0.0000 25.1968 0.0000
# 3 24.4008 42.7135 123.7972 0.0000 24.4341 0.0000
# 4 0.0000 0.0000 0.0000 24.7473 0.0000 7.6449
# 5 27.8277 25.1968 24.4341 0.0000 24.2359 0.0000
# 6 0.0000 0.0000 0.0000 7.6449 0.0000 44.3625
#
#
#
# Elastic Compliance Matrix: (Units=1/GPa)
#
#
# Indices 1 2 3 4 5 6 
#
# 1 0.009895 0.000576 0.000264 0.000000 -0.012227 0.000000
# 2 0.000576 0.018876 -0.003274 0.000000 -0.016985 0.000000
# 3 0.000264 -0.003274 0.010666 0.000000 -0.007653 0.000000
# 4 0.000000 0.000000 0.000000 0.042681 0.000000 -0.007355
# 5 -0.012227 -0.016985 -0.007653 0.000000 0.080673 0.000000
# 6 0.000000 0.000000 0.000000 -0.007355 0.000000 0.023809
#
#
# Mechanical properties :
#
#
# Convention : Reuss Voigt Hill
#
# Bulk Modulus (GPa) = 28.92790 58.22785 43.57788
# Shear Modulus (GPa) = 24.63181 35.14204 29.88692
#
# Velocity S-wave (km/s) = 3.21653 3.84196 3.54308
# Velocity P-wave (km/s) = 5.09366 6.64367 5.91961
#
# Compressibility (1/GPa) = 0.03456870
#
# Stress axis : x y z
#
# Youngs Moduli (GPa) = 101.05914 52.97833 93.75921
#
# Poissons Ratio (x) = -0.03051 -0.02477
# Poissons Ratio (y) = -0.05819 0.30695
# Poissons Ratio (z) = -0.02669 0.17344
#
# Static dielectric constant tensor:
#      x y z
#    x 1.977940 0.000000 -0.006700 
#    y 0.000000 1.943220 0.000000 
#    z -0.006700 0.000000 1.913770 
# 
# From -- ./inp_files/15927.got.cif
#   From: 2010.05.17/outbox.cif.g08.bks.cpg/sg9_8_cif.got.tgz:15927.got - 2010.06.03 20:04:27.
