data_PCOD9138207
_publ_section_title
;
Structure prediction by ZEFSAII (Michael W. Deem and Ramdas Pophale) SiO2 
 PCOD9138207
Probable space group: C C
;
_chemical_formula_sum "Si O2"
_cell_formula_units_Z 28
_cell_length_a 14.270164
_cell_length_b 11.110254
_cell_length_c 8.932228
_cell_angle_alpha 90.000000
_cell_angle_beta 63.561154
_cell_angle_gamma 90.000000
_cell_volume 1268.045213
_symmetry_space_group_name_H-M "C C"
_symmetry_group_IT_number 9
_symmetry_cell_setting 'monoclinic'
loop_
_space_group_symop_operation_xyz
x,y,z
x,-y,1/2+z
1/2+x,1/2+y,z
1/2+x,1/2-y,1/2+z
loop_
_atom_site_type_symbol
_atom_site_label
_atom_site_fract_x
_atom_site_fract_y
_atom_site_fract_z
Si Si1 0.687420 0.249640 0.007040
Si Si2 0.981039 0.852906 0.587928
Si Si3 0.357922 0.675819 0.668364
Si Si4 0.047346 0.587458 0.567132
Si Si5 0.045242 0.052383 0.726445
Si Si6 0.249737 0.429930 0.726415
Si Si7 0.002046 0.358999 0.440091
O O1 0.648495 0.373184 0.109729
O O2 0.704910 0.147785 0.121073
O O3 0.791041 0.253741 0.833597
O O4 0.595946 0.205796 0.961559
O O5 0.009796 0.716475 0.535614
O O6 0.016301 0.929511 0.418714
O O7 0.857426 0.866350 0.699211
O O8 0.043398 0.913073 0.680975
O O9 0.450251 0.613062 0.699489
O O10 0.286640 0.565711 0.661089
O O11 0.407624 0.763700 0.510501
O O12 0.162797 0.566510 0.417282
O O13 0.978441 0.478245 0.553114
O O14 0.037704 0.598093 0.751938
#
# Coordination Sequence:
#
# PCOD9138207 Si02
#       7
#     4   4   4   4   4   4   4
#     4  11  21  42  70  98 138 180 239 294 359 421
#     4  11  25  42  69 101 146 186 243 292 360 429
#     4  10  23  41  72  98 140 184 240 293 361 426
#     4  12  26  45  72  99 148 192 246 295 364 433
#     4  10  23  41  65 100 139 184 236 296 351 420
#     4  11  23  42  74 105 134 193 239 296 361 447
#     4  11  27  43  68 105 143 185 239 306 354 424
#
# _framework density 22.081233000000001
#
# number of rings (size 3 to 8) (size 9 to 14) (size 15 to 20)
#    0.000    1.143    4.286    0.857    8.000    1.143 
#    2.571    1.429    0.000    0.000    0.000    0.000 
#    0.000    0.000    0.000    0.000    0.000    0.000 
#
# Total GULP energy -78327.904272 kJ/mol
# GULP energy per Si atom -5594.850305 kJ/mol
# Density = 2.203098 g / cm^3
# Si number density = 22.081233 Si / 1000 Ang^3
#
#
#
# Elastic Constant Matrix: (Units=GPa)
#
#
# Indices 1 2 3 4 5 6 
#
# 1 47.0598 34.2771 38.7103 0.0000 -7.6827 0.0000
# 2 34.2771 101.4517 51.0441 0.0000 -21.7577 0.0000
# 3 38.7103 51.0441 126.0285 0.0000 -0.8643 0.0000
# 4 0.0000 0.0000 0.0000 39.8818 0.0000 -4.4974
# 5 -7.6827 -21.7577 -0.8643 0.0000 39.4369 0.0000
# 6 0.0000 0.0000 0.0000 -4.4974 0.0000 34.1485
#
#
#
# Elastic Compliance Matrix: (Units=1/GPa)
#
#
# Indices 1 2 3 4 5 6 
#
# 1 0.032569 -0.006863 -0.007208 0.000000 0.002401 0.000000
# 2 -0.006863 0.015906 -0.004284 0.000000 0.007345 0.000000
# 3 -0.007208 -0.004284 0.011860 0.000000 -0.003508 0.000000
# 4 0.000000 0.000000 0.000000 0.025452 0.000000 0.003352
# 5 0.002401 0.007345 -0.003508 0.000000 0.029800 0.000000
# 6 0.000000 0.000000 0.000000 0.003352 0.000000 0.029725
#
#
# Mechanical properties :
#
#
# Convention : Reuss Voigt Hill
#
# Bulk Modulus (GPa) = 42.32635 58.06702 50.19668
# Shear Modulus (GPa) = 26.33014 32.72734 29.52874
#
# Velocity S-wave (km/s) = 3.45689 3.85403 3.66085
# Velocity P-wave (km/s) = 5.92820 6.79403 6.37583
#
# Compressibility (1/GPa) = 0.02362595
#
# Stress axis : x y z
#
# Youngs Moduli (GPa) = 30.70410 62.86843 84.31916
#
# Poissons Ratio (x) = 0.43144 0.60775
# Poissons Ratio (y) = 0.21071 0.36123
# Poissons Ratio (z) = 0.22131 0.26933
#
# Static dielectric constant tensor:
#      x y z
#    x 1.818330 0.000000 0.009590 
#    y 0.000000 1.842000 0.000000 
#    z 0.009590 0.000000 1.799270 
# 
# From -- ./inp_files/9051.got.cif
#   From: 2010.05.17/outbox.cif.g08.bks.cpg/sg9_5_cif.got.tgz:9051.got - 2010.06.03 20:04:27.
