data_PCOD9138415
_publ_section_title
;
Structure prediction by ZEFSAII (Michael W. Deem and Ramdas Pophale) SiO2 
 PCOD9138415
Probable space group: C C
;
_chemical_formula_sum "Si O2"
_cell_formula_units_Z 32
_cell_length_a 13.218966
_cell_length_b 9.318541
_cell_length_c 22.178090
_cell_angle_alpha 90.000000
_cell_angle_beta 32.357671
_cell_angle_gamma 90.000000
_cell_volume 1462.136726
_symmetry_space_group_name_H-M "C C"
_symmetry_group_IT_number 9
_symmetry_cell_setting 'monoclinic'
loop_
_space_group_symop_operation_xyz
x,y,z
x,-y,1/2+z
1/2+x,1/2+y,z
1/2+x,1/2-y,1/2+z
loop_
_atom_site_type_symbol
_atom_site_label
_atom_site_fract_x
_atom_site_fract_y
_atom_site_fract_z
Si Si1 0.692700 0.463462 0.913220
Si Si2 0.024323 0.667653 0.743872
Si Si3 0.872439 0.823799 0.558108
Si Si4 0.724831 0.157042 0.853382
Si Si5 0.409647 0.001019 0.078408
Si Si6 0.173878 0.501778 0.060669
Si Si7 0.966586 0.033982 0.315848
Si Si8 0.345302 0.440280 0.162870
O O1 0.882072 0.543189 0.836650
O O2 0.729110 0.328455 0.852538
O O3 0.560927 0.584017 0.948637
O O4 0.563013 0.412226 0.034741
O O5 0.092625 0.624253 0.643388
O O6 0.925271 0.820100 0.800033
O O7 0.209275 0.661501 0.692382
O O8 0.921257 0.660687 0.546257
O O9 0.724146 0.865932 0.580235
O O10 0.807856 0.901356 0.653309
O O11 0.794714 0.087011 0.756551
O O12 0.867326 0.098914 0.832765
O O13 0.515287 0.102851 0.977046
O O14 0.525263 0.024965 0.082023
O O15 0.189950 0.020134 0.202226
O O16 0.366648 0.454663 0.930595
#
# Coordination Sequence:
#
# PCOD9138415 Si02
#       8
#     4   4   4   4   4   4   4   4
#     4  10  23  43  68  96 141 177 232 286 355 430
#     4  11  24  43  71  99 136 194 228 287 363 428
#     4   9  23  47  67 103 136 187 235 279 372 426
#     4  11  25  43  65 106 135 176 238 293 351 428
#     4  11  25  46  71 102 144 183 239 305 355 422
#     4  10  25  45  71 101 140 183 246 284 360 438
#     4  11  27  43  67 105 138 180 240 290 362 421
#     4   9  24  42  68  96 138 174 240 278 356 429
#
# _framework density 21.885777999999998
#
# number of rings (size 3 to 8) (size 9 to 14) (size 15 to 20)
#    0.750    1.000    0.000    2.250    8.750    4.000 
#    2.250    0.000    0.000    0.000    0.000    0.000 
#    0.000    0.000    0.000    0.000    0.000    0.000 
#
# Total GULP energy -89342.841346 kJ/mol
# GULP energy per Si atom -5583.927584 kJ/mol
# Density = 2.183596 g / cm^3
# Si number density = 21.885778 Si / 1000 Ang^3
#
#
#
# Elastic Constant Matrix: (Units=GPa)
#
#
# Indices 1 2 3 4 5 6 
#
# 1 67.7797 18.8392 52.1546 0.0000 5.3917 0.0000
# 2 18.8392 112.4049 22.3821 0.0000 -8.1604 0.0000
# 3 52.1546 22.3821 155.3096 -0.0002 -10.5644 0.0000
# 4 0.0000 0.0000 -0.0002 12.0936 0.0000 -14.2159
# 5 5.3917 -8.1604 -10.5644 0.0000 37.8323 0.0000
# 6 0.0000 0.0000 0.0000 -14.2159 0.0000 7.6706
#
#
#
# Elastic Compliance Matrix: (Units=1/GPa)
#
#
# Indices 1 2 3 4 5 6 
#
# 1 0.021475 -0.002570 -0.007224 0.000000 -0.005632 0.000000
# 2 -0.002570 0.009567 -0.000357 0.000000 0.002330 0.000000
# 3 -0.007224 -0.000357 0.009155 0.000000 0.003509 0.000000
# 4 0.000000 0.000000 0.000000 -0.070162 0.000000 -0.130031
# 5 -0.005632 0.002330 0.003509 0.000000 0.028718 0.000000
# 6 0.000000 0.000000 0.000000 -0.130031 0.000000 -0.110618
#
#
# Mechanical properties :
#
#
# Convention : Reuss Voigt Hill
#
# Bulk Modulus (GPa) = 50.26481 58.02734 54.14607
# Shear Modulus (GPa) = -58.87087 27.66052 -15.60517
#
# Velocity S-wave (km/s) = -5.19206 3.55894 -2.67316
# Velocity P-wave (km/s) = 3.59536 6.59237 3.90722
#
# Compressibility (1/GPa) = 0.01989464
#
# Stress axis : x y z
#
# Youngs Moduli (GPa) = 46.56628 104.52162 109.23087
#
# Poissons Ratio (x) = 0.26858 0.78911
# Poissons Ratio (y) = 0.11966 0.03904
# Poissons Ratio (z) = 0.33641 0.03736
#
# Static dielectric constant tensor:
#      x y z
#    x 1.790880 0.000000 -0.019130 
#    y 0.000000 1.834000 0.000000 
#    z -0.019130 0.000000 1.828720 
# 
# From -- ./inp_files/35569.got.cif
#   From: 2010.05.17/outbox.cif.g08.bks.cpg/sg9_18_cif.got.tgz:35569.got - 2010.06.03 20:04:27.
