data_PCOD9138971
_publ_section_title
;
Structure prediction by ZEFSAII (Michael W. Deem and Ramdas Pophale) SiO2 
 PCOD9138971
Probable space group: C C
;
_chemical_formula_sum "Si O2"
_cell_formula_units_Z 24
_cell_length_a 8.424833
_cell_length_b 25.666943
_cell_length_c 9.296150
_cell_angle_alpha 90.000000
_cell_angle_beta 149.761953
_cell_angle_gamma 90.000000
_cell_volume 1012.322534
_symmetry_space_group_name_H-M "C C"
_symmetry_group_IT_number 9
_symmetry_cell_setting 'monoclinic'
loop_
_space_group_symop_operation_xyz
x,y,z
x,-y,1/2+z
1/2+x,1/2+y,z
1/2+x,1/2-y,1/2+z
loop_
_atom_site_type_symbol
_atom_site_label
_atom_site_fract_x
_atom_site_fract_y
_atom_site_fract_z
Si Si1 0.423830 0.847076 0.589110
Si Si2 0.755853 0.141736 0.644326
Si Si3 0.765493 0.545443 0.821621
Si Si4 0.548454 0.372747 0.661643
Si Si5 0.820443 0.215778 0.176161
Si Si6 0.940464 0.028468 0.278635
O O1 0.349032 0.895835 0.427928
O O2 0.617901 0.805949 0.649569
O O3 0.080045 0.825012 0.371080
O O4 0.638881 0.868542 0.889075
O O5 0.402110 0.150501 0.427746
O O6 0.907870 0.109073 0.896876
O O7 0.510117 0.540816 0.497813
O O8 0.637819 0.517752 0.863504
O O9 0.069138 0.518233 0.988020
O O10 0.341150 0.326811 0.567306
O O11 0.530350 0.421312 0.754209
O O12 0.164247 0.231038 0.500019
#
# Coordination Sequence:
#
# PCOD9138971 Si02
#       6
#     4   4   4   4   4   4
#     4  11  24  47  70 103 142 184 229 291 345 411
#     4  10  24  42  75  96 136 190 219 278 362 408
#     4  12  27  45  70 104 144 184 235 283 346 417
#     4  11  24  47  70 103 142 184 229 291 345 411
#     4  12  26  46  75 104 134 184 241 286 346 412
#     4  12  27  45  70 104 144 184 235 283 346 417
#
# _framework density 23.707861000000001
#
# number of rings (size 3 to 8) (size 9 to 14) (size 15 to 20)
#    0.000    0.667    1.667    5.000    9.333    0.000 
#    0.000   16.667    0.000    0.000    0.000    0.000 
#    0.000    0.000    0.000    0.000    0.000    0.000 
#
# Total GULP energy -66951.004304 kJ/mol
# GULP energy per Si atom -5579.250359 kJ/mol
# Density = 2.365390 g / cm^3
# Si number density = 23.707861 Si / 1000 Ang^3
#
#
#
# Elastic Constant Matrix: (Units=GPa)
#
#
# Indices 1 2 3 4 5 6 
#
# 1 114.7950 24.7151 33.9432 0.0000 15.3015 0.0000
# 2 24.7151 47.9613 -1.1050 0.0000 -7.7404 0.0000
# 3 33.9432 -1.1050 109.2133 0.0000 -0.0868 0.0000
# 4 0.0000 0.0000 0.0000 22.4316 0.0000 5.8107
# 5 15.3015 -7.7404 -0.0868 0.0000 59.8415 0.0000
# 6 0.0000 0.0000 0.0000 5.8107 0.0000 10.1016
#
#
#
# Elastic Compliance Matrix: (Units=1/GPa)
#
#
# Indices 1 2 3 4 5 6 
#
# 1 0.011800 -0.006797 -0.003739 0.000000 -0.003902 0.000000
# 2 -0.006797 0.025215 0.002371 0.000000 0.005003 0.000000
# 3 -0.003739 0.002371 0.010344 0.000000 0.001278 0.000000
# 4 0.000000 0.000000 0.000000 0.052386 0.000000 -0.030134
# 5 -0.003902 0.005003 0.001278 0.000000 0.018357 0.000000
# 6 0.000000 0.000000 0.000000 -0.030134 0.000000 0.116329
#
#
# Mechanical properties :
#
#
# Convention : Reuss Voigt Hill
#
# Bulk Modulus (GPa) = 32.22758 43.00844 37.61801
# Shear Modulus (GPa) = 19.14955 32.76937 25.95946
#
# Velocity S-wave (km/s) = 2.84514 3.72185 3.31263
# Velocity P-wave (km/s) = 4.94128 6.05392 5.52568
#
# Compressibility (1/GPa) = 0.03102933
#
# Stress axis : x y z
#
# Youngs Moduli (GPa) = 84.74385 39.65956 96.67824
#
# Poissons Ratio (x) = 0.26955 0.36151
# Poissons Ratio (y) = 0.57598 -0.22927
# Poissons Ratio (z) = 0.31689 -0.09405
#
# Static dielectric constant tensor:
#      x y z
#    x 1.913710 0.000000 0.004280 
#    y 0.000000 1.883770 0.000000 
#    z 0.004280 0.000000 1.878720 
# 
# From -- ./inp_files/6340.got.cif
#   From: 2010.05.17/outbox.cif.g08.bks.cpg/sg9_4_cif.got.tgz:6340.got - 2010.06.03 20:04:27.
