data_PCOD9138080
_publ_section_title
;
Structure prediction by ZEFSAII (Michael W. Deem and Ramdas Pophale) SiO2 
 PCOD9138080
Probable space group: C C
;
_chemical_formula_sum "Si O2"
_cell_formula_units_Z 24
_cell_length_a 18.450794
_cell_length_b 7.230148
_cell_length_c 13.743666
_cell_angle_alpha 90.000000
_cell_angle_beta 152.447851
_cell_angle_gamma 90.000000
_cell_volume 848.064585
_symmetry_space_group_name_H-M "C C"
_symmetry_group_IT_number 9
_symmetry_cell_setting 'monoclinic'
loop_
_space_group_symop_operation_xyz
x,y,z
x,-y,1/2+z
1/2+x,1/2+y,z
1/2+x,1/2-y,1/2+z
loop_
_atom_site_type_symbol
_atom_site_label
_atom_site_fract_x
_atom_site_fract_y
_atom_site_fract_z
Si Si1 0.442620 0.802758 0.590280
Si Si2 0.762204 0.498956 0.224875
Si Si3 0.830774 0.382569 0.096174
Si Si4 0.636827 0.985879 0.033574
Si Si5 0.242270 0.489368 0.384826
Si Si6 0.451444 0.661287 0.881132
O O1 0.344555 0.951086 0.536246
O O2 0.407698 0.594609 0.578224
O O3 0.616159 0.880829 0.788474
O O4 0.359410 0.833197 0.386638
O O5 0.743031 0.450693 0.088586
O O6 0.598628 0.536133 0.084004
O O7 0.871375 0.685225 0.357100
O O8 0.013059 0.362316 0.350733
O O9 0.760129 0.208406 0.956031
O O10 0.535783 0.794943 0.902929
O O11 0.803329 0.964907 0.179187
O O12 0.678526 0.985862 0.197758
#
# Coordination Sequence:
#
# PCOD9138080 Si02
#       6
#     4   4   4   4   4   4
#     4  12  29  51  80 127 174 231 295 365 442 536
#     4  10  22  47  83 125 177 234 288 369 451 519
#     4  11  26  54  86 126 171 229 293 365 458 518
#     4  10  22  47  85 122 172 235 280 367 446 518
#     4  12  29  53  81 124 177 227 301 361 437 538
#     4   9  18  40  87 124 167 224 295 351 434 537
#
# _framework density 28.29973
#
# number of rings (size 3 to 8) (size 9 to 14) (size 15 to 20)
#    0.000    1.333    3.333    2.000    2.333    8.000 
#    0.000   11.667    0.000    0.000    0.000    0.000 
#    0.000    0.000    0.000    0.000    0.000    0.000 
#
# Total GULP energy -67239.470190 kJ/mol
# GULP energy per Si atom -5603.289183 kJ/mol
# Density = 2.823532 g / cm^3
# Si number density = 28.299730 Si / 1000 Ang^3
#
#
#
# Elastic Constant Matrix: (Units=GPa)
#
#
# Indices 1 2 3 4 5 6 
#
# 1 123.5839 34.1150 59.5397 0.0000 15.0232 0.0000
# 2 34.1150 101.5627 43.8460 0.0000 5.8225 0.0000
# 3 59.5397 43.8460 160.4077 0.0000 21.2030 0.0000
# 4 0.0000 0.0000 0.0000 49.9807 0.0000 15.5660
# 5 15.0232 5.8225 21.2030 0.0000 68.6396 0.0000
# 6 0.0000 0.0000 0.0000 15.5660 0.0000 47.8228
#
#
#
# Elastic Compliance Matrix: (Units=1/GPa)
#
#
# Indices 1 2 3 4 5 6 
#
# 1 0.010293 -0.002050 -0.003113 0.000000 -0.001117 0.000000
# 2 -0.002050 0.011572 -0.002431 0.000000 0.000218 0.000000
# 3 -0.003113 -0.002431 0.008274 0.000000 -0.001669 0.000000
# 4 0.000000 0.000000 0.000000 0.022265 0.000000 -0.007247
# 5 -0.001117 0.000218 -0.001669 0.000000 0.015310 0.000000
# 6 0.000000 0.000000 0.000000 -0.007247 0.000000 0.023269
#
#
# Mechanical properties :
#
#
# Convention : Reuss Voigt Hill
#
# Bulk Modulus (GPa) = 66.87801 73.39510 70.13655
# Shear Modulus (GPa) = 44.98266 49.82552 47.40409
#
# Velocity S-wave (km/s) = 3.99119 4.20055 4.09720
# Velocity P-wave (km/s) = 6.70245 7.03685 6.87169
#
# Compressibility (1/GPa) = 0.01495260
#
# Stress axis : x y z
#
# Youngs Moduli (GPa) = 97.15495 86.41839 120.85372
#
# Poissons Ratio (x) = 0.17712 0.37616
# Poissons Ratio (y) = 0.19913 0.29380
# Poissons Ratio (z) = 0.30240 0.21009
#
# Static dielectric constant tensor:
#      x y z
#    x 2.259510 0.000000 -0.062170 
#    y 0.000000 2.198590 0.000000 
#    z -0.062170 0.000000 2.290150 
# 
# From -- ./inp_files/8987.got.cif
#   From: 2010.05.17/outbox.cif.g08.bks.cpg/sg9_5_cif.got.tgz:8987.got - 2010.06.03 20:04:27.
