data_PCOD9138847
_publ_section_title
;
Structure prediction by ZEFSAII (Michael W. Deem and Ramdas Pophale) SiO2 
 PCOD9138847
Probable space group: C C
;
_chemical_formula_sum "Si O2"
_cell_formula_units_Z 28
_cell_length_a 13.801641
_cell_length_b 9.566316
_cell_length_c 8.823547
_cell_angle_alpha 90.000000
_cell_angle_beta 116.536983
_cell_angle_gamma 90.000000
_cell_volume 1042.245329
_symmetry_space_group_name_H-M "C C"
_symmetry_group_IT_number 9
_symmetry_cell_setting 'monoclinic'
loop_
_space_group_symop_operation_xyz
x,y,z
x,-y,1/2+z
1/2+x,1/2+y,z
1/2+x,1/2-y,1/2+z
loop_
_atom_site_type_symbol
_atom_site_label
_atom_site_fract_x
_atom_site_fract_y
_atom_site_fract_z
Si Si1 0.559370 0.854225 0.333270
Si Si2 0.764801 0.631670 0.722356
Si Si3 0.685223 0.954183 0.133520
Si Si4 0.054853 0.023699 0.692325
Si Si5 0.893950 0.884086 0.848221
Si Si6 0.055539 0.796292 0.483091
Si Si7 0.372203 0.889620 0.990632
O O1 0.315953 0.739649 0.344168
O O2 0.657206 0.894677 0.282675
O O3 0.604121 0.923264 0.518351
O O4 0.464803 0.939191 0.175242
O O5 0.640610 0.623337 0.672874
O O6 0.821491 0.497545 0.838299
O O7 0.782175 0.650362 0.553923
O O8 0.807641 0.010626 0.209343
O O9 0.643530 0.821137 0.005630
O O10 0.093871 0.872290 0.664135
O O11 0.943412 0.043125 0.528062
O O12 0.986782 0.788486 0.824652
O O13 0.047706 0.080522 0.855869
O O14 0.940922 0.724026 0.443011
#
# Coordination Sequence:
#
# PCOD9138847 Si02
#       7
#     4   4   4   4   4   4   4
#     4  10  23  48  81 120 166 226 281 354 419 538
#     4  11  25  48  82 118 166 228 281 353 437 526
#     4  11  26  50  84 122 172 230 283 352 448 513
#     4  12  29  51  78 119 168 218 293 371 417 517
#     4  11  26  47  83 118 168 220 284 353 437 507
#     4  11  28  50  81 118 165 224 285 361 432 518
#     4  10  23  48  81 119 161 222 281 344 436 521
#
# _framework density 26.865075999999998
#
# number of rings (size 3 to 8) (size 9 to 14) (size 15 to 20)
#    0.000    1.143    0.000    5.143   14.000    2.286 
#   12.857    0.000    0.000    0.000    0.000    0.000 
#    0.000    0.000    0.000    0.000    0.000    0.000 
#
# Total GULP energy -78064.758096 kJ/mol
# GULP energy per Si atom -5576.054150 kJ/mol
# Density = 2.680393 g / cm^3
# Si number density = 26.865076 Si / 1000 Ang^3
#
#
#
# Elastic Constant Matrix: (Units=GPa)
#
#
# Indices 1 2 3 4 5 6 
#
# 1 151.0357 48.8348 66.7961 0.0000 -24.4052 0.0000
# 2 48.8348 151.6190 67.7274 0.0000 -2.2211 0.0000
# 3 66.7961 67.7274 120.7317 0.0000 12.1131 0.0000
# 4 0.0000 0.0000 0.0000 53.1093 0.0000 12.7740
# 5 -24.4052 -2.2211 12.1131 0.0000 41.4696 0.0000
# 6 0.0000 0.0000 0.0000 12.7740 0.0000 28.1912
#
#
#
# Elastic Compliance Matrix: (Units=1/GPa)
#
#
# Indices 1 2 3 4 5 6 
#
# 1 0.011127 -0.000438 -0.006763 0.000000 0.008501 0.000000
# 2 -0.000438 0.008977 -0.004961 0.000000 0.001672 0.000000
# 3 -0.006763 -0.004961 0.015694 0.000000 -0.008830 0.000000
# 4 0.000000 0.000000 0.000000 0.021132 0.000000 -0.009575
# 5 0.008501 0.001672 -0.008830 0.000000 0.031786 0.000000
# 6 0.000000 0.000000 0.000000 -0.009575 0.000000 0.039811
#
#
# Mechanical properties :
#
#
# Convention : Reuss Voigt Hill
#
# Bulk Modulus (GPa) = 87.16419 87.78923 87.47671
# Shear Modulus (GPa) = 31.91272 40.55588 36.23430
#
# Velocity S-wave (km/s) = 3.45032 3.88959 3.67652
# Velocity P-wave (km/s) = 6.95618 7.27466 7.11720
#
# Compressibility (1/GPa) = 0.01147260
#
# Stress axis : x y z
#
# Youngs Moduli (GPa) = 89.86855 111.39149 63.71935
#
# Poissons Ratio (x) = 0.04883 0.43095
# Poissons Ratio (y) = 0.03939 0.31613
# Poissons Ratio (z) = 0.60781 0.55265
#
# Static dielectric constant tensor:
#      x y z
#    x 2.191100 0.000000 -0.049220 
#    y 0.000000 2.247570 0.000000 
#    z -0.049220 0.000000 2.056360 
# 
# From -- ./inp_files/9599.got.cif
#   From: 2010.05.17/outbox.cif.g08.bks.cpg/sg9_5_cif.got.tgz:9599.got - 2010.06.03 20:04:27.
