data_PCOD9138318
_publ_section_title
;
Structure prediction by ZEFSAII (Michael W. Deem and Ramdas Pophale) SiO2 
 PCOD9138318
Probable space group: C C
;
_chemical_formula_sum "Si O2"
_cell_formula_units_Z 28
_cell_length_a 7.890843
_cell_length_b 17.886177
_cell_length_c 10.637176
_cell_angle_alpha 90.000000
_cell_angle_beta 51.060238
_cell_angle_gamma 90.000000
_cell_volume 1167.721330
_symmetry_space_group_name_H-M "C C"
_symmetry_group_IT_number 9
_symmetry_cell_setting 'monoclinic'
loop_
_space_group_symop_operation_xyz
x,y,z
x,-y,1/2+z
1/2+x,1/2+y,z
1/2+x,1/2-y,1/2+z
loop_
_atom_site_type_symbol
_atom_site_label
_atom_site_fract_x
_atom_site_fract_y
_atom_site_fract_z
Si Si1 0.900690 0.990557 0.490790
Si Si2 0.492779 0.355042 0.266334
Si Si3 0.292405 0.429721 0.811948
Si Si4 0.696144 0.631466 0.407902
Si Si5 0.630887 0.809216 0.750319
Si Si6 0.606157 0.318042 0.586545
Si Si7 0.079877 0.285688 0.329473
O O1 0.742289 0.025128 0.458978
O O2 0.085135 0.053788 0.422008
O O3 0.989210 0.918654 0.373473
O O4 0.794739 0.972257 0.675999
O O5 0.659195 0.370010 0.075225
O O6 0.555192 0.274215 0.288541
O O7 0.257965 0.340795 0.307358
O O8 0.142469 0.356456 0.873054
O O9 0.534740 0.392428 0.696602
O O10 0.584564 0.708988 0.411735
O O11 0.950744 0.645683 0.253761
O O12 0.889498 0.808254 0.602748
O O13 0.846877 0.324911 0.423784
O O14 0.624494 0.248299 0.671946
#
# Coordination Sequence:
#
# PCOD9138318 Si02
#       7
#     4   4   4   4   4   4   4
#     4  12  24  49  67 104 150 187 244 291 379 432
#     4  11  25  42  74 106 138 192 251 299 355 440
#     4  10  25  45  69  99 149 185 239 298 359 441
#     4  11  22  45  68 107 141 192 233 308 358 439
#     4   9  25  43  72 105 140 192 246 302 354 436
#     4  10  23  42  69 107 137 185 239 305 355 429
#     4  11  22  42  75 100 141 187 250 299 360 423
#
# _framework density 23.978325000000002
#
# number of rings (size 3 to 8) (size 9 to 14) (size 15 to 20)
#    0.857    0.571    4.286    0.000    8.000    0.000 
#    5.143    0.000    0.000    0.000    0.000    0.000 
#    0.000    0.000    0.000    0.000    0.000    0.000 
#
# Total GULP energy -77976.874665 kJ/mol
# GULP energy per Si atom -5569.776762 kJ/mol
# Density = 2.392375 g / cm^3
# Si number density = 23.978325 Si / 1000 Ang^3
#
#
#
# Elastic Constant Matrix: (Units=GPa)
#
#
# Indices 1 2 3 4 5 6 
#
# 1 110.2761 52.1990 58.6203 0.0000 -13.0334 0.0000
# 2 52.1990 110.5384 12.4691 0.0000 7.4822 0.0000
# 3 58.6203 12.4691 72.5945 0.0000 7.0968 0.0000
# 4 0.0000 0.0000 0.0000 6.4381 0.0000 5.3928
# 5 -13.0334 7.4822 7.0968 0.0000 36.6611 0.0000
# 6 0.0000 0.0000 0.0000 5.3928 0.0000 58.4103
#
#
#
# Elastic Compliance Matrix: (Units=1/GPa)
#
#
# Indices 1 2 3 4 5 6 
#
# 1 0.029460 -0.012464 -0.023363 0.000000 0.017540 0.000000
# 2 -0.012464 0.014592 0.008442 0.000000 -0.009043 0.000000
# 3 -0.023363 0.008442 0.032792 0.000000 -0.016377 0.000000
# 4 0.000000 0.000000 0.000000 0.168343 0.000000 -0.015542
# 5 0.017540 -0.009043 -0.016377 0.000000 0.038528 0.000000
# 6 0.000000 0.000000 0.000000 -0.015542 0.000000 0.018555
#
#
# Mechanical properties :
#
#
# Convention : Reuss Voigt Hill
#
# Bulk Modulus (GPa) = 45.30029 59.99843 52.64936
# Shear Modulus (GPa) = 13.72128 31.64328 22.68228
#
# Velocity S-wave (km/s) = 2.39474 3.63666 3.07897
# Velocity P-wave (km/s) = 5.15554 6.53529 5.88598
#
# Compressibility (1/GPa) = 0.02207491
#
# Stress axis : x y z
#
# Youngs Moduli (GPa) = 33.94433 68.53027 30.49551
#
# Poissons Ratio (x) = 0.85413 0.71246
# Poissons Ratio (y) = 0.42307 -0.25745
# Poissons Ratio (z) = 0.79304 -0.57854
#
# Static dielectric constant tensor:
#      x y z
#    x 2.007990 0.000000 0.031280 
#    y 0.000000 1.950240 0.000000 
#    z 0.031280 0.000000 1.957680 
# 
# From -- ./inp_files/15030.got.cif
#   From: 2010.05.17/outbox.cif.g08.bks.cpg/sg9_8_cif.got.tgz:15030.got - 2010.06.03 20:04:27.
