data_PCOD9138420
_publ_section_title
;
Structure prediction by ZEFSAII (Michael W. Deem and Ramdas Pophale) SiO2 
 PCOD9138420
Probable space group: C C
;
_chemical_formula_sum "Si O2"
_cell_formula_units_Z 32
_cell_length_a 25.291342
_cell_length_b 12.126880
_cell_length_c 13.873530
_cell_angle_alpha 90.000000
_cell_angle_beta 159.574571
_cell_angle_gamma 90.000000
_cell_volume 1484.972539
_symmetry_space_group_name_H-M "C C"
_symmetry_group_IT_number 9
_symmetry_cell_setting 'monoclinic'
loop_
_space_group_symop_operation_xyz
x,y,z
x,-y,1/2+z
1/2+x,1/2+y,z
1/2+x,1/2-y,1/2+z
loop_
_atom_site_type_symbol
_atom_site_label
_atom_site_fract_x
_atom_site_fract_y
_atom_site_fract_z
Si Si1 0.649690 0.946705 0.717560
Si Si2 0.562043 0.463024 0.519904
Si Si3 0.304082 0.372039 0.348467
Si Si4 0.778007 0.029758 0.133109
Si Si5 0.135127 0.079228 0.454461
Si Si6 0.824347 0.480751 0.604418
Si Si7 0.995204 0.257766 0.831040
Si Si8 0.789104 0.783344 0.816198
O O1 0.477764 0.955578 0.390409
O O2 0.700942 0.828428 0.761619
O O3 0.755820 0.031560 0.840024
O O4 0.667616 0.995576 0.856373
O O5 0.444967 0.544190 0.372628
O O6 0.581819 0.495308 0.444083
O O7 0.478587 0.345775 0.373576
O O8 0.724516 0.471126 0.847012
O O9 0.276266 0.423452 0.197294
O O10 0.483717 0.354350 0.663139
O O11 0.175385 0.281911 0.145321
O O12 0.760241 0.130574 0.178874
O O13 0.214992 0.007956 0.507966
O O14 0.240570 0.167244 0.688643
O O15 0.890541 0.359713 0.689158
O O16 0.951776 0.231806 0.645638
#
# Coordination Sequence:
#
# PCOD9138420 Si02
#       8
#     4   4   4   4   4   4   4   4
#     4  10  23  46  69  98 142 185 236 301 356 440
#     4  12  24  46  71 101 151 187 245 312 357 449
#     4  10  23  43  69 101 141 181 238 299 364 438
#     4  11  22  45  70  99 140 191 237 298 373 435
#     4  12  25  45  68 110 145 187 244 303 366 449
#     4  11  27  45  71 107 145 190 247 302 372 443
#     4  11  25  48  71 104 145 194 243 303 378 434
#     4  11  25  44  73 106 139 191 246 298 380 438
#
# _framework density 21.549219999999998
#
# number of rings (size 3 to 8) (size 9 to 14) (size 15 to 20)
#    0.000    1.000    5.000    0.750    3.500    5.000 
#    0.000    0.000    0.000    0.000    0.000    0.000 
#    0.000    0.000    0.000    0.000    0.000    0.000 
#
# Total GULP energy -89112.655957 kJ/mol
# GULP energy per Si atom -5569.540997 kJ/mol
# Density = 2.150017 g / cm^3
# Si number density = 21.549220 Si / 1000 Ang^3
#
#
#
# Elastic Constant Matrix: (Units=GPa)
#
#
# Indices 1 2 3 4 5 6 
#
# 1 90.6416 29.8371 28.5439 0.0000 -2.9851 0.0000
# 2 29.8371 65.6879 21.0818 0.0000 -8.9338 0.0000
# 3 28.5439 21.0818 136.6991 0.0000 -12.8855 0.0000
# 4 0.0000 0.0000 0.0000 23.8766 0.0000 2.0224
# 5 -2.9851 -8.9338 -12.8855 0.0000 28.8286 0.0000
# 6 0.0000 0.0000 0.0000 2.0224 0.0000 3.6712
#
#
#
# Elastic Compliance Matrix: (Units=1/GPa)
#
#
# Indices 1 2 3 4 5 6 
#
# 1 0.013499 -0.005641 -0.002069 0.000000 -0.001275 0.000000
# 2 -0.005641 0.018835 -0.001286 0.000000 0.004678 0.000000
# 3 -0.002069 -0.001286 0.008235 0.000000 0.003068 0.000000
# 4 0.000000 0.000000 0.000000 0.043932 0.000000 -0.024201
# 5 -0.001275 0.004678 0.003068 0.000000 0.037377 0.000000
# 6 0.000000 0.000000 0.000000 -0.024201 0.000000 0.285720
#
#
# Mechanical properties :
#
#
# Convention : Reuss Voigt Hill
#
# Bulk Modulus (GPa) = 44.29304 50.21713 47.25508
# Shear Modulus (GPa) = 11.54429 25.51302 18.52865
#
# Velocity S-wave (km/s) = 2.31707 3.44458 2.93547
# Velocity P-wave (km/s) = 5.26853 6.25893 5.78496
#
# Compressibility (1/GPa) = 0.02257691
#
# Stress axis : x y z
#
# Youngs Moduli (GPa) = 74.08028 53.09361 121.43516
#
# Poissons Ratio (x) = 0.29950 0.25124
# Poissons Ratio (y) = 0.41788 0.15615
# Poissons Ratio (z) = 0.15327 0.06827
#
# Static dielectric constant tensor:
#      x y z
#    x 1.801220 0.000000 0.017080 
#    y 0.000000 1.794200 0.000000 
#    z 0.017080 0.000000 1.841310 
# 
# From -- ./inp_files/28106.got.cif
#   From: 2010.05.17/outbox.cif.g08.bks.cpg/sg9_15_cif.got.tgz:28106.got - 2010.06.03 20:04:27.
