data_PCOD9138867
_publ_section_title
;
Structure prediction by ZEFSAII (Michael W. Deem and Ramdas Pophale) SiO2 
 PCOD9138867
Probable space group: C C
;
_chemical_formula_sum "Si O2"
_cell_formula_units_Z 28
_cell_length_a 14.538161
_cell_length_b 4.944514
_cell_length_c 14.869883
_cell_angle_alpha 90.000000
_cell_angle_beta 82.438455
_cell_angle_gamma 90.000000
_cell_volume 1059.613618
_symmetry_space_group_name_H-M "C C"
_symmetry_group_IT_number 9
_symmetry_cell_setting 'monoclinic'
loop_
_space_group_symop_operation_xyz
x,y,z
x,-y,1/2+z
1/2+x,1/2+y,z
1/2+x,1/2-y,1/2+z
loop_
_atom_site_type_symbol
_atom_site_label
_atom_site_fract_x
_atom_site_fract_y
_atom_site_fract_z
Si Si1 0.189060 0.841665 0.927840
Si Si2 0.343408 0.608813 0.669241
Si Si3 0.976076 0.833036 0.001440
Si Si4 0.091653 0.008123 0.271510
Si Si5 0.239669 0.104399 0.613234
Si Si6 0.826589 0.889914 0.870315
Si Si7 0.470513 0.985759 0.851741
O O1 0.976718 0.525957 0.959500
O O2 0.229003 0.534744 0.909743
O O3 0.177278 0.979098 0.832025
O O4 0.243914 0.955217 0.006676
O O5 0.439836 0.593493 0.603661
O O6 0.268473 0.410415 0.631834
O O7 0.345827 0.526280 0.771769
O O8 0.312102 0.911315 0.652882
O O9 0.899454 0.960956 0.941835
O O10 0.083622 0.887705 0.975164
O O11 0.140798 0.961508 0.170641
O O12 0.021720 0.772672 0.307873
O O13 0.034280 0.281010 0.296357
O O14 0.864365 0.580900 0.848331
#
# Coordination Sequence:
#
# PCOD9138867 Si02
#       7
#     4   4   4   4   4   4   4
#     4  11  24  48  81 111 163 206 270 337 406 487
#     4  12  26  48  74 112 157 205 264 334 400 487
#     4   9  24  46  75 112 154 202 272 319 412 466
#     4  11  23  46  73 113 151 204 262 326 402 475
#     4  12  27  44  78 113 155 203 268 326 408 486
#     4  10  23  50  78 111 158 215 260 340 400 490
#     4   9  23  44  73 104 156 195 264 324 394 477
#
# _framework density 26.424727000000001
#
# number of rings (size 3 to 8) (size 9 to 14) (size 15 to 20)
#    0.857    0.571    2.857    0.857    4.000    8.000 
#    0.000    0.000    0.000    0.000    0.000    0.000 
#    0.000    0.000    0.000    0.000    0.000    0.000 
#
# Total GULP energy -78121.143130 kJ/mol
# GULP energy per Si atom -5580.081652 kJ/mol
# Density = 2.636458 g / cm^3
# Si number density = 26.424727 Si / 1000 Ang^3
#
#
#
# Elastic Constant Matrix: (Units=GPa)
#
#
# Indices 1 2 3 4 5 6 
#
# 1 131.1760 15.0349 61.1361 0.0000 -17.1600 0.0000
# 2 15.0349 99.2956 19.4513 0.0000 -4.3226 0.0000
# 3 61.1361 19.4513 136.3746 0.0000 -12.1808 0.0000
# 4 0.0000 0.0000 0.0000 22.1542 0.0000 -7.5847
# 5 -17.1600 -4.3226 -12.1808 0.0000 59.6652 0.0000
# 6 0.0000 0.0000 0.0000 -7.5847 0.0000 44.9203
#
#
#
# Elastic Compliance Matrix: (Units=1/GPa)
#
#
# Indices 1 2 3 4 5 6 
#
# 1 0.009893 -0.000595 -0.004176 0.000000 0.001950 0.000000
# 2 -0.000595 0.010408 -0.001187 0.000000 0.000341 0.000000
# 3 -0.004176 -0.001187 0.009431 0.000000 0.000638 0.000000
# 4 0.000000 0.000000 0.000000 0.047908 0.000000 0.008089
# 5 0.001950 0.000341 0.000638 0.000000 0.017476 0.000000
# 6 0.000000 0.000000 0.000000 0.008089 0.000000 0.023627
#
#
# Mechanical properties :
#
#
# Convention : Reuss Voigt Hill
#
# Bulk Modulus (GPa) = 56.13006 62.01008 59.07007
# Shear Modulus (GPa) = 36.60358 43.42953 40.01655
#
# Velocity S-wave (km/s) = 3.72587 4.05843 3.89570
# Velocity P-wave (km/s) = 6.30849 6.74380 6.52977
#
# Compressibility (1/GPa) = 0.01781577
#
# Stress axis : x y z
#
# Youngs Moduli (GPa) = 101.08351 96.07566 106.03147
#
# Poissons Ratio (x) = 0.05717 0.44278
# Poissons Ratio (y) = 0.06015 0.12590
# Poissons Ratio (z) = 0.42211 0.11408
#
# Static dielectric constant tensor:
#      x y z
#    x 2.129150 0.000000 -0.004860 
#    y 0.000000 2.158210 0.000000 
#    z -0.004860 0.000000 2.065420 
# 
# From -- ./inp_files/30339.got.cif
#   From: 2010.05.17/outbox.cif.g08.bks.cpg/sg9_16_cif.got.tgz:30339.got - 2010.06.03 20:04:27.
