data_PCOD9138657
_publ_section_title
;
Structure prediction by ZEFSAII (Michael W. Deem and Ramdas Pophale) SiO2 
 PCOD9138657
Probable space group: C C
;
_chemical_formula_sum "Si O2"
_cell_formula_units_Z 20
_cell_length_a 4.957089
_cell_length_b 13.350794
_cell_length_c 12.358180
_cell_angle_alpha 90.000000
_cell_angle_beta 93.305346
_cell_angle_gamma 90.000000
_cell_volume 816.517039
_symmetry_space_group_name_H-M "C C"
_symmetry_group_IT_number 9
_symmetry_cell_setting 'monoclinic'
loop_
_space_group_symop_operation_xyz
x,y,z
x,-y,1/2+z
1/2+x,1/2+y,z
1/2+x,1/2-y,1/2+z
loop_
_atom_site_type_symbol
_atom_site_label
_atom_site_fract_x
_atom_site_fract_y
_atom_site_fract_z
Si Si1 0.860770 0.543123 0.910600
Si Si2 0.522232 0.221979 0.791901
Si Si3 0.877505 0.028834 0.534130
Si Si4 0.483412 0.722009 0.652306
Si Si5 0.208798 0.084363 0.219383
O O1 0.929841 0.658665 0.891376
O O2 0.886114 0.491707 0.792880
O O3 0.562967 0.521292 0.946488
O O4 0.070040 0.492688 0.997421
O O5 0.802429 0.181585 0.749101
O O6 0.573890 0.340021 0.803373
O O7 0.293293 0.216277 0.693912
O O8 0.989927 0.973726 0.644020
O O9 0.924792 0.146730 0.554088
O O10 0.377111 0.836839 0.648569
#
# Coordination Sequence:
#
# PCOD9138657 Si02
#       5
#     4   4   4   4   4
#     4  12  27  44  74 108 139 184 241 289 349 420
#     4  10  23  45  72  98 141 188 232 277 360 414
#     4  12  27  44  74 108 139 184 241 289 349 420
#     4  10  23  45  72  98 141 188 232 277 360 414
#     4  10  28  46  76  94 156 186 222 306 348 404
#
# _framework density 24.494284
#
# number of rings (size 3 to 8) (size 9 to 14) (size 15 to 20)
#    1.200    0.000    2.000    2.400    5.600    3.200 
#    0.000    0.000    0.000    0.000    0.000    0.000 
#    0.000    0.000    0.000    0.000    0.000    0.000 
#
# Total GULP energy -55900.563119 kJ/mol
# GULP energy per Si atom -5590.056312 kJ/mol
# Density = 2.443853 g / cm^3
# Si number density = 24.494284 Si / 1000 Ang^3
#
#
#
# Elastic Constant Matrix: (Units=GPa)
#
#
# Indices 1 2 3 4 5 6 
#
# 1 45.1091 1.8616 -8.4023 0.0000 1.3091 0.0000
# 2 1.8616 129.5487 37.7868 0.0000 2.5563 0.0000
# 3 -8.4023 37.7868 73.7752 0.0000 6.7045 0.0000
# 4 0.0000 0.0000 0.0000 41.1510 0.0000 -5.7091
# 5 1.3091 2.5563 6.7045 0.0000 48.1057 0.0000
# 6 0.0000 0.0000 0.0000 -5.7091 0.0000 29.5900
#
#
#
# Elastic Compliance Matrix: (Units=1/GPa)
#
#
# Indices 1 2 3 4 5 6 
#
# 1 0.022877 -0.001288 0.003358 0.000000 -0.001022 0.000000
# 2 -0.001288 0.009149 -0.004853 0.000000 0.000225 0.000000
# 3 0.003358 -0.004853 0.016618 0.000000 -0.002150 0.000000
# 4 0.000000 0.000000 0.000000 0.024969 0.000000 0.004818
# 5 -0.001022 0.000225 -0.002150 0.000000 0.021103 0.000000
# 6 0.000000 0.000000 0.000000 0.004818 0.000000 0.034725
#
#
# Mechanical properties :
#
#
# Convention : Reuss Voigt Hill
#
# Bulk Modulus (GPa) = 23.21392 34.54723 28.88057
# Shear Modulus (GPa) = 33.47489 38.24847 35.86168
#
# Velocity S-wave (km/s) = 3.70082 3.95590 3.83049
# Velocity P-wave (km/s) = 5.26871 5.91611 5.60177
#
# Compressibility (1/GPa) = 0.04307761
#
# Stress axis : x y z
#
# Youngs Moduli (GPa) = 43.71242 109.30516 60.17518
#
# Poissons Ratio (x) = 0.14079 -0.20207
# Poissons Ratio (y) = 0.05630 0.29203
# Poissons Ratio (z) = -0.14679 0.53046
#
# Static dielectric constant tensor:
#      x y z
#    x 1.870760 0.000000 -0.077900 
#    y 0.000000 1.941160 0.000000 
#    z -0.077900 0.000000 1.970670 
# 
# From -- ./inp_files/12869.got.cif
#   From: 2010.05.17/outbox.cif.g08.bks.cpg/sg9_7_cif.got.tgz:12869.got - 2010.06.03 20:04:27.
