data_PCOD9138590
_publ_section_title
;
Structure prediction by ZEFSAII (Michael W. Deem and Ramdas Pophale) SiO2 
 PCOD9138590
Probable space group: C C
;
_chemical_formula_sum "Si O2"
_cell_formula_units_Z 32
_cell_length_a 8.078427
_cell_length_b 12.155124
_cell_length_c 20.792331
_cell_angle_alpha 90.000000
_cell_angle_beta 130.403789
_cell_angle_gamma 90.000000
_cell_volume 1554.736122
_symmetry_space_group_name_H-M "C C"
_symmetry_group_IT_number 9
_symmetry_cell_setting 'monoclinic'
loop_
_space_group_symop_operation_xyz
x,y,z
x,-y,1/2+z
1/2+x,1/2+y,z
1/2+x,1/2-y,1/2+z
loop_
_atom_site_type_symbol
_atom_site_label
_atom_site_fract_x
_atom_site_fract_y
_atom_site_fract_z
Si Si1 0.038290 0.592515 0.700770
Si Si2 0.382530 0.258772 0.559445
Si Si3 0.977550 0.221382 0.783801
Si Si4 0.423810 0.024940 0.305151
Si Si5 0.443988 0.117717 0.929116
Si Si6 0.505465 0.093395 0.086015
Si Si7 0.796507 0.799687 0.095230
Si Si8 0.953262 0.037153 0.146534
O O1 0.283692 0.642743 0.762121
O O2 0.987511 0.491095 0.639967
O O3 0.902104 0.687864 0.629899
O O4 0.985781 0.548614 0.758445
O O5 0.538640 0.204396 0.545467
O O6 0.500688 0.375614 0.602972
O O7 0.136153 0.290687 0.481246
O O8 0.976927 0.346323 0.809991
O O9 0.916458 0.225100 0.693201
O O10 0.214221 0.171558 0.854497
O O11 0.510865 0.969048 0.391400
O O12 0.162882 0.019075 0.241716
O O13 0.425049 0.061573 0.994420
O O14 0.385171 0.207137 0.070431
O O15 0.764643 0.093780 0.140568
O O16 0.868274 0.922867 0.097044
#
# Coordination Sequence:
#
# PCOD9138590 Si02
#       8
#     4   4   4   4   4   4   4   4
#     4  11  22  46  74  93 129 184 236 261 328 423
#     4  10  23  45  63 104 130 172 225 277 334 408
#     4  11  23  47  65 100 134 176 228 278 334 407
#     4  12  24  45  68  99 134 179 228 280 334 408
#     4  11  27  42  61 103 145 163 218 291 352 379
#     4  11  23  42  69 101 129 178 223 276 338 395
#     4  11  21  42  73  90 130 177 235 264 323 417
#     4  11  21  39  71  94 129 175 229 273 323 401
#
# _framework density 20.582272
#
# number of rings (size 3 to 8) (size 9 to 14) (size 15 to 20)
#    0.000    1.000    7.500    0.000    3.500    3.000 
#    6.750    0.000    0.000    0.000    0.000    0.000 
#    0.000    0.000    0.000    0.000    0.000    0.000 
#
# Total GULP energy -89245.215302 kJ/mol
# GULP energy per Si atom -5577.825956 kJ/mol
# Density = 2.053543 g / cm^3
# Si number density = 20.582272 Si / 1000 Ang^3
#
#
#
# Elastic Constant Matrix: (Units=GPa)
#
#
# Indices 1 2 3 4 5 6 
#
# 1 51.4541 32.8561 45.3480 0.0000 -7.8317 0.0000
# 2 32.8561 121.0093 2.3185 0.0000 -7.4471 0.0000
# 3 45.3480 2.3185 66.1703 0.0000 7.1302 0.0000
# 4 0.0000 0.0000 0.0000 18.6072 0.0000 7.4099
# 5 -7.8317 -7.4471 7.1302 0.0000 46.0017 0.0000
# 6 0.0000 0.0000 0.0000 7.4099 0.0000 26.7418
#
#
#
# Elastic Compliance Matrix: (Units=1/GPa)
#
#
# Indices 1 2 3 4 5 6 
#
# 1 0.102887 -0.025032 -0.072292 0.000000 0.024669 0.000000
# 2 -0.025032 0.014450 0.017142 0.000000 -0.004579 0.000000
# 3 -0.072292 0.017142 0.066188 0.000000 -0.019792 0.000000
# 4 0.000000 0.000000 0.000000 0.060408 0.000000 -0.016739
# 5 0.024669 -0.004579 -0.019792 0.000000 0.028265 0.000000
# 6 0.000000 0.000000 0.000000 -0.016739 0.000000 0.042033
#
#
# Mechanical properties :
#
#
# Convention : Reuss Voigt Hill
#
# Bulk Modulus (GPa) = 43.17545 44.40876 43.79210
# Shear Modulus (GPa) = 10.36664 28.81088 19.58876
#
# Velocity S-wave (km/s) = 2.24669 3.74544 3.08836
# Velocity P-wave (km/s) = 5.26808 6.35039 5.83439
#
# Compressibility (1/GPa) = 0.02316131
#
# Stress axis : x y z
#
# Youngs Moduli (GPa) = 9.71936 69.20285 15.10846
#
# Poissons Ratio (x) = 1.73231 1.09222
# Poissons Ratio (y) = 0.24330 -0.25900
# Poissons Ratio (z) = 0.70263 -1.18630
#
# Static dielectric constant tensor:
#      x y z
#    x 1.771810 0.000000 -0.010400 
#    y 0.000000 1.807710 0.000000 
#    z -0.010400 0.000000 1.733010 
# 
# From -- ./inp_files/22924.got.cif
#   From: 2010.05.17/outbox.cif.g08.bks.cpg/sg9_12_cif.got.tgz:22924.got - 2010.06.03 20:04:27.
