data_PCOD9138132
_publ_section_title
;
Structure prediction by ZEFSAII (Michael W. Deem and Ramdas Pophale) SiO2 
 PCOD9138132
Probable space group: C C
;
_chemical_formula_sum "Si O2"
_cell_formula_units_Z 24
_cell_length_a 9.058852
_cell_length_b 27.965447
_cell_length_c 5.094111
_cell_angle_alpha 90.000000
_cell_angle_beta 120.020483
_cell_angle_gamma 90.000000
_cell_volume 1117.388738
_symmetry_space_group_name_H-M "C C"
_symmetry_group_IT_number 9
_symmetry_cell_setting 'monoclinic'
loop_
_space_group_symop_operation_xyz
x,y,z
x,-y,1/2+z
1/2+x,1/2+y,z
1/2+x,1/2-y,1/2+z
loop_
_atom_site_type_symbol
_atom_site_label
_atom_site_fract_x
_atom_site_fract_y
_atom_site_fract_z
Si Si1 0.175420 0.305963 0.203030
Si Si2 0.705867 0.356303 0.160467
Si Si3 0.373976 0.387779 0.124820
Si Si4 0.259180 0.534316 0.842238
Si Si5 0.789029 0.299720 0.724353
Si Si6 0.571551 0.108929 0.967380
O O1 0.238880 0.252228 0.287892
O O2 0.130461 0.338791 0.414184
O O3 0.321313 0.336044 0.187553
O O4 0.993808 0.304041 0.894094
O O5 0.716801 0.311769 0.373772
O O6 0.875632 0.386999 0.369625
O O7 0.534988 0.383796 0.081251
O O8 0.719930 0.337771 0.875854
O O9 0.397408 0.425246 0.382669
O O10 0.205753 0.403426 0.813168
O O11 0.268125 0.501971 0.107923
O O12 0.099040 0.569528 0.763748
#
# Coordination Sequence:
#
# PCOD9138132 Si02
#       6
#     4   4   4   4   4   4
#     4  10  23  38  62  93 132 175 216 265 311 361
#     4  11  26  41  64  97 129 172 216 260 311 373
#     4  11  23  42  70  91 132 167 212 262 325 372
#     4  11  23  43  71  97 124 164 206 261 329 389
#     4  11  24  40  60  94 134 171 224 259 303 373
#     4  10  23  44  65  94 129 169 210 265 319 380
#
# _framework density 21.478648
#
# number of rings (size 3 to 8) (size 9 to 14) (size 15 to 20)
#    0.000    1.333    3.333    1.000    9.333    1.333 
#    0.000    1.667    0.000    0.000    0.000    0.000 
#    0.000    0.000    0.000    0.000    0.000    0.000 
#
# Total GULP energy -66968.438300 kJ/mol
# GULP energy per Si atom -5580.703192 kJ/mol
# Density = 2.142976 g / cm^3
# Si number density = 21.478648 Si / 1000 Ang^3
#
#
#
# Elastic Constant Matrix: (Units=GPa)
#
#
# Indices 1 2 3 4 5 6 
#
# 1 150.9648 24.2956 18.6924 0.0000 -1.6982 0.0000
# 2 24.2956 76.3426 8.6420 0.0000 -4.7505 0.0000
# 3 18.6924 8.6420 64.7988 0.0000 -16.0753 0.0000
# 4 0.0000 0.0000 0.0000 24.2211 0.0000 -12.8898
# 5 -1.6982 -4.7505 -16.0753 0.0000 24.1007 0.0000
# 6 0.0000 0.0000 0.0000 -12.8898 0.0000 6.4768
#
#
#
# Elastic Compliance Matrix: (Units=1/GPa)
#
#
# Indices 1 2 3 4 5 6 
#
# 1 0.007217 -0.002139 -0.002127 0.000000 -0.001332 0.000000
# 2 -0.002139 0.013994 -0.000722 0.000000 0.002126 0.000000
# 3 -0.002127 -0.000722 0.019256 0.000000 0.012552 0.000000
# 4 0.000000 0.000000 0.000000 -0.698429 0.000000 -1.389986
# 5 -0.001332 0.002126 0.012552 0.000000 0.050190 0.000000
# 6 0.000000 0.000000 0.000000 -1.389986 0.000000 -2.611898
#
#
# Mechanical properties :
#
#
# Convention : Reuss Voigt Hill
#
# Bulk Modulus (GPa) = 32.79645 43.92960 38.36303
# Shear Modulus (GPa) = -1.56273 26.99146 12.71437
#
# Velocity S-wave (km/s) = -0.85390 3.54879 2.43565
# Velocity P-wave (km/s) = 3.78553 6.10647 5.08032
#
# Compressibility (1/GPa) = 0.03049110
#
# Stress axis : x y z
#
# Youngs Moduli (GPa) = 138.56869 71.46165 51.93180
#
# Poissons Ratio (x) = 0.15284 0.11045
# Poissons Ratio (y) = 0.29637 0.03749
# Poissons Ratio (z) = 0.29472 0.05159
#
# Static dielectric constant tensor:
#      x y z
#    x 1.770580 0.000000 -0.018410 
#    y 0.000000 1.784930 0.000000 
#    z -0.018410 0.000000 1.855250 
# 
# From -- ./inp_files/950.got.cif
#   From: 2010.05.17/outbox.cif.g08.bks.cpg/sg9_1_cif.got.tgz:950.got - 2010.06.03 20:04:27.
