data_PCOD9138593
_publ_section_title
;
Structure prediction by ZEFSAII (Michael W. Deem and Ramdas Pophale) SiO2 
 PCOD9138593
Probable space group: C C
;
_chemical_formula_sum "Si O2"
_cell_formula_units_Z 24
_cell_length_a 11.262533
_cell_length_b 10.949017
_cell_length_c 8.731362
_cell_angle_alpha 90.000000
_cell_angle_beta 95.261344
_cell_angle_gamma 90.000000
_cell_volume 1072.159905
_symmetry_space_group_name_H-M "C C"
_symmetry_group_IT_number 9
_symmetry_cell_setting 'monoclinic'
loop_
_space_group_symop_operation_xyz
x,y,z
x,-y,1/2+z
1/2+x,1/2+y,z
1/2+x,1/2-y,1/2+z
loop_
_atom_site_type_symbol
_atom_site_label
_atom_site_fract_x
_atom_site_fract_y
_atom_site_fract_z
Si Si1 0.105910 0.212032 0.758640
Si Si2 0.373425 0.777912 0.329777
Si Si3 0.890733 0.077708 0.587632
Si Si4 0.292789 0.354904 0.398863
Si Si5 0.990223 0.706897 0.533510
Si Si6 0.550200 0.925447 0.533017
O O1 0.244465 0.192268 0.747404
O O2 0.067942 0.345967 0.689385
O O3 0.021854 0.115179 0.662579
O O4 0.078203 0.215717 0.935940
O O5 0.360092 0.664125 0.441269
O O6 0.465503 0.753650 0.204016
O O7 0.428378 0.884114 0.438833
O O8 0.808698 0.104637 0.725399
O O9 0.869040 0.944793 0.518202
O O10 0.361315 0.226475 0.432436
O O11 0.159697 0.376888 0.441741
O O12 0.040939 0.569766 0.548300
#
# Coordination Sequence:
#
# PCOD9138593 Si02
#       6
#     4   4   4   4   4   4
#     4  10  23  45  64 103 142 181 246 289 359 432
#     4  11  23  44  68 103 144 185 242 299 357 434
#     4  10  24  42  71 100 138 190 237 295 359 424
#     4  11  23  43  70 104 140 187 242 291 357 434
#     4  11  23  41  70 102 137 185 238 294 355 430
#     4  11  24  41  71 102 141 190 235 296 359 422
#
# _framework density 22.384720999999999
#
# number of rings (size 3 to 8) (size 9 to 14) (size 15 to 20)
#    0.000    1.333    1.667    3.000    7.000    0.000 
#    6.000    1.667    0.000    0.000    0.000    0.000 
#    0.000    0.000    0.000    0.000    0.000    0.000 
#
# Total GULP energy -67056.315899 kJ/mol
# GULP energy per Si atom -5588.026325 kJ/mol
# Density = 2.233377 g / cm^3
# Si number density = 22.384721 Si / 1000 Ang^3
#
#
#
# Elastic Constant Matrix: (Units=GPa)
#
#
# Indices 1 2 3 4 5 6 
#
# 1 112.4828 37.5225 23.9672 0.0000 6.6686 0.0000
# 2 37.5225 38.5954 -0.6727 0.0000 14.1421 0.0000
# 3 23.9672 -0.6727 111.5886 0.0000 -21.3162 0.0000
# 4 0.0000 0.0000 0.0000 13.5564 0.0000 -9.3406
# 5 6.6686 14.1421 -21.3162 0.0000 42.6568 0.0000
# 6 0.0000 0.0000 0.0000 -9.3406 0.0000 7.0152
#
#
#
# Elastic Compliance Matrix: (Units=1/GPa)
#
#
# Indices 1 2 3 4 5 6 
#
# 1 0.014206 -0.014240 -0.002940 0.000000 0.001031 0.000000
# 2 -0.014240 0.044123 0.001056 0.000000 -0.011874 0.000000
# 3 -0.002940 0.001056 0.010635 0.000000 0.005424 0.000000
# 4 0.000000 0.000000 0.000000 0.893203 0.000000 1.189283
# 5 0.001031 -0.011874 0.005424 0.000000 0.029929 0.000000
# 6 0.000000 0.000000 0.000000 1.189283 0.000000 1.726057
#
#
# Mechanical properties :
#
#
# Convention : Reuss Voigt Hill
#
# Bulk Modulus (GPa) = 27.23534 42.70009 34.96772
# Shear Modulus (GPa) = 1.80986 26.10234 13.95610
#
# Velocity S-wave (km/s) = 0.90016 3.41849 2.49964
# Velocity P-wave (km/s) = 3.64331 5.89054 4.89756
#
# Compressibility (1/GPa) = 0.03671701
#
# Stress axis : x y z
#
# Youngs Moduli (GPa) = 70.39384 22.66375 94.02498
#
# Poissons Ratio (x) = 0.32273 0.27644
# Poissons Ratio (y) = 1.00240 -0.09931
# Poissons Ratio (z) = 0.20696 -0.02394
#
# Static dielectric constant tensor:
#      x y z
#    x 1.861850 0.000000 -0.008570 
#    y 0.000000 1.879980 0.000000 
#    z -0.008570 0.000000 1.845400 
# 
# From -- ./inp_files/6955.got.cif
#   From: 2010.05.17/outbox.cif.g08.bks.cpg/sg9_4_cif.got.tgz:6955.got - 2010.06.03 20:04:27.
