data_PCOD9138646
_publ_section_title
;
Structure prediction by ZEFSAII (Michael W. Deem and Ramdas Pophale) SiO2 
 PCOD9138646
Probable space group: C C
;
_chemical_formula_sum "Si O2"
_cell_formula_units_Z 32
_cell_length_a 28.821161
_cell_length_b 7.783481
_cell_length_c 11.097875
_cell_angle_alpha 90.000000
_cell_angle_beta 145.986074
_cell_angle_gamma 90.000000
_cell_volume 1392.654142
_symmetry_space_group_name_H-M "C C"
_symmetry_group_IT_number 9
_symmetry_cell_setting 'monoclinic'
loop_
_space_group_symop_operation_xyz
x,y,z
x,-y,1/2+z
1/2+x,1/2+y,z
1/2+x,1/2-y,1/2+z
loop_
_atom_site_type_symbol
_atom_site_label
_atom_site_fract_x
_atom_site_fract_y
_atom_site_fract_z
Si Si1 0.168410 0.721389 0.111010
Si Si2 0.849528 0.851838 0.644134
Si Si3 0.204982 0.201474 0.443550
Si Si4 0.263853 0.844270 0.520290
Si Si5 0.059945 0.316641 0.982921
Si Si6 0.930733 0.207983 0.896136
Si Si7 0.492919 0.808272 0.295757
Si Si8 0.199252 0.667176 0.622909
O O1 0.245678 0.734574 0.363616
O O2 0.170239 0.531376 0.057317
O O3 0.175402 0.843974 0.012791
O O4 0.087229 0.755021 0.014964
O O5 0.798015 0.773741 0.644801
O O6 0.927899 0.753936 0.755132
O O7 0.778196 0.836269 0.385269
O O8 0.881597 0.032400 0.764842
O O9 0.216123 0.022616 0.398597
O O10 0.140253 0.334939 0.244936
O O11 0.362633 0.860082 0.740678
O O12 0.230779 0.748340 0.567566
O O13 0.998257 0.212564 0.935198
O O14 0.008497 0.485970 0.835066
O O15 0.113174 0.244944 0.984937
O O16 0.967533 0.236049 0.109067
#
# Coordination Sequence:
#
# PCOD9138646 Si02
#       8
#     4   4   4   4   4   4   4   4
#     4  11  25  44  71 105 144 194 236 303 362 433
#     4  11  24  45  73 102 147 187 241 298 369 430
#     4  11  26  45  71 105 144 193 243 297 369 435
#     4  12  26  43  77 105 148 188 252 296 360 443
#     4  10  25  46  71 101 149 187 242 299 367 429
#     4  12  24  46  71 110 146 189 247 304 357 433
#     4  11  25  44  73 104 151 189 243 298 370 429
#     4  10  23  45  71 104 141 191 234 297 368 432
#
# _framework density 22.977709999999998
#
# number of rings (size 3 to 8) (size 9 to 14) (size 15 to 20)
#    0.000    1.000    3.750    1.500    8.750    1.000 
#    0.000    2.500    0.000    0.000    0.000    0.000 
#    0.000    0.000    0.000    0.000    0.000    0.000 
#
# Total GULP energy -89182.559046 kJ/mol
# GULP energy per Si atom -5573.909940 kJ/mol
# Density = 2.292541 g / cm^3
# Si number density = 22.977710 Si / 1000 Ang^3
#
#
#
# Elastic Constant Matrix: (Units=GPa)
#
#
# Indices 1 2 3 4 5 6 
#
# 1 91.4662 17.1262 5.1289 0.0000 27.5578 0.0000
# 2 17.1262 77.2813 22.0283 0.0000 6.9961 0.0000
# 3 5.1289 22.0283 64.7440 0.0000 9.7693 0.0000
# 4 0.0000 0.0000 0.0000 25.6555 0.0000 6.8377
# 5 27.5578 6.9961 9.7693 0.0000 45.3372 0.0000
# 6 0.0000 0.0000 0.0000 6.8377 0.0000 32.7502
#
#
#
# Elastic Compliance Matrix: (Units=1/GPa)
#
#
# Indices 1 2 3 4 5 6 
#
# 1 0.013847 -0.002618 0.001037 0.000000 -0.008236 0.000000
# 2 -0.002618 0.014888 -0.004911 0.000000 0.000352 0.000000
# 3 0.001037 -0.004911 0.017587 0.000000 -0.003662 0.000000
# 4 0.000000 0.000000 0.000000 0.041275 0.000000 -0.008618
# 5 -0.008236 0.000352 -0.003662 0.000000 0.027798 0.000000
# 6 0.000000 0.000000 0.000000 -0.008618 0.000000 0.032333
#
#
# Mechanical properties :
#
#
# Convention : Reuss Voigt Hill
#
# Bulk Modulus (GPa) = 29.99807 35.78427 32.89117
# Shear Modulus (GPa) = 29.09940 33.36246 31.23093
#
# Velocity S-wave (km/s) = 3.56254 3.81458 3.69071
# Velocity P-wave (km/s) = 5.47776 5.91681 5.70151
#
# Compressibility (1/GPa) = 0.03333548
#
# Stress axis : x y z
#
# Youngs Moduli (GPa) = 72.22032 67.16823 56.86067
#
# Poissons Ratio (x) = 0.17588 -0.05895
# Poissons Ratio (y) = 0.18911 0.27925
# Poissons Ratio (z) = -0.07487 0.32988
#
# Static dielectric constant tensor:
#      x y z
#    x 1.897080 0.000000 0.002250 
#    y 0.000000 1.909860 0.000000 
#    z 0.002250 0.000000 1.813890 
# 
# From -- ./inp_files/21430.got.cif
#   From: 2010.05.17/outbox.cif.g08.bks.cpg/sg9_11_cif.got.tgz:21430.got - 2010.06.03 20:04:27.
