data_PCOD9138010
_publ_section_title
;
Structure prediction by ZEFSAII (Michael W. Deem and Ramdas Pophale) SiO2 
 PCOD9138010
Probable space group: C C
;
_chemical_formula_sum "Si O2"
_cell_formula_units_Z 28
_cell_length_a 23.965819
_cell_length_b 9.262850
_cell_length_c 12.517863
_cell_angle_alpha 90.000000
_cell_angle_beta 154.680326
_cell_angle_gamma 90.000000
_cell_volume 1188.431457
_symmetry_space_group_name_H-M "C C"
_symmetry_group_IT_number 9
_symmetry_cell_setting 'monoclinic'
loop_
_space_group_symop_operation_xyz
x,y,z
x,-y,1/2+z
1/2+x,1/2+y,z
1/2+x,1/2-y,1/2+z
loop_
_atom_site_type_symbol
_atom_site_label
_atom_site_fract_x
_atom_site_fract_y
_atom_site_fract_z
Si Si1 0.951370 0.316463 0.905870
Si Si2 0.565435 0.754996 0.487702
Si Si3 0.447610 0.497577 0.892129
Si Si4 0.809463 0.452442 0.045504
Si Si5 0.704429 0.969763 0.310132
Si Si6 0.579708 0.468319 0.819093
Si Si7 0.230579 0.806689 0.702344
O O1 0.873602 0.393404 0.676816
O O2 0.851300 0.300456 0.829608
O O3 0.993665 0.158570 0.943506
O O4 0.073844 0.416642 0.146025
O O5 0.551788 0.627246 0.549572
O O6 0.428506 0.839583 0.261317
O O7 0.673669 0.875013 0.703257
O O8 0.570987 0.665296 0.386426
O O9 0.322073 0.472803 0.599450
O O10 0.449087 0.506393 0.023364
O O11 0.699555 0.430683 0.945891
O O12 0.762230 0.426987 0.845208
O O13 0.715895 0.844632 0.239435
O O14 0.614243 0.620488 0.933949
#
# Coordination Sequence:
#
# PCOD9138010 Si02
#       7
#     4   4   4   4   4   4   4
#     4  10  25  47  74 108 148 195 242 311 368 440
#     4  11  25  48  72 111 146 196 251 306 364 446
#     4  12  26  46  75 108 147 195 248 302 376 439
#     4  10  22  46  73 106 146 196 243 306 366 435
#     4  11  26  50  78 105 151 194 253 306 367 448
#     4  11  25  44  78 103 155 193 242 313 370 435
#     4  11  23  49  76 107 149 199 245 304 377 441
#
# _framework density 23.560466000000002
#
# number of rings (size 3 to 8) (size 9 to 14) (size 15 to 20)
#    0.000    1.143    1.429    3.429    6.000    1.143 
#    5.143    4.286    0.000    0.000    0.000    0.000 
#    0.000    0.000    0.000    0.000    0.000    0.000 
#
# Total GULP energy -78216.963803 kJ/mol
# GULP energy per Si atom -5586.925986 kJ/mol
# Density = 2.350684 g / cm^3
# Si number density = 23.560466 Si / 1000 Ang^3
#
#
#
# Elastic Constant Matrix: (Units=GPa)
#
#
# Indices 1 2 3 4 5 6 
#
# 1 89.5901 44.0061 52.5031 0.0000 -9.6679 0.0000
# 2 44.0061 162.3961 88.9521 0.0000 -20.2139 0.0000
# 3 52.5031 88.9521 149.9166 0.0000 -25.0424 0.0000
# 4 0.0000 0.0000 0.0000 40.4453 0.0000 0.3870
# 5 -9.6679 -20.2139 -25.0424 0.0000 33.4926 0.0000
# 6 0.0000 0.0000 0.0000 0.3870 0.0000 32.8366
#
#
#
# Elastic Compliance Matrix: (Units=1/GPa)
#
#
# Indices 1 2 3 4 5 6 
#
# 1 0.014349 -0.001676 -0.004008 0.000000 0.000133 0.000000
# 2 -0.001676 0.009401 -0.004713 0.000000 0.001666 0.000000
# 3 -0.004008 -0.004713 0.011658 0.000000 0.004715 0.000000
# 4 0.000000 0.000000 0.000000 0.024728 0.000000 -0.000291
# 5 0.000133 0.001666 0.004715 0.000000 0.034427 0.000000
# 6 0.000000 0.000000 0.000000 -0.000291 0.000000 0.030457
#
#
# Mechanical properties :
#
#
# Convention : Reuss Voigt Hill
#
# Bulk Modulus (GPa) = 68.43024 85.86948 77.14986
# Shear Modulus (GPa) = 33.18194 35.78431 34.48313
#
# Velocity S-wave (km/s) = 3.75690 3.90144 3.82985
# Velocity P-wave (km/s) = 6.92291 7.53794 7.23696
#
# Compressibility (1/GPa) = 0.01461342
#
# Stress axis : x y z
#
# Youngs Moduli (GPa) = 69.69294 106.37595 85.77797
#
# Poissons Ratio (x) = 0.17829 0.34383
# Poissons Ratio (y) = 0.11681 0.40423
# Poissons Ratio (z) = 0.27936 0.50130
#
# Static dielectric constant tensor:
#      x y z
#    x 1.945140 0.000000 0.032270 
#    y 0.000000 1.918330 0.000000 
#    z 0.032270 0.000000 2.003940 
# 
# From -- ./inp_files/20845.got.cif
#   From: 2010.05.17/outbox.cif.g08.bks.cpg/sg9_11_cif.got.tgz:20845.got - 2010.06.03 20:04:27.
