data_PCOD9138498
_publ_section_title
;
Structure prediction by ZEFSAII (Michael W. Deem and Ramdas Pophale) SiO2 
 PCOD9138498
Probable space group: C C
;
_chemical_formula_sum "Si O2"
_cell_formula_units_Z 32
_cell_length_a 17.444441
_cell_length_b 15.550495
_cell_length_c 11.048033
_cell_angle_alpha 90.000000
_cell_angle_beta 151.452134
_cell_angle_gamma 90.000000
_cell_volume 1432.242980
_symmetry_space_group_name_H-M "C C"
_symmetry_group_IT_number 9
_symmetry_cell_setting 'monoclinic'
loop_
_space_group_symop_operation_xyz
x,y,z
x,-y,1/2+z
1/2+x,1/2+y,z
1/2+x,1/2-y,1/2+z
loop_
_atom_site_type_symbol
_atom_site_label
_atom_site_fract_x
_atom_site_fract_y
_atom_site_fract_z
Si Si1 0.190150 0.485778 0.586870
Si Si2 0.271630 0.657482 0.030013
Si Si3 0.635760 0.124550 0.225344
Si Si4 0.311063 0.055877 0.541535
Si Si5 0.292837 0.063309 0.797009
Si Si6 0.813727 0.172384 0.708052
Si Si7 0.177318 0.217332 0.221957
Si Si8 0.108848 0.770651 0.011457
O O1 0.261244 0.438095 0.567249
O O2 0.236630 0.434428 0.773222
O O3 0.248140 0.582952 0.672699
O O4 0.998673 0.469307 0.313153
O O5 0.207835 0.716884 0.051151
O O6 0.452065 0.681836 0.243611
O O7 0.161274 0.691137 0.769073
O O8 0.740666 0.168207 0.473269
O O9 0.557724 0.200928 0.039015
O O10 0.486367 0.070472 0.068892
O O11 0.248930 0.044188 0.594080
O O12 0.282893 0.152817 0.452103
O O13 0.241190 0.999237 0.333933
O O14 0.219514 0.156326 0.721204
O O15 0.754802 0.254751 0.702869
O O16 0.004717 0.175183 0.969511
#
# Coordination Sequence:
#
# PCOD9138498 Si02
#       8
#     4   4   4   4   4   4   4   4
#     4  10  24  44  74 101 139 189 241 305 366 440
#     4  11  22  43  71  98 135 186 241 293 358 442
#     4  10  23  44  67 101 137 186 239 296 378 429
#     4  11  24  47  72 106 145 195 248 304 375 439
#     4  11  23  43  73 104 141 188 251 304 370 443
#     4  12  28  44  70 107 146 190 239 306 364 442
#     4  12  27  46  70 106 149 193 242 296 375 440
#     4  11  21  41  73  97 132 181 241 300 360 441
#
# _framework density 22.342576999999999
#
# number of rings (size 3 to 8) (size 9 to 14) (size 15 to 20)
#    0.000    1.000    3.750    3.000    5.250    3.000 
#    2.250    0.000    0.000    0.000    0.000    0.000 
#    0.000    0.000    0.000    0.000    0.000    0.000 
#
# Total GULP energy -89360.880520 kJ/mol
# GULP energy per Si atom -5585.055033 kJ/mol
# Density = 2.229172 g / cm^3
# Si number density = 22.342577 Si / 1000 Ang^3
#
#
#
# Elastic Constant Matrix: (Units=GPa)
#
#
# Indices 1 2 3 4 5 6 
#
# 1 66.5843 31.9284 27.5035 0.0000 -20.1525 0.0000
# 2 31.9284 83.0164 17.5748 0.0000 -5.8505 0.0000
# 3 27.5035 17.5748 84.2640 0.0000 -4.5834 0.0000
# 4 0.0000 0.0000 0.0000 35.3098 0.0000 -7.7021
# 5 -20.1525 -5.8505 -4.5834 0.0000 39.5961 0.0000
# 6 0.0000 0.0000 0.0000 -7.7021 0.0000 36.9184
#
#
#
# Elastic Compliance Matrix: (Units=1/GPa)
#
#
# Indices 1 2 3 4 5 6 
#
# 1 0.024082 -0.007301 -0.005766 0.000000 0.010510 0.000000
# 2 -0.007301 0.014913 -0.000815 0.000000 -0.001607 0.000000
# 3 -0.005766 -0.000815 0.013840 0.000000 -0.001453 0.000000
# 4 0.000000 0.000000 0.000000 0.029671 0.000000 0.006190
# 5 0.010510 -0.001607 -0.001453 0.000000 0.030199 0.000000
# 6 0.000000 0.000000 0.000000 0.006190 0.000000 0.028378
#
#
# Mechanical properties :
#
#
# Convention : Reuss Voigt Hill
#
# Bulk Modulus (GPa) = 39.88425 43.09756 41.49091
# Shear Modulus (GPa) = 28.21611 32.82208 30.51909
#
# Velocity S-wave (km/s) = 3.55756 3.83696 3.69990
# Velocity P-wave (km/s) = 5.89619 6.24187 6.07149
#
# Compressibility (1/GPa) = 0.02507255
#
# Stress axis : x y z
#
# Youngs Moduli (GPa) = 41.52453 67.05575 72.25247
#
# Poissons Ratio (x) = 0.48955 0.41660
# Poissons Ratio (y) = 0.30316 0.05887
# Poissons Ratio (z) = 0.23943 0.05464
#
# Static dielectric constant tensor:
#      x y z
#    x 1.866640 0.000000 -0.034500 
#    y 0.000000 1.833800 0.000000 
#    z -0.034500 0.000000 1.820310 
# 
# From -- ./inp_files/19393.got.cif
#   From: 2010.05.17/outbox.cif.g08.bks.cpg/sg9_10_cif.got.tgz:19393.got - 2010.06.03 20:04:27.
