data_PCOD9138607
_publ_section_title
;
Structure prediction by ZEFSAII (Michael W. Deem and Ramdas Pophale) SiO2 
 PCOD9138607
Probable space group: C C
;
_chemical_formula_sum "Si O2"
_cell_formula_units_Z 32
_cell_length_a 13.598319
_cell_length_b 8.828288
_cell_length_c 12.707020
_cell_angle_alpha 90.000000
_cell_angle_beta 119.364886
_cell_angle_gamma 90.000000
_cell_volume 1329.474612
_symmetry_space_group_name_H-M "C C"
_symmetry_group_IT_number 9
_symmetry_cell_setting 'monoclinic'
loop_
_space_group_symop_operation_xyz
x,y,z
x,-y,1/2+z
1/2+x,1/2+y,z
1/2+x,1/2-y,1/2+z
loop_
_atom_site_type_symbol
_atom_site_label
_atom_site_fract_x
_atom_site_fract_y
_atom_site_fract_z
Si Si1 0.907640 0.216702 0.188520
Si Si2 0.822122 0.944071 0.008647
Si Si3 0.499886 0.772482 0.913899
Si Si4 0.947165 0.491357 0.069418
Si Si5 0.261420 0.824147 0.597112
Si Si6 0.711978 0.407453 0.187820
Si Si7 0.612136 0.830739 0.771157
Si Si8 0.494491 0.563708 0.432559
O O1 0.967347 0.355009 0.162442
O O2 0.805895 0.288115 0.202162
O O3 0.986252 0.133810 0.313551
O O4 0.859973 0.104715 0.074240
O O5 0.815108 0.839785 0.108576
O O6 0.707765 0.929148 0.880116
O O7 0.912917 0.868586 0.978416
O O8 0.452555 0.905705 0.961287
O O9 0.630753 0.724205 0.007601
O O10 0.509056 0.822283 0.798494
O O11 0.446288 0.607872 0.900066
O O12 0.830302 0.571547 0.046924
O O13 0.057150 0.596712 0.139089
O O14 0.260139 0.921763 0.703735
O O15 0.657959 0.335868 0.264030
O O16 0.617208 0.417011 0.047018
#
# Coordination Sequence:
#
# PCOD9138607 Si02
#       8
#     4   4   4   4   4   4   4   4
#     4  11  25  43  69 104 140 184 239 288 370 432
#     4  11  23  44  68 103 141 178 237 293 361 430
#     4  10  24  45  65 104 142 187 242 292 368 432
#     4  11  24  45  68 102 140 187 238 298 361 441
#     4   9  23  43  67  96 141 184 229 300 350 438
#     4  10  23  45  67 100 139 183 238 287 357 430
#     4  11  25  41  71 101 140 187 236 304 359 431
#     4  11  23  42  73  98 141 186 223 302 356 430
#
# _framework density 24.069658
#
# number of rings (size 3 to 8) (size 9 to 14) (size 15 to 20)
#    0.000    1.500    2.500    0.750    8.750    1.000 
#    2.250    0.000    0.000    0.000    0.000    0.000 
#    0.000    0.000    0.000    0.000    0.000    0.000 
#
# Total GULP energy -89287.087442 kJ/mol
# GULP energy per Si atom -5580.442965 kJ/mol
# Density = 2.401487 g / cm^3
# Si number density = 24.069658 Si / 1000 Ang^3
#
#
#
# Elastic Constant Matrix: (Units=GPa)
#
#
# Indices 1 2 3 4 5 6 
#
# 1 56.3363 -5.7124 8.2168 0.0000 0.3366 0.0000
# 2 -5.7124 74.4105 6.4189 0.0000 0.9738 0.0000
# 3 8.2168 6.4189 79.1708 0.0000 18.0647 0.0000
# 4 0.0000 0.0000 0.0000 33.2907 0.0000 -11.7311
# 5 0.3366 0.9738 18.0647 0.0000 42.8119 0.0000
# 6 0.0000 0.0000 0.0000 -11.7311 0.0000 34.3808
#
#
#
# Elastic Compliance Matrix: (Units=1/GPa)
#
#
# Indices 1 2 3 4 5 6 
#
# 1 0.018225 0.001578 -0.002189 0.000000 0.000745 0.000000
# 2 0.001578 0.013671 -0.001326 0.000000 0.000236 0.000000
# 3 -0.002189 -0.001326 0.014335 0.000000 -0.006001 0.000000
# 4 0.000000 0.000000 0.000000 0.034144 0.000000 0.011650
# 5 0.000745 0.000236 -0.006001 0.000000 0.025879 0.000000
# 6 0.000000 0.000000 0.000000 0.011650 0.000000 0.033061
#
#
# Mechanical properties :
#
#
# Convention : Reuss Voigt Hill
#
# Bulk Modulus (GPa) = 23.60866 25.30714 24.45790
# Shear Modulus (GPa) = 31.78447 35.49631 33.64039
#
# Velocity S-wave (km/s) = 3.63784 3.84439 3.74254
# Velocity P-wave (km/s) = 5.24165 5.49934 5.37204
#
# Compressibility (1/GPa) = 0.04235734
#
# Stress axis : x y z
#
# Youngs Moduli (GPa) = 54.86836 73.14526 69.75928
#
# Poissons Ratio (x) = -0.11544 0.15273
# Poissons Ratio (y) = -0.08660 0.09251
# Poissons Ratio (z) = 0.12013 0.09700
#
# Static dielectric constant tensor:
#      x y z
#    x 1.987380 0.000000 0.023450 
#    y 0.000000 1.955450 0.000000 
#    z 0.023450 0.000000 1.957480 
# 
# From -- ./inp_files/17760.got.cif
#   From: 2010.05.17/outbox.cif.g08.bks.cpg/sg9_9_cif.got.tgz:17760.got - 2010.06.03 20:04:27.
