data_PCOD9138779
_publ_section_title
;
Structure prediction by ZEFSAII (Michael W. Deem and Ramdas Pophale) SiO2 
 PCOD9138779
Probable space group: C C
;
_chemical_formula_sum "Si O2"
_cell_formula_units_Z 28
_cell_length_a 21.193181
_cell_length_b 7.370959
_cell_length_c 9.499853
_cell_angle_alpha 90.000000
_cell_angle_beta 131.642485
_cell_angle_gamma 90.000000
_cell_volume 1109.009468
_symmetry_space_group_name_H-M "C C"
_symmetry_group_IT_number 9
_symmetry_cell_setting 'monoclinic'
loop_
_space_group_symop_operation_xyz
x,y,z
x,-y,1/2+z
1/2+x,1/2+y,z
1/2+x,1/2-y,1/2+z
loop_
_atom_site_type_symbol
_atom_site_label
_atom_site_fract_x
_atom_site_fract_y
_atom_site_fract_z
Si Si1 0.762460 0.776108 0.710000
Si Si2 0.508616 0.885641 0.419094
Si Si3 0.493999 0.467112 0.730334
Si Si4 0.843248 0.412946 0.560525
Si Si5 0.313387 0.475489 0.028656
Si Si6 0.072686 0.333947 0.822487
Si Si7 0.666876 0.497229 0.905334
O O1 0.690439 0.631308 0.570723
O O2 0.745617 0.916590 0.811321
O O3 0.785857 0.884812 0.605232
O O4 0.839847 0.657481 0.892930
O O5 0.420638 0.970561 0.230570
O O6 0.577022 0.997430 0.430354
O O7 0.507737 0.676272 0.374079
O O8 0.394330 0.456228 0.557559
O O9 0.512542 0.676017 0.796700
O O10 0.569822 0.436881 0.728148
O O11 0.838733 0.219194 0.633912
O O12 0.752588 0.512773 0.443182
O O13 0.032347 0.399070 0.616577
O O14 0.154871 0.210773 0.920102
#
# Coordination Sequence:
#
# PCOD9138779 Si02
#       7
#     4   4   4   4   4   4   4
#     4  10  24  49  74 117 152 213 256 334 403 462
#     4  12  25  49  84 110 156 209 273 319 404 474
#     4  10  25  44  75 108 153 204 253 334 375 476
#     4  10  24  44  77 113 153 205 258 329 395 476
#     4  10  23  46  78 112 158 198 278 313 396 480
#     4  10  27  49  73 119 152 207 265 327 394 478
#     4  10  24  47  71 109 166 196 259 328 397 466
#
# _framework density 25.247758000000001
#
# number of rings (size 3 to 8) (size 9 to 14) (size 15 to 20)
#    1.714    0.000    1.429    0.857   10.000    3.429 
#    5.143    0.000    0.000    0.000    0.000    0.000 
#    0.000    0.000    0.000    0.000    0.000    0.000 
#
# Total GULP energy -78004.237849 kJ/mol
# GULP energy per Si atom -5571.731275 kJ/mol
# Density = 2.519029 g / cm^3
# Si number density = 25.247758 Si / 1000 Ang^3
#
#
#
# Elastic Constant Matrix: (Units=GPa)
#
#
# Indices 1 2 3 4 5 6 
#
# 1 95.3062 45.6404 79.2735 0.0000 3.6742 0.0000
# 2 45.6404 110.4234 73.5155 0.0000 -32.5855 0.0000
# 3 79.2735 73.5155 138.3559 0.0000 -2.3594 0.0000
# 4 0.0000 0.0000 0.0000 54.0886 0.0000 -6.7833
# 5 3.6742 -32.5855 -2.3594 0.0000 36.2236 0.0000
# 6 0.0000 0.0000 0.0000 -6.7833 0.0000 26.7179
#
#
#
# Elastic Compliance Matrix: (Units=1/GPa)
#
#
# Indices 1 2 3 4 5 6 
#
# 1 0.020926 -0.003724 -0.010116 0.000000 -0.006131 0.000000
# 2 -0.003724 0.023272 -0.009879 0.000000 0.020669 0.000000
# 3 -0.010116 -0.009879 0.018159 0.000000 -0.006678 0.000000
# 4 0.000000 0.000000 0.000000 0.019096 0.000000 0.004848
# 5 -0.006131 0.020669 -0.006678 0.000000 0.046386 0.000000
# 6 0.000000 0.000000 0.000000 0.004848 0.000000 0.038659
#
#
# Mechanical properties :
#
#
# Convention : Reuss Voigt Hill
#
# Bulk Modulus (GPa) = 67.02815 82.32714 74.67765
# Shear Modulus (GPa) = 22.84041 33.11643 27.97842
#
# Velocity S-wave (km/s) = 3.01100 3.62561 3.33251
# Velocity P-wave (km/s) = 6.22045 7.08557 6.66705
#
# Compressibility (1/GPa) = 0.01491910
#
# Stress axis : x y z
#
# Youngs Moduli (GPa) = 47.78637 42.97075 55.06780
#
# Poissons Ratio (x) = 0.16001 0.55707
# Poissons Ratio (y) = 0.17795 0.54403
# Poissons Ratio (z) = 0.48341 0.42452
#
# Static dielectric constant tensor:
#      x y z
#    x 2.107680 0.000000 0.095780 
#    y 0.000000 1.977650 0.000000 
#    z 0.095780 0.000000 2.009360 
# 
# From -- ./inp_files/20129.got.cif
#   From: 2010.05.17/outbox.cif.g08.bks.cpg/sg9_11_cif.got.tgz:20129.got - 2010.06.03 20:04:27.
