data_PCOD9138705
_publ_section_title
;
Structure prediction by ZEFSAII (Michael W. Deem and Ramdas Pophale) SiO2 
 PCOD9138705
Probable space group: C C
;
_chemical_formula_sum "Si O2"
_cell_formula_units_Z 28
_cell_length_a 26.903768
_cell_length_b 7.774679
_cell_length_c 9.557662
_cell_angle_alpha 90.000000
_cell_angle_beta 34.502514
_cell_angle_gamma 90.000000
_cell_volume 1132.408175
_symmetry_space_group_name_H-M "C C"
_symmetry_group_IT_number 9
_symmetry_cell_setting 'monoclinic'
loop_
_space_group_symop_operation_xyz
x,y,z
x,-y,1/2+z
1/2+x,1/2+y,z
1/2+x,1/2-y,1/2+z
loop_
_atom_site_type_symbol
_atom_site_label
_atom_site_fract_x
_atom_site_fract_y
_atom_site_fract_z
Si Si1 0.103930 0.994573 0.959880
Si Si2 0.523369 0.187274 0.782625
Si Si3 0.779935 0.648721 0.953404
Si Si4 0.221920 0.199126 0.530787
Si Si5 0.815232 0.799191 0.593735
Si Si6 0.500749 0.148418 0.156439
Si Si7 0.852471 0.176893 0.531250
O O1 0.196508 0.893852 0.745596
O O2 0.124921 0.116169 0.772013
O O3 0.037258 0.836580 0.117113
O O4 0.083770 0.144265 0.116750
O O5 0.536283 0.015526 0.659695
O O6 0.526709 0.132389 0.934717
O O7 0.428829 0.264815 0.957052
O O8 0.786167 0.465981 0.863696
O O9 0.853713 0.711102 0.887402
O O10 0.769763 0.781847 0.850831
O O11 0.249445 0.273007 0.617935
O O12 0.257328 0.320183 0.328499
O O13 0.895152 0.663068 0.409704
O O14 0.861526 0.981032 0.465523
#
# Coordination Sequence:
#
# PCOD9138705 Si02
#       7
#     4   4   4   4   4   4   4
#     4  10  28  50  74 108 156 194 243 321 388 437
#     4  12  28  50  77 112 154 201 258 314 383 456
#     4  10  25  44  73 103 151 194 240 309 371 449
#     4  10  23  46  67 105 147 191 240 303 374 440
#     4  12  24  44  73 111 148 193 254 302 377 450
#     4  12  28  50  77 112 153 202 255 317 383 457
#     4  12  24  44  75 111 145 199 252 304 376 451
#
# _framework density 24.726064999999998
#
# number of rings (size 3 to 8) (size 9 to 14) (size 15 to 20)
#    0.857    0.000    2.857    3.429    6.000    3.429 
#    0.000    0.000    0.000    0.000    0.000    0.000 
#    0.000    0.000    0.000    0.000    0.000    0.000 
#
# Total GULP energy -78097.612825 kJ/mol
# GULP energy per Si atom -5578.400916 kJ/mol
# Density = 2.466979 g / cm^3
# Si number density = 24.726065 Si / 1000 Ang^3
#
#
#
# Elastic Constant Matrix: (Units=GPa)
#
#
# Indices 1 2 3 4 5 6 
#
# 1 50.1979 29.2961 24.0910 0.0000 17.4787 0.0000
# 2 29.2961 143.1526 34.5201 0.0000 10.8936 0.0000
# 3 24.0910 34.5201 80.8627 0.0000 11.0131 0.0000
# 4 0.0000 0.0000 0.0000 63.3616 0.0000 26.2279
# 5 17.4787 10.8936 11.0131 0.0000 33.2918 0.0000
# 6 0.0000 0.0000 0.0000 26.2279 0.0000 62.0630
#
#
#
# Elastic Compliance Matrix: (Units=1/GPa)
#
#
# Indices 1 2 3 4 5 6 
#
# 1 0.028897 -0.003691 -0.005374 0.000000 -0.012186 0.000000
# 2 -0.003691 0.008332 -0.002461 0.000000 0.000025 0.000000
# 3 -0.005374 -0.002461 0.015210 0.000000 -0.001405 0.000000
# 4 0.000000 0.000000 0.000000 0.019129 0.000000 -0.008084
# 5 -0.012186 0.000025 -0.001405 0.000000 0.036892 0.000000
# 6 0.000000 0.000000 0.000000 -0.008084 0.000000 0.019529
#
#
# Mechanical properties :
#
#
# Convention : Reuss Voigt Hill
#
# Bulk Modulus (GPa) = 34.02740 50.00305 42.01523
# Shear Modulus (GPa) = 31.08763 44.16368 37.62566
#
# Velocity S-wave (km/s) = 3.54966 4.23083 3.90513
# Velocity P-wave (km/s) = 5.53098 6.64329 6.11249
#
# Compressibility (1/GPa) = 0.02938808
#
# Stress axis : x y z
#
# Youngs Moduli (GPa) = 34.60536 120.01414 65.74793
#
# Poissons Ratio (x) = 0.44292 0.35333
# Poissons Ratio (y) = 0.12771 0.16181
# Poissons Ratio (z) = 0.18597 0.29535
#
# Static dielectric constant tensor:
#      x y z
#    x 1.953720 0.000000 -0.023210 
#    y 0.000000 1.958610 0.000000 
#    z -0.023210 0.000000 2.015910 
# 
# From -- ./inp_files/12365.got.cif
#   From: 2010.05.17/outbox.cif.g08.bks.cpg/sg9_7_cif.got.tgz:12365.got - 2010.06.03 20:04:27.
