data_PCOD9138160
_publ_section_title
;
Structure prediction by ZEFSAII (Michael W. Deem and Ramdas Pophale) SiO2 
 PCOD9138160
Probable space group: C C
;
_chemical_formula_sum "Si O2"
_cell_formula_units_Z 32
_cell_length_a 6.606058
_cell_length_b 17.505179
_cell_length_c 14.511976
_cell_angle_alpha 90.000000
_cell_angle_beta 60.772951
_cell_angle_gamma 90.000000
_cell_volume 1464.523408
_symmetry_space_group_name_H-M "C C"
_symmetry_group_IT_number 9
_symmetry_cell_setting 'monoclinic'
loop_
_space_group_symop_operation_xyz
x,y,z
x,-y,1/2+z
1/2+x,1/2+y,z
1/2+x,1/2-y,1/2+z
loop_
_atom_site_type_symbol
_atom_site_label
_atom_site_fract_x
_atom_site_fract_y
_atom_site_fract_z
Si Si1 0.074730 0.781090 0.856950
Si Si2 0.553565 0.267445 0.497245
Si Si3 0.626909 0.367479 0.662210
Si Si4 0.837932 0.002906 0.306176
Si Si5 0.185009 0.094401 0.849554
Si Si6 0.858740 0.491735 0.496429
Si Si7 0.651068 0.343072 0.036775
Si Si8 0.676006 0.861569 0.232417
O O1 0.174898 0.821234 0.743975
O O2 0.147546 0.692724 0.828295
O O3 0.167557 0.823591 0.925308
O O4 0.793652 0.777925 0.923413
O O5 0.578244 0.310443 0.589235
O O6 0.540999 0.334056 0.422081
O O7 0.331130 0.213600 0.545222
O O8 0.410559 0.419902 0.740209
O O9 0.815444 0.428711 0.584632
O O10 0.626555 0.012548 0.423681
O O11 0.751776 0.944419 0.248512
O O12 0.046734 0.961613 0.313751
O O13 0.267149 0.047303 0.921925
O O14 0.416720 0.129471 0.750869
O O15 0.720803 0.569923 0.541773
O O16 0.384215 0.330895 0.124570
#
# Coordination Sequence:
#
# PCOD9138160 Si02
#       8
#     4   4   4   4   4   4   4   4
#     4  11  24  43  67  97 139 183 233 286 343 421
#     4  10  24  43  68  99 139 182 231 286 351 418
#     4  11  23  45  67  99 141 181 228 294 345 411
#     4  11  21  42  67  94 135 180 223 280 348 411
#     4   9  21  43  65  92 133 183 222 280 340 408
#     4  10  23  42  63  99 136 170 234 281 335 424
#     4  12  23  42  69 100 135 183 230 288 346 415
#     4  10  23  40  64  96 134 170 229 283 338 410
#
# _framework density 21.850111999999999
#
# number of rings (size 3 to 8) (size 9 to 14) (size 15 to 20)
#    0.000    1.500    1.250    3.750    0.000    6.000 
#    4.500    5.000    0.000    0.000    0.000    0.000 
#    0.000    0.000    0.000    0.000    0.000    0.000 
#
# Total GULP energy -89438.191513 kJ/mol
# GULP energy per Si atom -5589.886970 kJ/mol
# Density = 2.180038 g / cm^3
# Si number density = 21.850112 Si / 1000 Ang^3
#
#
#
# Elastic Constant Matrix: (Units=GPa)
#
#
# Indices 1 2 3 4 5 6 
#
# 1 39.1584 7.3986 34.9576 0.0000 -11.3266 0.0000
# 2 7.3986 80.2884 27.1603 0.0000 -12.6862 0.0000
# 3 34.9576 27.1603 121.2570 0.0000 -19.3205 0.0000
# 4 0.0000 0.0000 0.0000 38.6170 0.0000 -4.1441
# 5 -11.3266 -12.6862 -19.3205 0.0000 34.4655 0.0000
# 6 0.0000 0.0000 0.0000 -4.1441 0.0000 26.7621
#
#
#
# Elastic Compliance Matrix: (Units=1/GPa)
#
#
# Indices 1 2 3 4 5 6 
#
# 1 0.035751 0.000976 -0.009439 0.000000 0.006817 0.000000
# 2 0.000976 0.013920 -0.002780 0.000000 0.003886 0.000000
# 3 -0.009439 -0.002780 0.012006 0.000000 0.002605 0.000000
# 4 0.000000 0.000000 0.000000 0.026333 0.000000 0.004078
# 5 0.006817 0.003886 0.002605 0.000000 0.034145 0.000000
# 6 0.000000 0.000000 0.000000 0.004078 0.000000 0.037998
#
#
# Mechanical properties :
#
#
# Convention : Reuss Voigt Hill
#
# Bulk Modulus (GPa) = 25.51670 42.19297 33.85484
# Shear Modulus (GPa) = 25.54886 31.38141 28.46514
#
# Velocity S-wave (km/s) = 3.42318 3.79385 3.61327
# Velocity P-wave (km/s) = 5.22758 6.20832 5.73894
#
# Compressibility (1/GPa) = 0.03919002
#
# Stress axis : x y z
#
# Youngs Moduli (GPa) = 27.97087 71.84109 83.29192
#
# Poissons Ratio (x) = -0.07010 0.78622
# Poissons Ratio (y) = -0.02729 0.23155
# Poissons Ratio (z) = 0.26403 0.19972
#
# Static dielectric constant tensor:
#      x y z
#    x 1.788170 0.000000 -0.025810 
#    y 0.000000 1.787940 0.000000 
#    z -0.025810 0.000000 1.822670 
# 
# From -- ./inp_files/22051.got.cif
#   From: 2010.05.17/outbox.cif.g08.bks.cpg/sg9_12_cif.got.tgz:22051.got - 2010.06.03 20:04:27.
