data_PCOD9138085
_publ_section_title
;
Structure prediction by ZEFSAII (Michael W. Deem and Ramdas Pophale) SiO2 
 PCOD9138085
Probable space group: C C
;
_chemical_formula_sum "Si O2"
_cell_formula_units_Z 24
_cell_length_a 5.070148
_cell_length_b 17.862825
_cell_length_c 10.672959
_cell_angle_alpha 90.000000
_cell_angle_beta 92.415314
_cell_angle_gamma 90.000000
_cell_volume 965.760911
_symmetry_space_group_name_H-M "C C"
_symmetry_group_IT_number 9
_symmetry_cell_setting 'monoclinic'
loop_
_space_group_symop_operation_xyz
x,y,z
x,-y,1/2+z
1/2+x,1/2+y,z
1/2+x,1/2-y,1/2+z
loop_
_atom_site_type_symbol
_atom_site_label
_atom_site_fract_x
_atom_site_fract_y
_atom_site_fract_z
Si Si1 0.278560 0.693074 0.849620
Si Si2 0.433629 0.854942 0.123976
Si Si3 0.530167 0.915711 0.850664
Si Si4 0.283154 0.272000 0.774372
Si Si5 0.176584 0.990103 0.658143
Si Si6 0.668478 0.050026 0.001330
O O1 0.571320 0.723899 0.848695
O O2 0.191649 0.652653 0.717021
O O3 0.067490 0.761271 0.844349
O O4 0.228144 0.632451 0.954594
O O5 0.303239 0.773712 0.144463
O O6 0.257331 0.922983 0.174109
O O7 0.493220 0.875682 0.983571
O O8 0.678922 0.855539 0.768001
O O9 0.261408 0.942623 0.780555
O O10 0.683052 0.992012 0.885726
O O11 0.378570 0.959408 0.554712
O O12 0.884101 0.978387 0.604107
#
# Coordination Sequence:
#
# PCOD9138085 Si02
#       6
#     4   4   4   4   4   4
#     4  10  22  48  68  99 144 187 225 294 354 411
#     4   9  24  45  70 101 141 184 226 291 352 411
#     4  11  24  48  73 108 140 186 241 291 345 427
#     4  10  24  42  71 102 137 185 230 281 360 410
#     4  11  25  42  73 108 136 188 237 290 351 416
#     4  11  25  45  73 102 142 184 241 293 344 421
#
# _framework density 24.850871999999999
#
# number of rings (size 3 to 8) (size 9 to 14) (size 15 to 20)
#    1.000    0.667    1.667    1.000    4.667    8.000 
#    6.000    0.000    0.000    0.000    0.000    0.000 
#    0.000    0.000    0.000    0.000    0.000    0.000 
#
# Total GULP energy -67161.209816 kJ/mol
# GULP energy per Si atom -5596.767485 kJ/mol
# Density = 2.479431 g / cm^3
# Si number density = 24.850872 Si / 1000 Ang^3
#
#
#
# Elastic Constant Matrix: (Units=GPa)
#
#
# Indices 1 2 3 4 5 6 
#
# 1 57.5821 -1.3824 0.5962 0.0000 -6.3987 0.0000
# 2 -1.3824 109.4335 20.7508 0.0000 -8.0127 0.0000
# 3 0.5962 20.7508 82.2002 0.0000 9.3674 0.0000
# 4 0.0000 0.0000 0.0000 42.3940 0.0000 -7.0069
# 5 -6.3987 -8.0127 9.3674 0.0000 27.5668 0.0000
# 6 0.0000 0.0000 0.0000 -7.0069 0.0000 35.4432
#
#
#
# Elastic Compliance Matrix: (Units=1/GPa)
#
#
# Indices 1 2 3 4 5 6 
#
# 1 0.017910 0.000727 -0.000844 0.000000 0.004655 0.000000
# 2 0.000727 0.010016 -0.003001 0.000000 0.004100 0.000000
# 3 -0.000844 -0.003001 0.013577 0.000000 -0.005682 0.000000
# 4 0.000000 0.000000 0.000000 0.024385 0.000000 0.004821
# 5 0.004655 0.004100 -0.005682 0.000000 0.040479 0.000000
# 6 0.000000 0.000000 0.000000 0.004821 0.000000 0.029167
#
#
# Mechanical properties :
#
#
# Convention : Reuss Voigt Hill
#
# Bulk Modulus (GPa) = 28.35493 32.12724 30.24109
# Shear Modulus (GPa) = 32.56792 36.36420 34.46606
#
# Velocity S-wave (km/s) = 3.62406 3.82946 3.72817
# Velocity P-wave (km/s) = 5.38020 5.70167 5.54327
#
# Compressibility (1/GPa) = 0.03526723
#
# Stress axis : x y z
#
# Youngs Moduli (GPa) = 55.83466 99.83609 73.65615
#
# Poissons Ratio (x) = -0.07260 0.06216
# Poissons Ratio (y) = -0.04060 0.22105
# Poissons Ratio (z) = 0.04712 0.29962
#
# Static dielectric constant tensor:
#      x y z
#    x 1.920640 0.000000 -0.065930 
#    y 0.000000 1.962460 0.000000 
#    z -0.065930 0.000000 1.984270 
# 
# From -- ./inp_files/13024.got.cif
#   From: 2010.05.17/outbox.cif.g08.bks.cpg/sg9_7_cif.got.tgz:13024.got - 2010.06.03 20:04:27.
