data_PCOD9138423
_publ_section_title
;
Structure prediction by ZEFSAII (Michael W. Deem and Ramdas Pophale) SiO2 
 PCOD9138423
Probable space group: C C
;
_chemical_formula_sum "Si O2"
_cell_formula_units_Z 20
_cell_length_a 13.410822
_cell_length_b 8.802672
_cell_length_c 8.334610
_cell_angle_alpha 90.000000
_cell_angle_beta 133.714726
_cell_angle_gamma 90.000000
_cell_volume 711.159585
_symmetry_space_group_name_H-M "C C"
_symmetry_group_IT_number 9
_symmetry_cell_setting 'monoclinic'
loop_
_space_group_symop_operation_xyz
x,y,z
x,-y,1/2+z
1/2+x,1/2+y,z
1/2+x,1/2-y,1/2+z
loop_
_atom_site_type_symbol
_atom_site_label
_atom_site_fract_x
_atom_site_fract_y
_atom_site_fract_z
Si Si1 0.932650 0.228179 0.204500
Si Si2 0.305878 0.044791 0.352259
Si Si3 0.004734 0.966458 0.475989
Si Si4 0.668882 0.230147 0.488140
Si Si5 0.100803 0.572382 0.096594
O O1 0.068550 0.322036 0.407829
O O2 0.907524 0.102616 0.312571
O O3 0.821288 0.352119 0.028497
O O4 0.960028 0.129074 0.077924
O O5 0.443661 0.949795 0.489718
O O6 0.291865 0.161793 0.186575
O O7 0.157254 0.967357 0.186926
O O8 0.040314 0.845756 0.373917
O O9 0.651134 0.091983 0.595126
O O10 0.680441 0.151081 0.330182
#
# Coordination Sequence:
#
# PCOD9138423 Si02
#       5
#     4   4   4   4   4
#     4  12  24  45  73 102 143 182 237 289 343 423
#     4  10  24  43  72  99 139 186 226 284 354 408
#     4  10  25  45  66 108 142 175 240 287 342 419
#     4  10  23  43  69 102 143 175 241 283 341 423
#     4  12  22  46  72 101 143 186 230 293 342 421
#
# _framework density 28.123080999999999
#
# number of rings (size 3 to 8) (size 9 to 14) (size 15 to 20)
#    1.200    0.000    4.000    1.200    2.800    1.600 
#    0.000    0.000    0.000    0.000    0.000    0.000 
#    0.000    0.000    0.000    0.000    0.000    0.000 
#
# Total GULP energy -56038.021345 kJ/mol
# GULP energy per Si atom -5603.802135 kJ/mol
# Density = 2.805907 g / cm^3
# Si number density = 28.123081 Si / 1000 Ang^3
#
#
#
# Elastic Constant Matrix: (Units=GPa)
#
#
# Indices 1 2 3 4 5 6 
#
# 1 68.6710 19.7608 16.9882 0.0000 -11.1897 0.0000
# 2 19.7608 149.1631 49.0666 0.0000 -19.3526 0.0000
# 3 16.9882 49.0666 134.6639 0.0000 -15.8899 0.0000
# 4 0.0000 0.0000 0.0000 54.8697 0.0000 -13.5784
# 5 -11.1897 -19.3526 -15.8899 0.0000 42.1480 0.0000
# 6 0.0000 0.0000 0.0000 -13.5784 0.0000 45.3327
#
#
#
# Elastic Compliance Matrix: (Units=1/GPa)
#
#
# Indices 1 2 3 4 5 6 
#
# 1 0.015732 -0.001301 -0.001139 0.000000 0.003150 0.000000
# 2 -0.001301 0.007999 -0.002468 0.000000 0.002397 0.000000
# 3 -0.001139 -0.002468 0.008686 0.000000 0.001839 0.000000
# 4 0.000000 0.000000 0.000000 0.019684 0.000000 0.005896
# 5 0.003150 0.002397 0.001839 0.000000 0.026356 0.000000
# 6 0.000000 0.000000 0.000000 0.005896 0.000000 0.023825
#
#
# Mechanical properties :
#
#
# Convention : Reuss Voigt Hill
#
# Bulk Modulus (GPa) = 44.24450 58.23657 51.24053
# Shear Modulus (GPa) = 41.79541 46.24889 44.02215
#
# Velocity S-wave (km/s) = 3.85926 4.05966 3.96073
# Velocity P-wave (km/s) = 5.96868 6.53660 6.25909
#
# Compressibility (1/GPa) = 0.02260168
#
# Stress axis : x y z
#
# Youngs Moduli (GPa) = 63.56668 125.01365 115.13176
#
# Poissons Ratio (x) = 0.16261 0.13113
# Poissons Ratio (y) = 0.08268 0.28410
# Poissons Ratio (z) = 0.07240 0.30849
#
# Static dielectric constant tensor:
#      x y z
#    x 2.158210 0.000000 -0.018660 
#    y 0.000000 2.180560 0.000000 
#    z -0.018660 0.000000 2.183830 
# 
# From -- ./inp_files/6711.got.cif
#   From: 2010.05.17/outbox.cif.g08.bks.cpg/sg9_4_cif.got.tgz:6711.got - 2010.06.03 20:04:27.
