data_PCOD9138092
_publ_section_title
;
Structure prediction by ZEFSAII (Michael W. Deem and Ramdas Pophale) SiO2 
 PCOD9138092
Probable space group: C C
;
_chemical_formula_sum "Si O2"
_cell_formula_units_Z 28
_cell_length_a 7.117682
_cell_length_b 13.641398
_cell_length_c 13.054897
_cell_angle_alpha 90.000000
_cell_angle_beta 55.260244
_cell_angle_gamma 90.000000
_cell_volume 1041.621674
_symmetry_space_group_name_H-M "C C"
_symmetry_group_IT_number 9
_symmetry_cell_setting 'monoclinic'
loop_
_space_group_symop_operation_xyz
x,y,z
x,-y,1/2+z
1/2+x,1/2+y,z
1/2+x,1/2-y,1/2+z
loop_
_atom_site_type_symbol
_atom_site_label
_atom_site_fract_x
_atom_site_fract_y
_atom_site_fract_z
Si Si1 0.295440 0.522875 0.173400
Si Si2 0.150120 0.512265 0.419017
Si Si3 0.694803 0.808971 0.120495
Si Si4 0.479128 0.331206 0.318206
Si Si5 0.029298 0.177265 0.357335
Si Si6 0.323734 0.732019 0.072279
Si Si7 0.729111 0.508879 0.196917
O O1 0.096439 0.537705 0.318876
O O2 0.246863 0.421260 0.133409
O O3 0.312839 0.615487 0.094870
O O4 0.529223 0.519165 0.170273
O O5 0.265888 0.404717 0.373884
O O6 0.324520 0.599092 0.396922
O O7 0.949428 0.505285 0.560708
O O8 0.587256 0.758076 0.254696
O O9 0.511620 0.775124 0.091775
O O10 0.938864 0.777738 0.991824
O O11 0.420331 0.257584 0.427600
O O12 0.585338 0.280389 0.184145
O O13 0.673141 0.412980 0.281457
O O14 0.233878 0.100920 0.271162
#
# Coordination Sequence:
#
# PCOD9138092 Si02
#       7
#     4   4   4   4   4   4   4
#     4  10  24  43  70 110 143 199 248 309 384 444
#     4  10  22  49  70 102 153 193 248 315 374 451
#     4  12  23  43  74 108 146 193 255 305 381 456
#     4  10  25  42  74 105 142 195 249 302 388 445
#     4  10  23  42  71 105 143 196 245 309 378 443
#     4  12  23  45  72 110 147 194 248 313 378 453
#     4  10  22  48  71 102 152 194 249 319 369 450
#
# _framework density 26.881162
#
# number of rings (size 3 to 8) (size 9 to 14) (size 15 to 20)
#    0.000    1.714    2.857    3.429    4.000    1.143 
#    5.143    2.857    0.000    0.000    0.000    0.000 
#    0.000    0.000    0.000    0.000    0.000    0.000 
#
# Total GULP energy -78214.671512 kJ/mol
# GULP energy per Si atom -5586.762251 kJ/mol
# Density = 2.681998 g / cm^3
# Si number density = 26.881162 Si / 1000 Ang^3
#
#
#
# Elastic Constant Matrix: (Units=GPa)
#
#
# Indices 1 2 3 4 5 6 
#
# 1 93.5260 37.4167 34.8588 0.0000 -9.0477 0.0000
# 2 37.4167 153.8133 62.0883 0.0000 -17.1626 0.0000
# 3 34.8588 62.0883 261.6599 0.0000 -11.2058 0.0000
# 4 0.0000 0.0000 0.0000 62.7801 0.0000 -0.8942
# 5 -9.0477 -17.1626 -11.2058 0.0000 31.6018 0.0000
# 6 0.0000 0.0000 0.0000 -0.8942 0.0000 35.9240
#
#
#
# Elastic Compliance Matrix: (Units=1/GPa)
#
#
# Indices 1 2 3 4 5 6 
#
# 1 0.012182 -0.002359 -0.000984 0.000000 0.001858 0.000000
# 2 -0.002359 0.008014 -0.001452 0.000000 0.003162 0.000000
# 3 -0.000984 -0.001452 0.004317 0.000000 0.000461 0.000000
# 4 0.000000 0.000000 0.000000 0.015934 0.000000 0.000397
# 5 0.001858 0.003162 0.000461 0.000000 0.034056 0.000000
# 6 0.000000 0.000000 0.000000 0.000397 0.000000 0.027846
#
#
# Mechanical properties :
#
#
# Convention : Reuss Voigt Hill
#
# Bulk Modulus (GPa) = 67.00521 86.41411 76.70966
# Shear Modulus (GPa) = 42.76621 51.03688 46.90154
#
# Velocity S-wave (km/s) = 3.99298 4.36203 4.18158
# Velocity P-wave (km/s) = 6.79993 7.58856 7.20505
#
# Compressibility (1/GPa) = 0.01492421
#
# Stress axis : x y z
#
# Youngs Moduli (GPa) = 82.08591 124.77845 231.63985
#
# Poissons Ratio (x) = 0.29437 0.22784
# Poissons Ratio (y) = 0.19365 0.33633
# Poissons Ratio (z) = 0.08074 0.18117
#
# Static dielectric constant tensor:
#      x y z
#    x 2.247540 0.000000 -0.017020 
#    y 0.000000 2.113380 0.000000 
#    z -0.017020 0.000000 2.168020 
# 
# From -- ./inp_files/23345.got.cif
#   From: 2010.05.17/outbox.cif.g08.bks.cpg/sg9_12_cif.got.tgz:23345.got - 2010.06.03 20:04:27.
