data_PCOD9138360
_publ_section_title
;
Structure prediction by ZEFSAII (Michael W. Deem and Ramdas Pophale) SiO2 
 PCOD9138360
Probable space group: C C
;
_chemical_formula_sum "Si O2"
_cell_formula_units_Z 28
_cell_length_a 13.527062
_cell_length_b 13.813238
_cell_length_c 9.911202
_cell_angle_alpha 90.000000
_cell_angle_beta 34.474122
_cell_angle_gamma 90.000000
_cell_volume 1048.257043
_symmetry_space_group_name_H-M "C C"
_symmetry_group_IT_number 9
_symmetry_cell_setting 'monoclinic'
loop_
_space_group_symop_operation_xyz
x,y,z
x,-y,1/2+z
1/2+x,1/2+y,z
1/2+x,1/2-y,1/2+z
loop_
_atom_site_type_symbol
_atom_site_label
_atom_site_fract_x
_atom_site_fract_y
_atom_site_fract_z
Si Si1 0.672000 0.375662 0.460790
Si Si2 0.845449 0.863022 0.664866
Si Si3 0.884438 0.789662 0.335201
Si Si4 0.472083 0.022810 0.913401
Si Si5 0.507927 0.201449 0.707840
Si Si6 0.693645 0.049114 0.916905
Si Si7 0.235631 0.090200 0.499011
O O1 0.546732 0.344931 0.477846
O O2 0.550791 0.311527 0.702540
O O3 0.690198 0.488384 0.474455
O O4 0.863881 0.327867 0.256468
O O5 0.797763 0.813430 0.578460
O O6 0.534640 0.026790 0.994732
O O7 0.837380 0.979251 0.687067
O O8 0.778011 0.846549 0.340476
O O9 0.881854 0.675224 0.314288
O O10 0.067216 0.844456 0.154272
O O11 0.444638 0.133514 0.899764
O O12 0.625355 0.984295 0.641250
O O13 0.307482 0.956711 0.059388
O O14 0.693256 0.164371 0.441998
#
# Coordination Sequence:
#
# PCOD9138360 Si02
#       7
#     4   4   4   4   4   4   4
#     4  11  22  45  74 115 150 197 262 316 387 457
#     4  11  24  42  77 111 146 203 255 320 378 463
#     4  12  26  44  72 109 155 199 258 314 391 445
#     4  10  24  46  77 107 151 196 259 304 389 447
#     4  10  23  42  75 112 150 194 252 327 375 457
#     4  11  22  48  74 109 148 202 248 319 374 466
#     4  11  27  47  73 113 152 207 254 320 380 475
#
# _framework density 26.711005
#
# number of rings (size 3 to 8) (size 9 to 14) (size 15 to 20)
#    0.000    1.143    4.286    0.857    2.000    4.571 
#    0.000    7.143    0.000    0.000    0.000    0.000 
#    0.000    0.000    0.000    0.000    0.000    0.000 
#
# Total GULP energy -78051.612935 kJ/mol
# GULP energy per Si atom -5575.115210 kJ/mol
# Density = 2.665021 g / cm^3
# Si number density = 26.711005 Si / 1000 Ang^3
#
#
#
# Elastic Constant Matrix: (Units=GPa)
#
#
# Indices 1 2 3 4 5 6 
#
# 1 129.7116 62.2481 40.5665 -0.0001 -36.9724 0.0000
# 2 62.2481 238.2026 67.8212 -0.0001 -21.1229 0.0000
# 3 40.5665 67.8212 108.8547 -0.0005 -39.0732 0.0002
# 4 -0.0001 -0.0001 -0.0005 47.3536 0.0002 -12.2844
# 5 -36.9724 -21.1229 -39.0732 0.0002 43.2584 -0.0001
# 6 0.0000 0.0000 0.0002 -12.2844 -0.0001 34.3885
#
#
#
# Elastic Compliance Matrix: (Units=1/GPa)
#
#
# Indices 1 2 3 4 5 6 
#
# 1 0.011178 -0.002254 0.000404 0.000000 0.008818 0.000000
# 2 -0.002254 0.005567 -0.003469 0.000000 -0.002342 0.000000
# 3 0.000404 -0.003469 0.015853 0.000000 0.012971 0.000000
# 4 0.000000 0.000000 0.000000 0.023275 0.000000 0.008314
# 5 0.008818 -0.002342 0.012971 0.000000 0.041226 0.000000
# 6 0.000000 0.000000 0.000000 0.008314 0.000000 0.032049
#
#
# Mechanical properties :
#
#
# Convention : Reuss Voigt Hill
#
# Bulk Modulus (GPa) = 45.53726 90.89341 68.21534
# Shear Modulus (GPa) = 33.98871 45.40899 39.69885
#
# Velocity S-wave (km/s) = 3.57103 4.12759 3.85936
# Velocity P-wave (km/s) = 5.83850 7.53779 6.74190
#
# Compressibility (1/GPa) = 0.02196004
#
# Stress axis : x y z
#
# Youngs Moduli (GPa) = 89.45869 179.62132 63.07854
#
# Poissons Ratio (x) = 0.40491 -0.02548
# Poissons Ratio (y) = 0.20166 0.21883
# Poissons Ratio (z) = -0.03613 0.62313
#
# Static dielectric constant tensor:
#      x y z
#    x 2.152970 0.000000 0.012740 
#    y 0.000000 2.207040 0.000000 
#    z 0.012740 0.000000 2.200010 
# 
# From -- ./inp_files/25902.got.cif
#   From: 2010.05.17/outbox.cif.g08.bks.cpg/sg9_13_cif.got.tgz:25902.got - 2010.06.03 20:04:27.
