data_PCOD9138770
_publ_section_title
;
Structure prediction by ZEFSAII (Michael W. Deem and Ramdas Pophale) SiO2 
 PCOD9138770
Probable space group: C C
;
_chemical_formula_sum "Si O2"
_cell_formula_units_Z 20
_cell_length_a 12.142681
_cell_length_b 8.253472
_cell_length_c 8.975879
_cell_angle_alpha 90.000000
_cell_angle_beta 127.775368
_cell_angle_gamma 90.000000
_cell_volume 711.025731
_symmetry_space_group_name_H-M "C C"
_symmetry_group_IT_number 9
_symmetry_cell_setting 'monoclinic'
loop_
_space_group_symop_operation_xyz
x,y,z
x,-y,1/2+z
1/2+x,1/2+y,z
1/2+x,1/2-y,1/2+z
loop_
_atom_site_type_symbol
_atom_site_label
_atom_site_fract_x
_atom_site_fract_y
_atom_site_fract_z
Si Si1 0.837680 0.620526 0.803110
Si Si2 0.679727 0.830396 0.051327
Si Si3 0.404930 0.454212 0.860476
Si Si4 0.520185 0.967894 0.184159
Si Si5 0.100860 0.984537 0.292287
O O1 0.795203 0.807758 0.765854
O O2 0.726192 0.496439 0.778998
O O3 0.891844 0.578602 0.684800
O O4 0.962656 0.606507 0.026285
O O5 0.581506 0.839368 0.117275
O O6 0.830880 0.883086 0.239194
O O7 0.651477 0.669728 0.932527
O O8 0.633543 0.968562 0.894737
O O9 0.536203 0.400800 0.865286
O O10 0.467650 0.469307 0.074743
#
# Coordination Sequence:
#
# PCOD9138770 Si02
#       5
#     4   4   4   4   4
#     4  11  24  47  75 114 159 207 268 329 402 481
#     4  11  24  48  76 111 159 206 264 334 399 477
#     4  12  27  47  80 116 160 215 265 334 403 482
#     4  10  23  46  75 111 157 208 259 341 397 466
#     4  12  26  48  74 116 157 204 272 326 397 484
#
# _framework density 28.128378999999999
#
# number of rings (size 3 to 8) (size 9 to 14) (size 15 to 20)
#    0.000    0.800    2.000    4.800    5.600    0.000 
#    0.000    0.000    0.000    0.000    0.000    0.000 
#    0.000    0.000    0.000    0.000    0.000    0.000 
#
# Total GULP energy -55985.052999 kJ/mol
# GULP energy per Si atom -5598.505300 kJ/mol
# Density = 2.806436 g / cm^3
# Si number density = 28.128379 Si / 1000 Ang^3
#
#
#
# Elastic Constant Matrix: (Units=GPa)
#
#
# Indices 1 2 3 4 5 6 
#
# 1 203.9351 20.4178 43.2825 0.0000 -44.2880 0.0000
# 2 20.4178 73.8080 47.5003 0.0000 0.3679 0.0000
# 3 43.2825 47.5003 199.9273 0.0000 -23.3055 0.0000
# 4 0.0000 0.0000 0.0000 43.0219 0.0000 -1.5348
# 5 -44.2880 0.3679 -23.3055 0.0000 66.1093 0.0000
# 6 0.0000 0.0000 0.0000 -1.5348 0.0000 41.5119
#
#
#
# Elastic Compliance Matrix: (Units=1/GPa)
#
#
# Indices 1 2 3 4 5 6 
#
# 1 0.005981 -0.001331 -0.000533 0.000000 0.003826 0.000000
# 2 -0.001331 0.016432 -0.003890 0.000000 -0.002354 0.000000
# 3 -0.000533 -0.003890 0.006260 0.000000 0.001872 0.000000
# 4 0.000000 0.000000 0.000000 0.023275 0.000000 0.000861
# 5 0.003826 -0.002354 0.001872 0.000000 0.018363 0.000000
# 6 0.000000 0.000000 0.000000 0.000861 0.000000 0.024121
#
#
# Mechanical properties :
#
#
# Convention : Reuss Voigt Hill
#
# Bulk Modulus (GPa) = 58.25814 77.78571 68.02192
# Shear Modulus (GPa) = 44.77855 54.55995 49.66925
#
# Velocity S-wave (km/s) = 3.99423 4.40895 4.20671
# Velocity P-wave (km/s) = 6.48293 7.32341 6.91595
#
# Compressibility (1/GPa) = 0.01716498
#
# Stress axis : x y z
#
# Youngs Moduli (GPa) = 167.20364 60.85573 159.75437
#
# Poissons Ratio (x) = 0.08099 0.08508
# Poissons Ratio (y) = 0.22251 0.62152
# Poissons Ratio (z) = 0.08905 0.23676
#
# Static dielectric constant tensor:
#      x y z
#    x 2.267900 0.000000 0.055240 
#    y 0.000000 2.214160 0.000000 
#    z 0.055240 0.000000 2.094380 
# 
# From -- ./inp_files/6762.got.cif
#   From: 2010.05.17/outbox.cif.g08.bks.cpg/sg9_4_cif.got.tgz:6762.got - 2010.06.03 20:04:27.
