data_PCOD9138561
_publ_section_title
;
Structure prediction by ZEFSAII (Michael W. Deem and Ramdas Pophale) SiO2 
 PCOD9138561
Probable space group: C C
;
_chemical_formula_sum "Si O2"
_cell_formula_units_Z 32
_cell_length_a 12.043398
_cell_length_b 9.310546
_cell_length_c 15.056069
_cell_angle_alpha 90.000000
_cell_angle_beta 57.517458
_cell_angle_gamma 90.000000
_cell_volume 1424.128743
_symmetry_space_group_name_H-M "C C"
_symmetry_group_IT_number 9
_symmetry_cell_setting 'monoclinic'
loop_
_space_group_symop_operation_xyz
x,y,z
x,-y,1/2+z
1/2+x,1/2+y,z
1/2+x,1/2-y,1/2+z
loop_
_atom_site_type_symbol
_atom_site_label
_atom_site_fract_x
_atom_site_fract_y
_atom_site_fract_z
Si Si1 0.890440 0.900824 0.997750
Si Si2 0.225549 0.661472 0.019112
Si Si3 0.529268 0.665288 0.251445
Si Si4 0.458026 0.905862 0.532299
Si Si5 0.724103 0.411802 0.168158
Si Si6 0.977616 0.225853 0.791603
Si Si7 0.391403 0.496159 0.179209
Si Si8 0.079076 0.479358 0.291249
O O1 0.969537 0.886218 0.872015
O O2 0.878031 0.739404 0.040520
O O3 0.764082 0.999930 0.032854
O O4 0.953441 0.984525 0.054803
O O5 0.228857 0.785229 0.092683
O O6 0.088139 0.647991 0.027151
O O7 0.346634 0.706469 0.904284
O O8 0.647686 0.558777 0.175269
O O9 0.426629 0.638764 0.217287
O O10 0.561823 0.828716 0.250642
O O11 0.506723 0.973151 0.417968
O O12 0.368745 0.023426 0.621946
O O13 0.610973 0.340645 0.279466
O O14 0.013894 0.391377 0.764785
O O15 0.943409 0.135882 0.717474
O O16 0.234539 0.493320 0.239930
#
# Coordination Sequence:
#
# PCOD9138561 Si02
#       8
#     4   4   4   4   4   4   4   4
#     4  11  23  44  74 104 142 193 238 298 370 425
#     4  12  23  48  74 105 148 191 245 302 363 436
#     4  10  23  44  72 109 144 185 248 301 351 444
#     4  11  23  42  75 105 138 198 241 296 370 436
#     4  11  23  43  72 104 146 187 246 298 359 434
#     4  11  23  45  73 104 147 193 241 303 358 432
#     4  11  22  45  71  97 148 190 234 299 367 419
#     4  11  22  43  73 102 143 189 241 299 362 428
#
# _framework density 22.469878999999999
#
# number of rings (size 3 to 8) (size 9 to 14) (size 15 to 20)
#    0.000    1.000    5.000    3.000    0.000    0.000 
#    0.000   18.750    0.000    0.000    0.000    0.000 
#    0.000    0.000    0.000    0.000    0.000    0.000 
#
# Total GULP energy -89251.726565 kJ/mol
# GULP energy per Si atom -5578.232910 kJ/mol
# Density = 2.241874 g / cm^3
# Si number density = 22.469879 Si / 1000 Ang^3
#
#
#
# Elastic Constant Matrix: (Units=GPa)
#
#
# Indices 1 2 3 4 5 6 
#
# 1 97.4717 52.0677 37.3089 0.0000 -24.3329 0.0000
# 2 52.0677 87.2004 14.3253 0.0000 -31.2708 0.0000
# 3 37.3089 14.3253 76.5270 0.0000 -14.4546 0.0000
# 4 0.0000 0.0000 0.0000 33.3731 0.0000 5.1988
# 5 -24.3329 -31.2708 -14.4546 0.0000 31.3582 0.0000
# 6 0.0000 0.0000 0.0000 5.1988 0.0000 39.6557
#
#
#
# Elastic Compliance Matrix: (Units=1/GPa)
#
#
# Indices 1 2 3 4 5 6 
#
# 1 0.018178 -0.009033 -0.006800 0.000000 0.001963 0.000000
# 2 -0.009033 0.022340 0.003402 0.000000 0.016837 0.000000
# 3 -0.006800 0.003402 0.016858 0.000000 0.005886 0.000000
# 4 0.000000 0.000000 0.000000 0.030589 0.000000 -0.004010
# 5 0.001963 0.016837 0.005886 0.000000 0.052916 0.000000
# 6 0.000000 0.000000 0.000000 -0.004010 0.000000 0.025743
#
#
# Mechanical properties :
#
#
# Convention : Reuss Voigt Hill
#
# Bulk Modulus (GPa) = 30.75673 52.06700 41.41186
# Shear Modulus (GPa) = 24.71286 31.37720 28.04503
#
# Velocity S-wave (km/s) = 3.31995 3.74091 3.53670
# Velocity P-wave (km/s) = 5.33046 6.47159 5.92854
#
# Compressibility (1/GPa) = 0.03251321
#
# Stress axis : x y z
#
# Youngs Moduli (GPa) = 55.01289 44.76183 59.32034
#
# Poissons Ratio (x) = 0.40433 0.40340
# Poissons Ratio (y) = 0.49692 -0.20181
# Poissons Ratio (z) = 0.37411 -0.15228
#
# Static dielectric constant tensor:
#      x y z
#    x 1.854880 0.000000 -0.003260 
#    y 0.000000 1.850250 0.000000 
#    z -0.003260 0.000000 1.909590 
# 
# From -- ./inp_files/24345.got.cif
#   From: 2010.05.17/outbox.cif.g08.bks.cpg/sg9_13_cif.got.tgz:24345.got - 2010.06.03 20:04:27.
