data_PCOD9138798
_publ_section_title
;
Structure prediction by ZEFSAII (Michael W. Deem and Ramdas Pophale) SiO2 
 PCOD9138798
Probable space group: C C
;
_chemical_formula_sum "Si O2"
_cell_formula_units_Z 24
_cell_length_a 7.372386
_cell_length_b 14.334781
_cell_length_c 12.450083
_cell_angle_alpha 90.000000
_cell_angle_beta 129.331547
_cell_angle_gamma 90.000000
_cell_volume 1017.716553
_symmetry_space_group_name_H-M "C C"
_symmetry_group_IT_number 9
_symmetry_cell_setting 'monoclinic'
loop_
_space_group_symop_operation_xyz
x,y,z
x,-y,1/2+z
1/2+x,1/2+y,z
1/2+x,1/2-y,1/2+z
loop_
_atom_site_type_symbol
_atom_site_label
_atom_site_fract_x
_atom_site_fract_y
_atom_site_fract_z
Si Si1 0.890600 0.784953 0.367830
Si Si2 0.574129 0.544824 0.502433
Si Si3 0.089480 0.140812 0.152070
Si Si4 0.300913 0.087908 0.945098
Si Si5 0.755963 0.859126 0.733530
Si Si6 0.895927 0.657479 0.763920
O O1 0.826046 0.686242 0.289608
O O2 0.638433 0.833793 0.292250
O O3 0.998191 0.784527 0.528470
O O4 0.064438 0.850006 0.364369
O O5 0.586577 0.456275 0.586251
O O6 0.738054 0.513684 0.465070
O O7 0.329912 0.570794 0.355490
O O8 0.687330 0.630823 0.606293
O O9 0.909928 0.127309 0.182922
O O10 0.402631 0.085934 0.864398
O O11 0.490141 0.131591 0.097134
O O12 0.834992 0.755898 0.795863
#
# Coordination Sequence:
#
# PCOD9138798 Si02
#       6
#     4   4   4   4   4   4
#     4  10  24  44  70 108 140 187 231 293 362 419
#     4  11  26  44  70 108 140 188 240 299 350 422
#     4  10  23  47  71 105 149 183 238 295 360 419
#     4  11  25  43  72 105 140 184 240 290 355 417
#     4  11  24  46  74 101 143 192 235 290 362 421
#     4  11  24  48  69 101 144 188 238 289 359 424
#
# _framework density 23.582204000000001
#
# number of rings (size 3 to 8) (size 9 to 14) (size 15 to 20)
#    0.000    1.333    1.667    2.000   16.333    0.000 
#    0.000    0.000    0.000    0.000    0.000    0.000 
#    0.000    0.000    0.000    0.000    0.000    0.000 
#
# Total GULP energy -67085.899431 kJ/mol
# GULP energy per Si atom -5590.491619 kJ/mol
# Density = 2.352853 g / cm^3
# Si number density = 23.582204 Si / 1000 Ang^3
#
#
#
# Elastic Constant Matrix: (Units=GPa)
#
#
# Indices 1 2 3 4 5 6 
#
# 1 62.6370 13.7065 24.0554 0.0000 -8.0467 0.0000
# 2 13.7065 76.0201 40.4376 0.0000 -8.2752 0.0000
# 3 24.0554 40.4376 126.0753 0.0000 5.6372 0.0000
# 4 0.0000 0.0000 0.0000 52.0947 0.0000 -8.6304
# 5 -8.0467 -8.2752 5.6372 0.0000 37.6755 0.0000
# 6 0.0000 0.0000 0.0000 -8.6304 0.0000 26.9753
#
#
#
# Elastic Compliance Matrix: (Units=1/GPa)
#
#
# Indices 1 2 3 4 5 6 
#
# 1 0.017980 -0.001053 -0.003276 0.000000 0.004099 0.000000
# 2 -0.001053 0.016636 -0.005324 0.000000 0.004226 0.000000
# 3 -0.003276 -0.005324 0.010418 0.000000 -0.003428 0.000000
# 4 0.000000 0.000000 0.000000 0.020270 0.000000 0.006485
# 5 0.004099 0.004226 -0.003428 0.000000 0.028859 0.000000
# 6 0.000000 0.000000 0.000000 0.006485 0.000000 0.039146
#
#
# Mechanical properties :
#
#
# Convention : Reuss Voigt Hill
#
# Bulk Modulus (GPa) = 38.86816 46.79238 42.83027
# Shear Modulus (GPa) = 31.01899 35.78462 33.40180
#
# Velocity S-wave (km/s) = 3.63072 3.89966 3.76759
# Velocity P-wave (km/s) = 5.83900 6.33733 6.09326
#
# Compressibility (1/GPa) = 0.02572800
#
# Stress axis : x y z
#
# Youngs Moduli (GPa) = 55.61664 60.10967 95.98973
#
# Poissons Ratio (x) = 0.06329 0.31448
# Poissons Ratio (y) = 0.05856 0.51105
# Poissons Ratio (z) = 0.18221 0.32002
#
# Static dielectric constant tensor:
#      x y z
#    x 1.898590 0.000000 -0.017070 
#    y 0.000000 1.941740 0.000000 
#    z -0.017070 0.000000 1.887820 
# 
# From -- ./inp_files/14371.got.cif
#   From: 2010.05.17/outbox.cif.g08.bks.cpg/sg9_8_cif.got.tgz:14371.got - 2010.06.03 20:04:27.
