data_PCOD9138549
_publ_section_title
;
Structure prediction by ZEFSAII (Michael W. Deem and Ramdas Pophale) SiO2 
 PCOD9138549
Probable space group: C C
;
_chemical_formula_sum "Si O2"
_cell_formula_units_Z 28
_cell_length_a 23.886321
_cell_length_b 4.981902
_cell_length_c 11.639544
_cell_angle_alpha 90.000000
_cell_angle_beta 126.388934
_cell_angle_gamma 90.000000
_cell_volume 1115.015282
_symmetry_space_group_name_H-M "C C"
_symmetry_group_IT_number 9
_symmetry_cell_setting 'monoclinic'
loop_
_space_group_symop_operation_xyz
x,y,z
x,-y,1/2+z
1/2+x,1/2+y,z
1/2+x,1/2-y,1/2+z
loop_
_atom_site_type_symbol
_atom_site_label
_atom_site_fract_x
_atom_site_fract_y
_atom_site_fract_z
Si Si1 0.089370 0.454807 0.755820
Si Si2 0.964762 0.884387 0.106735
Si Si3 0.885164 0.769637 0.808007
Si Si4 0.029733 0.253233 0.368093
Si Si5 0.822563 0.914836 0.039506
Si Si6 0.133142 0.026218 0.169631
Si Si7 0.786090 0.435334 0.851500
O O1 0.132986 0.197835 0.770321
O O2 0.116300 0.692725 0.708984
O O3 0.082112 0.520542 0.882321
O O4 0.009527 0.374708 0.630240
O O5 0.014380 0.084051 0.233964
O O6 0.903045 0.835462 0.119352
O O7 0.925597 0.969719 0.944259
O O8 0.952024 0.665906 0.815829
O O9 0.827226 0.931486 0.665643
O O10 0.844478 0.550911 0.835652
O O11 0.072729 0.075997 0.510681
O O12 0.800342 0.141358 0.920026
O O13 0.786089 0.639196 0.961439
O O14 0.209010 0.045595 0.205777
#
# Coordination Sequence:
#
# PCOD9138549 Si02
#       7
#     4   4   4   4   4   4   4
#     4  12  25  47  69 110 145 185 246 303 358 439
#     4  10  23  44  71 107 140 180 240 312 358 424
#     4  10  23  45  74 105 142 184 246 306 367 420
#     4  11  24  45  75 111 142 192 244 307 374 427
#     4  10  25  45  75 102 144 190 242 297 370 426
#     4  12  28  46  76 103 156 198 239 301 370 441
#     4  11  26  50  68 108 147 195 243 294 361 455
#
# _framework density 25.111764000000001
#
# number of rings (size 3 to 8) (size 9 to 14) (size 15 to 20)
#    0.000    1.143    2.857    0.857   10.000    4.571 
#    7.714    0.000    0.000    0.000    0.000    0.000 
#    0.000    0.000    0.000    0.000    0.000    0.000 
#
# Total GULP energy -78166.698294 kJ/mol
# GULP energy per Si atom -5583.335592 kJ/mol
# Density = 2.505461 g / cm^3
# Si number density = 25.111764 Si / 1000 Ang^3
#
#
#
# Elastic Constant Matrix: (Units=GPa)
#
#
# Indices 1 2 3 4 5 6 
#
# 1 109.5993 34.3892 32.5922 0.0000 18.3890 0.0000
# 2 34.3892 122.8815 13.9877 0.0000 5.3754 0.0000
# 3 32.5922 13.9877 48.1688 0.0000 12.7345 0.0000
# 4 0.0000 0.0000 0.0000 25.7767 0.0000 -2.5671
# 5 18.3890 5.3754 12.7345 0.0000 44.5179 0.0000
# 6 0.0000 0.0000 0.0000 -2.5671 0.0000 20.2265
#
#
#
# Elastic Compliance Matrix: (Units=1/GPa)
#
#
# Indices 1 2 3 4 5 6 
#
# 1 0.012475 -0.002577 -0.006937 0.000000 -0.002858 0.000000
# 2 -0.002577 0.008953 -0.000922 0.000000 0.000247 0.000000
# 3 -0.006937 -0.000922 0.026975 0.000000 -0.004739 0.000000
# 4 0.000000 0.000000 0.000000 0.039291 0.000000 0.004987
# 5 -0.002858 0.000247 -0.004739 0.000000 0.024969 0.000000
# 6 0.000000 0.000000 0.000000 0.004987 0.000000 0.050073
#
#
# Mechanical properties :
#
#
# Convention : Reuss Voigt Hill
#
# Bulk Modulus (GPa) = 36.32164 49.17642 42.74903
# Shear Modulus (GPa) = 25.93561 31.41623 28.67592
#
# Velocity S-wave (km/s) = 3.21722 3.54086 3.38291
# Velocity P-wave (km/s) = 5.31940 6.02847 5.68500
#
# Compressibility (1/GPa) = 0.02753180
#
# Stress axis : x y z
#
# Youngs Moduli (GPa) = 80.16030 111.69301 37.07150
#
# Poissons Ratio (x) = 0.28778 0.25717
# Poissons Ratio (y) = 0.20654 0.03417
# Poissons Ratio (z) = 0.55609 0.10296
#
# Static dielectric constant tensor:
#      x y z
#    x 2.033280 0.000000 -0.057870 
#    y 0.000000 2.066220 0.000000 
#    z -0.057870 0.000000 2.030750 
# 
# From -- ./inp_files/20747.got.cif
#   From: 2010.05.17/outbox.cif.g08.bks.cpg/sg9_11_cif.got.tgz:20747.got - 2010.06.03 20:04:27.
