data_PCOD9138976
_publ_section_title
;
Structure prediction by ZEFSAII (Michael W. Deem and Ramdas Pophale) SiO2 
 PCOD9138976
Probable space group: C C
;
_chemical_formula_sum "Si O2"
_cell_formula_units_Z 32
_cell_length_a 7.372599
_cell_length_b 13.725987
_cell_length_c 13.544918
_cell_angle_alpha 90.000000
_cell_angle_beta 114.273492
_cell_angle_gamma 90.000000
_cell_volume 1249.516019
_symmetry_space_group_name_H-M "C C"
_symmetry_group_IT_number 9
_symmetry_cell_setting 'monoclinic'
loop_
_space_group_symop_operation_xyz
x,y,z
x,-y,1/2+z
1/2+x,1/2+y,z
1/2+x,1/2-y,1/2+z
loop_
_atom_site_type_symbol
_atom_site_label
_atom_site_fract_x
_atom_site_fract_y
_atom_site_fract_z
Si Si1 0.637340 0.730455 0.989330
Si Si2 0.947776 0.617824 0.731725
Si Si3 0.133063 0.931482 0.863168
Si Si4 0.229870 0.762595 0.023362
Si Si5 0.228853 0.937007 0.651638
Si Si6 0.891265 0.111026 0.784545
Si Si7 0.992554 0.570277 0.958822
Si Si8 0.357801 0.575776 0.546531
O O1 0.551929 0.677807 0.873852
O O2 0.438664 0.750119 0.010490
O O3 0.751422 0.655259 0.086526
O O4 0.771666 0.821469 0.988093
O O5 0.174779 0.646616 0.768015
O O6 0.906916 0.612158 0.837317
O O7 0.797320 0.684007 0.638019
O O8 0.920733 0.506054 0.691072
O O9 0.181323 0.912714 0.756994
O O10 0.314027 0.996854 0.948784
O O11 0.113877 0.835318 0.923870
O O12 0.939997 0.999858 0.826111
O O13 0.107980 0.666071 0.024055
O O14 0.048522 0.005917 0.571728
O O15 0.892329 0.106910 0.667860
O O16 0.174429 0.496116 0.988016
#
# Coordination Sequence:
#
# PCOD9138976 Si02
#       8
#     4   4   4   4   4   4   4   4
#     4  12  23  39  71  95 131 177 225 270 337 400
#     4  11  23  41  66  96 131 175 223 272 339 401
#     4  10  24  43  65  97 136 173 223 282 332 396
#     4  12  23  39  71  95 131 177 225 270 337 400
#     4  10  24  43  65  97 136 173 223 282 332 396
#     4  11  23  41  66  96 131 175 223 272 339 401
#     4  11  23  42  65  97 132 174 221 278 330 396
#     4  11  23  42  65  97 132 174 221 278 330 396
#
# _framework density 25.609914
#
# number of rings (size 3 to 8) (size 9 to 14) (size 15 to 20)
#    0.000    1.000    5.000    0.750    3.500    1.000 
#    0.000    3.750    0.000    0.000    0.000    0.000 
#    0.000    0.000    0.000    0.000    0.000    0.000 
#
# Total GULP energy -89523.591590 kJ/mol
# GULP energy per Si atom -5595.224474 kJ/mol
# Density = 2.555162 g / cm^3
# Si number density = 25.609914 Si / 1000 Ang^3
#
#
#
# Elastic Constant Matrix: (Units=GPa)
#
#
# Indices 1 2 3 4 5 6 
#
# 1 110.0794 48.0564 23.4563 0.0000 -1.0136 0.0000
# 2 48.0564 167.0315 31.1938 0.0000 14.7691 0.0000
# 3 23.4563 31.1938 104.7813 0.0000 0.0167 0.0000
# 4 0.0000 0.0000 0.0000 31.7093 0.0000 5.6150
# 5 -1.0136 14.7691 0.0167 0.0000 31.1222 0.0000
# 6 0.0000 0.0000 0.0000 5.6150 0.0000 33.1363
#
#
#
# Elastic Compliance Matrix: (Units=1/GPa)
#
#
# Indices 1 2 3 4 5 6 
#
# 1 0.010714 -0.002954 -0.001519 0.000000 0.001751 0.000000
# 2 -0.002954 0.007448 -0.001556 0.000000 -0.003630 0.000000
# 3 -0.001519 -0.001556 0.010347 0.000000 0.000683 0.000000
# 4 0.000000 0.000000 0.000000 0.032512 0.000000 -0.005509
# 5 0.001751 -0.003630 0.000683 0.000000 0.033911 0.000000
# 6 0.000000 0.000000 0.000000 -0.005509 0.000000 0.031112
#
#
# Mechanical properties :
#
#
# Convention : Reuss Voigt Hill
#
# Bulk Modulus (GPa) = 60.78419 65.25613 63.02016
# Shear Modulus (GPa) = 34.82285 37.80595 36.31440
#
# Velocity S-wave (km/s) = 3.69147 3.84633 3.76970
# Velocity P-wave (km/s) = 6.47730 6.72769 6.60368
#
# Compressibility (1/GPa) = 0.01645165
#
# Stress axis : x y z
#
# Youngs Moduli (GPa) = 93.33919 134.26214 96.64819
#
# Poissons Ratio (x) = 0.39654 0.14684
# Poissons Ratio (y) = 0.27568 0.15034
# Poissons Ratio (z) = 0.14181 0.20886
#
# Static dielectric constant tensor:
#      x y z
#    x 2.118080 0.000000 -0.078200 
#    y 0.000000 2.089130 0.000000 
#    z -0.078200 0.000000 2.024330 
# 
# From -- ./inp_files/22950.got.cif
#   From: 2010.05.17/outbox.cif.g08.bks.cpg/sg9_12_cif.got.tgz:22950.got - 2010.06.03 20:04:27.
