data_PCOD9138256
_publ_section_title
;
Structure prediction by ZEFSAII (Michael W. Deem and Ramdas Pophale) SiO2 
 PCOD9138256
Probable space group: C C
;
_chemical_formula_sum "Si O2"
_cell_formula_units_Z 28
_cell_length_a 6.018774
_cell_length_b 20.819954
_cell_length_c 12.928715
_cell_angle_alpha 90.000000
_cell_angle_beta 133.642266
_cell_angle_gamma 90.000000
_cell_volume 1172.409960
_symmetry_space_group_name_H-M "C C"
_symmetry_group_IT_number 9
_symmetry_cell_setting 'monoclinic'
loop_
_space_group_symop_operation_xyz
x,y,z
x,-y,1/2+z
1/2+x,1/2+y,z
1/2+x,1/2-y,1/2+z
loop_
_atom_site_type_symbol
_atom_site_label
_atom_site_fract_x
_atom_site_fract_y
_atom_site_fract_z
Si Si1 0.780890 0.154455 0.625000
Si Si2 0.220787 0.790371 0.586357
Si Si3 0.716236 0.446106 0.174761
Si Si4 0.161426 0.458651 0.481032
Si Si5 0.232086 0.641227 0.160804
Si Si6 0.737473 0.435576 0.938089
Si Si7 0.670110 0.757417 0.279867
O O1 0.843470 0.220889 0.586728
O O2 0.497519 0.115479 0.487247
O O3 0.670669 0.179853 0.703549
O O4 0.073791 0.109597 0.702348
O O5 0.384866 0.848990 0.586052
O O6 0.305788 0.790426 0.734354
O O7 0.868257 0.779187 0.441110
O O8 0.050855 0.461139 0.327370
O O9 0.718675 0.430470 0.055143
O O10 0.475284 0.504204 0.104193
O O11 0.883323 0.496322 0.450949
O O12 0.213768 0.387632 0.540689
O O13 0.422052 0.588675 0.286869
O O14 0.392383 0.710999 0.223864
#
# Coordination Sequence:
#
# PCOD9138256 Si02
#       7
#     4   4   4   4   4   4   4
#     4   9  23  42  65  99 137 166 227 272 341 412
#     4  10  24  39  66  95 138 171 225 271 348 412
#     4  11  25  43  75  94 141 180 231 286 350 403
#     4  11  26  47  64 108 130 179 239 286 338 423
#     4  12  24  42  73  96 138 184 224 287 358 398
#     4  11  25  45  72  94 140 180 228 291 344 404
#     4  10  23  42  61 102 138 170 224 285 323 432
#
# _framework density 23.882432000000001
#
# number of rings (size 3 to 8) (size 9 to 14) (size 15 to 20)
#    0.857    0.571    2.857    0.857    6.000    3.429 
#    0.000    0.000    0.000    0.000    0.000    0.000 
#    0.000    0.000    0.000    0.000    0.000    0.000 
#
# Total GULP energy -77987.678743 kJ/mol
# GULP energy per Si atom -5570.548482 kJ/mol
# Density = 2.382807 g / cm^3
# Si number density = 23.882432 Si / 1000 Ang^3
#
#
#
# Elastic Constant Matrix: (Units=GPa)
#
#
# Indices 1 2 3 4 5 6 
#
# 1 32.7354 27.2125 19.7328 0.0000 -10.5381 0.0000
# 2 27.2125 78.1855 38.1762 0.0000 -0.2101 0.0000
# 3 19.7328 38.1762 142.1249 0.0000 -8.5682 0.0000
# 4 0.0000 0.0000 0.0000 26.5397 0.0000 -1.8843
# 5 -10.5381 -0.2101 -8.5682 0.0000 27.0232 0.0000
# 6 0.0000 0.0000 0.0000 -1.8843 0.0000 32.6834
#
#
#
# Elastic Compliance Matrix: (Units=1/GPa)
#
#
# Indices 1 2 3 4 5 6 
#
# 1 0.052279 -0.017473 -0.001370 0.000000 0.019817 0.000000
# 2 -0.017473 0.020597 -0.003576 0.000000 -0.007788 0.000000
# 3 -0.001370 -0.003576 0.008312 0.000000 0.002073 0.000000
# 4 0.000000 0.000000 0.000000 0.037834 0.000000 0.002181
# 5 0.019817 -0.007788 0.002073 0.000000 0.045330 0.000000
# 6 0.000000 0.000000 0.000000 0.002181 0.000000 0.030722
#
#
# Mechanical properties :
#
#
# Convention : Reuss Voigt Hill
#
# Bulk Modulus (GPa) = 27.51167 47.03208 37.27187
# Shear Modulus (GPa) = 19.83900 28.44420 24.14160
#
# Velocity S-wave (km/s) = 2.88530 3.45484 3.18284
# Velocity P-wave (km/s) = 4.75863 5.97081 5.39885
#
# Compressibility (1/GPa) = 0.03634822
#
# Stress axis : x y z
#
# Youngs Moduli (GPa) = 19.12832 48.55118 120.31014
#
# Poissons Ratio (x) = 0.84835 0.16485
# Poissons Ratio (y) = 0.33423 0.43023
# Poissons Ratio (z) = 0.02621 0.17362
#
# Static dielectric constant tensor:
#      x y z
#    x 1.905130 0.000000 0.015840 
#    y 0.000000 1.954590 0.000000 
#    z 0.015840 0.000000 1.903350 
# 
# From -- ./inp_files/22288.got.cif
#   From: 2010.05.17/outbox.cif.g08.bks.cpg/sg9_12_cif.got.tgz:22288.got - 2010.06.03 20:04:27.
