data_PCOD9138053
_publ_section_title
;
Structure prediction by ZEFSAII (Michael W. Deem and Ramdas Pophale) SiO2 
 PCOD9138053
Probable space group: C C
;
_chemical_formula_sum "Si O2"
_cell_formula_units_Z 20
_cell_length_a 7.651836
_cell_length_b 6.823120
_cell_length_c 20.343514
_cell_angle_alpha 90.000000
_cell_angle_beta 46.938311
_cell_angle_gamma 90.000000
_cell_volume 776.006911
_symmetry_space_group_name_H-M "C C"
_symmetry_group_IT_number 9
_symmetry_cell_setting 'monoclinic'
loop_
_space_group_symop_operation_xyz
x,y,z
x,-y,1/2+z
1/2+x,1/2+y,z
1/2+x,1/2-y,1/2+z
loop_
_atom_site_type_symbol
_atom_site_label
_atom_site_fract_x
_atom_site_fract_y
_atom_site_fract_z
Si Si1 0.492640 0.835485 0.730190
Si Si2 0.955711 0.052835 0.058163
Si Si3 0.996139 0.004894 0.320230
Si Si4 0.617431 0.574712 0.152548
Si Si5 0.667788 0.143782 0.007909
O O1 0.692327 0.991152 0.657889
O O2 0.545202 0.718925 0.783621
O O3 0.532119 0.653739 0.669138
O O4 0.226818 0.912342 0.797180
O O5 0.874765 0.139654 0.009706
O O6 0.074710 0.162062 0.090752
O O7 0.119671 0.867924 0.000599
O O8 0.764974 0.992025 0.424300
O O9 0.981603 0.124921 0.255344
O O10 0.899898 0.573292 0.095035
#
# Coordination Sequence:
#
# PCOD9138053 Si02
#       5
#     4   4   4   4   4
#     4  10  22  47  71 103 149 193 248 292 384 425
#     4  12  23  46  72 108 142 205 239 313 367 450
#     4  10  22  48  70 113 146 201 244 315 360 457
#     4  10  24  45  70 106 148 202 238 311 367 450
#     4  12  25  44  77 106 157 187 263 299 380 430
#
# _framework density 25.772969
#
# number of rings (size 3 to 8) (size 9 to 14) (size 15 to 20)
#    1.200    0.000    4.000    1.200    5.600    0.000 
#    7.200    0.000    0.000    0.000    0.000    0.000 
#    0.000    0.000    0.000    0.000    0.000    0.000 
#
# Total GULP energy -55771.373329 kJ/mol
# GULP energy per Si atom -5577.137333 kJ/mol
# Density = 2.571431 g / cm^3
# Si number density = 25.772969 Si / 1000 Ang^3
#
#
#
# Elastic Constant Matrix: (Units=GPa)
#
#
# Indices 1 2 3 4 5 6 
#
# 1 167.6605 41.7001 13.2755 0.0000 0.8367 0.0000
# 2 41.7001 42.2377 -9.0878 0.0000 -2.2601 0.0000
# 3 13.2755 -9.0878 70.6667 0.0000 11.2326 0.0000
# 4 0.0000 0.0000 0.0000 25.3277 0.0000 -7.9294
# 5 0.8367 -2.2601 11.2326 0.0000 25.4839 0.0000
# 6 0.0000 0.0000 0.0000 -7.9294 0.0000 54.5407
#
#
#
# Elastic Compliance Matrix: (Units=1/GPa)
#
#
# Indices 1 2 3 4 5 6 
#
# 1 0.008384 -0.008858 -0.002737 0.000000 0.000146 0.000000
# 2 -0.008858 0.033725 0.005892 0.000000 0.000685 0.000000
# 3 -0.002737 0.005892 0.016480 0.000000 -0.006652 0.000000
# 4 0.000000 0.000000 0.000000 0.041365 0.000000 0.006014
# 5 0.000146 0.000685 -0.006652 0.000000 0.042228 0.000000
# 6 0.000000 0.000000 0.000000 0.006014 0.000000 0.019209
#
#
# Mechanical properties :
#
#
# Convention : Reuss Voigt Hill
#
# Bulk Modulus (GPa) = 21.19398 41.37115 31.28256
# Shear Modulus (GPa) = 26.52161 36.71559 31.61860
#
# Velocity S-wave (km/s) = 3.21136 3.77845 3.50639
# Velocity P-wave (km/s) = 4.68952 5.92643 5.34388
#
# Compressibility (1/GPa) = 0.04718321
#
# Stress axis : x y z
#
# Youngs Moduli (GPa) = 119.28055 29.65133 60.67892
#
# Poissons Ratio (x) = 0.26265 0.16609
# Poissons Ratio (y) = 1.05659 -0.35754
# Poissons Ratio (z) = 0.32650 -0.17472
#
# Static dielectric constant tensor:
#      x y z
#    x 2.047100 0.000000 0.099520 
#    y 0.000000 2.149070 0.000000 
#    z 0.099520 0.000000 2.036510 
# 
# From -- ./inp_files/28901.got.cif
#   From: 2010.05.17/outbox.cif.g08.bks.cpg/sg9_15_cif.got.tgz:28901.got - 2010.06.03 20:04:27.
