data_PCOD9138337
_publ_section_title
;
Structure prediction by ZEFSAII (Michael W. Deem and Ramdas Pophale) SiO2 
 PCOD9138337
Probable space group: C C
;
_chemical_formula_sum "Si O2"
_cell_formula_units_Z 24
_cell_length_a 4.838019
_cell_length_b 20.815626
_cell_length_c 11.435191
_cell_angle_alpha 90.000000
_cell_angle_beta 63.117661
_cell_angle_gamma 90.000000
_cell_volume 1027.151780
_symmetry_space_group_name_H-M "C C"
_symmetry_group_IT_number 9
_symmetry_cell_setting 'monoclinic'
loop_
_space_group_symop_operation_xyz
x,y,z
x,-y,1/2+z
1/2+x,1/2+y,z
1/2+x,1/2-y,1/2+z
loop_
_atom_site_type_symbol
_atom_site_label
_atom_site_fract_x
_atom_site_fract_y
_atom_site_fract_z
Si Si1 0.059480 0.080489 0.441470
Si Si2 0.191054 0.724087 0.923140
Si Si3 0.051306 0.823414 0.564510
Si Si4 0.785084 0.560265 0.882572
Si Si5 0.932969 0.109532 0.732776
Si Si6 0.121638 0.652187 0.349020
O O1 0.395945 0.101708 0.327467
O O2 0.042091 0.103079 0.579630
O O3 0.779544 0.114212 0.426048
O O4 0.086168 0.003856 0.432931
O O5 0.304517 0.680348 0.792529
O O6 0.382124 0.788715 0.902640
O O7 0.277574 0.685271 0.023710
O O8 0.821159 0.728662 0.990658
O O9 0.201640 0.891625 0.503857
O O10 0.907718 0.822129 0.718761
O O11 0.695008 0.594240 0.777482
O O12 0.156327 0.558378 0.807737
#
# Coordination Sequence:
#
# PCOD9138337 Si02
#       6
#     4   4   4   4   4   4
#     4  12  26  41  70 107 139 180 235 294 350 417
#     4  10  23  46  71  95 137 185 229 281 352 410
#     4  10  23  45  70  99 135 186 229 283 350 415
#     4  10  23  42  70  98 138 185 229 283 355 413
#     4  10  23  46  68  98 136 187 228 285 350 416
#     4  12  26  44  69 109 137 179 238 292 351 415
#
# _framework density 23.365582
#
# number of rings (size 3 to 8) (size 9 to 14) (size 15 to 20)
#    0.000    1.333    0.000    4.000    7.000    0.000 
#    9.000    0.000    0.000    0.000    0.000    0.000 
#    0.000    0.000    0.000    0.000    0.000    0.000 
#
# Total GULP energy -67065.236038 kJ/mol
# GULP energy per Si atom -5588.769670 kJ/mol
# Density = 2.331240 g / cm^3
# Si number density = 23.365582 Si / 1000 Ang^3
#
#
#
# Elastic Constant Matrix: (Units=GPa)
#
#
# Indices 1 2 3 4 5 6 
#
# 1 129.1679 25.7134 13.9175 0.0000 -2.1820 0.0000
# 2 25.7134 112.9987 30.1522 0.0000 -4.6428 0.0000
# 3 13.9175 30.1522 70.7690 0.0000 -6.7236 0.0000
# 4 0.0000 0.0000 0.0000 11.3958 0.0000 -0.1707
# 5 -2.1820 -4.6428 -6.7236 0.0000 22.3126 0.0000
# 6 0.0000 0.0000 0.0000 -0.1707 0.0000 42.1205
#
#
#
# Elastic Compliance Matrix: (Units=1/GPa)
#
#
# Indices 1 2 3 4 5 6 
#
# 1 0.008163 -0.001609 -0.000902 0.000000 0.000192 0.000000
# 2 -0.001609 0.010317 -0.004005 0.000000 0.000783 0.000000
# 3 -0.000902 -0.004005 0.016396 0.000000 0.004019 0.000000
# 4 0.000000 0.000000 0.000000 0.087757 0.000000 0.000356
# 5 0.000192 0.000783 0.004019 0.000000 0.046210 0.000000
# 6 0.000000 0.000000 0.000000 0.000356 0.000000 0.023743
#
#
# Mechanical properties :
#
#
# Convention : Reuss Voigt Hill
#
# Bulk Modulus (GPa) = 45.77808 50.27799 48.02803
# Shear Modulus (GPa) = 23.48551 31.37595 27.43073
#
# Velocity S-wave (km/s) = 3.17382 3.66844 3.43006
# Velocity P-wave (km/s) = 5.75026 6.28553 6.02384
#
# Compressibility (1/GPa) = 0.02184451
#
# Stress axis : x y z
#
# Youngs Moduli (GPa) = 122.51089 96.93150 60.99086
#
# Poissons Ratio (x) = 0.15596 0.05498
# Poissons Ratio (y) = 0.19712 0.24425
# Poissons Ratio (z) = 0.11044 0.38819
#
# Static dielectric constant tensor:
#      x y z
#    x 1.843390 0.000000 -0.032130 
#    y 0.000000 1.944660 0.000000 
#    z -0.032130 0.000000 1.876770 
# 
# From -- ./inp_files/13252.got.cif
#   From: 2010.05.17/outbox.cif.g08.bks.cpg/sg9_7_cif.got.tgz:13252.got - 2010.06.03 20:04:27.
