data_PCOD9138163
_publ_section_title
;
Structure prediction by ZEFSAII (Michael W. Deem and Ramdas Pophale) SiO2 
 PCOD9138163
Probable space group: C C
;
_chemical_formula_sum "Si O2"
_cell_formula_units_Z 28
_cell_length_a 5.992272
_cell_length_b 22.170654
_cell_length_c 11.637174
_cell_angle_alpha 90.000000
_cell_angle_beta 131.102709
_cell_angle_gamma 90.000000
_cell_volume 1164.982575
_symmetry_space_group_name_H-M "C C"
_symmetry_group_IT_number 9
_symmetry_cell_setting 'monoclinic'
loop_
_space_group_symop_operation_xyz
x,y,z
x,-y,1/2+z
1/2+x,1/2+y,z
1/2+x,1/2-y,1/2+z
loop_
_atom_site_type_symbol
_atom_site_label
_atom_site_fract_x
_atom_site_fract_y
_atom_site_fract_z
Si Si1 0.335440 0.294567 0.633450
Si Si2 0.129180 0.120997 0.695308
Si Si3 0.338333 0.616922 0.949573
Si Si4 0.242134 0.073765 0.494054
Si Si5 0.852340 0.976121 0.274187
Si Si6 0.633642 0.286882 0.377853
Si Si7 0.868084 0.698881 0.451425
O O1 0.423697 0.357791 0.602275
O O2 0.516004 0.290781 0.811132
O O3 0.439099 0.240016 0.585367
O O4 0.983285 0.292149 0.518887
O O5 0.485212 0.121253 0.822698
O O6 0.071536 0.104294 0.544016
O O7 0.050917 0.186170 0.724236
O O8 0.010863 0.067847 0.736742
O O9 0.408755 0.552080 0.920857
O O10 0.476138 0.665114 0.908844
O O11 0.503518 0.028917 0.626959
O O12 0.412164 0.129087 0.491190
O O13 0.012058 0.039942 0.334545
O O14 0.519305 0.223238 0.386543
#
# Coordination Sequence:
#
# PCOD9138163 Si02
#       7
#     4   4   4   4   4   4   4
#     4  10  23  40  66 100 142 183 235 300 368 441
#     4   9  20  41  71  97 134 186 237 301 363 421
#     4   8  18  40  65  95 130 180 239 290 354 424
#     4  11  26  44  69 108 145 189 256 297 367 438
#     4  10  23  43  71  98 143 192 240 307 361 429
#     4   9  20  42  69  96 137 191 232 293 372 422
#     4  11  26  42  67 104 147 185 245 296 363 451
#
# _framework density 24.034693999999998
#
# number of rings (size 3 to 8) (size 9 to 14) (size 15 to 20)
#    0.000    2.286    0.000    0.000   12.000   10.286 
#    0.000    0.000    0.000    0.000    0.000    0.000 
#    0.000    0.000    0.000    0.000    0.000    0.000 
#
# Total GULP energy -78249.942622 kJ/mol
# GULP energy per Si atom -5589.281616 kJ/mol
# Density = 2.397999 g / cm^3
# Si number density = 24.034694 Si / 1000 Ang^3
#
#
#
# Elastic Constant Matrix: (Units=GPa)
#
#
# Indices 1 2 3 4 5 6 
#
# 1 105.0164 34.1126 19.9963 0.0000 4.0118 0.0000
# 2 34.1126 97.3770 42.8962 0.0000 -6.1960 0.0000
# 3 19.9963 42.8962 102.9733 0.0000 2.2818 0.0000
# 4 0.0000 0.0000 0.0000 43.6462 0.0000 -1.7143
# 5 4.0118 -6.1960 2.2818 0.0000 26.6293 0.0000
# 6 0.0000 0.0000 0.0000 -1.7143 0.0000 37.0366
#
#
#
# Elastic Compliance Matrix: (Units=1/GPa)
#
#
# Indices 1 2 3 4 5 6 
#
# 1 0.010937 -0.003770 -0.000498 0.000000 -0.002482 0.000000
# 2 -0.003770 0.014188 -0.005274 0.000000 0.004321 0.000000
# 3 -0.000498 -0.005274 0.012054 0.000000 -0.002185 0.000000
# 4 0.000000 0.000000 0.000000 0.022953 0.000000 0.001062
# 5 -0.002482 0.004321 -0.002185 0.000000 0.039119 0.000000
# 6 0.000000 0.000000 0.000000 0.001062 0.000000 0.027049
#
#
# Mechanical properties :
#
#
# Convention : Reuss Voigt Hill
#
# Bulk Modulus (GPa) = 55.26737 55.48632 55.37684
# Shear Modulus (GPa) = 33.02162 35.35321 34.18741
#
# Velocity S-wave (km/s) = 3.71066 3.83942 3.77559
# Velocity P-wave (km/s) = 6.43455 6.54148 6.48823
#
# Compressibility (1/GPa) = 0.01809386
#
# Stress axis : x y z
#
# Youngs Moduli (GPa) = 91.43674 70.48092 82.96295
#
# Poissons Ratio (x) = 0.26568 0.04135
# Poissons Ratio (y) = 0.34468 0.43757
# Poissons Ratio (z) = 0.04557 0.37173
#
# Static dielectric constant tensor:
#      x y z
#    x 1.958110 0.000000 -0.015440 
#    y 0.000000 1.933200 0.000000 
#    z -0.015440 0.000000 1.888160 
# 
# From -- ./inp_files/4008.got.cif
#   From: 2010.05.17/outbox.cif.g08.bks.cpg/sg9_3_cif.got.tgz:4008.got - 2010.06.03 20:04:27.
