data_PCOD9138145
_publ_section_title
;
Structure prediction by ZEFSAII (Michael W. Deem and Ramdas Pophale) SiO2 
 PCOD9138145
Probable space group: C C
;
_chemical_formula_sum "Si O2"
_cell_formula_units_Z 20
_cell_length_a 5.163503
_cell_length_b 29.448330
_cell_length_c 4.957247
_cell_angle_alpha 90.000000
_cell_angle_beta 80.002766
_cell_angle_gamma 90.000000
_cell_volume 742.336507
_symmetry_space_group_name_H-M "C C"
_symmetry_group_IT_number 9
_symmetry_cell_setting 'monoclinic'
loop_
_space_group_symop_operation_xyz
x,y,z
x,-y,1/2+z
1/2+x,1/2+y,z
1/2+x,1/2-y,1/2+z
loop_
_atom_site_type_symbol
_atom_site_label
_atom_site_fract_x
_atom_site_fract_y
_atom_site_fract_z
Si Si1 0.975470 0.240485 0.182070
Si Si2 0.511434 0.412623 0.395485
Si Si3 0.007106 0.307690 0.455587
Si Si4 0.639495 0.355361 0.859067
Si Si5 0.027333 0.470379 0.279403
O O1 0.759913 0.218462 0.018469
O O2 0.012845 0.298955 0.136586
O O3 0.278416 0.233015 0.980685
O O4 0.042599 0.195833 0.361557
O O5 0.476132 0.387870 0.686691
O O6 0.248915 0.434883 0.326905
O O7 0.738012 0.450345 0.379656
O O8 0.618961 0.376440 0.156413
O O9 0.911583 0.350191 0.634362
O O10 0.058381 0.514209 0.465798
#
# Coordination Sequence:
#
# PCOD9138145 Si02
#       5
#     4   4   4   4   4
#     4  10  23  39  63  91 133 181 237 271 332 377
#     4  12  26  45  72 104 139 170 221 278 346 389
#     4  10  23  39  63  91 133 181 237 271 332 377
#     4  10  28  41  69 100 142 176 228 286 331 385
#     4  12  26  48  77 102 135 174 217 266 341 432
#
# _framework density 26.941959000000001
#
# number of rings (size 3 to 8) (size 9 to 14) (size 15 to 20)
#    1.200    0.000    0.000    4.800    8.400    0.000 
#    0.000    0.000    0.000    0.000    0.000    0.000 
#    0.000    0.000    0.000    0.000    0.000    0.000 
#
# Total GULP energy -55693.628336 kJ/mol
# GULP energy per Si atom -5569.362834 kJ/mol
# Density = 2.688064 g / cm^3
# Si number density = 26.941959 Si / 1000 Ang^3
#
#
#
# Elastic Constant Matrix: (Units=GPa)
#
#
# Indices 1 2 3 4 5 6 
#
# 1 154.6561 13.2357 6.4135 0.0000 0.5296 0.0000
# 2 13.2357 58.1064 16.9722 0.0000 -6.8926 0.0000
# 3 6.4135 16.9722 87.9537 0.0000 11.3795 0.0000
# 4 0.0000 0.0000 0.0000 70.0371 0.0000 -0.6607
# 5 0.5296 -6.8926 11.3795 0.0000 41.2813 0.0000
# 6 0.0000 0.0000 0.0000 -0.6607 0.0000 45.7524
#
#
#
# Elastic Compliance Matrix: (Units=1/GPa)
#
#
# Indices 1 2 3 4 5 6 
#
# 1 0.006601 -0.001493 -0.000156 0.000000 -0.000291 0.000000
# 2 -0.001493 0.019293 -0.004182 0.000000 0.004393 0.000000
# 3 -0.000156 -0.004182 0.012732 0.000000 -0.004206 0.000000
# 4 0.000000 0.000000 0.000000 0.014280 0.000000 0.000206
# 5 -0.000291 0.004393 -0.004206 0.000000 0.026121 0.000000
# 6 0.000000 0.000000 0.000000 0.000206 0.000000 0.021860
#
#
# Mechanical properties :
#
#
# Convention : Reuss Voigt Hill
#
# Bulk Modulus (GPa) = 37.08586 41.55101 39.31843
# Shear Modulus (GPa) = 41.14002 49.02049 45.08026
#
# Velocity S-wave (km/s) = 3.91191 4.27017 4.09496
# Velocity P-wave (km/s) = 5.84799 6.30622 6.08142
#
# Compressibility (1/GPa) = 0.02696445
#
# Stress axis : x y z
#
# Youngs Moduli (GPa) = 151.48864 51.83341 78.54095
#
# Poissons Ratio (x) = 0.07737 0.01223
# Poissons Ratio (y) = 0.22613 0.32849
# Poissons Ratio (z) = 0.02358 0.21679
#
# Static dielectric constant tensor:
#      x y z
#    x 2.338110 0.000000 -0.113200 
#    y 0.000000 2.082440 0.000000 
#    z -0.113200 0.000000 2.156450 
# 
# From -- ./inp_files/251.got.cif
#   From: 2010.05.17/outbox.cif.g08.bks.cpg/sg9_1_cif.got.tgz:251.got - 2010.06.03 20:04:27.
