data_PCOD9138844
_publ_section_title
;
Structure prediction by ZEFSAII (Michael W. Deem and Ramdas Pophale) SiO2 
 PCOD9138844
Probable space group: C C
;
_chemical_formula_sum "Si O2"
_cell_formula_units_Z 32
_cell_length_a 12.376702
_cell_length_b 18.592443
_cell_length_c 5.169423
_cell_angle_alpha 90.000000
_cell_angle_beta 71.548545
_cell_angle_gamma 90.000000
_cell_volume 1128.399782
_symmetry_space_group_name_H-M "C C"
_symmetry_group_IT_number 9
_symmetry_cell_setting 'monoclinic'
loop_
_space_group_symop_operation_xyz
x,y,z
x,-y,1/2+z
1/2+x,1/2+y,z
1/2+x,1/2-y,1/2+z
loop_
_atom_site_type_symbol
_atom_site_label
_atom_site_fract_x
_atom_site_fract_y
_atom_site_fract_z
Si Si1 0.677660 0.915389 0.450840
Si Si2 0.404355 0.428506 0.521687
Si Si3 0.308347 0.692810 0.471574
Si Si4 0.993819 0.664583 0.450011
Si Si5 0.984966 0.475386 0.182386
Si Si6 0.239512 0.175690 0.665986
Si Si7 0.015424 0.802904 0.161380
Si Si8 0.141792 0.038058 0.035368
O O1 0.790538 0.957528 0.469041
O O2 0.727809 0.853783 0.224553
O O3 0.594812 0.871305 0.706028
O O4 0.497419 0.888770 0.194182
O O5 0.473825 0.382615 0.257540
O O6 0.501964 0.462806 0.624541
O O7 0.348109 0.367449 0.741788
O O8 0.255171 0.756273 0.344630
O O9 0.420875 0.722393 0.532222
O O10 0.863179 0.659438 0.460483
O O11 0.011690 0.749761 0.412594
O O12 0.090757 0.518936 0.943768
O O13 0.916411 0.513073 0.461554
O O14 0.149098 0.193732 0.508175
O O15 0.189503 0.111338 0.877967
O O16 0.173877 0.023021 0.303882
#
# Coordination Sequence:
#
# PCOD9138844 Si02
#       8
#     4   4   4   4   4   4   4   4
#     4  10  25  43  75 118 159 199 264 333 410 479
#     4  10  23  48  76 114 151 202 267 335 401 466
#     4  11  24  47  82 117 151 208 264 345 409 469
#     4  11  24  46  72 110 157 202 258 324 402 483
#     4  10  25  44  68 108 156 204 249 310 387 477
#     4  11  26  49  81 112 157 211 266 335 408 488
#     4  10  24  44  73 116 152 196 269 330 402 476
#     4  11  29  51  79 115 161 220 273 328 397 492
#
# _framework density 28.358744999999999
#
# number of rings (size 3 to 8) (size 9 to 14) (size 15 to 20)
#    0.000    1.500    1.250    0.750   12.250    9.000 
#    0.000    0.000    0.000    0.000    0.000    0.000 
#    0.000    0.000    0.000    0.000    0.000    0.000 
#
# Total GULP energy -89424.681646 kJ/mol
# GULP energy per Si atom -5589.042603 kJ/mol
# Density = 2.829420 g / cm^3
# Si number density = 28.358745 Si / 1000 Ang^3
#
#
#
# Elastic Constant Matrix: (Units=GPa)
#
#
# Indices 1 2 3 4 5 6 
#
# 1 180.6863 -3.9481 -43.4646 0.0000 -71.3842 0.0000
# 2 -3.9481 106.5642 -52.3383 0.0000 -31.2256 0.0000
# 3 -43.4646 -52.3383 -141.4579 0.0000 -130.7552 0.0000
# 4 0.0000 0.0000 0.0000 47.2041 0.0000 -1.5849
# 5 -71.3842 -31.2256 -130.7552 0.0000 -31.1608 0.0000
# 6 0.0000 0.0000 0.0000 -1.5849 0.0000 40.9670
#
#
#
# Elastic Compliance Matrix: (Units=1/GPa)
#
#
# Indices 1 2 3 4 5 6 
#
# 1 0.005540 -0.000818 -0.003326 0.000000 0.002084 0.000000
# 2 -0.000818 0.008274 -0.001085 0.000000 -0.001867 0.000000
# 3 -0.003326 -0.001085 0.004757 0.000000 -0.011254 0.000000
# 4 0.000000 0.000000 0.000000 0.021212 0.000000 0.000821
# 5 0.002084 -0.001867 -0.011254 0.000000 0.012230 0.000000
# 6 0.000000 0.000000 0.000000 0.000821 0.000000 0.024442
#
#
# Mechanical properties :
#
#
# Convention : Reuss Voigt Hill
#
# Bulk Modulus (GPa) = 123.23643 -5.96770 58.63437
# Shear Modulus (GPa) = 55.79414 27.77163 41.78288
#
# Velocity S-wave (km/s) = 4.44040 3.13277 3.84261
# Velocity P-wave (km/s) = 8.35704 3.31311 6.35676
#
# Compressibility (1/GPa) = 0.00811448
#
# Stress axis : x y z
#
# Youngs Moduli (GPa) = 180.51221 120.86030 210.22910
#
# Poissons Ratio (x) = 0.09881 0.69916
# Poissons Ratio (y) = 0.14758 0.22804
# Poissons Ratio (z) = 0.60033 0.13110
#
# Static dielectric constant tensor:
#      x y z
#    x 4.045790 0.000000 1.217740 
#    y 0.000000 2.302280 0.000000 
#    z 1.217740 0.000000 2.939690 
# 
# From -- ./inp_files/1846.got.cif
#   From: 2010.05.17/outbox.cif.g08.bks.cpg/sg9_1_cif.got.tgz:1846.got - 2010.06.03 20:04:27.
