data_PCOD9138604
_publ_section_title
;
Structure prediction by ZEFSAII (Michael W. Deem and Ramdas Pophale) SiO2 
 PCOD9138604
Probable space group: C C
;
_chemical_formula_sum "Si O2"
_cell_formula_units_Z 28
_cell_length_a 14.371869
_cell_length_b 6.258956
_cell_length_c 21.965990
_cell_angle_alpha 90.000000
_cell_angle_beta 38.659757
_cell_angle_gamma 90.000000
_cell_volume 1234.336318
_symmetry_space_group_name_H-M "C C"
_symmetry_group_IT_number 9
_symmetry_cell_setting 'monoclinic'
loop_
_space_group_symop_operation_xyz
x,y,z
x,-y,1/2+z
1/2+x,1/2+y,z
1/2+x,1/2-y,1/2+z
loop_
_atom_site_type_symbol
_atom_site_label
_atom_site_fract_x
_atom_site_fract_y
_atom_site_fract_z
Si Si1 0.510610 0.496929 0.967410
Si Si2 0.717222 0.216561 0.628699
Si Si3 0.257633 0.002701 0.998204
Si Si4 0.550639 0.220957 0.832730
Si Si5 0.669636 0.858455 0.467482
Si Si6 0.002826 0.323913 0.133290
Si Si7 0.712644 0.878932 0.836262
O O1 0.513184 0.411947 0.896964
O O2 0.581956 0.727176 0.927610
O O3 0.343984 0.458155 0.075361
O O4 0.608753 0.331763 0.956390
O O5 0.779581 0.416883 0.556789
O O6 0.645056 0.291788 0.727314
O O7 0.591446 0.114102 0.649644
O O8 0.098861 0.114595 0.064327
O O9 0.252332 0.758261 0.981096
O O10 0.394634 0.112591 0.893683
O O11 0.643951 0.047984 0.824164
O O12 0.536685 0.995960 0.566072
O O13 0.765114 0.999797 0.371260
O O14 0.839062 0.257032 0.237368
#
# Coordination Sequence:
#
# PCOD9138604 Si02
#       7
#     4   4   4   4   4   4   4
#     4  10  24  44  67  95 136 176 225 280 334 406
#     4   9  23  43  68  94 139 170 220 280 338 403
#     4   9  23  44  65  99 134 171 228 275 340 405
#     4  10  23  45  66 100 131 180 222 279 350 402
#     4  11  24  42  71  91 137 176 225 278 339 395
#     4  10  25  43  65 102 132 173 230 280 339 401
#     4  11  26  43  68 101 133 182 230 278 340 404
#
# _framework density 22.684253999999999
#
# number of rings (size 3 to 8) (size 9 to 14) (size 15 to 20)
#    0.857    1.143    0.000    0.857   12.000    1.143 
#    2.571    0.000    0.000    0.000    0.000    0.000 
#    0.000    0.000    0.000    0.000    0.000    0.000 
#
# Total GULP energy -78129.492287 kJ/mol
# GULP energy per Si atom -5580.678020 kJ/mol
# Density = 2.263262 g / cm^3
# Si number density = 22.684254 Si / 1000 Ang^3
#
#
#
# Elastic Constant Matrix: (Units=GPa)
#
#
# Indices 1 2 3 4 5 6 
#
# 1 32.6416 22.5723 20.7426 0.0000 2.2635 0.0002
# 2 22.5723 65.7287 19.3874 -0.0002 14.6092 0.0010
# 3 20.7426 19.3874 107.8978 0.0000 15.8378 0.0001
# 4 0.0000 -0.0002 0.0000 18.0573 0.0000 0.8748
# 5 2.2635 14.6092 15.8378 0.0000 37.0964 -0.0001
# 6 0.0002 0.0010 0.0001 0.8748 -0.0001 31.8904
#
#
#
# Elastic Compliance Matrix: (Units=1/GPa)
#
#
# Indices 1 2 3 4 5 6 
#
# 1 0.044705 -0.014662 -0.006835 0.000000 0.005965 0.000000
# 2 -0.014662 0.021972 0.000010 0.000000 -0.007763 -0.000001
# 3 -0.006835 0.000010 0.011223 0.000000 -0.004378 0.000000
# 4 0.000000 0.000000 0.000000 0.055453 0.000000 -0.001521
# 5 0.005965 -0.007763 -0.004378 0.000000 0.031519 0.000000
# 6 0.000000 -0.000001 0.000000 -0.001521 0.000000 0.031399
#
#
# Mechanical properties :
#
#
# Convention : Reuss Voigt Hill
#
# Bulk Modulus (GPa) = 28.63258 36.85250 32.74254
# Shear Modulus (GPa) = 19.92936 26.97986 23.45461
#
# Velocity S-wave (km/s) = 2.96726 3.45246 3.21901
# Velocity P-wave (km/s) = 4.93853 5.67219 5.31803
#
# Compressibility (1/GPa) = 0.03492526
#
# Stress axis : x y z
#
# Youngs Moduli (GPa) = 22.36903 45.51340 89.10349
#
# Poissons Ratio (x) = 0.66731 0.60904
# Poissons Ratio (y) = 0.32797 -0.00091
# Poissons Ratio (z) = 0.15290 -0.00046
#
# Static dielectric constant tensor:
#      x y z
#    x 1.932640 0.000000 0.005940 
#    y 0.000000 1.849370 0.000000 
#    z 0.005940 0.000000 1.795440 
# 
# From -- ./inp_files/35711.got.cif
#   From: 2010.05.17/outbox.cif.g08.bks.cpg/sg9_18_cif.got.tgz:35711.got - 2010.06.03 20:04:27.
