data_PCOD9138035
_publ_section_title
;
Structure prediction by ZEFSAII (Michael W. Deem and Ramdas Pophale) SiO2 
 PCOD9138035
Probable space group: C C
;
_chemical_formula_sum "Si O2"
_cell_formula_units_Z 24
_cell_length_a 6.527329
_cell_length_b 20.909102
_cell_length_c 8.091884
_cell_angle_alpha 90.000000
_cell_angle_beta 59.632668
_cell_angle_gamma 90.000000
_cell_volume 952.865717
_symmetry_space_group_name_H-M "C C"
_symmetry_group_IT_number 9
_symmetry_cell_setting 'monoclinic'
loop_
_space_group_symop_operation_xyz
x,y,z
x,-y,1/2+z
1/2+x,1/2+y,z
1/2+x,1/2-y,1/2+z
loop_
_atom_site_type_symbol
_atom_site_label
_atom_site_fract_x
_atom_site_fract_y
_atom_site_fract_z
Si Si1 0.572080 0.400087 0.525440
Si Si2 0.362119 0.904295 0.940614
Si Si3 0.946665 0.194026 0.647224
Si Si4 0.596367 0.103354 0.686554
Si Si5 0.664773 0.830482 0.588851
Si Si6 0.959535 0.980436 0.233877
O O1 0.404193 0.337433 0.600696
O O2 0.494739 0.442204 0.392066
O O3 0.504788 0.444063 0.708935
O O4 0.846092 0.382567 0.382315
O O5 0.521078 0.918364 0.034931
O O6 0.198933 0.841579 0.041959
O O7 0.171055 0.959214 0.022946
O O8 0.508157 0.889321 0.717684
O O9 0.774531 0.163695 0.579933
O O10 0.002806 0.267620 0.653246
O O11 0.782094 0.169934 0.863236
O O12 0.727207 0.046879 0.735473
#
# Coordination Sequence:
#
# PCOD9138035 Si02
#       6
#     4   4   4   4   4   4
#     4  11  25  43  68 104 142 182 232 285 349 411
#     4  10  23  45  68  97 139 180 234 284 349 405
#     4  11  23  48  66  97 140 181 233 298 338 413
#     4  10  22  47  66  97 140 183 234 283 349 409
#     4  12  23  46  69  98 142 181 227 298 342 403
#     4  10  24  43  67 101 143 179 230 288 335 427
#
# _framework density 25.187177999999999
#
# number of rings (size 3 to 8) (size 9 to 14) (size 15 to 20)
#    0.000    1.333    6.667    0.000    4.667    2.667 
#    9.000    0.000    0.000    0.000    0.000    0.000 
#    0.000    0.000    0.000    0.000    0.000    0.000 
#
# Total GULP energy -66952.735782 kJ/mol
# GULP energy per Si atom -5579.394649 kJ/mol
# Density = 2.512985 g / cm^3
# Si number density = 25.187178 Si / 1000 Ang^3
#
#
#
# Elastic Constant Matrix: (Units=GPa)
#
#
# Indices 1 2 3 4 5 6 
#
# 1 116.6132 27.4497 20.7662 0.0000 -9.5471 0.0000
# 2 27.4497 75.2783 -3.0360 0.0000 0.2393 0.0000
# 3 20.7662 -3.0360 112.2799 0.0000 -20.3655 0.0000
# 4 0.0000 0.0000 0.0000 28.5308 0.0000 -5.8812
# 5 -9.5471 0.2393 -20.3655 0.0000 42.2685 0.0000
# 6 0.0000 0.0000 0.0000 -5.8812 0.0000 15.7688
#
#
#
# Elastic Compliance Matrix: (Units=1/GPa)
#
#
# Indices 1 2 3 4 5 6 
#
# 1 0.009852 -0.003664 -0.001659 0.000000 0.001447 0.000000
# 2 -0.003664 0.014662 0.000996 0.000000 -0.000431 0.000000
# 3 -0.001659 0.000996 0.010049 0.000000 0.004462 0.000000
# 4 0.000000 0.000000 0.000000 0.037969 0.000000 0.014161
# 5 0.001447 -0.000431 0.004462 0.000000 0.026137 0.000000
# 6 0.000000 0.000000 0.000000 0.014161 0.000000 0.068698
#
#
# Mechanical properties :
#
#
# Convention : Reuss Voigt Hill
#
# Bulk Modulus (GPa) = 38.59622 43.83678 41.21650
# Shear Modulus (GPa) = 27.07733 34.57972 30.82852
#
# Velocity S-wave (km/s) = 3.28234 3.70930 3.50233
# Velocity P-wave (km/s) = 5.45179 5.98226 5.72317
#
# Compressibility (1/GPa) = 0.02590927
#
# Stress axis : x y z
#
# Youngs Moduli (GPa) = 101.50625 68.20557 99.50973
#
# Poissons Ratio (x) = 0.24989 0.16506
# Poissons Ratio (y) = 0.37190 -0.09911
# Poissons Ratio (z) = 0.16837 -0.06793
#
# Static dielectric constant tensor:
#      x y z
#    x 2.118710 0.000000 0.091920 
#    y 0.000000 2.149630 0.000000 
#    z 0.091920 0.000000 2.063700 
# 
# From -- ./inp_files/3893.got.cif
#   From: 2010.05.17/outbox.cif.g08.bks.cpg/sg9_2_cif.got.tgz:3893.got - 2010.06.03 20:04:27.
