data_PCOD9138852
_publ_section_title
;
Structure prediction by ZEFSAII (Michael W. Deem and Ramdas Pophale) SiO2 
 PCOD9138852
Probable space group: C C
;
_chemical_formula_sum "Si O2"
_cell_formula_units_Z 24
_cell_length_a 4.926491
_cell_length_b 17.931546
_cell_length_c 10.139608
_cell_angle_alpha 90.000000
_cell_angle_beta 93.431173
_cell_angle_gamma 90.000000
_cell_volume 894.123243
_symmetry_space_group_name_H-M "C C"
_symmetry_group_IT_number 9
_symmetry_cell_setting 'monoclinic'
loop_
_space_group_symop_operation_xyz
x,y,z
x,-y,1/2+z
1/2+x,1/2+y,z
1/2+x,1/2-y,1/2+z
loop_
_atom_site_type_symbol
_atom_site_label
_atom_site_fract_x
_atom_site_fract_y
_atom_site_fract_z
Si Si1 0.187270 0.132751 0.154160
Si Si2 0.209748 0.155792 0.589211
Si Si3 0.172014 0.868059 0.359457
Si Si4 0.345477 0.488736 0.071298
Si Si5 0.983520 0.506800 0.303259
Si Si6 0.681052 0.202620 0.686143
O O1 0.109123 0.210498 0.215660
O O2 0.961161 0.069010 0.116651
O O3 0.392080 0.087568 0.252506
O O4 0.276491 0.147086 0.006255
O O5 0.361242 0.163739 0.744701
O O6 0.077150 0.075190 0.564886
O O7 0.494557 0.177869 0.543264
O O8 0.965152 0.210260 0.601381
O O9 0.223517 0.956427 0.336543
O O10 0.874180 0.838906 0.310130
O O11 0.135498 0.470137 0.182355
O O12 0.178922 0.492546 0.932863
#
# Coordination Sequence:
#
# PCOD9138852 Si02
#       6
#     4   4   4   4   4   4
#     4  12  26  47  77 121 150 205 266 322 382 474
#     4  10  23  49  71 108 154 201 251 315 396 449
#     4  10  24  48  78 106 161 202 251 326 388 455
#     4  12  27  45  83 109 158 202 270 320 387 453
#     4  12  26  49  78 117 151 209 262 325 383 459
#     4  10  26  46  75 111 152 207 246 322 392 458
#
# _framework density 26.841939
#
# number of rings (size 3 to 8) (size 9 to 14) (size 15 to 20)
#    1.000    0.000    3.333    2.000    4.667    1.333 
#    3.000    1.667    0.000    0.000    0.000    0.000 
#    0.000    0.000    0.000    0.000    0.000    0.000 
#
# Total GULP energy -66867.465166 kJ/mol
# GULP energy per Si atom -5572.288764 kJ/mol
# Density = 2.678085 g / cm^3
# Si number density = 26.841939 Si / 1000 Ang^3
#
#
#
# Elastic Constant Matrix: (Units=GPa)
#
#
# Indices 1 2 3 4 5 6 
#
# 1 164.5420 64.2879 60.4904 0.0000 52.3325 0.0000
# 2 64.2879 201.8554 53.2301 0.0000 33.4550 0.0000
# 3 60.4904 53.2301 155.8349 0.0000 28.2341 0.0000
# 4 0.0000 0.0000 0.0000 24.8321 0.0000 15.7432
# 5 52.3325 33.4550 28.2341 0.0000 49.3899 0.0000
# 6 0.0000 0.0000 0.0000 15.7432 0.0000 41.0396
#
#
#
# Elastic Compliance Matrix: (Units=1/GPa)
#
#
# Indices 1 2 3 4 5 6 
#
# 1 0.010027 -0.001254 -0.001888 0.000000 -0.008696 0.000000
# 2 -0.001254 0.006009 -0.001193 0.000000 -0.002060 0.000000
# 3 -0.001888 -0.001193 0.007863 0.000000 -0.001686 0.000000
# 4 0.000000 0.000000 0.000000 0.053212 0.000000 -0.020413
# 5 -0.008696 -0.002060 -0.001686 0.000000 0.031820 0.000000
# 6 0.000000 0.000000 0.000000 -0.020413 0.000000 0.032197
#
#
# Mechanical properties :
#
#
# Convention : Reuss Voigt Hill
#
# Bulk Modulus (GPa) = 65.66424 97.58325 81.62374
# Shear Modulus (GPa) = 32.28389 46.00059 39.14224
#
# Velocity S-wave (km/s) = 3.47182 4.14425 3.82285
# Velocity P-wave (km/s) = 6.37085 7.70282 7.06828
#
# Compressibility (1/GPa) = 0.01522899
#
# Stress axis : x y z
#
# Youngs Moduli (GPa) = 99.72598 166.40570 127.17903
#
# Poissons Ratio (x) = 0.20874 0.24016
# Poissons Ratio (y) = 0.12510 0.15167
# Poissons Ratio (z) = 0.18832 0.19846
#
# Static dielectric constant tensor:
#      x y z
#    x 2.166180 0.000000 -0.093370 
#    y 0.000000 2.182350 0.000000 
#    z -0.093370 0.000000 2.262190 
# 
# From -- ./inp_files/13407.got.cif
#   From: 2010.05.17/outbox.cif.g08.bks.cpg/sg9_7_cif.got.tgz:13407.got - 2010.06.03 20:04:27.
