data_PCOD9138490
_publ_section_title
;
Structure prediction by ZEFSAII (Michael W. Deem and Ramdas Pophale) SiO2 
 PCOD9138490
Probable space group: C C
;
_chemical_formula_sum "Si O2"
_cell_formula_units_Z 32
_cell_length_a 6.879050
_cell_length_b 18.712857
_cell_length_c 13.803148
_cell_angle_alpha 90.000000
_cell_angle_beta 45.919808
_cell_angle_gamma 90.000000
_cell_volume 1276.418199
_symmetry_space_group_name_H-M "C C"
_symmetry_group_IT_number 9
_symmetry_cell_setting 'monoclinic'
loop_
_space_group_symop_operation_xyz
x,y,z
x,-y,1/2+z
1/2+x,1/2+y,z
1/2+x,1/2-y,1/2+z
loop_
_atom_site_type_symbol
_atom_site_label
_atom_site_fract_x
_atom_site_fract_y
_atom_site_fract_z
Si Si1 0.660950 0.976651 0.891110
Si Si2 0.973112 0.410991 0.779567
Si Si3 0.916063 0.321775 0.617786
Si Si4 0.917997 0.726019 0.438324
Si Si5 0.107877 0.955037 0.356341
Si Si6 0.997779 0.357954 0.090557
Si Si7 0.018836 0.292292 0.269395
Si Si8 0.768462 0.404213 0.489973
O O1 0.697535 0.952662 0.767177
O O2 0.378442 0.019660 0.988355
O O3 0.660296 0.908210 0.961087
O O4 0.865288 0.030551 0.868752
O O5 0.008608 0.381444 0.660480
O O6 0.917071 0.342119 0.867226
O O7 0.740161 0.470013 0.843391
O O8 0.713803 0.267962 0.742162
O O9 0.734457 0.355425 0.595043
O O10 0.187796 0.282111 0.489645
O O11 0.846886 0.696360 0.571002
O O12 0.218236 0.760983 0.348128
O O13 0.314155 0.909073 0.220174
O O14 0.058552 0.916211 0.476004
O O15 0.152094 0.314348 0.119919
O O16 0.993836 0.359355 0.349756
#
# Coordination Sequence:
#
# PCOD9138490 Si02
#       8
#     4   4   4   4   4   4   4   4
#     4  10  23  45  72  97 137 179 235 299 344 419
#     4  10  24  44  66 105 134 179 240 285 355 423
#     4  12  25  42  72 100 141 184 232 294 360 418
#     4  11  25  44  69  99 141 185 236 290 352 428
#     4  10  23  45  72  97 137 179 235 299 344 419
#     4  10  23  44  66 100 129 182 234 286 362 406
#     4  11  25  44  69  99 141 185 236 290 352 428
#     4  10  24  44  66 105 134 179 240 285 355 423
#
# _framework density 25.070153000000001
#
# number of rings (size 3 to 8) (size 9 to 14) (size 15 to 20)
#    0.000    1.500    0.000    3.000   10.500    0.000 
#    4.500    2.500    0.000    0.000    0.000    0.000 
#    0.000    0.000    0.000    0.000    0.000    0.000 
#
# Total GULP energy -89402.367818 kJ/mol
# GULP energy per Si atom -5587.647989 kJ/mol
# Density = 2.501309 g / cm^3
# Si number density = 25.070153 Si / 1000 Ang^3
#
#
#
# Elastic Constant Matrix: (Units=GPa)
#
#
# Indices 1 2 3 4 5 6 
#
# 1 124.4008 19.5414 27.4199 0.0000 12.9481 0.0000
# 2 19.5414 69.9685 7.4496 0.0000 6.5665 0.0000
# 3 27.4199 7.4496 52.7476 -0.0001 23.1318 0.0000
# 4 0.0000 0.0000 -0.0001 31.5324 0.0000 23.4998
# 5 12.9481 6.5665 23.1318 0.0000 50.4637 0.0000
# 6 0.0000 0.0000 0.0000 23.4998 0.0000 45.9577
#
#
#
# Elastic Compliance Matrix: (Units=1/GPa)
#
#
# Indices 1 2 3 4 5 6 
#
# 1 0.009382 -0.002131 -0.004558 0.000000 -0.000040 0.000000
# 2 -0.002131 0.015052 -0.000499 0.000000 -0.001183 0.000000
# 3 -0.004558 -0.000499 0.026104 0.000000 -0.010731 0.000000
# 4 0.000000 0.000000 0.000000 0.051240 0.000000 -0.026201
# 5 -0.000040 -0.001183 -0.010731 0.000000 0.024900 0.000000
# 6 0.000000 0.000000 0.000000 -0.026201 0.000000 0.035157
#
#
# Mechanical properties :
#
#
# Convention : Reuss Voigt Hill
#
# Bulk Modulus (GPa) = 27.65437 39.54873 33.60155
# Shear Modulus (GPa) = 26.55825 38.43782 32.49804
#
# Velocity S-wave (km/s) = 3.25831 3.91987 3.60430
# Velocity P-wave (km/s) = 5.02097 6.02467 5.54558
#
# Compressibility (1/GPa) = 0.03616065
#
# Stress axis : x y z
#
# Youngs Moduli (GPa) = 106.58382 66.43841 38.30769
#
# Poissons Ratio (x) = 0.14159 0.17462
# Poissons Ratio (y) = 0.22715 0.01912
# Poissons Ratio (z) = 0.48586 0.03316
#
# Static dielectric constant tensor:
#      x y z
#    x 1.973010 0.000000 -0.012190 
#    y 0.000000 1.976480 0.000000 
#    z -0.012190 0.000000 2.018790 
# 
# From -- ./inp_files/13459.got.cif
#   From: 2010.05.17/outbox.cif.g08.bks.cpg/sg9_7_cif.got.tgz:13459.got - 2010.06.03 20:04:27.
