data_PCOD9138832
_publ_section_title
;
Structure prediction by ZEFSAII (Michael W. Deem and Ramdas Pophale) SiO2 
 PCOD9138832
Probable space group: C C
;
_chemical_formula_sum "Si O2"
_cell_formula_units_Z 20
_cell_length_a 7.811774
_cell_length_b 11.811754
_cell_length_c 10.474439
_cell_angle_alpha 90.000000
_cell_angle_beta 55.257740
_cell_angle_gamma 90.000000
_cell_volume 794.183337
_symmetry_space_group_name_H-M "C C"
_symmetry_group_IT_number 9
_symmetry_cell_setting 'monoclinic'
loop_
_space_group_symop_operation_xyz
x,y,z
x,-y,1/2+z
1/2+x,1/2+y,z
1/2+x,1/2-y,1/2+z
loop_
_atom_site_type_symbol
_atom_site_label
_atom_site_fract_x
_atom_site_fract_y
_atom_site_fract_z
Si Si1 0.055740 0.903535 0.908190
Si Si2 0.175169 0.313687 0.984287
Si Si3 0.634520 0.458145 0.144154
Si Si4 0.267310 0.702599 0.155210
Si Si5 0.492062 0.049641 0.120819
O O1 0.306884 0.900704 0.791433
O O2 0.907543 0.797765 0.941377
O O3 0.004748 0.986909 0.813234
O O4 0.013664 0.951404 0.064720
O O5 0.183424 0.335314 0.828710
O O6 0.016414 0.210482 0.065161
O O7 0.079911 0.421991 0.100513
O O8 0.694880 0.331172 0.158606
O O9 0.850464 0.530886 0.054068
O O10 0.179297 0.632496 0.073798
#
# Coordination Sequence:
#
# PCOD9138832 Si02
#       5
#     4   4   4   4   4
#     4  10  23  48  69 113 158 203 262 325 402 464
#     4  11  26  43  75 116 153 214 257 333 396 475
#     4   9  23  45  73 106 154 211 259 317 400 465
#     4  11  24  48  73 113 156 207 271 320 402 482
#     4   9  22  42  76 102 157 197 261 323 394 452
#
# _framework density 25.183102000000002
#
# number of rings (size 3 to 8) (size 9 to 14) (size 15 to 20)
#    1.200    0.800    0.000    2.400    5.600    1.600 
#    3.600    0.000    0.000    0.000    0.000    0.000 
#    0.000    0.000    0.000    0.000    0.000    0.000 
#
# Total GULP energy -55748.462014 kJ/mol
# GULP energy per Si atom -5574.846201 kJ/mol
# Density = 2.512578 g / cm^3
# Si number density = 25.183102 Si / 1000 Ang^3
#
#
#
# Elastic Constant Matrix: (Units=GPa)
#
#
# Indices 1 2 3 4 5 6 
#
# 1 158.8894 53.4578 57.0904 0.0000 7.7523 0.0000
# 2 53.4578 109.8429 15.0524 0.0000 -7.4494 0.0000
# 3 57.0904 15.0524 69.8547 0.0000 -6.3556 0.0000
# 4 0.0000 0.0000 0.0000 18.3648 0.0000 -11.5987
# 5 7.7523 -7.4494 -6.3556 0.0000 44.1654 0.0000
# 6 0.0000 0.0000 0.0000 -11.5987 0.0000 43.9685
#
#
#
# Elastic Compliance Matrix: (Units=1/GPa)
#
#
# Indices 1 2 3 4 5 6 
#
# 1 0.010997 -0.004468 -0.008379 0.000000 -0.003890 0.000000
# 2 -0.004468 0.011271 0.001486 0.000000 0.002899 0.000000
# 3 -0.008379 0.001486 0.021278 0.000000 0.004783 0.000000
# 4 0.000000 0.000000 0.000000 0.065338 0.000000 0.017236
# 5 -0.003890 0.002899 0.004783 0.000000 0.024502 0.000000
# 6 0.000000 0.000000 0.000000 0.017236 0.000000 0.027290
#
#
# Mechanical properties :
#
#
# Convention : Reuss Voigt Hill
#
# Bulk Modulus (GPa) = 48.01659 65.53203 56.77431
# Shear Modulus (GPa) = 26.26885 35.49884 30.88384
#
# Velocity S-wave (km/s) = 3.23323 3.75858 3.50576
# Velocity P-wave (km/s) = 5.74863 6.70183 6.24345
#
# Compressibility (1/GPa) = 0.02082613
#
# Stress axis : x y z
#
# Youngs Moduli (GPa) = 90.93216 88.72221 46.99640
#
# Poissons Ratio (x) = 0.39638 0.39378
# Poissons Ratio (y) = 0.40625 -0.06985
# Poissons Ratio (z) = 0.76191 -0.13187
#
# Static dielectric constant tensor:
#      x y z
#    x 1.996600 0.000000 -0.098820 
#    y 0.000000 2.008480 0.000000 
#    z -0.098820 0.000000 2.050220 
# 
# From -- ./inp_files/4811.got.cif
#   From: 2010.05.17/outbox.cif.g08.bks.cpg/sg9_3_cif.got.tgz:4811.got - 2010.06.03 20:04:27.
