data_PCOD9138550
_publ_section_title
;
Structure prediction by ZEFSAII (Michael W. Deem and Ramdas Pophale) SiO2 
 PCOD9138550
Probable space group: C C
;
_chemical_formula_sum "Si O2"
_cell_formula_units_Z 28
_cell_length_a 7.076583
_cell_length_b 18.744081
_cell_length_c 9.189758
_cell_angle_alpha 90.000000
_cell_angle_beta 121.970152
_cell_angle_gamma 90.000000
_cell_volume 1034.078733
_symmetry_space_group_name_H-M "C C"
_symmetry_group_IT_number 9
_symmetry_cell_setting 'monoclinic'
loop_
_space_group_symop_operation_xyz
x,y,z
x,-y,1/2+z
1/2+x,1/2+y,z
1/2+x,1/2-y,1/2+z
loop_
_atom_site_type_symbol
_atom_site_label
_atom_site_fract_x
_atom_site_fract_y
_atom_site_fract_z
Si Si1 0.295330 0.908824 0.822550
Si Si2 0.287977 0.247772 0.394404
Si Si3 0.782566 0.768197 0.980387
Si Si4 0.319391 0.590122 0.619224
Si Si5 0.185180 0.321651 0.626220
Si Si6 0.649848 0.097063 0.845529
Si Si7 0.190929 0.978595 0.076802
O O1 0.206516 0.828922 0.807950
O O2 0.239994 0.940583 0.643698
O O3 0.562027 0.910490 0.958730
O O4 0.195582 0.957338 0.910660
O O5 0.541455 0.249034 0.445123
O O6 0.272867 0.309488 0.822541
O O7 0.158360 0.319802 0.299690
O O8 0.269821 0.256362 0.560316
O O9 0.895935 0.827579 0.130195
O O10 0.923511 0.696539 0.028419
O O11 0.304610 0.564662 0.781149
O O12 0.473493 0.545809 0.574987
O O13 0.219963 0.392967 0.543531
O O14 0.407341 0.063394 0.731895
#
# Coordination Sequence:
#
# PCOD9138550 Si02
#       7
#     4   4   4   4   4   4   4
#     4  10  24  45  70  95 138 184 242 284 355 434
#     4   9  22  41  65 100 140 178 226 295 343 424
#     4  11  22  37  66  98 136 189 223 285 357 420
#     4  10  23  44  71  96 140 186 233 294 358 420
#     4  10  24  36  63 100 142 177 228 285 356 417
#     4   9  23  40  69 101 145 173 231 296 351 420
#     4  11  24  45  72 100 137 191 233 297 354 427
#
# _framework density 27.077244
#
# number of rings (size 3 to 8) (size 9 to 14) (size 15 to 20)
#    0.857    1.143    0.000    1.714   10.000    4.571 
#    0.000    4.286    3.143    0.000    0.000    0.000 
#    0.000    0.000    0.000    0.000    0.000    0.000 
#
# Total GULP energy -78376.828743 kJ/mol
# GULP energy per Si atom -5598.344910 kJ/mol
# Density = 2.701561 g / cm^3
# Si number density = 27.077244 Si / 1000 Ang^3
#
#
#
# Elastic Constant Matrix: (Units=GPa)
#
#
# Indices 1 2 3 4 5 6 
#
# 1 159.3420 45.4906 29.5766 0.0000 -19.4660 0.0000
# 2 45.4906 104.8264 16.9592 0.0000 -6.2381 0.0000
# 3 29.5766 16.9592 100.9913 0.0000 -23.6831 0.0000
# 4 0.0000 0.0000 0.0000 44.3749 0.0000 -5.0331
# 5 -19.4660 -6.2381 -23.6831 0.0000 39.8962 0.0000
# 6 0.0000 0.0000 0.0000 -5.0331 0.0000 41.2383
#
#
#
# Elastic Compliance Matrix: (Units=1/GPa)
#
#
# Indices 1 2 3 4 5 6 
#
# 1 0.007655 -0.002984 -0.001132 0.000000 0.002597 0.000000
# 2 -0.002984 0.010984 -0.001056 0.000000 -0.000366 0.000000
# 3 -0.001132 -0.001056 0.011899 0.000000 0.006346 0.000000
# 4 0.000000 0.000000 0.000000 0.022852 0.000000 0.002789
# 5 0.002597 -0.000366 0.006346 0.000000 0.030042 0.000000
# 6 0.000000 0.000000 0.000000 0.002789 0.000000 0.024590
#
#
# Mechanical properties :
#
#
# Convention : Reuss Voigt Hill
#
# Bulk Modulus (GPa) = 49.52239 61.02360 55.27299
# Shear Modulus (GPa) = 39.96902 43.31075 41.63989
#
# Velocity S-wave (km/s) = 3.84619 4.00375 3.92576
# Velocity P-wave (km/s) = 6.16873 6.63017 6.40360
#
# Compressibility (1/GPa) = 0.02019289
#
# Stress axis : x y z
#
# Youngs Moduli (GPa) = 130.63153 91.04309 84.04160
#
# Poissons Ratio (x) = 0.27171 0.09512
# Poissons Ratio (y) = 0.38986 0.08877
# Poissons Ratio (z) = 0.14785 0.09616
#
# Static dielectric constant tensor:
#      x y z
#    x 2.105070 0.000000 0.010780 
#    y 0.000000 2.097910 0.000000 
#    z 0.010780 0.000000 2.138080 
# 
# From -- ./inp_files/13519.got.cif
#   From: 2010.05.17/outbox.cif.g08.bks.cpg/sg9_7_cif.got.tgz:13519.got - 2010.06.03 20:04:27.
