data_PCOD9138759
_publ_section_title
;
Structure prediction by ZEFSAII (Michael W. Deem and Ramdas Pophale) SiO2 
 PCOD9138759
Probable space group: C C
;
_chemical_formula_sum "Si O2"
_cell_formula_units_Z 16
_cell_length_a 7.179578
_cell_length_b 17.057175
_cell_length_c 5.373400
_cell_angle_alpha 90.000000
_cell_angle_beta 112.535717
_cell_angle_gamma 90.000000
_cell_volume 607.796649
_symmetry_space_group_name_H-M "C C"
_symmetry_group_IT_number 9
_symmetry_cell_setting 'monoclinic'
loop_
_space_group_symop_operation_xyz
x,y,z
x,-y,1/2+z
1/2+x,1/2+y,z
1/2+x,1/2-y,1/2+z
loop_
_atom_site_type_symbol
_atom_site_label
_atom_site_fract_x
_atom_site_fract_y
_atom_site_fract_z
Si Si1 0.308010 0.818744 0.438780
Si Si2 0.299785 0.029251 0.228208
Si Si3 0.373368 0.640231 0.542083
Si Si4 0.164789 0.592630 0.934990
O O1 0.327908 0.879508 0.681542
O O2 0.285844 0.728964 0.497562
O O3 0.507367 0.834576 0.378544
O O4 0.111377 0.846534 0.190781
O O5 0.510502 0.980659 0.356547
O O6 0.196768 0.991585 0.933589
O O7 0.800822 0.100081 0.250560
O O8 0.292106 0.599098 0.750011
#
# Coordination Sequence:
#
# PCOD9138759 Si02
#       4
#     4   4   4   4
#     4  11  26  48  76 112 148 197 247 316 362 453
#     4  10  23  46  73  98 149 195 232 304 372 426
#     4  12  27  43  81 109 148 196 256 296 387 435
#     4  11  26  49  70 111 153 194 241 316 367 446
#
# _framework density 26.324591999999999
#
# number of rings (size 3 to 8) (size 9 to 14) (size 15 to 20)
#    0.000    1.000    2.500    3.000    3.500    8.000 
#    0.000   30.000    0.000    0.000    0.000    0.000 
#    0.000    0.000    0.000    0.000    0.000    0.000 
#
# Total GULP energy -44839.574918 kJ/mol
# GULP energy per Si atom -5604.946865 kJ/mol
# Density = 2.626468 g / cm^3
# Si number density = 26.324592 Si / 1000 Ang^3
#
#
#
# Elastic Constant Matrix: (Units=GPa)
#
#
# Indices 1 2 3 4 5 6 
#
# 1 119.6952 7.2292 89.2501 0.0000 17.3952 0.0000
# 2 7.2292 159.4043 53.9697 0.0000 0.8886 0.0000
# 3 89.2501 53.9697 221.3647 0.0000 -22.2929 0.0000
# 4 0.0000 0.0000 0.0000 49.5285 0.0000 9.7003
# 5 17.3952 0.8886 -22.2929 0.0000 51.0202 0.0000
# 6 0.0000 0.0000 0.0000 9.7003 0.0000 46.1430
#
#
#
# Elastic Compliance Matrix: (Units=1/GPa)
#
#
# Indices 1 2 3 4 5 6 
#
# 1 0.014876 0.001836 -0.007280 0.000000 -0.008285 0.000000
# 2 0.001836 0.007103 -0.002665 0.000000 -0.001914 0.000000
# 3 -0.007280 -0.002665 0.008741 0.000000 0.006348 0.000000
# 4 0.000000 0.000000 0.000000 0.021057 0.000000 -0.004427
# 5 -0.008285 -0.001914 0.006348 0.000000 0.025232 0.000000
# 6 0.000000 0.000000 0.000000 -0.004427 0.000000 0.022602
#
#
# Mechanical properties :
#
#
# Convention : Reuss Voigt Hill
#
# Bulk Modulus (GPa) = 68.94833 89.04023 78.99428
# Shear Modulus (GPa) = 41.43801 52.67269 47.05535
#
# Velocity S-wave (km/s) = 3.97182 4.47799 4.23248
# Velocity P-wave (km/s) = 6.87621 7.78678 7.34562
#
# Compressibility (1/GPa) = 0.01450361
#
# Stress axis : x y z
#
# Youngs Moduli (GPa) = 67.22425 140.78587 114.39862
#
# Poissons Ratio (x) = -0.25851 0.83277
# Poissons Ratio (y) = -0.12344 0.30485
# Poissons Ratio (z) = 0.48936 0.37517
#
# Static dielectric constant tensor:
#      x y z
#    x 2.081440 0.000000 -0.023000 
#    y 0.000000 2.058510 0.000000 
#    z -0.023000 0.000000 2.110770 
# 
# From -- ./inp_files/3510.got.cif
#   From: 2010.05.17/outbox.cif.g08.bks.cpg/sg9_2_cif.got.tgz:3510.got - 2010.06.03 20:04:27.
