data_PCOD9138817
_publ_section_title
;
Structure prediction by ZEFSAII (Michael W. Deem and Ramdas Pophale) SiO2 
 PCOD9138817
Probable space group: C C
;
_chemical_formula_sum "Si O2"
_cell_formula_units_Z 32
_cell_length_a 14.016235
_cell_length_b 16.880837
_cell_length_c 8.268462
_cell_angle_alpha 90.000000
_cell_angle_beta 139.296311
_cell_angle_gamma 90.000000
_cell_volume 1275.838565
_symmetry_space_group_name_H-M "C C"
_symmetry_group_IT_number 9
_symmetry_cell_setting 'monoclinic'
loop_
_space_group_symop_operation_xyz
x,y,z
x,-y,1/2+z
1/2+x,1/2+y,z
1/2+x,1/2-y,1/2+z
loop_
_atom_site_type_symbol
_atom_site_label
_atom_site_fract_x
_atom_site_fract_y
_atom_site_fract_z
Si Si1 0.215500 0.851261 0.401640
Si Si2 0.519345 0.835934 0.866685
Si Si3 0.702546 0.179682 0.274570
Si Si4 0.634302 0.408252 0.962877
Si Si5 0.036568 0.167405 0.012235
Si Si6 0.397880 0.457409 0.145999
Si Si7 0.973517 0.406887 0.324888
Si Si8 0.617175 0.956409 0.214057
O O1 0.373966 0.887516 0.646221
O O2 0.261418 0.768295 0.371269
O O3 0.117491 0.890010 0.133855
O O4 0.139881 0.841458 0.481376
O O5 0.601209 0.826629 0.803576
O O6 0.476192 0.755273 0.903817
O O7 0.634486 0.880912 0.125331
O O8 0.830249 0.113136 0.443782
O O9 0.580764 0.169255 0.978691
O O10 0.809528 0.409293 0.172732
O O11 0.593053 0.346249 0.766471
O O12 0.542992 0.488729 0.806985
O O13 0.928272 0.094210 0.843749
O O14 0.264501 0.518608 0.992727
O O15 0.982581 0.434038 0.154133
O O16 0.065848 0.469739 0.545169
#
# Coordination Sequence:
#
# PCOD9138817 Si02
#       8
#     4   4   4   4   4   4   4   4
#     4  11  25  49  76 106 153 200 244 319 381 445
#     4  11  23  48  75 102 148 200 251 308 379 451
#     4  10  23  47  76 102 149 202 250 303 383 458
#     4  12  29  45  76 114 148 192 260 313 375 457
#     4  11  28  46  72 112 152 195 246 314 383 451
#     4  11  27  47  73 111 153 196 251 317 379 453
#     4  11  25  45  71 107 146 192 259 304 380 452
#     4  11  26  43  77 104 145 203 247 316 372 457
#
# _framework density 25.081543
#
# number of rings (size 3 to 8) (size 9 to 14) (size 15 to 20)
#    0.000    1.000    2.500    2.250   12.250    0.000 
#    2.250    0.000    0.000    0.000    0.000    0.000 
#    0.000    0.000    0.000    0.000    0.000    0.000 
#
# Total GULP energy -89270.099374 kJ/mol
# GULP energy per Si atom -5579.381211 kJ/mol
# Density = 2.502446 g / cm^3
# Si number density = 25.081543 Si / 1000 Ang^3
#
#
#
# Elastic Constant Matrix: (Units=GPa)
#
#
# Indices 1 2 3 4 5 6 
#
# 1 92.0297 1.2215 35.3501 0.0000 -3.4899 0.0000
# 2 1.2215 91.2124 50.4341 0.0000 -10.1170 0.0000
# 3 35.3501 50.4341 132.3398 0.0000 0.3353 0.0000
# 4 0.0000 0.0000 0.0000 33.2103 0.0000 -0.5256
# 5 -3.4899 -10.1170 0.3353 0.0000 38.7799 0.0000
# 6 0.0000 0.0000 0.0000 -0.5256 0.0000 18.6109
#
#
#
# Elastic Compliance Matrix: (Units=1/GPa)
#
#
# Indices 1 2 3 4 5 6 
#
# 1 0.012540 0.002388 -0.004264 0.000000 0.001788 0.000000
# 2 0.002388 0.014888 -0.006322 0.000000 0.004154 0.000000
# 3 -0.004264 -0.006322 0.011110 0.000000 -0.002129 0.000000
# 4 0.000000 0.000000 0.000000 0.030125 0.000000 0.000851
# 5 0.001788 0.004154 -0.002129 0.000000 0.027049 0.000000
# 6 0.000000 0.000000 0.000000 0.000851 0.000000 0.053756
#
#
# Mechanical properties :
#
#
# Convention : Reuss Voigt Hill
#
# Bulk Modulus (GPa) = 45.16358 54.39926 49.78142
# Shear Modulus (GPa) = 28.86077 33.35863 31.10970
#
# Velocity S-wave (km/s) = 3.39584 3.65088 3.52567
# Velocity P-wave (km/s) = 5.78113 6.28554 6.03860
#
# Compressibility (1/GPa) = 0.02214174
#
# Stress axis : x y z
#
# Youngs Moduli (GPa) = 79.74346 67.16875 90.00774
#
# Poissons Ratio (x) = -0.16042 0.38383
# Poissons Ratio (y) = -0.19046 0.56905
# Poissons Ratio (z) = 0.34006 0.42465
#
# Static dielectric constant tensor:
#      x y z
#    x 1.958640 0.000000 -0.015710 
#    y 0.000000 2.115500 0.000000 
#    z -0.015710 0.000000 2.043500 
# 
# From -- ./inp_files/9973.got.cif
#   From: 2010.05.17/outbox.cif.g08.bks.cpg/sg9_5_cif.got.tgz:9973.got - 2010.06.03 20:04:27.
