data_PCOD9138585
_publ_section_title
;
Structure prediction by ZEFSAII (Michael W. Deem and Ramdas Pophale) SiO2 
 PCOD9138585
Probable space group: C C
;
_chemical_formula_sum "Si O2"
_cell_formula_units_Z 32
_cell_length_a 13.127524
_cell_length_b 5.881374
_cell_length_c 19.793434
_cell_angle_alpha 90.000000
_cell_angle_beta 66.018555
_cell_angle_gamma 90.000000
_cell_volume 1396.289653
_symmetry_space_group_name_H-M "C C"
_symmetry_group_IT_number 9
_symmetry_cell_setting 'monoclinic'
loop_
_space_group_symop_operation_xyz
x,y,z
x,-y,1/2+z
1/2+x,1/2+y,z
1/2+x,1/2-y,1/2+z
loop_
_atom_site_type_symbol
_atom_site_label
_atom_site_fract_x
_atom_site_fract_y
_atom_site_fract_z
Si Si1 0.666860 0.403010 0.311900
Si Si2 0.276818 0.465481 0.463079
Si Si3 0.363198 0.599614 0.204757
Si Si4 0.019678 0.519248 0.684499
Si Si5 0.929642 0.202159 0.811757
Si Si6 0.734007 0.281163 0.681124
Si Si7 0.686227 0.656294 0.586742
Si Si8 0.693032 0.665259 0.960614
O O1 0.745950 0.207159 0.259961
O O2 0.542234 0.350300 0.321762
O O3 0.708744 0.629463 0.263178
O O4 0.675278 0.411065 0.390080
O O5 0.329723 0.312109 0.391995
O O6 0.272906 0.342821 0.534783
O O7 0.153140 0.570416 0.480897
O O8 0.317272 0.727810 0.444380
O O9 0.413012 0.489157 0.259276
O O10 0.334733 0.396973 0.160586
O O11 0.444858 0.805611 0.162044
O O12 0.126145 0.653196 0.682637
O O13 0.076417 0.292034 0.639148
O O14 0.943699 0.435622 0.767335
O O15 0.738467 0.499660 0.630734
O O16 0.660090 0.501966 0.528333
#
# Coordination Sequence:
#
# PCOD9138585 Si02
#       8
#     4   4   4   4   4   4   4   4
#     4  12  24  43  76 112 146 198 255 322 390 471
#     4  10  23  44  76 102 152 202 250 318 397 456
#     4  12  24  42  78 108 153 190 266 322 391 456
#     4  12  23  45  76 110 149 206 259 329 396 478
#     4  12  24  43  76 112 146 198 255 322 390 471
#     4  12  23  45  76 110 149 206 259 329 396 478
#     4  10  24  46  76 102 161 210 260 324 405 470
#     4  10  23  44  76 102 152 202 250 318 397 456
#
# _framework density 22.91788
#
# number of rings (size 3 to 8) (size 9 to 14) (size 15 to 20)
#    0.750    0.000    5.000    3.000    0.000    0.000 
#    0.000    0.000   41.250    0.000    0.000    0.000 
#    0.000    0.000    0.000    0.000    0.000    0.000 
#
# Total GULP energy -89162.027385 kJ/mol
# GULP energy per Si atom -5572.626712 kJ/mol
# Density = 2.286572 g / cm^3
# Si number density = 22.917880 Si / 1000 Ang^3
#
#
#
# Elastic Constant Matrix: (Units=GPa)
#
#
# Indices 1 2 3 4 5 6 
#
# 1 109.6020 63.8709 43.6114 0.0000 19.4730 0.0003
# 2 63.8709 128.1023 68.8075 0.0001 18.4822 0.0006
# 3 43.6114 68.8075 127.8464 0.0000 23.7123 0.0000
# 4 0.0000 0.0001 0.0000 27.1591 0.0000 5.4893
# 5 19.4730 18.4822 23.7123 0.0000 14.1069 0.0000
# 6 0.0003 0.0006 0.0000 5.4893 0.0000 47.2121
#
#
#
# Elastic Compliance Matrix: (Units=1/GPa)
#
#
# Indices 1 2 3 4 5 6 
#
# 1 0.014613 -0.005614 0.000601 0.000000 -0.013827 0.000000
# 2 -0.005614 0.013559 -0.005122 0.000000 -0.001406 0.000000
# 3 0.000601 -0.005122 0.013488 0.000000 -0.016791 0.000000
# 4 0.000000 0.000000 0.000000 0.037706 0.000000 -0.004384
# 5 -0.013827 -0.001406 -0.016791 0.000000 0.120040 0.000000
# 6 0.000000 0.000000 0.000000 -0.004384 0.000000 0.021691
#
#
# Mechanical properties :
#
#
# Convention : Reuss Voigt Hill
#
# Bulk Modulus (GPa) = 46.74923 79.79225 63.27074
# Shear Modulus (GPa) = 20.12106 30.31301 25.21704
#
# Velocity S-wave (km/s) = 2.96626 3.64081 3.32071
# Velocity P-wave (km/s) = 5.67225 7.25025 6.50925
#
# Compressibility (1/GPa) = 0.02139073
#
# Stress axis : x y z
#
# Youngs Moduli (GPa) = 68.43307 73.75045 74.14150
#
# Poissons Ratio (x) = 0.41402 -0.04457
# Poissons Ratio (y) = 0.38417 0.37974
# Poissons Ratio (z) = -0.04114 0.37774
#
# Static dielectric constant tensor:
#      x y z
#    x 1.866710 0.000000 -0.030860 
#    y 0.000000 1.926760 0.000000 
#    z -0.030860 0.000000 1.835280 
# 
# From -- ./inp_files/33466.got.cif
#   From: 2010.05.17/outbox.cif.g08.bks.cpg/sg9_17_cif.got.tgz:33466.got - 2010.06.03 20:04:27.
