data_PCOD9138448
_publ_section_title
;
Structure prediction by ZEFSAII (Michael W. Deem and Ramdas Pophale) SiO2 
 PCOD9138448
Probable space group: C C
;
_chemical_formula_sum "Si O2"
_cell_formula_units_Z 32
_cell_length_a 5.041950
_cell_length_b 26.190899
_cell_length_c 10.223820
_cell_angle_alpha 90.000000
_cell_angle_beta 76.693016
_cell_angle_gamma 90.000000
_cell_volume 1313.839425
_symmetry_space_group_name_H-M "C C"
_symmetry_group_IT_number 9
_symmetry_cell_setting 'monoclinic'
loop_
_space_group_symop_operation_xyz
x,y,z
x,-y,1/2+z
1/2+x,1/2+y,z
1/2+x,1/2-y,1/2+z
loop_
_atom_site_type_symbol
_atom_site_label
_atom_site_fract_x
_atom_site_fract_y
_atom_site_fract_z
Si Si1 0.601790 0.138611 0.032460
Si Si2 0.294599 0.568415 0.214284
Si Si3 0.057654 0.173349 0.799104
Si Si4 0.780768 0.452595 0.469824
Si Si5 0.903792 0.161076 0.365258
Si Si6 0.457601 0.210649 0.243378
Si Si7 0.956539 0.476318 0.185850
Si Si8 0.137736 0.637900 0.657479
O O1 0.575182 0.105180 0.169217
O O2 0.445340 0.189951 0.094816
O O3 0.896084 0.157672 0.948948
O O4 0.479052 0.096875 0.946624
O O5 0.409144 0.601199 0.320947
O O6 0.172211 0.512343 0.238973
O O7 0.512607 0.564843 0.074137
O O8 0.962768 0.229287 0.765025
O O9 0.914778 0.136920 0.709221
O O10 0.381927 0.166871 0.753743
O O11 0.733068 0.470407 0.326874
O O12 0.889693 0.495409 0.558232
O O13 0.745075 0.191645 0.270211
O O14 0.720094 0.165030 0.513992
O O15 0.201496 0.184951 0.345424
O O16 0.053956 0.420168 0.141191
#
# Coordination Sequence:
#
# PCOD9138448 Si02
#       8
#     4   4   4   4   4   4   4   4
#     4  10  23  43  71  96 142 179 241 291 356 428
#     4  10  23  44  69  98 136 188 234 290 358 431
#     4  12  27  46  71 104 143 188 240 297 364 428
#     4  11  22  44  67 101 138 185 240 291 364 428
#     4  11  24  47  71 104 144 180 240 298 357 426
#     4  11  25  46  73 103 134 194 236 297 362 429
#     4  11  25  41  68 103 136 191 234 293 362 435
#     4  12  27  45  68 107 147 181 235 303 357 427
#
# _framework density 24.356097999999999
#
# number of rings (size 3 to 8) (size 9 to 14) (size 15 to 20)
#    0.000    1.000    2.500    3.000    5.250    3.000 
#    0.000    0.000    0.000    0.000    0.000    0.000 
#    0.000    0.000    0.000    0.000    0.000    0.000 
#
# Total GULP energy -89356.252646 kJ/mol
# GULP energy per Si atom -5584.765790 kJ/mol
# Density = 2.430066 g / cm^3
# Si number density = 24.356098 Si / 1000 Ang^3
#
#
#
# Elastic Constant Matrix: (Units=GPa)
#
#
# Indices 1 2 3 4 5 6 
#
# 1 63.9445 8.8088 5.8281 0.0000 -12.8770 0.0000
# 2 8.8088 108.6812 12.5170 0.0000 -7.5312 0.0000
# 3 5.8281 12.5170 108.5753 0.0000 -18.0176 0.0000
# 4 0.0000 0.0000 0.0000 20.8076 0.0000 -6.5973
# 5 -12.8770 -7.5312 -18.0176 0.0000 40.4666 0.0000
# 6 0.0000 0.0000 0.0000 -6.5973 0.0000 27.4055
#
#
#
# Elastic Compliance Matrix: (Units=1/GPa)
#
#
# Indices 1 2 3 4 5 6 
#
# 1 0.016818 -0.001012 0.000076 0.000000 0.005197 0.000000
# 2 -0.001012 0.009455 -0.000861 0.000000 0.001055 0.000000
# 3 0.000076 -0.000861 0.010023 0.000000 0.004327 0.000000
# 4 0.000000 0.000000 0.000000 0.052031 0.000000 0.012525
# 5 0.005197 0.001055 0.004327 0.000000 0.028488 0.000000
# 6 0.000000 0.000000 0.000000 0.012525 0.000000 0.039504
#
#
# Mechanical properties :
#
#
# Convention : Reuss Voigt Hill
#
# Bulk Modulus (GPa) = 30.57712 37.27873 33.92793
# Shear Modulus (GPa) = 29.27169 34.67241 31.97205
#
# Velocity S-wave (km/s) = 3.47049 3.77710 3.62704
# Velocity P-wave (km/s) = 5.35168 5.86182 5.61255
#
# Compressibility (1/GPa) = 0.03270419
#
# Stress axis : x y z
#
# Youngs Moduli (GPa) = 59.46152 105.75924 99.76681
#
# Poissons Ratio (x) = 0.10700 -0.00762
# Poissons Ratio (y) = 0.06016 0.08587
# Poissons Ratio (z) = -0.00454 0.09103
#
# Static dielectric constant tensor:
#      x y z
#    x 1.985500 0.000000 0.035860 
#    y 0.000000 1.993690 0.000000 
#    z 0.035860 0.000000 1.986740 
# 
# From -- ./inp_files/13733.got.cif
#   From: 2010.05.17/outbox.cif.g08.bks.cpg/sg9_7_cif.got.tgz:13733.got - 2010.06.03 20:04:27.
