data_PCOD9138635
_publ_section_title
;
Structure prediction by ZEFSAII (Michael W. Deem and Ramdas Pophale) SiO2 
 PCOD9138635
Probable space group: C C
;
_chemical_formula_sum "Si O2"
_cell_formula_units_Z 32
_cell_length_a 11.832590
_cell_length_b 18.229453
_cell_length_c 13.063069
_cell_angle_alpha 90.000000
_cell_angle_beta 154.775241
_cell_angle_gamma 90.000000
_cell_volume 1200.830763
_symmetry_space_group_name_H-M "C C"
_symmetry_group_IT_number 9
_symmetry_cell_setting 'monoclinic'
loop_
_space_group_symop_operation_xyz
x,y,z
x,-y,1/2+z
1/2+x,1/2+y,z
1/2+x,1/2-y,1/2+z
loop_
_atom_site_type_symbol
_atom_site_label
_atom_site_fract_x
_atom_site_fract_y
_atom_site_fract_z
Si Si1 0.189320 0.223059 0.399030
Si Si2 0.744170 0.213377 0.639599
Si Si3 0.512024 0.326803 0.158112
Si Si4 0.689650 0.925767 0.748719
Si Si5 0.485215 0.828208 0.398515
Si Si6 0.941474 0.071841 0.913482
Si Si7 0.866698 0.083029 0.091409
Si Si8 0.707365 0.454724 0.450627
O O1 0.505397 0.236123 0.662662
O O2 0.107640 0.259441 0.440616
O O3 0.080157 0.141330 0.310852
O O4 0.868311 0.221566 0.625678
O O5 0.443308 0.240233 0.376113
O O6 0.771560 0.129660 0.705567
O O7 0.688638 0.379519 0.372444
O O8 0.705756 0.305022 0.222826
O O9 0.295235 0.377566 0.927375
O O10 0.626790 0.868751 0.608339
O O11 0.474968 0.983050 0.619778
O O12 0.891139 0.984580 0.869151
O O13 0.569966 0.890955 0.381733
O O14 0.919598 0.090804 0.013727
O O15 0.216550 0.070381 0.075450
O O16 0.963919 0.005139 0.214149
#
# Coordination Sequence:
#
# PCOD9138635 Si02
#       8
#     4   4   4   4   4   4   4   4
#     4  10  25  44  68 106 153 198 240 298 370 453
#     4  11  29  52  77 110 155 210 262 311 374 464
#     4  10  24  46  77 110 146 200 254 320 381 438
#     4  11  23  45  79 111 146 195 254 325 384 442
#     4  10  24  43  74 112 154 195 250 316 380 459
#     4  11  25  47  77 111 149 203 252 317 387 458
#     4  11  23  46  72 112 153 199 248 310 384 459
#     4  10  23  45  70 114 146 192 256 315 382 451
#
# _framework density 26.648219000000001
#
# number of rings (size 3 to 8) (size 9 to 14) (size 15 to 20)
#    0.000    1.500    2.500    0.000    8.750    8.000 
#    2.250    0.000    0.000    0.000    0.000    0.000 
#    0.000    0.000    0.000    0.000    0.000    0.000 
#
# Total GULP energy -89209.280388 kJ/mol
# GULP energy per Si atom -5575.580024 kJ/mol
# Density = 2.658757 g / cm^3
# Si number density = 26.648219 Si / 1000 Ang^3
#
#
#
# Elastic Constant Matrix: (Units=GPa)
#
#
# Indices 1 2 3 4 5 6 
#
# 1 190.1774 15.0309 49.6526 0.0010 -21.6274 0.0007
# 2 15.0309 100.3106 30.7570 0.0000 -17.1731 0.0002
# 3 49.6526 30.7570 106.5822 0.0017 -18.2881 0.0012
# 4 0.0010 0.0000 0.0017 40.0603 0.0011 -12.5791
# 5 -21.6274 -17.1731 -18.2881 0.0011 35.3479 0.0007
# 6 0.0007 0.0002 0.0012 -12.5791 0.0007 42.4584
#
#
#
# Elastic Compliance Matrix: (Units=1/GPa)
#
#
# Indices 1 2 3 4 5 6 
#
# 1 0.006191 0.000294 -0.002518 0.000000 0.002628 0.000000
# 2 0.000294 0.011503 -0.002707 0.000000 0.004368 0.000000
# 3 -0.002518 -0.002707 0.011903 -0.000001 0.003303 -0.000001
# 4 0.000000 0.000000 -0.000001 0.027523 -0.000001 0.008154
# 5 0.002628 0.004368 0.003303 -0.000001 0.033729 -0.000001
# 6 0.000000 0.000000 -0.000001 0.008154 -0.000001 0.025968
#
#
# Mechanical properties :
#
#
# Convention : Reuss Voigt Hill
#
# Bulk Modulus (GPa) = 50.66977 65.32791 57.99884
# Shear Modulus (GPa) = 37.52110 43.68196 40.60153
#
# Velocity S-wave (km/s) = 3.75642 4.05310 3.90758
# Velocity P-wave (km/s) = 6.15385 6.81701 6.49390
#
# Compressibility (1/GPa) = 0.01973563
#
# Stress axis : x y z
#
# Youngs Moduli (GPa) = 161.51528 86.93564 84.00907
#
# Poissons Ratio (x) = -0.02559 0.21156
# Poissons Ratio (y) = -0.04755 0.22742
# Poissons Ratio (z) = 0.40674 0.23534
#
# Static dielectric constant tensor:
#      x y z
#    x 2.184830 0.000000 0.121240 
#    y 0.000000 2.053280 0.000000 
#    z 0.121240 0.000000 2.186640 
# 
# From -- ./inp_files/17163.got.cif
#   From: 2010.05.17/outbox.cif.g08.bks.cpg/sg9_9_cif.got.tgz:17163.got - 2010.06.03 20:04:27.
