data_PCOD9138588
_publ_section_title
;
Structure prediction by ZEFSAII (Michael W. Deem and Ramdas Pophale) SiO2 
 PCOD9138588
Probable space group: C C
;
_chemical_formula_sum "Si O2"
_cell_formula_units_Z 24
_cell_length_a 9.314194
_cell_length_b 19.729046
_cell_length_c 5.023837
_cell_angle_alpha 90.000000
_cell_angle_beta 108.180426
_cell_angle_gamma 90.000000
_cell_volume 877.094699
_symmetry_space_group_name_H-M "C C"
_symmetry_group_IT_number 9
_symmetry_cell_setting 'monoclinic'
loop_
_space_group_symop_operation_xyz
x,y,z
x,-y,1/2+z
1/2+x,1/2+y,z
1/2+x,1/2-y,1/2+z
loop_
_atom_site_type_symbol
_atom_site_label
_atom_site_fract_x
_atom_site_fract_y
_atom_site_fract_z
Si Si1 0.495430 0.382818 0.793650
Si Si2 0.307047 0.827347 0.835863
Si Si3 0.710323 0.953322 0.406328
Si Si4 0.276933 0.277295 0.929485
Si Si5 0.776601 0.537860 0.592909
Si Si6 0.076912 0.311672 0.329950
O O1 0.624708 0.335838 0.735533
O O2 0.376645 0.420618 0.537813
O O3 0.397988 0.334745 0.927567
O O4 0.599772 0.439911 0.990410
O O5 0.339603 0.795437 0.569399
O O6 0.348827 0.902226 0.959924
O O7 0.417138 0.788487 0.108279
O O8 0.598806 0.891319 0.411931
O O9 0.691274 0.013903 0.606985
O O10 0.153152 0.273879 0.624262
O O11 0.191866 0.301989 0.147754
O O12 0.808851 0.474468 0.419134
#
# Coordination Sequence:
#
# PCOD9138588 Si02
#       6
#     4   4   4   4   4   4
#     4   9  23  48  79 111 151 213 267 327 393 475
#     4  10  27  52  79 116 161 214 269 345 402 483
#     4  11  22  43  74 111 154 201 257 325 398 482
#     4  11  26  52  76 111 162 214 274 329 413 484
#     4  10  23  44  78 115 152 200 265 327 398 470
#     4  11  27  49  76 116 158 212 268 337 408 484
#
# _framework density 27.363064000000001
#
# number of rings (size 3 to 8) (size 9 to 14) (size 15 to 20)
#    1.000    0.667    0.000    3.000    0.000   12.000 
#    3.000    5.000    0.000    0.000    0.000    0.000 
#    0.000    0.000    0.000    0.000    0.000    0.000 
#
# Total GULP energy -67065.609527 kJ/mol
# GULP energy per Si atom -5588.800794 kJ/mol
# Density = 2.730078 g / cm^3
# Si number density = 27.363064 Si / 1000 Ang^3
#
#
#
# Elastic Constant Matrix: (Units=GPa)
#
#
# Indices 1 2 3 4 5 6 
#
# 1 109.7949 27.4384 52.1490 0.0000 28.4635 0.0000
# 2 27.4384 77.3145 3.8653 0.0000 16.4756 0.0000
# 3 52.1490 3.8653 153.4837 0.0000 7.2275 0.0000
# 4 0.0000 0.0000 0.0000 50.9694 0.0000 -1.4337
# 5 28.4635 16.4756 7.2275 0.0000 46.4490 0.0000
# 6 0.0000 0.0000 0.0000 -1.4337 0.0000 55.4017
#
#
#
# Elastic Compliance Matrix: (Units=1/GPa)
#
#
# Indices 1 2 3 4 5 6 
#
# 1 0.013625 -0.003229 -0.004240 0.000000 -0.006544 0.000000
# 2 -0.003229 0.014759 0.000885 0.000000 -0.003394 0.000000
# 3 -0.004240 0.000885 0.007884 0.000000 0.001057 0.000000
# 4 0.000000 0.000000 0.000000 0.019634 0.000000 0.000508
# 5 -0.006544 -0.003394 0.001057 0.000000 0.026579 0.000000
# 6 0.000000 0.000000 0.000000 0.000508 0.000000 0.018063
#
#
# Mechanical properties :
#
#
# Convention : Reuss Voigt Hill
#
# Bulk Modulus (GPa) = 43.28828 56.38872 49.83850
# Shear Modulus (GPa) = 41.18222 47.70669 44.44446
#
# Velocity S-wave (km/s) = 3.88368 4.18002 4.03457
# Velocity P-wave (km/s) = 5.99708 6.62941 6.32116
#
# Compressibility (1/GPa) = 0.02310094
#
# Stress axis : x y z
#
# Youngs Moduli (GPa) = 73.39324 67.75458 126.84135
#
# Poissons Ratio (x) = 0.21878 0.53780
# Poissons Ratio (y) = 0.23698 -0.11228
# Poissons Ratio (z) = 0.31118 -0.05998
#
# Static dielectric constant tensor:
#      x y z
#    x 2.243920 0.000000 0.026460 
#    y 0.000000 2.275580 0.000000 
#    z 0.026460 0.000000 2.036810 
# 
# From -- ./inp_files/1808.got.cif
#   From: 2010.05.17/outbox.cif.g08.bks.cpg/sg9_1_cif.got.tgz:1808.got - 2010.06.03 20:04:27.
