data_PCOD9138291
_publ_section_title
;
Structure prediction by ZEFSAII (Michael W. Deem and Ramdas Pophale) SiO2 
 PCOD9138291
Probable space group: C C
;
_chemical_formula_sum "Si O2"
_cell_formula_units_Z 28
_cell_length_a 13.092561
_cell_length_b 5.038702
_cell_length_c 20.149828
_cell_angle_alpha 90.000000
_cell_angle_beta 128.438801
_cell_angle_gamma 90.000000
_cell_volume 1041.184217
_symmetry_space_group_name_H-M "C C"
_symmetry_group_IT_number 9
_symmetry_cell_setting 'monoclinic'
loop_
_space_group_symop_operation_xyz
x,y,z
x,-y,1/2+z
1/2+x,1/2+y,z
1/2+x,1/2-y,1/2+z
loop_
_atom_site_type_symbol
_atom_site_label
_atom_site_fract_x
_atom_site_fract_y
_atom_site_fract_z
Si Si1 0.726390 0.016958 0.394930
Si Si2 0.489216 0.340041 0.363054
Si Si3 0.467354 0.847404 0.437552
Si Si4 0.865214 0.181583 0.677151
Si Si5 0.601794 0.082982 0.215771
Si Si6 0.900865 0.805635 0.572639
Si Si7 0.149937 0.115881 0.614106
O O1 0.619583 0.189341 0.391597
O O2 0.838235 0.222023 0.417165
O O3 0.667184 0.913116 0.300788
O O4 0.791617 0.807989 0.471763
O O5 0.503621 0.640783 0.393290
O O6 0.379664 0.338248 0.262166
O O7 0.447339 0.145906 0.405940
O O8 0.584237 0.818858 0.536666
O O9 0.758000 0.417270 0.628312
O O10 0.020658 0.205869 0.725027
O O11 0.840594 0.955307 0.612519
O O12 0.476631 0.952175 0.128760
O O13 0.690658 0.223441 0.196771
O O14 0.024638 0.953971 0.589718
#
# Coordination Sequence:
#
# PCOD9138291 Si02
#       7
#     4   4   4   4   4   4   4
#     4  10  24  46  68 100 148 186 238 304 360 436
#     4  11  26  44  70 106 140 190 241 292 366 436
#     4  11  26  44  70 106 140 190 241 292 366 436
#     4  10  23  42  67  98 139 183 241 301 362 438
#     4  10  23  42  67 101 136 190 239 298 369 431
#     4  10  23  42  67 101 136 190 239 298 369 431
#     4  10  23  42  67  98 139 183 241 301 362 438
#
# _framework density 26.892455999999999
#
# number of rings (size 3 to 8) (size 9 to 14) (size 15 to 20)
#    0.000    1.714    0.000    1.714   12.000    2.286 
#    0.000    0.000    0.000    0.000    0.000    0.000 
#    0.000    0.000    0.000    0.000    0.000    0.000 
#
# Total GULP energy -78253.829557 kJ/mol
# GULP energy per Si atom -5589.559254 kJ/mol
# Density = 2.683125 g / cm^3
# Si number density = 26.892456 Si / 1000 Ang^3
#
#
#
# Elastic Constant Matrix: (Units=GPa)
#
#
# Indices 1 2 3 4 5 6 
#
# 1 99.0895 28.3845 4.5724 0.0000 23.4346 0.0001
# 2 28.3845 75.8669 21.5915 0.0000 0.0497 0.0000
# 3 4.5724 21.5915 108.1210 0.0000 -20.4304 0.0000
# 4 0.0000 0.0000 0.0000 23.7060 0.0000 18.3444
# 5 23.4346 0.0497 -20.4304 0.0000 39.5972 0.0000
# 6 0.0001 0.0000 0.0000 18.3444 0.0000 45.5657
#
#
#
# Elastic Compliance Matrix: (Units=1/GPa)
#
#
# Indices 1 2 3 4 5 6 
#
# 1 0.013547 -0.004701 -0.001272 0.000000 -0.008668 0.000000
# 2 -0.004701 0.015700 -0.002675 0.000000 0.001382 0.000000
# 3 -0.001272 -0.002675 0.011058 0.000000 0.006462 0.000000
# 4 0.000000 0.000000 0.000000 0.061272 0.000000 -0.024667
# 5 -0.008668 0.001382 0.006462 0.000000 0.033716 0.000000
# 6 0.000000 0.000000 0.000000 -0.024667 0.000000 0.031877
#
#
# Mechanical properties :
#
#
# Convention : Reuss Voigt Hill
#
# Bulk Modulus (GPa) = 43.46148 43.57490 43.51819
# Shear Modulus (GPa) = 26.02317 37.00906 31.51611
#
# Velocity S-wave (km/s) = 3.11412 3.71372 3.42706
# Velocity P-wave (km/s) = 5.39691 5.88452 5.64598
#
# Compressibility (1/GPa) = 0.02300888
#
# Stress axis : x y z
#
# Youngs Moduli (GPa) = 73.81664 63.69348 90.43281
#
# Poissons Ratio (x) = 0.29941 0.11504
# Poissons Ratio (y) = 0.34699 0.24194
# Poissons Ratio (z) = 0.09390 0.17040
#
# Static dielectric constant tensor:
#      x y z
#    x 2.175260 0.000000 -0.028840 
#    y 0.000000 2.136190 0.000000 
#    z -0.028840 0.000000 2.145950 
# 
# From -- ./inp_files/33508.got.cif
#   From: 2010.05.17/outbox.cif.g08.bks.cpg/sg9_17_cif.got.tgz:33508.got - 2010.06.03 20:04:27.
