data_PCOD9138242
_publ_section_title
;
Structure prediction by ZEFSAII (Michael W. Deem and Ramdas Pophale) SiO2 
 PCOD9138242
Probable space group: C C
;
_chemical_formula_sum "Si O2"
_cell_formula_units_Z 32
_cell_length_a 12.107945
_cell_length_b 10.155870
_cell_length_c 11.916439
_cell_angle_alpha 90.000000
_cell_angle_beta 108.314243
_cell_angle_gamma 90.000000
_cell_volume 1391.102814
_symmetry_space_group_name_H-M "C C"
_symmetry_group_IT_number 9
_symmetry_cell_setting 'monoclinic'
loop_
_space_group_symop_operation_xyz
x,y,z
x,-y,1/2+z
1/2+x,1/2+y,z
1/2+x,1/2-y,1/2+z
loop_
_atom_site_type_symbol
_atom_site_label
_atom_site_fract_x
_atom_site_fract_y
_atom_site_fract_z
Si Si1 0.206490 0.565553 0.345300
Si Si2 0.211543 0.827412 0.231398
Si Si3 0.421848 0.586461 0.007816
Si Si4 0.577096 0.347946 0.983486
Si Si5 0.005651 0.351129 0.926472
Si Si6 0.947466 0.739230 0.735322
Si Si7 0.171676 0.343202 0.185614
Si Si8 0.252928 0.095374 0.344069
O O1 0.236876 0.716224 0.330259
O O2 0.296796 0.485629 0.453392
O O3 0.227144 0.481312 0.237826
O O4 0.072982 0.587648 0.342320
O O5 0.331114 0.844087 0.201814
O O6 0.185947 0.966234 0.279774
O O7 0.116922 0.778232 0.110898
O O8 0.522404 0.483100 0.011015
O O9 0.448264 0.705918 0.928384
O O10 0.432060 0.647416 0.135681
O O11 0.482443 0.287867 0.869792
O O12 0.688638 0.361079 0.937249
O O13 0.888600 0.435178 0.909517
O O14 0.115209 0.345444 0.046290
O O15 0.058819 0.661741 0.728980
O O16 0.239234 0.211118 0.245537
#
# Coordination Sequence:
#
# PCOD9138242 Si02
#       8
#     4   4   4   4   4   4   4   4
#     4  12  26  43  71 107 143 185 241 297 357 437
#     4  12  25  42  67 111 135 182 245 294 358 434
#     4  11  23  46  69 104 140 196 230 300 370 431
#     4  11  22  43  71  95 142 182 232 298 357 434
#     4  11  24  44  72  99 144 182 241 292 355 437
#     4  10  23  41  69  97 137 185 234 284 361 431
#     4  10  23  44  68 102 132 193 230 287 369 422
#     4  11  24  45  71  99 141 187 237 296 365 426
#
# _framework density 23.003330999999999
#
# number of rings (size 3 to 8) (size 9 to 14) (size 15 to 20)
#    0.000    1.000    2.500    5.250    3.500    1.000 
#    2.250    0.000    0.000    0.000    0.000    0.000 
#    0.000    0.000    0.000    0.000    0.000    0.000 
#
# Total GULP energy -89149.397025 kJ/mol
# GULP energy per Si atom -5571.837314 kJ/mol
# Density = 2.295097 g / cm^3
# Si number density = 23.003331 Si / 1000 Ang^3
#
#
#
# Elastic Constant Matrix: (Units=GPa)
#
#
# Indices 1 2 3 4 5 6 
#
# 1 82.0425 -8.3860 4.3117 0.0000 7.0338 0.0000
# 2 -8.3860 77.4233 22.3237 0.0000 4.0008 0.0000
# 3 4.3117 22.3237 69.3556 0.0000 15.8647 0.0000
# 4 0.0000 0.0000 0.0000 32.7310 0.0000 4.4160
# 5 7.0338 4.0008 15.8647 0.0000 24.5399 0.0000
# 6 0.0000 0.0000 0.0000 4.4160 0.0000 29.7351
#
#
#
# Elastic Compliance Matrix: (Units=1/GPa)
#
#
# Indices 1 2 3 4 5 6 
#
# 1 0.012698 0.001711 -0.000521 0.000000 -0.003582 0.000000
# 2 0.001711 0.014480 -0.004829 0.000000 0.000271 0.000000
# 3 -0.000521 -0.004829 0.018531 0.000000 -0.011044 0.000000
# 4 0.000000 0.000000 0.000000 0.031177 0.000000 -0.004630
# 5 -0.003582 0.000271 -0.011044 0.000000 0.048872 0.000000
# 6 0.000000 0.000000 0.000000 -0.004630 0.000000 0.034318
#
#
# Mechanical properties :
#
#
# Convention : Reuss Voigt Hill
#
# Bulk Modulus (GPa) = 26.02060 29.48001 27.75031
# Shear Modulus (GPa) = 27.75248 31.43933 29.59591
#
# Velocity S-wave (km/s) = 3.47717 3.70094 3.59080
# Velocity P-wave (km/s) = 5.23996 5.57727 5.41125
#
# Compressibility (1/GPa) = 0.03843109
#
# Stress axis : x y z
#
# Youngs Moduli (GPa) = 78.75189 69.06259 53.96281
#
# Poissons Ratio (x) = -0.11814 0.02810
# Poissons Ratio (y) = -0.13471 0.26058
# Poissons Ratio (z) = 0.04100 0.33350
#
# Static dielectric constant tensor:
#      x y z
#    x 1.890730 0.000000 0.030320 
#    y 0.000000 2.021240 0.000000 
#    z 0.030320 0.000000 2.015480 
# 
# From -- ./inp_files/17846.got.cif
#   From: 2010.05.17/outbox.cif.g08.bks.cpg/sg9_9_cif.got.tgz:17846.got - 2010.06.03 20:04:27.
