data_PCOD9138411
_publ_section_title
;
Structure prediction by ZEFSAII (Michael W. Deem and Ramdas Pophale) SiO2 
 PCOD9138411
Probable space group: C C
;
_chemical_formula_sum "Si O2"
_cell_formula_units_Z 28
_cell_length_a 7.280791
_cell_length_b 23.992468
_cell_length_c 7.073879
_cell_angle_alpha 90.000000
_cell_angle_beta 84.890146
_cell_angle_gamma 90.000000
_cell_volume 1230.783562
_symmetry_space_group_name_H-M "C C"
_symmetry_group_IT_number 9
_symmetry_cell_setting 'monoclinic'
loop_
_space_group_symop_operation_xyz
x,y,z
x,-y,1/2+z
1/2+x,1/2+y,z
1/2+x,1/2-y,1/2+z
loop_
_atom_site_type_symbol
_atom_site_label
_atom_site_fract_x
_atom_site_fract_y
_atom_site_fract_z
Si Si1 0.447410 0.545289 0.450080
Si Si2 0.799931 0.773989 0.702033
Si Si3 0.166504 0.397426 0.732503
Si Si4 0.258041 0.131630 0.364171
Si Si5 0.396471 0.576128 0.885391
Si Si6 0.554937 0.319157 0.242143
Si Si7 0.211832 0.253281 0.265556
O O1 0.270892 0.554648 0.336375
O O2 0.609597 0.582814 0.347184
O O3 0.393373 0.567807 0.661186
O O4 0.489283 0.479863 0.455435
O O5 0.768754 0.838145 0.759504
O O6 0.651713 0.734816 0.820106
O O7 0.739442 0.768805 0.486466
O O8 0.998283 0.746876 0.726867
O O9 0.204649 0.412666 0.509893
O O10 0.960216 0.392605 0.821929
O O11 0.261545 0.188035 0.240037
O O12 0.193458 0.154657 0.575646
O O13 0.510924 0.633067 0.896199
O O14 0.364593 0.295526 0.165674
#
# Coordination Sequence:
#
# PCOD9138411 Si02
#       7
#     4   4   4   4   4   4   4
#     4  11  24  49  73 100 148 187 251 307 366 438
#     4  11  24  42  71 107 150 193 247 301 369 443
#     4  12  23  48  73 104 144 196 241 306 374 431
#     4  10  24  43  69 104 144 189 240 303 363 438
#     4  11  24  47  74 104 141 198 240 306 371 443
#     4  10  23  43  68 109 147 190 247 297 373 444
#     4  11  22  42  68 104 146 195 238 302 364 443
#
# _framework density 22.749737
#
# number of rings (size 3 to 8) (size 9 to 14) (size 15 to 20)
#    0.000    1.143    5.714    0.000    0.000    6.857 
#    7.714    2.857    0.000    0.000    0.000    0.000 
#    0.000    0.000    0.000    0.000    0.000    0.000 
#
# Total GULP energy -78176.505009 kJ/mol
# GULP energy per Si atom -5584.036072 kJ/mol
# Density = 2.269796 g / cm^3
# Si number density = 22.749737 Si / 1000 Ang^3
#
#
#
# Elastic Constant Matrix: (Units=GPa)
#
#
# Indices 1 2 3 4 5 6 
#
# 1 135.2968 36.9938 44.6057 0.0000 -20.6556 0.0000
# 2 36.9938 140.2390 16.1327 0.0000 -16.0081 0.0000
# 3 44.6057 16.1327 99.8856 0.0000 -20.3189 0.0000
# 4 0.0000 0.0000 0.0000 35.3639 0.0000 -6.2318
# 5 -20.6556 -16.0081 -20.3189 0.0000 36.3109 0.0000
# 6 0.0000 0.0000 0.0000 -6.2318 0.0000 27.0496
#
#
#
# Elastic Compliance Matrix: (Units=1/GPa)
#
#
# Indices 1 2 3 4 5 6 
#
# 1 0.009397 -0.001786 -0.003364 0.000000 0.002676 0.000000
# 2 -0.001786 0.007881 0.000028 0.000000 0.002474 0.000000
# 3 -0.003364 0.000028 0.012551 0.000000 0.005122 0.000000
# 4 0.000000 0.000000 0.000000 0.029474 0.000000 0.006790
# 5 0.002676 0.002474 0.005122 0.000000 0.033019 0.000000
# 6 0.000000 0.000000 0.000000 0.006790 0.000000 0.038534
#
#
# Mechanical properties :
#
#
# Convention : Reuss Voigt Hill
#
# Bulk Modulus (GPa) = 51.05866 63.43175 57.24520
# Shear Modulus (GPa) = 33.86891 38.25750 36.06320
#
# Velocity S-wave (km/s) = 3.86263 4.10526 3.98579
# Velocity P-wave (km/s) = 6.51042 7.10027 6.81173
#
# Compressibility (1/GPa) = 0.01958532
#
# Stress axis : x y z
#
# Youngs Moduli (GPa) = 106.41613 126.88571 79.67516
#
# Poissons Ratio (x) = 0.22668 0.26799
# Poissons Ratio (y) = 0.19011 -0.00224
# Poissons Ratio (z) = 0.35794 -0.00357
#
# Static dielectric constant tensor:
#      x y z
#    x 1.844700 0.000000 -0.004040 
#    y 0.000000 1.866070 0.000000 
#    z -0.004040 0.000000 1.960710 
# 
# From -- ./inp_files/4131.got.cif
#   From: 2010.05.17/outbox.cif.g08.bks.cpg/sg9_3_cif.got.tgz:4131.got - 2010.06.03 20:04:27.
