data_PCOD9138893
_publ_section_title
;
Structure prediction by ZEFSAII (Michael W. Deem and Ramdas Pophale) SiO2 
 PCOD9138893
Probable space group: C C
;
_chemical_formula_sum "Si O2"
_cell_formula_units_Z 32
_cell_length_a 5.253525
_cell_length_b 8.312246
_cell_length_c 29.194872
_cell_angle_alpha 90.000000
_cell_angle_beta 113.811983
_cell_angle_gamma 90.000000
_cell_volume 1166.373503
_symmetry_space_group_name_H-M "C C"
_symmetry_group_IT_number 9
_symmetry_cell_setting 'monoclinic'
loop_
_space_group_symop_operation_xyz
x,y,z
x,-y,1/2+z
1/2+x,1/2+y,z
1/2+x,1/2-y,1/2+z
loop_
_atom_site_type_symbol
_atom_site_label
_atom_site_fract_x
_atom_site_fract_y
_atom_site_fract_z
Si Si1 0.447450 0.707366 0.860410
Si Si2 0.177444 0.050001 0.414502
Si Si3 0.094562 0.329794 0.013661
Si Si4 0.307481 0.499533 0.120213
Si Si5 0.023176 0.167917 0.262305
Si Si6 0.388831 0.161590 0.657506
Si Si7 0.501054 0.194743 0.970642
Si Si8 0.114968 0.466144 0.803963
O O1 0.313856 0.826171 0.888415
O O2 0.132373 0.683852 0.803781
O O3 0.390998 0.511705 0.860531
O O4 0.603334 0.786685 0.829770
O O5 0.485424 0.023102 0.472028
O O6 0.013218 0.125404 0.444434
O O7 0.238408 0.855299 0.413034
O O8 0.180648 0.411691 0.066822
O O9 0.340498 0.239812 0.005727
O O10 0.343408 0.702343 0.000313
O O11 0.283246 0.691240 0.118169
O O12 0.632882 0.457838 0.146348
O O13 0.142896 0.427872 0.151658
O O14 0.270803 0.037466 0.277194
O O15 0.968404 0.250985 0.210379
O O16 0.761619 0.082069 0.266456
#
# Coordination Sequence:
#
# PCOD9138893 Si02
#       8
#     4   4   4   4   4   4   4   4
#     4  10  24  42  66  98 135 176 225 277 342 411
#     4  10  24  42  66  98 134 178 224 277 342 411
#     4  10  26  42  69  95 137 174 228 286 344 414
#     4  12  28  46  75 105 142 186 240 295 363 425
#     4  10  26  42  70  94 137 174 228 285 345 414
#     4  12  28  47  74 105 142 186 240 295 362 426
#     4  10  24  40  67  94 135 173 225 274 344 401
#     4  10  24  39  67  93 134 171 224 273 344 400
#
# _framework density 27.435462999999999
#
# number of rings (size 3 to 8) (size 9 to 14) (size 15 to 20)
#    1.500    0.000    0.000    3.000   10.500    2.000 
#    0.000    0.000    0.000    0.000    0.000    0.000 
#    0.000    0.000    0.000    0.000    0.000    0.000 
#
# Total GULP energy -89577.429075 kJ/mol
# GULP energy per Si atom -5598.589317 kJ/mol
# Density = 2.737302 g / cm^3
# Si number density = 27.435463 Si / 1000 Ang^3
#
#
#
# Elastic Constant Matrix: (Units=GPa)
#
#
# Indices 1 2 3 4 5 6 
#
# 1 180.8447 66.5957 36.3105 0.0000 -39.7878 0.0000
# 2 66.5957 154.4240 13.1935 0.0000 -17.8775 0.0000
# 3 36.3105 13.1935 125.8778 0.0000 -2.7065 0.0000
# 4 0.0000 0.0000 0.0000 41.6834 0.0000 17.8101
# 5 -39.7878 -17.8775 -2.7065 0.0000 50.2083 0.0000
# 6 0.0000 0.0000 0.0000 17.8101 0.0000 71.7646
#
#
#
# Elastic Compliance Matrix: (Units=1/GPa)
#
#
# Indices 1 2 3 4 5 6 
#
# 1 0.008090 -0.002705 -0.001935 0.000000 0.005343 0.000000
# 2 -0.002705 0.007713 -0.000015 0.000000 0.000602 0.000000
# 3 -0.001935 -0.000015 0.008481 0.000000 -0.001082 0.000000
# 4 0.000000 0.000000 0.000000 0.026836 0.000000 -0.006660
# 5 0.005343 0.000602 -0.001082 0.000000 0.024307 0.000000
# 6 0.000000 0.000000 0.000000 -0.006660 0.000000 0.015587
#
#
# Mechanical properties :
#
#
# Convention : Reuss Voigt Hill
#
# Bulk Modulus (GPa) = 66.78597 77.03846 71.91221
# Shear Modulus (GPa) = 47.47614 55.73437 51.60526
#
# Velocity S-wave (km/s) = 4.16440 4.51208 4.34172
# Velocity P-wave (km/s) = 6.89338 7.43545 7.16954
#
# Compressibility (1/GPa) = 0.01497321
#
# Stress axis : x y z
#
# Youngs Moduli (GPa) = 123.61243 129.64873 117.91382
#
# Poissons Ratio (x) = 0.35068 0.22818
# Poissons Ratio (y) = 0.33435 0.00180
# Poissons Ratio (z) = 0.23921 0.00198
#
# Static dielectric constant tensor:
#      x y z
#    x 2.121650 0.000000 0.251540 
#    y 0.000000 2.091950 0.000000 
#    z 0.251540 0.000000 2.219900 
# 
# From -- ./inp_files/37090.got.cif
#   From: 2010.05.17/outbox.cif.g08.bks.cpg/sg9_19_cif.got.tgz:37090.got - 2010.06.03 20:04:27.
