data_PCOD9138320
_publ_section_title
;
Structure prediction by ZEFSAII (Michael W. Deem and Ramdas Pophale) SiO2 
 PCOD9138320
Probable space group: C C
;
_chemical_formula_sum "Si O2"
_cell_formula_units_Z 28
_cell_length_a 17.642428
_cell_length_b 5.125392
_cell_length_c 14.938056
_cell_angle_alpha 90.000000
_cell_angle_beta 68.469209
_cell_angle_gamma 90.000000
_cell_volume 1256.508462
_symmetry_space_group_name_H-M "C C"
_symmetry_group_IT_number 9
_symmetry_cell_setting 'monoclinic'
loop_
_space_group_symop_operation_xyz
x,y,z
x,-y,1/2+z
1/2+x,1/2+y,z
1/2+x,1/2-y,1/2+z
loop_
_atom_site_type_symbol
_atom_site_label
_atom_site_fract_x
_atom_site_fract_y
_atom_site_fract_z
Si Si1 0.246150 0.857099 0.410130
Si Si2 0.640692 0.439272 0.608987
Si Si3 0.954551 0.109115 0.202606
Si Si4 0.732595 0.070140 0.128301
Si Si5 0.924597 0.382865 0.398903
Si Si6 0.419679 0.378400 0.508889
Si Si7 0.284729 0.646655 0.795801
O O1 0.167633 0.966518 0.494123
O O2 0.265021 0.053347 0.320807
O O3 0.325792 0.889164 0.438057
O O4 0.244487 0.555508 0.383302
O O5 0.546399 0.488144 0.664932
O O6 0.671593 0.145294 0.614259
O O7 0.690724 0.649394 0.643962
O O8 0.949132 0.319073 0.285942
O O9 0.881766 0.908071 0.257522
O O10 0.938676 0.183122 0.105042
O O11 0.753285 0.955737 0.215720
O O12 0.821240 0.102979 0.044882
O O13 0.951844 0.653059 0.429894
O O14 0.950402 0.152243 0.455484
#
# Coordination Sequence:
#
# PCOD9138320 Si02
#       7
#     4   4   4   4   4   4   4
#     4  11  20  40  69  95 125 172 225 270 326 395
#     4  12  24  42  66  98 139 165 211 290 345 372
#     4  10  27  44  68 103 140 172 225 286 339 387
#     4  11  22  42  68  96 130 173 224 269 333 402
#     4  11  22  42  73  95 128 183 226 270 321 414
#     4  11  22  44  71  97 127 183 231 264 326 415
#     4  10  23  42  69  92 125 178 228 263 318 417
#
# _framework density 22.283973
#
# number of rings (size 3 to 8) (size 9 to 14) (size 15 to 20)
#    0.000    1.143    2.857    3.429    0.000   11.429 
#    7.714    0.000    0.000    0.000    0.000    0.000 
#    0.000    0.000    0.000    0.000    0.000    0.000 
#
# Total GULP energy -78202.162199 kJ/mol
# GULP energy per Si atom -5585.868729 kJ/mol
# Density = 2.223325 g / cm^3
# Si number density = 22.283973 Si / 1000 Ang^3
#
#
#
# Elastic Constant Matrix: (Units=GPa)
#
#
# Indices 1 2 3 4 5 6 
#
# 1 61.3466 20.1798 39.0544 0.0000 -9.9946 -0.0002
# 2 20.1798 89.2718 31.5434 0.0000 10.4584 -0.0001
# 3 39.0544 31.5434 100.5038 -0.0001 12.0868 0.0000
# 4 0.0000 0.0000 -0.0001 30.3636 0.0000 9.6992
# 5 -9.9946 10.4584 12.0868 0.0000 34.2846 0.0000
# 6 -0.0002 -0.0001 0.0000 9.6992 0.0000 13.0083
#
#
#
# Elastic Compliance Matrix: (Units=1/GPa)
#
#
# Indices 1 2 3 4 5 6 
#
# 1 0.026266 -0.003671 -0.010557 0.000000 0.012499 0.000000
# 2 -0.003671 0.013331 -0.002234 0.000000 -0.004349 0.000000
# 3 -0.010557 -0.002234 0.015708 0.000000 -0.007934 0.000000
# 4 0.000000 0.000000 0.000000 0.043231 0.000000 -0.032234
# 5 0.012499 -0.004349 -0.007934 0.000000 0.036935 0.000000
# 6 0.000000 0.000000 0.000000 -0.032234 0.000000 0.100908
#
#
# Mechanical properties :
#
#
# Convention : Reuss Voigt Hill
#
# Bulk Modulus (GPa) = 44.68616 48.07524 46.38070
# Shear Modulus (GPa) = 18.06600 26.22093 22.14346
#
# Velocity S-wave (km/s) = 2.85040 3.43399 3.15571
# Velocity P-wave (km/s) = 5.56144 6.11095 5.84266
#
# Compressibility (1/GPa) = 0.02237829
#
# Stress axis : x y z
#
# Youngs Moduli (GPa) = 38.07223 75.01558 63.66303
#
# Poissons Ratio (x) = 0.27540 0.67212
# Poissons Ratio (y) = 0.13977 0.14224
# Poissons Ratio (z) = 0.40195 0.16760
#
# Static dielectric constant tensor:
#      x y z
#    x 1.797890 0.000000 0.025050 
#    y 0.000000 1.808020 0.000000 
#    z 0.025050 0.000000 1.890400 
# 
# From -- ./inp_files/26252.got.cif
#   From: 2010.05.17/outbox.cif.g08.bks.cpg/sg9_14_cif.got.tgz:26252.got - 2010.06.03 20:04:27.
