data_PCOD9138533
_publ_section_title
;
Structure prediction by ZEFSAII (Michael W. Deem and Ramdas Pophale) SiO2 
 PCOD9138533
Probable space group: C C
;
_chemical_formula_sum "Si O2"
_cell_formula_units_Z 32
_cell_length_a 12.996945
_cell_length_b 8.631659
_cell_length_c 14.307338
_cell_angle_alpha 90.000000
_cell_angle_beta 60.232748
_cell_angle_gamma 90.000000
_cell_volume 1393.281323
_symmetry_space_group_name_H-M "C C"
_symmetry_group_IT_number 9
_symmetry_cell_setting 'monoclinic'
loop_
_space_group_symop_operation_xyz
x,y,z
x,-y,1/2+z
1/2+x,1/2+y,z
1/2+x,1/2-y,1/2+z
loop_
_atom_site_type_symbol
_atom_site_label
_atom_site_fract_x
_atom_site_fract_y
_atom_site_fract_z
Si Si1 0.739790 0.017518 0.338090
Si Si2 0.322713 0.978932 0.470948
Si Si3 0.659415 0.739961 0.492427
Si Si4 0.722413 0.162607 0.548120
Si Si5 0.295037 0.012788 0.681348
Si Si6 0.385205 0.334436 0.140816
Si Si7 0.635406 0.781832 0.714167
Si Si8 0.480309 0.044685 0.748475
O O1 0.670172 0.866111 0.406961
O O2 0.858659 0.949350 0.238031
O O3 0.681971 0.114226 0.279477
O O4 0.745527 0.111109 0.431720
O O5 0.228732 0.848319 0.541023
O O6 0.433448 0.902322 0.369653
O O7 0.252560 0.100926 0.439195
O O8 0.360792 0.047077 0.553098
O O9 0.523636 0.688473 0.561973
O O10 0.689062 0.801157 0.584764
O O11 0.824839 0.106519 0.572374
O O12 0.598500 0.112408 0.650182
O O13 0.170578 0.105328 0.726919
O O14 0.373565 0.083837 0.727627
O O15 0.313821 0.828692 0.687786
O O16 0.506905 0.860115 0.753554
#
# Coordination Sequence:
#
# PCOD9138533 Si02
#       8
#     4   4   4   4   4   4   4   4
#     4  12  23  42  69  96 143 186 234 305 365 438
#     4  10  26  44  72 103 140 195 241 301 375 437
#     4  11  24  46  69 104 141 188 246 302 376 446
#     4  11  25  43  69 107 140 190 252 297 370 450
#     4  10  23  44  69  99 141 181 244 294 361 440
#     4  11  23  44  71 100 142 189 233 314 364 445
#     4  11  24  42  70 103 135 189 246 290 367 448
#     4  12  22  45  71 104 142 190 240 305 366 434
#
# _framework density 22.967365000000001
#
# number of rings (size 3 to 8) (size 9 to 14) (size 15 to 20)
#    0.000    1.000    3.750    1.500    5.250    2.000 
#    0.000    6.250    5.500    0.000    0.000    0.000 
#    0.000    0.000    0.000    0.000    0.000    0.000 
#
# Total GULP energy -89154.892781 kJ/mol
# GULP energy per Si atom -5572.180799 kJ/mol
# Density = 2.291509 g / cm^3
# Si number density = 22.967365 Si / 1000 Ang^3
#
#
#
# Elastic Constant Matrix: (Units=GPa)
#
#
# Indices 1 2 3 4 5 6 
#
# 1 85.0734 32.3510 54.6122 0.0000 12.7893 0.0000
# 2 32.3510 52.8325 25.6000 0.0000 -5.1978 0.0000
# 3 54.6122 25.6000 141.3595 0.0000 13.5876 0.0000
# 4 0.0000 0.0000 0.0000 36.5915 0.0000 5.1602
# 5 12.7893 -5.1978 13.5876 0.0000 31.3940 0.0000
# 6 0.0000 0.0000 0.0000 5.1602 0.0000 31.1798
#
#
#
# Elastic Compliance Matrix: (Units=1/GPa)
#
#
# Indices 1 2 3 4 5 6 
#
# 1 0.020312 -0.010708 -0.005157 0.000000 -0.007815 0.000000
# 2 -0.010708 0.027268 -0.001726 0.000000 0.009624 0.000000
# 3 -0.005157 -0.001726 0.009604 0.000000 -0.002342 0.000000
# 4 0.000000 0.000000 0.000000 0.027982 0.000000 -0.004631
# 5 -0.007815 0.009624 -0.002342 0.000000 0.037644 0.000000
# 6 0.000000 0.000000 0.000000 -0.004631 0.000000 0.032838
#
#
# Mechanical properties :
#
#
# Convention : Reuss Voigt Hill
#
# Bulk Modulus (GPa) = 45.45076 56.04354 50.74715
# Shear Modulus (GPa) = 25.23167 30.94654 28.08911
#
# Velocity S-wave (km/s) = 3.31809 3.67470 3.50094
# Velocity P-wave (km/s) = 5.87468 6.51605 6.20366
#
# Compressibility (1/GPa) = 0.02200183
#
# Stress axis : x y z
#
# Youngs Moduli (GPa) = 49.23292 36.67326 104.12170
#
# Poissons Ratio (x) = 0.39269 0.53693
# Poissons Ratio (y) = 0.52717 0.17976
# Poissons Ratio (z) = 0.25388 0.06332
#
# Static dielectric constant tensor:
#      x y z
#    x 1.853780 0.000000 0.048010 
#    y 0.000000 1.983990 0.000000 
#    z 0.048010 0.000000 1.867240 
# 
# From -- ./inp_files/24365.got.cif
#   From: 2010.05.17/outbox.cif.g08.bks.cpg/sg9_13_cif.got.tgz:24365.got - 2010.06.03 20:04:27.
