data_PCOD9138047
_publ_section_title
;
Structure prediction by ZEFSAII (Michael W. Deem and Ramdas Pophale) SiO2 
 PCOD9138047
Probable space group: C C
;
_chemical_formula_sum "Si O2"
_cell_formula_units_Z 24
_cell_length_a 15.244770
_cell_length_b 4.894410
_cell_length_c 13.144249
_cell_angle_alpha 90.000000
_cell_angle_beta 66.639609
_cell_angle_gamma 90.000000
_cell_volume 900.354173
_symmetry_space_group_name_H-M "C C"
_symmetry_group_IT_number 9
_symmetry_cell_setting 'monoclinic'
loop_
_space_group_symop_operation_xyz
x,y,z
x,-y,1/2+z
1/2+x,1/2+y,z
1/2+x,1/2-y,1/2+z
loop_
_atom_site_type_symbol
_atom_site_label
_atom_site_fract_x
_atom_site_fract_y
_atom_site_fract_z
Si Si1 0.189060 0.150906 0.862790
Si Si2 0.795030 0.849544 0.327965
Si Si3 0.728905 0.687801 0.156174
Si Si4 0.393143 0.236134 0.931507
Si Si5 0.027288 0.539742 0.699557
Si Si6 0.506582 0.477269 0.069239
O O1 0.948705 0.872411 0.999871
O O2 0.198521 0.468789 0.881621
O O3 0.185253 0.057718 0.746348
O O4 0.107584 0.039090 0.970564
O O5 0.783097 0.527810 0.349775
O O6 0.862369 0.012044 0.371712
O O7 0.018114 0.752858 0.152053
O O8 0.797381 0.854924 0.204198
O O9 0.471065 0.938816 0.332215
O O10 0.636755 0.859882 0.163514
O O11 0.300151 0.110877 0.033163
O O12 0.977864 0.745949 0.640890
#
# Coordination Sequence:
#
# PCOD9138047 Si02
#       6
#     4   4   4   4   4   4
#     4  10  22  47  70 104 137 187 231 293 349 422
#     4  10  24  43  73 106 138 183 242 278 367 415
#     4  10  25  47  73 105 141 188 237 295 353 424
#     4  12  25  50  72 107 147 190 235 304 353 432
#     4  12  29  47  73 107 141 195 239 294 360 426
#     4  12  27  48  71 107 148 183 244 296 356 429
#
# _framework density 26.656179000000002
#
# number of rings (size 3 to 8) (size 9 to 14) (size 15 to 20)
#    1.000    0.000    1.667    4.000    4.667    2.667 
#    6.000    0.000    0.000    0.000    0.000    0.000 
#    0.000    0.000    0.000    0.000    0.000    0.000 
#
# Total GULP energy -67060.390068 kJ/mol
# GULP energy per Si atom -5588.365839 kJ/mol
# Density = 2.659551 g / cm^3
# Si number density = 26.656179 Si / 1000 Ang^3
#
#
#
# Elastic Constant Matrix: (Units=GPa)
#
#
# Indices 1 2 3 4 5 6 
#
# 1 86.9472 -13.4948 55.8636 -0.0004 16.1963 -0.0010
# 2 -13.4948 89.9439 40.2439 0.0002 -1.5030 0.0012
# 3 55.8636 40.2439 209.9960 -0.0005 -8.2207 -0.0010
# 4 -0.0004 0.0002 -0.0005 40.6026 -0.0002 5.4972
# 5 16.1963 -1.5030 -8.2207 -0.0002 52.5215 -0.0001
# 6 -0.0010 0.0012 -0.0010 5.4972 -0.0001 30.7623
#
#
#
# Elastic Compliance Matrix: (Units=1/GPa)
#
#
# Indices 1 2 3 4 5 6 
#
# 1 0.017101 0.005038 -0.005751 0.000000 -0.006030 0.000000
# 2 0.005038 0.013645 -0.004025 0.000000 -0.001793 0.000000
# 3 -0.005751 -0.004025 0.007172 0.000000 0.002781 0.000000
# 4 0.000000 0.000000 0.000000 0.025240 0.000000 -0.004510
# 5 -0.006030 -0.001793 0.002781 0.000000 0.021283 0.000000
# 6 0.000000 0.000000 0.000000 -0.004510 0.000000 0.033313
#
#
# Mechanical properties :
#
#
# Convention : Reuss Voigt Hill
#
# Bulk Modulus (GPa) = 35.15886 61.34582 48.25234
# Shear Modulus (GPa) = 36.57331 45.06224 40.81778
#
# Velocity S-wave (km/s) = 3.70812 4.11603 3.91739
# Velocity P-wave (km/s) = 5.61711 6.75667 6.21307
#
# Compressibility (1/GPa) = 0.02844233
#
# Stress axis : x y z
#
# Youngs Moduli (GPa) = 58.47498 73.28634 139.42787
#
# Poissons Ratio (x) = -0.36923 0.80184
# Poissons Ratio (y) = -0.29461 0.56126
# Poissons Ratio (z) = 0.33628 0.29501
#
# Static dielectric constant tensor:
#      x y z
#    x 2.211660 0.000000 -0.002120 
#    y 0.000000 2.065330 0.000000 
#    z -0.002120 0.000000 2.058500 
# 
# From -- ./inp_files/30253.got.cif
#   From: 2010.05.17/outbox.cif.g08.bks.cpg/sg9_16_cif.got.tgz:30253.got - 2010.06.03 20:04:27.
