data_PCOD9138681
_publ_section_title
;
Structure prediction by ZEFSAII (Michael W. Deem and Ramdas Pophale) SiO2 
 PCOD9138681
Probable space group: C C
;
_chemical_formula_sum "Si O2"
_cell_formula_units_Z 28
_cell_length_a 5.246536
_cell_length_b 22.968656
_cell_length_c 10.448123
_cell_angle_alpha 90.000000
_cell_angle_beta 61.952079
_cell_angle_gamma 90.000000
_cell_volume 1111.189461
_symmetry_space_group_name_H-M "C C"
_symmetry_group_IT_number 9
_symmetry_cell_setting 'monoclinic'
loop_
_space_group_symop_operation_xyz
x,y,z
x,-y,1/2+z
1/2+x,1/2+y,z
1/2+x,1/2-y,1/2+z
loop_
_atom_site_type_symbol
_atom_site_label
_atom_site_fract_x
_atom_site_fract_y
_atom_site_fract_z
Si Si1 0.728010 0.922725 0.504560
Si Si2 0.381725 0.213691 0.188798
Si Si3 0.177617 0.474016 0.875719
Si Si4 0.657620 0.453435 0.577386
Si Si5 0.079754 0.220878 0.990355
Si Si6 0.447082 0.846160 0.937286
Si Si7 0.978542 0.164036 0.760275
O O1 0.391758 0.922185 0.614775
O O2 0.968565 0.905938 0.548186
O O3 0.781953 0.887082 0.363273
O O4 0.788686 0.991890 0.474224
O O5 0.229035 0.205241 0.088747
O O6 0.336725 0.172655 0.322617
O O7 0.308885 0.279123 0.253009
O O8 0.729686 0.213616 0.083755
O O9 0.421685 0.487093 0.714708
O O10 0.871531 0.508105 0.938278
O O11 0.126091 0.405745 0.892509
O O12 0.120372 0.289854 0.949298
O O13 0.159839 0.187234 0.840590
O O14 0.184468 0.855777 0.097790
#
# Coordination Sequence:
#
# PCOD9138681 Si02
#       7
#     4   4   4   4   4   4   4
#     4  10  25  45  70 106 141 198 240 308 367 450
#     4  10  24  47  72 109 146 191 256 311 376 442
#     4  10  24  48  72 109 149 195 248 312 365 459
#     4  10  25  43  72 103 148 190 251 297 382 433
#     4  10  24  47  71 109 146 193 254 310 379 443
#     4  10  23  45  77 110 147 197 249 319 372 447
#     4  10  23  45  76 108 149 198 248 313 379 448
#
# _framework density 25.198222000000001
#
# number of rings (size 3 to 8) (size 9 to 14) (size 15 to 20)
#    0.857    1.143    0.000    0.857    4.000   13.714 
#   10.286    0.000    0.000    0.000    0.000    0.000 
#    0.000    0.000    0.000    0.000    0.000    0.000 
#
# Total GULP energy -78189.390701 kJ/mol
# GULP energy per Si atom -5584.956479 kJ/mol
# Density = 2.514087 g / cm^3
# Si number density = 25.198222 Si / 1000 Ang^3
#
#
#
# Elastic Constant Matrix: (Units=GPa)
#
#
# Indices 1 2 3 4 5 6 
#
# 1 169.2268 50.4539 71.4185 0.0000 10.1456 0.0000
# 2 50.4539 117.2175 50.8325 0.0000 -0.8755 0.0000
# 3 71.4185 50.8325 155.2187 0.0000 2.2131 0.0000
# 4 0.0000 0.0000 0.0000 41.5295 0.0000 5.1523
# 5 10.1456 -0.8755 2.2131 0.0000 47.9207 0.0000
# 6 0.0000 0.0000 0.0000 5.1523 0.0000 22.6845
#
#
#
# Elastic Compliance Matrix: (Units=1/GPa)
#
#
# Indices 1 2 3 4 5 6 
#
# 1 0.007863 -0.002141 -0.002894 0.000000 -0.001570 0.000000
# 2 -0.002141 0.010532 -0.002475 0.000000 0.000760 0.000000
# 3 -0.002894 -0.002475 0.008582 0.000000 0.000171 0.000000
# 4 0.000000 0.000000 0.000000 0.024777 0.000000 -0.005628
# 5 -0.001570 0.000760 0.000171 0.000000 0.021206 0.000000
# 6 0.000000 0.000000 0.000000 -0.005628 0.000000 0.045361
#
#
# Mechanical properties :
#
#
# Convention : Reuss Voigt Hill
#
# Bulk Modulus (GPa) = 83.63499 87.45255 85.54377
# Shear Modulus (GPa) = 36.40923 40.35750 38.38336
#
# Velocity S-wave (km/s) = 3.80532 4.00634 3.90713
# Velocity P-wave (km/s) = 7.25053 7.49548 7.37402
#
# Compressibility (1/GPa) = 0.01195672
#
# Stress axis : x y z
#
# Youngs Moduli (GPa) = 127.17373 94.95247 116.51917
#
# Poissons Ratio (x) = 0.20330 0.33726
# Poissons Ratio (y) = 0.27229 0.28835
# Poissons Ratio (z) = 0.36809 0.23498
#
# Static dielectric constant tensor:
#      x y z
#    x 2.061190 0.000000 0.014830 
#    y 0.000000 2.073460 0.000000 
#    z 0.014830 0.000000 2.026640 
# 
# From -- ./inp_files/13591.got.cif
#   From: 2010.05.17/outbox.cif.g08.bks.cpg/sg9_7_cif.got.tgz:13591.got - 2010.06.03 20:04:27.
