data_PCOD9138084
_publ_section_title
;
Structure prediction by ZEFSAII (Michael W. Deem and Ramdas Pophale) SiO2 
 PCOD9138084
Probable space group: C C
;
_chemical_formula_sum "Si O2"
_cell_formula_units_Z 28
_cell_length_a 10.908762
_cell_length_b 7.120983
_cell_length_c 19.216399
_cell_angle_alpha 90.000000
_cell_angle_beta 129.672212
_cell_angle_gamma 90.000000
_cell_volume 1148.984409
_symmetry_space_group_name_H-M "C C"
_symmetry_group_IT_number 9
_symmetry_cell_setting 'monoclinic'
loop_
_space_group_symop_operation_xyz
x,y,z
x,-y,1/2+z
1/2+x,1/2+y,z
1/2+x,1/2-y,1/2+z
loop_
_atom_site_type_symbol
_atom_site_label
_atom_site_fract_x
_atom_site_fract_y
_atom_site_fract_z
Si Si1 0.020240 0.496090 0.791860
Si Si2 0.106764 0.518351 0.672409
Si Si3 0.457517 0.589886 0.127999
Si Si4 0.478898 0.559109 0.291274
Si Si5 0.596682 0.887603 0.516890
Si Si6 0.004764 0.253152 0.897567
Si Si7 0.381491 0.445637 0.951943
O O1 0.010602 0.459198 0.706559
O O2 0.193648 0.421474 0.878050
O O3 0.912334 0.375813 0.805024
O O4 0.013120 0.718581 0.802869
O O5 0.293855 0.469541 0.746065
O O6 0.054489 0.429948 0.581250
O O7 0.075495 0.739621 0.656521
O O8 0.498097 0.497465 0.217252
O O9 0.279751 0.675231 0.076201
O O10 0.443678 0.467626 0.053437
O O11 0.575290 0.423731 0.378450
O O12 0.476692 0.724608 0.450884
O O13 0.588036 0.082922 0.472341
O O14 0.909964 0.140845 0.922307
#
# Coordination Sequence:
#
# PCOD9138084 Si02
#       7
#     4   4   4   4   4   4   4
#     4  11  25  45  69 101 140 181 227 290 346 408
#     4  10  22  48  68  97 143 180 225 287 348 404
#     4  10  23  47  65  98 144 178 227 293 346 406
#     4  10  24  47  69 103 140 175 238 286 337 426
#     4  11  25  44  68 102 137 181 238 283 341 425
#     4  12  24  43  72 100 135 182 235 280 345 413
#     4  12  25  44  69 101 139 181 230 289 341 414
#
# _framework density 24.369347999999999
#
# number of rings (size 3 to 8) (size 9 to 14) (size 15 to 20)
#    0.000    1.143    4.286    0.857    2.000    2.286 
#    7.714    0.000    0.000    0.000    0.000    0.000 
#    0.000    0.000    0.000    0.000    0.000    0.000 
#
# Total GULP energy -78172.665161 kJ/mol
# GULP energy per Si atom -5583.761797 kJ/mol
# Density = 2.431388 g / cm^3
# Si number density = 24.369348 Si / 1000 Ang^3
#
#
#
# Elastic Constant Matrix: (Units=GPa)
#
#
# Indices 1 2 3 4 5 6 
#
# 1 74.4827 59.5702 44.5988 0.0000 -15.4953 0.0000
# 2 59.5702 145.2654 39.2590 0.0000 1.4091 0.0000
# 3 44.5988 39.2590 94.2477 0.0000 -37.0356 0.0000
# 4 0.0000 0.0000 0.0000 37.5735 0.0000 -6.4630
# 5 -15.4953 1.4091 -37.0356 0.0000 59.2488 0.0000
# 6 0.0000 0.0000 0.0000 -6.4630 0.0000 37.6106
#
#
#
# Elastic Compliance Matrix: (Units=1/GPa)
#
#
# Indices 1 2 3 4 5 6 
#
# 1 0.024948 -0.008188 -0.007628 0.000000 0.001951 0.000000
# 2 -0.008188 0.010846 -0.002103 0.000000 -0.003714 0.000000
# 3 -0.007628 -0.002103 0.018998 0.000000 0.009930 0.000000
# 4 0.000000 0.000000 0.000000 0.027425 0.000000 0.004713
# 5 0.001951 -0.003714 0.009930 0.000000 0.023684 0.000000
# 6 0.000000 0.000000 0.000000 0.004713 0.000000 0.027398
#
#
# Mechanical properties :
#
#
# Convention : Reuss Voigt Hill
#
# Bulk Modulus (GPa) = 52.75748 66.76129 59.75939
# Shear Modulus (GPa) = 28.49728 38.25777 33.37752
#
# Velocity S-wave (km/s) = 3.42334 3.96651 3.70490
# Velocity P-wave (km/s) = 6.10916 6.95936 6.54807
#
# Compressibility (1/GPa) = 0.01895466
#
# Stress axis : x y z
#
# Youngs Moduli (GPa) = 40.08310 92.20036 52.63659
#
# Poissons Ratio (x) = 0.75494 0.40152
# Poissons Ratio (y) = 0.32820 0.11067
# Poissons Ratio (z) = 0.30576 0.19386
#
# Static dielectric constant tensor:
#      x y z
#    x 2.035840 0.000000 -0.009560 
#    y 0.000000 1.935220 0.000000 
#    z -0.009560 0.000000 2.003050 
# 
# From -- ./inp_files/29659.got.cif
#   From: 2010.05.17/outbox.cif.g08.bks.cpg/sg9_15_cif.got.tgz:29659.got - 2010.06.03 20:04:27.
