data_PCOD9138760
_publ_section_title
;
Structure prediction by ZEFSAII (Michael W. Deem and Ramdas Pophale) SiO2 
 PCOD9138760
Probable space group: C C
;
_chemical_formula_sum "Si O2"
_cell_formula_units_Z 24
_cell_length_a 5.411429
_cell_length_b 17.142843
_cell_length_c 10.532868
_cell_angle_alpha 90.000000
_cell_angle_beta 99.443111
_cell_angle_gamma 90.000000
_cell_volume 963.864726
_symmetry_space_group_name_H-M "C C"
_symmetry_group_IT_number 9
_symmetry_cell_setting 'monoclinic'
loop_
_space_group_symop_operation_xyz
x,y,z
x,-y,1/2+z
1/2+x,1/2+y,z
1/2+x,1/2-y,1/2+z
loop_
_atom_site_type_symbol
_atom_site_label
_atom_site_fract_x
_atom_site_fract_y
_atom_site_fract_z
Si Si1 0.042690 0.613532 0.854870
Si Si2 0.009637 0.362789 0.780080
Si Si3 0.248746 0.285270 0.165009
Si Si4 0.144556 0.996243 0.236699
Si Si5 0.835005 0.036182 0.458966
Si Si6 0.205809 0.729271 0.074357
O O1 0.183752 0.638438 0.739046
O O2 0.168991 0.541407 0.934703
O O3 0.770869 0.583160 0.797555
O O4 0.069860 0.686976 0.947208
O O5 0.148849 0.390945 0.919083
O O6 0.205789 0.333750 0.689810
O O7 0.827099 0.287763 0.765054
O O8 0.857145 0.439135 0.720713
O O9 0.499439 0.291843 0.102473
O O10 0.987804 0.257642 0.079132
O O11 0.002609 0.032585 0.345568
O O12 0.989826 0.975447 0.099109
#
# Coordination Sequence:
#
# PCOD9138760 Si02
#       6
#     4   4   4   4   4   4
#     4  11  25  44  72 109 145 201 250 316 373 459
#     4   9  21  42  68 103 146 195 242 304 377 439
#     4  10  24  44  70 107 143 198 241 301 381 444
#     4  11  24  43  75 106 148 198 251 313 376 443
#     4  11  23  43  72 108 151 190 260 309 376 443
#     4  10  23  46  73  99 149 194 244 305 381 436
#
# _framework density 24.899757999999999
#
# number of rings (size 3 to 8) (size 9 to 14) (size 15 to 20)
#    1.000    0.667    0.000    4.000    4.667    4.000 
#    9.000    0.000    0.000    0.000    0.000    0.000 
#    0.000    0.000    0.000    0.000    0.000    0.000 
#
# Total GULP energy -67094.831823 kJ/mol
# GULP energy per Si atom -5591.235985 kJ/mol
# Density = 2.484308 g / cm^3
# Si number density = 24.899758 Si / 1000 Ang^3
#
#
#
# Elastic Constant Matrix: (Units=GPa)
#
#
# Indices 1 2 3 4 5 6 
#
# 1 95.0833 30.8842 29.4029 0.0000 21.9078 0.0000
# 2 30.8842 82.7535 35.5868 0.0000 16.2920 0.0000
# 3 29.4029 35.5868 124.8272 0.0000 40.1689 0.0000
# 4 0.0000 0.0000 0.0000 35.9866 0.0000 -4.8051
# 5 21.9078 16.2920 40.1689 0.0000 46.0215 0.0000
# 6 0.0000 0.0000 0.0000 -4.8051 0.0000 53.2246
#
#
#
# Elastic Compliance Matrix: (Units=1/GPa)
#
#
# Indices 1 2 3 4 5 6 
#
# 1 0.012899 -0.003710 -0.000594 0.000000 -0.004308 0.000000
# 2 -0.003710 0.014975 -0.003140 0.000000 -0.000795 0.000000
# 3 -0.000594 -0.003140 0.011955 0.000000 -0.009041 0.000000
# 4 0.000000 0.000000 0.000000 0.028127 0.000000 0.002539
# 5 -0.004308 -0.000795 -0.009041 0.000000 0.031952 0.000000
# 6 0.000000 0.000000 0.000000 0.002539 0.000000 0.019018
#
#
# Mechanical properties :
#
#
# Convention : Reuss Voigt Hill
#
# Bulk Modulus (GPa) = 40.09394 54.93465 47.51430
# Shear Modulus (GPa) = 35.17961 40.83253 38.00607
#
# Velocity S-wave (km/s) = 3.76287 4.05393 3.91111
# Velocity P-wave (km/s) = 5.91743 6.63496 6.28644
#
# Compressibility (1/GPa) = 0.02494142
#
# Stress axis : x y z
#
# Youngs Moduli (GPa) = 77.52814 66.77642 83.64462
#
# Poissons Ratio (x) = 0.24775 0.04970
# Poissons Ratio (y) = 0.28764 0.26261
# Poissons Ratio (z) = 0.04607 0.20965
#
# Static dielectric constant tensor:
#      x y z
#    x 1.981100 0.000000 -0.049410 
#    y 0.000000 1.957980 0.000000 
#    z -0.049410 0.000000 2.015720 
# 
# From -- ./inp_files/13128.got.cif
#   From: 2010.05.17/outbox.cif.g08.bks.cpg/sg9_7_cif.got.tgz:13128.got - 2010.06.03 20:04:27.
