data_PCOD9138741
_publ_section_title
;
Structure prediction by ZEFSAII (Michael W. Deem and Ramdas Pophale) SiO2 
 PCOD9138741
Probable space group: C C
;
_chemical_formula_sum "Si O2"
_cell_formula_units_Z 20
_cell_length_a 7.102158
_cell_length_b 20.128693
_cell_length_c 8.116006
_cell_angle_alpha 90.000000
_cell_angle_beta 40.881166
_cell_angle_gamma 90.000000
_cell_volume 759.368921
_symmetry_space_group_name_H-M "C C"
_symmetry_group_IT_number 9
_symmetry_cell_setting 'monoclinic'
loop_
_space_group_symop_operation_xyz
x,y,z
x,-y,1/2+z
1/2+x,1/2+y,z
1/2+x,1/2-y,1/2+z
loop_
_atom_site_type_symbol
_atom_site_label
_atom_site_fract_x
_atom_site_fract_y
_atom_site_fract_z
Si Si1 0.188140 0.834876 0.931410
Si Si2 0.603589 0.066992 0.578947
Si Si3 0.040040 0.951059 0.252437
Si Si4 0.616571 0.135331 0.903547
Si Si5 0.073997 0.287118 0.970665
O O1 0.325069 0.835756 0.662542
O O2 0.172791 0.912710 0.005419
O O3 0.385081 0.795688 0.928704
O O4 0.854600 0.815443 0.170575
O O5 0.295936 0.044796 0.711990
O O6 0.575362 0.078510 0.793842
O O7 0.659648 0.139152 0.466217
O O8 0.862662 0.018445 0.360520
O O9 0.785973 0.896125 0.450028
O O10 0.847845 0.257710 0.250766
#
# Coordination Sequence:
#
# PCOD9138741 Si02
#       5
#     4   4   4   4   4
#     4   9  22  48  71 103 147 188 257 304 379 439
#     4  11  25  48  79 111 161 194 259 313 380 463
#     4   9  25  46  70 114 147 205 237 319 386 440
#     4  10  23  46  71 115 145 191 249 311 386 446
#     4  11  25  50  77 109 150 208 254 311 375 450
#
# _framework density 26.337661000000001
#
# number of rings (size 3 to 8) (size 9 to 14) (size 15 to 20)
#    1.200    0.800    0.000    1.200    2.800    6.400 
#    7.200    6.000    0.000    0.000    0.000    0.000 
#    0.000    0.000    0.000    0.000    0.000    0.000 
#
# Total GULP energy -55942.007649 kJ/mol
# GULP energy per Si atom -5594.200765 kJ/mol
# Density = 2.627772 g / cm^3
# Si number density = 26.337661 Si / 1000 Ang^3
#
#
#
# Elastic Constant Matrix: (Units=GPa)
#
#
# Indices 1 2 3 4 5 6 
#
# 1 141.8242 36.9495 37.0418 0.0000 -27.8435 0.0000
# 2 36.9495 137.5021 58.6067 0.0000 -22.5519 0.0000
# 3 37.0418 58.6067 196.5917 0.0000 -22.5930 0.0000
# 4 0.0000 0.0000 0.0000 28.0822 0.0000 -2.7997
# 5 -27.8435 -22.5519 -22.5930 0.0000 36.0137 0.0000
# 6 0.0000 0.0000 0.0000 -2.7997 0.0000 40.6652
#
#
#
# Elastic Compliance Matrix: (Units=1/GPa)
#
#
# Indices 1 2 3 4 5 6 
#
# 1 0.008601 -0.001127 -0.000648 0.000000 0.005537 0.000000
# 2 -0.001127 0.009033 -0.002081 0.000000 0.003480 0.000000
# 3 -0.000648 -0.002081 0.006059 0.000000 0.001997 0.000000
# 4 0.000000 0.000000 0.000000 0.035856 0.000000 0.002469
# 5 0.005537 0.003480 0.001997 0.000000 0.035480 0.000000
# 6 0.000000 0.000000 0.000000 0.002469 0.000000 0.024761
#
#
# Mechanical properties :
#
#
# Convention : Reuss Voigt Hill
#
# Bulk Modulus (GPa) = 62.57341 82.34600 72.45971
# Shear Modulus (GPa) = 37.64264 43.84023 40.74143
#
# Velocity S-wave (km/s) = 3.78462 4.08431 3.93732
# Velocity P-wave (km/s) = 6.55038 7.31953 6.94561
#
# Compressibility (1/GPa) = 0.01598123
#
# Stress axis : x y z
#
# Youngs Moduli (GPa) = 116.26568 110.70557 165.05560
#
# Poissons Ratio (x) = 0.12473 0.10701
# Poissons Ratio (y) = 0.13100 0.34342
# Poissons Ratio (z) = 0.07538 0.23033
#
# Static dielectric constant tensor:
#      x y z
#    x 2.100290 0.000000 0.021750 
#    y 0.000000 2.063510 0.000000 
#    z 0.021750 0.000000 2.068460 
# 
# From -- ./inp_files/6137.got.cif
#   From: 2010.05.17/outbox.cif.g08.bks.cpg/sg9_4_cif.got.tgz:6137.got - 2010.06.03 20:04:27.
