data_PCOD9138894
_publ_section_title
;
Structure prediction by ZEFSAII (Michael W. Deem and Ramdas Pophale) SiO2 
 PCOD9138894
Probable space group: C C
;
_chemical_formula_sum "Si O2"
_cell_formula_units_Z 24
_cell_length_a 8.544299
_cell_length_b 17.321051
_cell_length_c 9.781186
_cell_angle_alpha 90.000000
_cell_angle_beta 134.528425
_cell_angle_gamma 90.000000
_cell_volume 1031.982695
_symmetry_space_group_name_H-M "C C"
_symmetry_group_IT_number 9
_symmetry_cell_setting 'monoclinic'
loop_
_space_group_symop_operation_xyz
x,y,z
x,-y,1/2+z
1/2+x,1/2+y,z
1/2+x,1/2-y,1/2+z
loop_
_atom_site_type_symbol
_atom_site_label
_atom_site_fract_x
_atom_site_fract_y
_atom_site_fract_z
Si Si1 0.195020 0.919671 0.418430
Si Si2 0.118144 0.327103 0.685073
Si Si3 0.774413 0.918845 0.538600
Si Si4 0.584579 0.654608 0.589830
Si Si5 0.249054 0.097403 0.419275
Si Si6 0.715047 0.929543 0.188412
O O1 0.394194 0.867766 0.591426
O O2 0.179706 0.911568 0.244386
O O3 0.953621 0.892079 0.315003
O O4 0.238261 0.009536 0.472603
O O5 0.158143 0.350014 0.550104
O O6 0.112318 0.235053 0.685249
O O7 0.328537 0.357050 0.897445
O O8 0.692033 0.937678 0.337774
O O9 0.034466 0.899960 0.693007
O O10 0.736177 0.991168 0.616766
O O11 0.706296 0.653891 0.519718
O O12 0.488583 0.109749 0.503289
#
# Coordination Sequence:
#
# PCOD9138894 Si02
#       6
#     4   4   4   4   4   4
#     4  11  24  40  66 103 139 176 232 287 344 410
#     4  11  22  44  72  93 137 186 236 276 351 430
#     4  10  24  40  64 102 134 183 226 288 346 406
#     4  11  24  44  72  99 132 189 232 283 349 418
#     4  10  24  39  68  99 134 175 233 289 336 407
#     4  11  24  39  66  98 142 175 231 293 338 403
#
# _framework density 23.256205999999999
#
# number of rings (size 3 to 8) (size 9 to 14) (size 15 to 20)
#    0.000    1.333    3.333    1.000   14.000    1.333 
#    0.000    1.667    0.000    0.000    0.000    0.000 
#    0.000    0.000    0.000    0.000    0.000    0.000 
#
# Total GULP energy -67087.978958 kJ/mol
# GULP energy per Si atom -5590.664913 kJ/mol
# Density = 2.320327 g / cm^3
# Si number density = 23.256206 Si / 1000 Ang^3
#
#
#
# Elastic Constant Matrix: (Units=GPa)
#
#
# Indices 1 2 3 4 5 6 
#
# 1 93.4954 -0.5902 26.2610 0.0000 46.9995 0.0000
# 2 -0.5902 50.3593 -7.2188 0.0000 2.9134 0.0000
# 3 26.2610 -7.2188 91.4606 0.0000 5.8089 0.0000
# 4 0.0000 0.0000 0.0000 14.2401 0.0000 1.3692
# 5 46.9995 2.9134 5.8089 0.0000 56.3696 0.0000
# 6 0.0000 0.0000 0.0000 1.3692 0.0000 29.6018
#
#
#
# Elastic Compliance Matrix: (Units=1/GPa)
#
#
# Indices 1 2 3 4 5 6 
#
# 1 0.020313 0.000511 -0.004746 0.000000 -0.016474 0.000000
# 2 0.000511 0.020180 0.001549 0.000000 -0.001629 0.000000
# 3 -0.004746 0.001549 0.012253 0.000000 0.002614 0.000000
# 4 0.000000 0.000000 0.000000 0.070538 0.000000 -0.003263
# 5 -0.016474 -0.001629 0.002614 0.000000 0.031291 0.000000
# 6 0.000000 0.000000 0.000000 -0.003263 0.000000 0.033933
#
#
# Mechanical properties :
#
#
# Convention : Reuss Voigt Hill
#
# Bulk Modulus (GPa) = 21.10841 30.24658 25.67749
# Shear Modulus (GPa) = 23.84705 34.49985 29.17345
#
# Velocity S-wave (km/s) = 3.20567 3.85576 3.54565
# Velocity P-wave (km/s) = 4.77472 5.73206 5.27515
#
# Compressibility (1/GPa) = 0.04737448
#
# Stress axis : x y z
#
# Youngs Moduli (GPa) = 49.22852 49.55490 81.61517
#
# Poissons Ratio (x) = -0.02532 0.38734
# Poissons Ratio (y) = -0.02515 -0.12646
# Poissons Ratio (z) = 0.23364 -0.07678
#
# Static dielectric constant tensor:
#      x y z
#    x 1.925730 0.000000 0.031240 
#    y 0.000000 1.831090 0.000000 
#    z 0.031240 0.000000 1.859170 
# 
# From -- ./inp_files/5705.got.cif
#   From: 2010.05.17/outbox.cif.g08.bks.cpg/sg9_3_cif.got.tgz:5705.got - 2010.06.03 20:04:27.
