data_PCOD9138509
_publ_section_title
;
Structure prediction by ZEFSAII (Michael W. Deem and Ramdas Pophale) SiO2 
 PCOD9138509
Probable space group: C C
;
_chemical_formula_sum "Si O2"
_cell_formula_units_Z 32
_cell_length_a 11.483255
_cell_length_b 24.938660
_cell_length_c 5.151737
_cell_angle_alpha 90.000000
_cell_angle_beta 117.287770
_cell_angle_gamma 90.000000
_cell_volume 1311.156018
_symmetry_space_group_name_H-M "C C"
_symmetry_group_IT_number 9
_symmetry_cell_setting 'monoclinic'
loop_
_space_group_symop_operation_xyz
x,y,z
x,-y,1/2+z
1/2+x,1/2+y,z
1/2+x,1/2-y,1/2+z
loop_
_atom_site_type_symbol
_atom_site_label
_atom_site_fract_x
_atom_site_fract_y
_atom_site_fract_z
Si Si1 0.031690 0.146806 0.835080
Si Si2 0.821947 0.364328 0.547472
Si Si3 0.671926 0.021545 0.230684
Si Si4 0.701993 0.205038 0.975052
Si Si5 0.739034 0.866176 0.009422
Si Si6 0.864173 0.705952 0.592892
Si Si7 0.880069 0.522144 0.320060
Si Si8 0.533759 0.287425 0.840398
O O1 0.167531 0.121399 0.887463
O O2 0.024703 0.199194 0.639315
O O3 0.893101 0.119319 0.653537
O O4 0.041088 0.163490 0.143467
O O5 0.865469 0.340725 0.316415
O O6 0.886559 0.417874 0.722480
O O7 0.846191 0.317369 0.783814
O O8 0.736007 0.983239 0.513035
O O9 0.668827 0.080393 0.345052
O O10 0.525430 0.000593 0.023683
O O11 0.705415 0.159513 0.752085
O O12 0.533246 0.219483 0.777948
O O13 0.708826 0.179623 0.268160
O O14 0.699893 0.274392 0.985827
O O15 0.868520 0.775640 0.611724
O O16 0.814846 0.515043 0.533917
#
# Coordination Sequence:
#
# PCOD9138509 Si02
#       8
#     4   4   4   4   4   4   4   4
#     4  12  22  40  60  91 126 175 218 252 334 392
#     4  12  24  41  68  92 132 182 218 275 343 395
#     4  10  23  44  68  92 128 162 220 291 342 386
#     4  12  23  41  62  99 135 175 223 265 327 401
#     4  12  24  41  68  92 132 182 218 275 343 395
#     4  12  23  41  62  99 135 175 223 265 327 401
#     4  10  23  44  68  92 128 162 220 291 342 386
#     4  12  24  36  62  89 136 175 212 274 298 390
#
# _framework density 24.405944999999999
#
# number of rings (size 3 to 8) (size 9 to 14) (size 15 to 20)
#    0.000    0.500    5.000    3.750    0.000    6.000 
#    0.000    1.250    0.000    0.000    0.000    0.000 
#    0.000    0.000    0.000    0.000    0.000    0.000 
#
# Total GULP energy -89347.698815 kJ/mol
# GULP energy per Si atom -5584.231176 kJ/mol
# Density = 2.435040 g / cm^3
# Si number density = 24.405945 Si / 1000 Ang^3
#
#
#
# Elastic Constant Matrix: (Units=GPa)
#
#
# Indices 1 2 3 4 5 6 
#
# 1 109.3190 17.3900 6.9589 0.0000 30.5826 0.0000
# 2 17.3900 111.0387 29.2882 0.0000 11.7792 0.0000
# 3 6.9589 29.2882 114.2825 0.0000 -11.6339 0.0000
# 4 0.0000 0.0000 0.0000 28.3458 0.0000 -8.0298
# 5 30.5826 11.7792 -11.6339 0.0000 57.0256 0.0000
# 6 0.0000 0.0000 0.0000 -8.0298 0.0000 12.6707
#
#
#
# Elastic Compliance Matrix: (Units=1/GPa)
#
#
# Indices 1 2 3 4 5 6 
#
# 1 0.011011 -0.000811 -0.001069 0.000000 -0.005956 0.000000
# 2 -0.000811 0.010097 -0.002764 0.000000 -0.002215 0.000000
# 3 -0.001069 -0.002764 0.009845 0.000000 0.003153 0.000000
# 4 0.000000 0.000000 0.000000 0.042998 0.000000 0.027249
# 5 -0.005956 -0.002215 0.003153 0.000000 0.021831 0.000000
# 6 0.000000 0.000000 0.000000 0.027249 0.000000 0.096191
#
#
# Mechanical properties :
#
#
# Convention : Reuss Voigt Hill
#
# Bulk Modulus (GPa) = 46.15677 49.10160 47.62919
# Shear Modulus (GPa) = 23.98316 38.34196 31.16256
#
# Velocity S-wave (km/s) = 3.13817 3.96790 3.57717
# Velocity P-wave (km/s) = 5.66427 6.41519 6.05139
#
# Compressibility (1/GPa) = 0.02166529
#
# Stress axis : x y z
#
# Youngs Moduli (GPa) = 90.82115 99.04205 101.57922
#
# Poissons Ratio (x) = 0.08029 0.10859
# Poissons Ratio (y) = 0.07363 0.28073
# Poissons Ratio (z) = 0.09709 0.27372
#
# Static dielectric constant tensor:
#      x y z
#    x 2.234680 0.000000 0.036830 
#    y 0.000000 1.907530 0.000000 
#    z 0.036830 0.000000 1.936040 
# 
# From -- ./inp_files/2707.got.cif
#   From: 2010.05.17/outbox.cif.g08.bks.cpg/sg9_2_cif.got.tgz:2707.got - 2010.06.03 20:04:27.
