data_PCOD9138038
_publ_section_title
;
Structure prediction by ZEFSAII (Michael W. Deem and Ramdas Pophale) SiO2 
 PCOD9138038
Probable space group: C C
;
_chemical_formula_sum "Si O2"
_cell_formula_units_Z 28
_cell_length_a 10.712432
_cell_length_b 8.464931
_cell_length_c 12.941839
_cell_angle_alpha 90.000000
_cell_angle_beta 109.911851
_cell_angle_gamma 90.000000
_cell_volume 1103.407464
_symmetry_space_group_name_H-M "C C"
_symmetry_group_IT_number 9
_symmetry_cell_setting 'monoclinic'
loop_
_space_group_symop_operation_xyz
x,y,z
x,-y,1/2+z
1/2+x,1/2+y,z
1/2+x,1/2-y,1/2+z
loop_
_atom_site_type_symbol
_atom_site_label
_atom_site_fract_x
_atom_site_fract_y
_atom_site_fract_z
Si Si1 0.665400 0.752816 0.875000
Si Si2 0.441404 0.790343 0.136968
Si Si3 0.204552 0.595283 0.808857
Si Si4 0.131764 0.087497 0.073047
Si Si5 0.877769 0.753301 0.190439
Si Si6 0.676812 0.747273 0.502695
Si Si7 0.917433 0.599632 0.990491
O O1 0.523337 0.739451 0.780163
O O2 0.720713 0.922126 0.858631
O O3 0.634886 0.725330 0.987469
O O4 0.784137 0.627707 0.887310
O O5 0.549941 0.867237 0.242179
O O6 0.514714 0.633844 0.115661
O O7 0.420365 0.931758 0.047893
O O8 0.292402 0.738031 0.120942
O O9 0.289715 0.620487 0.728874
O O10 0.241583 0.717722 0.909704
O O11 0.274237 0.103776 0.170790
O O12 0.119514 0.926711 0.006548
O O13 0.907468 0.736412 0.076853
O O14 0.557576 0.870180 0.478010
#
# Coordination Sequence:
#
# PCOD9138038 Si02
#       7
#     4   4   4   4   4   4   4
#     4  11  21  43  70 100 139 181 234 286 339 422
#     4  11  23  51  66  98 149 186 222 300 344 420
#     4  11  25  43  75 103 139 184 240 282 357 407
#     4  10  23  45  71  98 148 181 233 287 357 407
#     4  10  22  47  68 101 139 185 224 289 343 418
#     4  12  25  45  70 109 134 188 235 287 346 423
#     4  11  25  44  72 101 142 187 232 279 366 405
#
# _framework density 25.375938000000001
#
# number of rings (size 3 to 8) (size 9 to 14) (size 15 to 20)
#    0.000    1.143    4.286    1.714    4.000    1.143 
#    5.143    0.000    0.000    0.000    0.000    0.000 
#    0.000    0.000    0.000    0.000    0.000    0.000 
#
# Total GULP energy -78167.451303 kJ/mol
# GULP energy per Si atom -5583.389379 kJ/mol
# Density = 2.531818 g / cm^3
# Si number density = 25.375938 Si / 1000 Ang^3
#
#
#
# Elastic Constant Matrix: (Units=GPa)
#
#
# Indices 1 2 3 4 5 6 
#
# 1 103.0152 10.8681 27.9702 0.0000 20.7420 0.0000
# 2 10.8681 93.6795 22.2012 0.0000 1.7829 0.0000
# 3 27.9702 22.2012 96.5803 0.0000 32.0770 0.0000
# 4 0.0000 0.0000 0.0000 32.0108 0.0000 -2.8415
# 5 20.7420 1.7829 32.0770 0.0000 52.9811 0.0000
# 6 0.0000 0.0000 0.0000 -2.8415 0.0000 23.8283
#
#
#
# Elastic Compliance Matrix: (Units=1/GPa)
#
#
# Indices 1 2 3 4 5 6 
#
# 1 0.010939 -0.000741 -0.001982 0.000000 -0.003058 0.000000
# 2 -0.000741 0.011435 -0.002982 0.000000 0.001711 0.000000
# 3 -0.001982 -0.002982 0.014172 0.000000 -0.007704 0.000000
# 4 0.000000 0.000000 0.000000 0.031574 0.000000 0.003765
# 5 -0.003058 0.001711 -0.007704 0.000000 0.024679 0.000000
# 6 0.000000 0.000000 0.000000 0.003765 0.000000 0.042416
#
#
# Mechanical properties :
#
#
# Convention : Reuss Voigt Hill
#
# Bulk Modulus (GPa) = 39.78414 46.15047 42.96730
# Shear Modulus (GPa) = 32.25715 37.24640 34.75177
#
# Velocity S-wave (km/s) = 3.56922 3.83532 3.70466
# Velocity P-wave (km/s) = 5.71819 6.15135 5.93872
#
# Compressibility (1/GPa) = 0.02513565
#
# Stress axis : x y z
#
# Youngs Moduli (GPa) = 91.41309 87.45189 70.55949
#
# Poissons Ratio (x) = 0.06482 0.13986
# Poissons Ratio (y) = 0.06775 0.21042
# Poissons Ratio (z) = 0.18120 0.26079
#
# Static dielectric constant tensor:
#      x y z
#    x 2.083820 0.000000 0.010560 
#    y 0.000000 1.977440 0.000000 
#    z 0.010560 0.000000 2.048030 
# 
# From -- ./inp_files/24170.got.cif
#   From: 2010.05.17/outbox.cif.g08.bks.cpg/sg9_13_cif.got.tgz:24170.got - 2010.06.03 20:04:27.
