data_PCOD9138536
_publ_section_title
;
Structure prediction by ZEFSAII (Michael W. Deem and Ramdas Pophale) SiO2 
 PCOD9138536
Probable space group: C C
;
_chemical_formula_sum "Si O2"
_cell_formula_units_Z 20
_cell_length_a 7.357683
_cell_length_b 20.106891
_cell_length_c 5.644471
_cell_angle_alpha 90.000000
_cell_angle_beta 70.872034
_cell_angle_gamma 90.000000
_cell_volume 788.940243
_symmetry_space_group_name_H-M "C C"
_symmetry_group_IT_number 9
_symmetry_cell_setting 'monoclinic'
loop_
_space_group_symop_operation_xyz
x,y,z
x,-y,1/2+z
1/2+x,1/2+y,z
1/2+x,1/2-y,1/2+z
loop_
_atom_site_type_symbol
_atom_site_label
_atom_site_fract_x
_atom_site_fract_y
_atom_site_fract_z
Si Si1 0.200480 0.672349 0.813300
Si Si2 0.856431 0.032056 0.579748
Si Si3 0.488541 0.776506 0.808337
Si Si4 0.782663 0.515986 0.897998
Si Si5 0.274013 0.167425 0.797414
O O1 0.280347 0.603920 0.683022
O O2 0.358788 0.728399 0.700238
O O3 0.986504 0.680635 0.806632
O O4 0.152321 0.679563 0.113694
O O5 0.801301 0.012755 0.333774
O O6 0.088822 0.027621 0.482721
O O7 0.607443 0.721271 0.908898
O O8 0.330297 0.823646 0.996746
O O9 0.883671 0.496597 0.607233
O O10 0.724233 0.593390 0.899039
#
# Coordination Sequence:
#
# PCOD9138536 Si02
#       5
#     4   4   4   4   4
#     4  11  24  44  72 101 140 184 237 291 354 424
#     4  10  23  44  70 101 138 187 232 290 354 416
#     4  10  24  46  68 104 140 182 238 292 354 416
#     4  10  23  44  70 101 138 187 232 290 354 416
#     4  11  24  44  72 101 140 184 237 291 354 424
#
# _framework density 25.350463999999999
#
# number of rings (size 3 to 8) (size 9 to 14) (size 15 to 20)
#    0.000    1.600    0.000    3.600    5.600    1.600 
#   14.400    0.000    0.000    0.000    0.000    0.000 
#    0.000    0.000    0.000    0.000    0.000    0.000 
#
# Total GULP energy -55813.008477 kJ/mol
# GULP energy per Si atom -5581.300848 kJ/mol
# Density = 2.529276 g / cm^3
# Si number density = 25.350464 Si / 1000 Ang^3
#
#
#
# Elastic Constant Matrix: (Units=GPa)
#
#
# Indices 1 2 3 4 5 6 
#
# 1 116.6125 13.6679 4.2625 0.0000 -19.4642 0.0000
# 2 13.6679 90.0083 63.7181 0.0000 5.5041 0.0000
# 3 4.2625 63.7181 108.7483 0.0000 8.5118 0.0000
# 4 0.0000 0.0000 0.0000 38.1894 0.0000 -20.0116
# 5 -19.4642 5.5041 8.5118 0.0000 44.3205 0.0000
# 6 0.0000 0.0000 0.0000 -20.0116 0.0000 5.7817
#
#
#
# Elastic Compliance Matrix: (Units=1/GPa)
#
#
# Indices 1 2 3 4 5 6 
#
# 1 0.009524 -0.002062 0.000495 0.000000 0.004344 0.000000
# 2 -0.002062 0.019433 -0.011214 0.000000 -0.001165 0.000000
# 3 0.000495 -0.011214 0.015859 0.000000 -0.001436 0.000000
# 4 0.000000 0.000000 0.000000 -0.032181 0.000000 -0.111384
# 5 0.004344 -0.001165 -0.001436 0.000000 0.024891 0.000000
# 6 0.000000 0.000000 0.000000 -0.111384 0.000000 -0.212561
#
#
# Mechanical properties :
#
#
# Convention : Reuss Voigt Hill
#
# Bulk Modulus (GPa) = 51.93892 53.18512 52.56202
# Shear Modulus (GPa) = -34.95205 33.23969 -0.85618
#
# Velocity S-wave (km/s) = -3.71719 3.62499 -0.58178
# Velocity P-wave (km/s) = 1.45242 6.20856 4.50864
#
# Compressibility (1/GPa) = 0.01925338
#
# Stress axis : x y z
#
# Youngs Moduli (GPa) = 104.99732 51.45794 63.05453
#
# Poissons Ratio (x) = 0.10612 -0.03122
# Poissons Ratio (y) = 0.21654 0.70712
# Poissons Ratio (z) = -0.05198 0.57707
#
# Static dielectric constant tensor:
#      x y z
#    x 2.024910 0.000000 0.169320 
#    y 0.000000 1.914270 0.000000 
#    z 0.169320 0.000000 2.315200 
# 
# From -- ./inp_files/467.got.cif
#   From: 2010.05.17/outbox.cif.g08.bks.cpg/sg9_1_cif.got.tgz:467.got - 2010.06.03 20:04:27.
