data_PCOD9138554
_publ_section_title
;
Structure prediction by ZEFSAII (Michael W. Deem and Ramdas Pophale) SiO2 
 PCOD9138554
Probable space group: C C
;
_chemical_formula_sum "Si O2"
_cell_formula_units_Z 32
_cell_length_a 14.075788
_cell_length_b 7.177870
_cell_length_c 26.151013
_cell_angle_alpha 90.000000
_cell_angle_beta 148.984504
_cell_angle_gamma 90.000000
_cell_volume 1361.418290
_symmetry_space_group_name_H-M "C C"
_symmetry_group_IT_number 9
_symmetry_cell_setting 'monoclinic'
loop_
_space_group_symop_operation_xyz
x,y,z
x,-y,1/2+z
1/2+x,1/2+y,z
1/2+x,1/2-y,1/2+z
loop_
_atom_site_type_symbol
_atom_site_label
_atom_site_fract_x
_atom_site_fract_y
_atom_site_fract_z
Si Si1 0.370460 0.811003 0.718030
Si Si2 0.265888 0.059132 0.377653
Si Si3 0.352811 0.606915 0.186668
Si Si4 0.239987 0.382506 0.843233
Si Si5 0.952977 0.388211 0.863476
Si Si6 0.845103 0.995030 0.574522
Si Si7 0.958210 0.144366 0.019964
Si Si8 0.217538 0.235062 0.726825
O O1 0.338906 0.616761 0.675830
O O2 0.530814 0.923383 0.764318
O O3 0.437712 0.764048 0.806334
O O4 0.171519 0.902811 0.626478
O O5 0.308258 0.145779 0.341544
O O6 0.418906 0.144570 0.484846
O O7 0.065658 0.130376 0.301388
O O8 0.271722 0.835905 0.374087
O O9 0.333085 0.647110 0.117088
O O10 0.225116 0.684599 0.172892
O O11 0.252197 0.386042 0.787665
O O12 0.374198 0.510671 0.937875
O O13 0.885537 0.588330 0.810393
O O14 0.153896 0.392844 0.980878
O O15 0.026904 0.129231 0.655543
O O16 0.859259 0.885521 0.527914
#
# Coordination Sequence:
#
# PCOD9138554 Si02
#       8
#     4   4   4   4   4   4   4   4
#     4  11  22  44  68 102 140 186 238 300 362 436
#     4  10  23  44  72 103 143 183 237 305 369 435
#     4  11  24  46  71 102 147 189 241 307 370 450
#     4  10  24  48  70 105 146 187 244 306 368 441
#     4  11  22  44  73  95 145 186 230 309 365 427
#     4  12  23  44  71 102 144 190 240 302 374 436
#     4  12  24  41  77 105 136 195 244 289 382 444
#     4  11  24  47  72 104 145 194 244 306 376 443
#
# _framework density 23.504899000000002
#
# number of rings (size 3 to 8) (size 9 to 14) (size 15 to 20)
#    0.000    1.000    6.250    1.500    1.750    3.000 
#    0.000    0.000    2.750    0.000    0.000    0.000 
#    0.000    0.000    0.000    0.000    0.000    0.000 
#
# Total GULP energy -89395.591856 kJ/mol
# GULP energy per Si atom -5587.224491 kJ/mol
# Density = 2.345140 g / cm^3
# Si number density = 23.504899 Si / 1000 Ang^3
#
#
#
# Elastic Constant Matrix: (Units=GPa)
#
#
# Indices 1 2 3 4 5 6 
#
# 1 140.1639 20.1741 37.0735 0.0000 -14.5155 0.0000
# 2 20.1741 49.6360 16.5845 0.0000 -3.0917 0.0000
# 3 37.0735 16.5845 132.1489 0.0000 4.4956 0.0000
# 4 0.0000 0.0000 0.0000 32.4127 0.0000 -9.5507
# 5 -14.5155 -3.0917 4.4956 0.0000 41.6525 0.0000
# 6 0.0000 0.0000 0.0000 -9.5507 0.0000 30.0728
#
#
#
# Elastic Compliance Matrix: (Units=1/GPa)
#
#
# Indices 1 2 3 4 5 6 
#
# 1 0.008366 -0.002503 -0.002133 0.000000 0.002960 0.000000
# 2 -0.002503 0.021921 -0.002082 0.000000 0.000980 0.000000
# 3 -0.002133 -0.002082 0.008489 0.000000 -0.001814 0.000000
# 4 0.000000 0.000000 0.000000 0.034037 0.000000 0.010810
# 5 0.002960 0.000980 -0.001814 0.000000 0.025308 0.000000
# 6 0.000000 0.000000 0.000000 0.010810 0.000000 0.036686
#
#
# Mechanical properties :
#
#
# Convention : Reuss Voigt Hill
#
# Bulk Modulus (GPa) = 39.46658 52.17925 45.82292
# Shear Modulus (GPa) = 31.91030 37.36872 34.63951
#
# Velocity S-wave (km/s) = 3.68856 3.99159 3.84306
# Velocity P-wave (km/s) = 5.91337 6.59479 6.26335
#
# Compressibility (1/GPa) = 0.02533789
#
# Stress axis : x y z
#
# Youngs Moduli (GPa) = 119.53740 45.61909 117.80251
#
# Poissons Ratio (x) = 0.11418 0.25133
# Poissons Ratio (y) = 0.29919 0.24528
# Poissons Ratio (z) = 0.25503 0.09499
#
# Static dielectric constant tensor:
#      x y z
#    x 1.932010 0.000000 -0.007630 
#    y 0.000000 1.951540 0.000000 
#    z -0.007630 0.000000 1.864350 
# 
# From -- ./inp_files/25624.got.cif
#   From: 2010.05.17/outbox.cif.g08.bks.cpg/sg9_13_cif.got.tgz:25624.got - 2010.06.03 20:04:27.
