data_PCOD9138785
_publ_section_title
;
Structure prediction by ZEFSAII (Michael W. Deem and Ramdas Pophale) SiO2 
 PCOD9138785
Probable space group: C C
;
_chemical_formula_sum "Si O2"
_cell_formula_units_Z 28
_cell_length_a 11.255842
_cell_length_b 9.347067
_cell_length_c 20.008339
_cell_angle_alpha 90.000000
_cell_angle_beta 141.750410
_cell_angle_gamma 90.000000
_cell_volume 1303.217785
_symmetry_space_group_name_H-M "C C"
_symmetry_group_IT_number 9
_symmetry_cell_setting 'monoclinic'
loop_
_space_group_symop_operation_xyz
x,y,z
x,-y,1/2+z
1/2+x,1/2+y,z
1/2+x,1/2-y,1/2+z
loop_
_atom_site_type_symbol
_atom_site_label
_atom_site_fract_x
_atom_site_fract_y
_atom_site_fract_z
Si Si1 0.203050 0.213968 0.304630
Si Si2 0.325791 0.158999 0.592061
Si Si3 0.562129 0.819316 0.867973
Si Si4 0.131727 0.905661 0.290773
Si Si5 0.730313 0.281359 0.194848
Si Si6 0.880468 0.603473 0.021748
Si Si7 0.158654 0.649948 0.912499
O O1 0.374051 0.180028 0.330172
O O2 0.283402 0.284732 0.407461
O O3 0.050983 0.322618 0.205982
O O4 0.079584 0.072049 0.268092
O O5 0.226409 0.142604 0.620544
O O6 0.247962 0.301069 0.521348
O O7 0.305125 0.029227 0.531368
O O8 0.525993 0.719268 0.786194
O O9 0.622860 0.982907 0.884171
O O10 0.744175 0.737691 0.980791
O O11 0.143891 0.865205 0.219324
O O12 0.333364 0.912481 0.421886
O O13 0.601306 0.140145 0.131220
O O14 0.952470 0.272153 0.313389
#
# Coordination Sequence:
#
# PCOD9138785 Si02
#       7
#     4   4   4   4   4   4   4
#     4  11  24  45  69 103 141 183 230 298 346 426
#     4  11  26  43  72 107 137 192 239 287 358 419
#     4  10  25  45  71  97 139 183 228 295 350 416
#     4  10  23  47  68 102 146 177 234 294 351 411
#     4  11  24  41  75  99 143 184 236 284 355 422
#     4  10  25  46  68 105 140 186 234 290 356 413
#     4  11  23  45  69 103 140 181 239 294 350 411
#
# _framework density 21.485282000000002
#
# number of rings (size 3 to 8) (size 9 to 14) (size 15 to 20)
#    0.857    0.571    2.857    0.857    6.000    4.571 
#    2.571    0.000    0.000    0.000    0.000    0.000 
#    0.000    0.000    0.000    0.000    0.000    0.000 
#
# Total GULP energy -78003.672142 kJ/mol
# GULP energy per Si atom -5571.690867 kJ/mol
# Density = 2.143638 g / cm^3
# Si number density = 21.485282 Si / 1000 Ang^3
#
#
#
# Elastic Constant Matrix: (Units=GPa)
#
#
# Indices 1 2 3 4 5 6 
#
# 1 102.1402 69.2380 17.9575 0.0000 -29.7159 0.0000
# 2 69.2380 103.4413 18.3595 0.0000 -16.6527 0.0000
# 3 17.9575 18.3595 65.5848 0.0000 -20.9450 0.0000
# 4 0.0000 0.0000 0.0000 30.2267 0.0000 -6.7612
# 5 -29.7159 -16.6527 -20.9450 0.0000 32.5250 0.0000
# 6 0.0000 0.0000 0.0000 -6.7612 0.0000 17.4914
#
#
#
# Elastic Compliance Matrix: (Units=1/GPa)
#
#
# Indices 1 2 3 4 5 6 
#
# 1 0.022910 -0.013238 0.002458 0.000000 0.015737 0.000000
# 2 -0.013238 0.018310 -0.002983 0.000000 -0.004641 0.000000
# 3 0.002458 -0.002983 0.019688 0.000000 0.013397 0.000000
# 4 0.000000 0.000000 0.000000 0.036215 0.000000 0.013999
# 5 0.015737 -0.004641 0.013397 0.000000 0.051375 0.000000
# 6 0.000000 0.000000 0.000000 0.013999 0.000000 0.062582
#
#
# Mechanical properties :
#
#
# Convention : Reuss Voigt Hill
#
# Bulk Modulus (GPa) = 29.95492 53.58626 41.77059
# Shear Modulus (GPa) = 20.02149 27.08937 23.55543
#
# Velocity S-wave (km/s) = 3.05597 3.55467 3.31471
# Velocity P-wave (km/s) = 5.14045 6.46859 5.84238
#
# Compressibility (1/GPa) = 0.03338350
#
# Stress axis : x y z
#
# Youngs Moduli (GPa) = 43.64909 54.61421 50.79281
#
# Poissons Ratio (x) = 0.72296 -0.12487
# Poissons Ratio (y) = 0.57781 0.15152
# Poissons Ratio (z) = -0.10731 0.16292
#
# Static dielectric constant tensor:
#      x y z
#    x 1.802870 0.000000 -0.016940 
#    y 0.000000 1.804690 0.000000 
#    z -0.016940 0.000000 1.778490 
# 
# From -- ./inp_files/33194.got.cif
#   From: 2010.05.17/outbox.cif.g08.bks.cpg/sg9_17_cif.got.tgz:33194.got - 2010.06.03 20:04:27.
