data_PCOD9138985
_publ_section_title
;
Structure prediction by ZEFSAII (Michael W. Deem and Ramdas Pophale) SiO2 
 PCOD9138985
Probable space group: C C
;
_chemical_formula_sum "Si O2"
_cell_formula_units_Z 32
_cell_length_a 11.700578
_cell_length_b 9.525212
_cell_length_c 16.800015
_cell_angle_alpha 90.000000
_cell_angle_beta 139.098269
_cell_angle_gamma 90.000000
_cell_volume 1225.959706
_symmetry_space_group_name_H-M "C C"
_symmetry_group_IT_number 9
_symmetry_cell_setting 'monoclinic'
loop_
_space_group_symop_operation_xyz
x,y,z
x,-y,1/2+z
1/2+x,1/2+y,z
1/2+x,1/2-y,1/2+z
loop_
_atom_site_type_symbol
_atom_site_label
_atom_site_fract_x
_atom_site_fract_y
_atom_site_fract_z
Si Si1 0.284040 0.964200 0.776510
Si Si2 0.517523 0.659803 0.708076
Si Si3 0.794141 0.136550 0.741897
Si Si4 0.126628 0.851529 0.985382
Si Si5 0.830849 0.174790 0.460565
Si Si6 0.300850 0.376949 0.412500
Si Si7 0.927910 0.708747 0.741029
Si Si8 0.413207 0.920612 0.021346
O O1 0.280714 0.806630 0.741971
O O2 0.379263 0.971247 0.912942
O O3 0.098584 0.028634 0.703384
O O4 0.362622 0.067263 0.751282
O O5 0.398782 0.609762 0.717385
O O6 0.678055 0.746109 0.832119
O O7 0.401653 0.739250 0.580262
O O8 0.890848 0.095963 0.874641
O O9 0.613501 0.051214 0.645594
O O10 0.274299 0.747127 0.101625
O O11 0.263541 0.953640 0.008610
O O12 0.998168 0.851819 0.993255
O O13 0.993929 0.806521 0.846315
O O14 0.765414 0.016772 0.442492
O O15 0.396457 0.248929 0.503762
O O16 0.107789 0.319001 0.289801
#
# Coordination Sequence:
#
# PCOD9138985 Si02
#       8
#     4   4   4   4   4   4   4   4
#     4  11  24  47  68 104 146 195 238 303 365 440
#     4  12  28  46  75 107 152 194 242 309 375 446
#     4  11  25  47  70 104 147 193 252 297 373 444
#     4  11  22  45  72 101 139 180 243 292 364 435
#     4  12  25  49  68 110 140 190 245 301 373 442
#     4  10  24  43  71  99 140 193 241 299 366 437
#     4  11  22  46  70 103 142 188 233 306 360 435
#     4  10  24  43  68 102 138 191 242 297 366 439
#
# _framework density 26.102001000000001
#
# number of rings (size 3 to 8) (size 9 to 14) (size 15 to 20)
#    0.000    1.000    3.750    1.500    7.000    1.000 
#    4.500    0.000    0.000    0.000    0.000    0.000 
#    0.000    0.000    0.000    0.000    0.000    0.000 
#
# Total GULP energy -89364.391239 kJ/mol
# GULP energy per Si atom -5585.274452 kJ/mol
# Density = 2.604259 g / cm^3
# Si number density = 26.102001 Si / 1000 Ang^3
#
#
#
# Elastic Constant Matrix: (Units=GPa)
#
#
# Indices 1 2 3 4 5 6 
#
# 1 116.6198 -28.7848 22.5852 0.0000 -22.5360 0.0000
# 2 -28.7848 66.7531 9.4127 0.0000 -7.3201 0.0000
# 3 22.5852 9.4127 128.0034 0.0000 -17.9685 0.0000
# 4 0.0000 0.0000 0.0000 19.4390 0.0000 2.1063
# 5 -22.5360 -7.3201 -17.9685 0.0000 44.6633 0.0000
# 6 0.0000 0.0000 0.0000 2.1063 0.0000 18.9413
#
#
#
# Elastic Compliance Matrix: (Units=1/GPa)
#
#
# Indices 1 2 3 4 5 6 
#
# 1 0.011517 0.005864 -0.001603 0.000000 0.006127 0.000000
# 2 0.005864 0.018322 -0.001638 0.000000 0.005303 0.000000
# 3 -0.001603 -0.001638 0.008547 0.000000 0.002361 0.000000
# 4 0.000000 0.000000 0.000000 0.052070 0.000000 -0.005790
# 5 0.006127 0.005303 0.002361 0.000000 0.027300 0.000000
# 6 0.000000 0.000000 0.000000 -0.005790 0.000000 0.053438
#
#
# Mechanical properties :
#
#
# Convention : Reuss Voigt Hill
#
# Bulk Modulus (GPa) = 22.91874 35.31140 29.11507
# Shear Modulus (GPa) = 27.70204 37.15295 32.42749
#
# Velocity S-wave (km/s) = 3.26129 3.77686 3.52850
# Velocity P-wave (km/s) = 4.79384 5.70764 5.27058
#
# Compressibility (1/GPa) = 0.04363242
#
# Stress axis : x y z
#
# Youngs Moduli (GPa) = 86.82946 54.58010 116.99966
#
# Poissons Ratio (x) = -0.32007 0.18757
# Poissons Ratio (y) = -0.50918 0.19160
# Poissons Ratio (z) = 0.13920 0.08938
#
# Static dielectric constant tensor:
#      x y z
#    x 2.063810 0.000000 -0.010230 
#    y 0.000000 2.138400 0.000000 
#    z -0.010230 0.000000 2.110020 
# 
# From -- ./inp_files/16156.got.cif
#   From: 2010.05.17/outbox.cif.g08.bks.cpg/sg9_9_cif.got.tgz:16156.got - 2010.06.03 20:04:27.
