data_PCOD9138889
_publ_section_title
;
Structure prediction by ZEFSAII (Michael W. Deem and Ramdas Pophale) SiO2 
 PCOD9138889
Probable space group: C C
;
_chemical_formula_sum "Si O2"
_cell_formula_units_Z 28
_cell_length_a 27.172358
_cell_length_b 5.253484
_cell_length_c 8.786205
_cell_angle_alpha 90.000000
_cell_angle_beta 72.459832
_cell_angle_gamma 90.000000
_cell_volume 1195.912649
_symmetry_space_group_name_H-M "C C"
_symmetry_group_IT_number 9
_symmetry_cell_setting 'monoclinic'
loop_
_space_group_symop_operation_xyz
x,y,z
x,-y,1/2+z
1/2+x,1/2+y,z
1/2+x,1/2-y,1/2+z
loop_
_atom_site_type_symbol
_atom_site_label
_atom_site_fract_x
_atom_site_fract_y
_atom_site_fract_z
Si Si1 0.412830 0.397171 0.326930
Si Si2 0.705654 0.237658 0.003088
Si Si3 0.318780 0.772431 0.759705
Si Si4 0.373882 0.890929 0.428019
Si Si5 0.014055 0.250600 0.551437
Si Si6 0.668222 0.260503 0.371152
Si Si7 0.052695 0.252185 0.850109
O O1 0.359586 0.432138 0.282940
O O2 0.418298 0.678548 0.386733
O O3 0.458341 0.302114 0.177861
O O4 0.399942 0.162325 0.450531
O O5 0.704608 0.254953 0.187007
O O6 0.763162 0.241101 0.880784
O O7 0.676889 0.480508 0.956554
O O8 0.680051 0.976941 0.969155
O O9 0.326661 0.793484 0.574519
O O10 0.346838 0.023482 0.798241
O O11 0.021980 0.510476 0.451581
O O12 0.028915 0.011844 0.432494
O O13 0.049919 0.261775 0.669950
O O14 0.610909 0.238521 0.357248
#
# Coordination Sequence:
#
# PCOD9138889 Si02
#       7
#     4   4   4   4   4   4   4
#     4  10  26  40  69  97 142 169 227 268 337 405
#     4  12  27  44  76 102 140 184 232 283 357 414
#     4  10  26  41  70  96 143 167 230 264 343 399
#     4  10  24  39  65  93 141 176 211 275 319 398
#     4  12  27  44  76 102 139 185 233 281 360 406
#     4  12  26  47  71 103 138 182 236 293 347 407
#     4  12  26  47  71 103 139 181 237 294 343 413
#
# _framework density 23.413080000000001
#
# number of rings (size 3 to 8) (size 9 to 14) (size 15 to 20)
#    0.857    0.000    0.000    6.000   10.000    0.000 
#    0.000    0.000    0.000    0.000    0.000    0.000 
#    0.000    0.000    0.000    0.000    0.000    0.000 
#
# Total GULP energy -78266.945081 kJ/mol
# GULP energy per Si atom -5590.496077 kJ/mol
# Density = 2.335979 g / cm^3
# Si number density = 23.413080 Si / 1000 Ang^3
#
#
#
# Elastic Constant Matrix: (Units=GPa)
#
#
# Indices 1 2 3 4 5 6 
#
# 1 57.2062 13.5370 -26.3295 0.0000 -16.2274 0.0000
# 2 13.5370 120.6406 -13.6570 0.0000 3.3314 0.0000
# 3 -26.3295 -13.6570 53.2757 0.0000 2.1571 0.0000
# 4 0.0000 0.0000 0.0000 21.2228 0.0000 0.3409
# 5 -16.2274 3.3314 2.1571 0.0000 43.3534 0.0000
# 6 0.0000 0.0000 0.0000 0.3409 0.0000 -17.0280
#
#
#
# Elastic Compliance Matrix: (Units=1/GPa)
#
#
# Indices 1 2 3 4 5 6 
#
# 1 0.026101 -0.001821 0.012056 0.000000 0.009310 0.000000
# 2 -0.001821 0.008689 0.001385 0.000000 -0.001418 0.000000
# 3 0.012056 0.001385 0.024955 0.000000 0.003164 0.000000
# 4 0.000000 0.000000 0.000000 0.047104 0.000000 0.000943
# 5 0.009310 -0.001418 0.003164 0.000000 0.026502 0.000000
# 6 0.000000 0.000000 0.000000 0.000943 0.000000 -0.058708
#
#
# Mechanical properties :
#
#
# Convention : Reuss Voigt Hill
#
# Bulk Modulus (GPa) = 12.05043 19.80263 15.92653
# Shear Modulus (GPa) = 63.23765 26.68112 44.95938
#
# Velocity S-wave (km/s) = 5.20271 3.37943 4.38684
# Velocity P-wave (km/s) = 6.42253 4.86864 5.69880
#
# Compressibility (1/GPa) = 0.08298461
#
# Stress axis : x y z
#
# Youngs Moduli (GPa) = 38.31252 115.08315 40.07180
#
# Poissons Ratio (x) = 0.20958 -0.48309
# Poissons Ratio (y) = 0.06977 -0.05549
# Poissons Ratio (z) = -0.46188 -0.15938
#
# Static dielectric constant tensor:
#      x y z
#    x 1.935090 0.000000 0.008040 
#    y 0.000000 2.593770 0.000000 
#    z 0.008040 0.000000 1.877440 
# 
# From -- ./inp_files/12612.got.cif
#   From: 2010.05.17/outbox.cif.g08.bks.cpg/sg9_7_cif.got.tgz:12612.got - 2010.06.03 20:04:27.
