data_PCOD9138718
_publ_section_title
;
Structure prediction by ZEFSAII (Michael W. Deem and Ramdas Pophale) SiO2 
 PCOD9138718
Probable space group: C C
;
_chemical_formula_sum "Si O2"
_cell_formula_units_Z 28
_cell_length_a 4.796918
_cell_length_b 27.274035
_cell_length_c 7.310545
_cell_angle_alpha 90.000000
_cell_angle_beta 79.474039
_cell_angle_gamma 90.000000
_cell_volume 940.353290
_symmetry_space_group_name_H-M "C C"
_symmetry_group_IT_number 9
_symmetry_cell_setting 'monoclinic'
loop_
_space_group_symop_operation_xyz
x,y,z
x,-y,1/2+z
1/2+x,1/2+y,z
1/2+x,1/2-y,1/2+z
loop_
_atom_site_type_symbol
_atom_site_label
_atom_site_fract_x
_atom_site_fract_y
_atom_site_fract_z
Si Si1 0.183720 0.345159 0.185050
Si Si2 0.657427 0.589410 0.771236
Si Si3 0.631823 0.704283 0.151879
Si Si4 0.117669 0.764301 0.052836
Si Si5 0.529301 0.525399 0.428649
Si Si6 0.984240 0.547916 0.076511
Si Si7 0.768326 0.119774 0.272003
O O1 0.386945 0.297567 0.189584
O O2 0.346215 0.387916 0.277682
O O3 0.860861 0.362993 0.240833
O O4 0.201115 0.349383 0.960226
O O5 0.654490 0.553701 0.592533
O O6 0.270154 0.515093 0.996668
O O7 0.773058 0.558566 0.931178
O O8 0.923670 0.717621 0.019716
O O9 0.702206 0.707698 0.359358
O O10 0.494945 0.651972 0.137079
O O11 0.388716 0.743811 0.125986
O O12 0.361584 0.568528 0.345145
O O13 0.798500 0.523052 0.257998
O O14 0.042193 0.601532 0.155339
#
# Coordination Sequence:
#
# PCOD9138718 Si02
#       7
#     4   4   4   4   4   4   4
#     4  10  23  46  69 102 146 187 234 294 354 419
#     4  11  24  43  72 102 143 190 235 290 356 421
#     4  11  25  45  72 105 147 189 238 296 357 424
#     4  11  24  44  72 105 145 191 236 297 352 425
#     4  11  25  46  66 103 141 184 237 297 355 423
#     4  12  25  44  72 100 137 189 239 293 358 428
#     4  10  26  44  71  99 147 186 235 297 358 418
#
# _framework density 29.776046000000001
#
# number of rings (size 3 to 8) (size 9 to 14) (size 15 to 20)
#    0.000    1.143    2.857    1.714    4.000    8.000 
#    0.000    0.000    0.000    0.000    0.000    0.000 
#    0.000    0.000    0.000    0.000    0.000    0.000 
#
# Total GULP energy -78299.983455 kJ/mol
# GULP energy per Si atom -5592.855961 kJ/mol
# Density = 2.970827 g / cm^3
# Si number density = 29.776046 Si / 1000 Ang^3
#
#
#
# Elastic Constant Matrix: (Units=GPa)
#
#
# Indices 1 2 3 4 5 6 
#
# 1 220.1415 41.2873 60.2216 0.0000 29.5918 0.0000
# 2 41.2873 93.0301 20.1204 0.0000 25.1978 0.0000
# 3 60.2216 20.1204 164.4742 0.0000 30.4219 0.0000
# 4 0.0000 0.0000 0.0000 43.3972 0.0000 22.6563
# 5 29.5918 25.1978 30.4219 0.0000 49.5446 0.0000
# 6 0.0000 0.0000 0.0000 22.6563 0.0000 57.3771
#
#
#
# Elastic Compliance Matrix: (Units=1/GPa)
#
#
# Indices 1 2 3 4 5 6 
#
# 1 0.005477 -0.001703 -0.001525 0.000000 -0.001468 0.000000
# 2 -0.001703 0.013019 0.000076 0.000000 -0.005651 0.000000
# 3 -0.001525 0.000076 0.007297 0.000000 -0.003608 0.000000
# 4 0.000000 0.000000 0.000000 0.029027 0.000000 -0.011462
# 5 -0.001468 -0.005651 -0.003608 0.000000 0.026150 0.000000
# 6 0.000000 0.000000 0.000000 -0.011462 0.000000 0.021954
#
#
# Mechanical properties :
#
#
# Convention : Reuss Voigt Hill
#
# Bulk Modulus (GPa) = 51.31385 80.10047 65.70716
# Shear Modulus (GPa) = 43.20635 53.79823 48.50229
#
# Velocity S-wave (km/s) = 3.81339 4.25521 4.04035
# Velocity P-wave (km/s) = 6.05474 7.14855 6.62426
#
# Compressibility (1/GPa) = 0.01948791
#
# Stress axis : x y z
#
# Youngs Moduli (GPa) = 182.59665 76.81015 137.05199
#
# Poissons Ratio (x) = 0.13080 0.20905
# Poissons Ratio (y) = 0.31095 -0.01043
# Poissons Ratio (z) = 0.27852 -0.00585
#
# Static dielectric constant tensor:
#      x y z
#    x 2.305500 0.000000 -0.031760 
#    y 0.000000 2.678970 0.000000 
#    z -0.031760 0.000000 2.311960 
# 
# From -- ./inp_files/4246.got.cif
#   From: 2010.05.17/outbox.cif.g08.bks.cpg/sg9_3_cif.got.tgz:4246.got - 2010.06.03 20:04:27.
