data_PCOD9138771
_publ_section_title
;
Structure prediction by ZEFSAII (Michael W. Deem and Ramdas Pophale) SiO2 
 PCOD9138771
Probable space group: C C
;
_chemical_formula_sum "Si O2"
_cell_formula_units_Z 28
_cell_length_a 13.502373
_cell_length_b 9.492492
_cell_length_c 13.834766
_cell_angle_alpha 90.000000
_cell_angle_beta 39.403789
_cell_angle_gamma 90.000000
_cell_volume 1125.606254
_symmetry_space_group_name_H-M "C C"
_symmetry_group_IT_number 9
_symmetry_cell_setting 'monoclinic'
loop_
_space_group_symop_operation_xyz
x,y,z
x,-y,1/2+z
1/2+x,1/2+y,z
1/2+x,1/2-y,1/2+z
loop_
_atom_site_type_symbol
_atom_site_label
_atom_site_fract_x
_atom_site_fract_y
_atom_site_fract_z
Si Si1 0.284530 0.685082 0.326230
Si Si2 0.247600 0.155457 0.039441
Si Si3 0.964219 0.406594 0.072588
Si Si4 0.835270 0.629503 0.466227
Si Si5 0.076369 0.656816 0.128508
Si Si6 0.892823 0.893490 0.161231
Si Si7 0.568156 0.266564 0.857410
O O1 0.250458 0.712362 0.464937
O O2 0.381654 0.816808 0.217310
O O3 0.369176 0.545988 0.224474
O O4 0.110494 0.675882 0.416826
O O5 0.114662 0.170053 0.219219
O O6 0.419007 0.166567 0.958266
O O7 0.237569 0.003346 0.997505
O O8 0.037800 0.542040 0.073404
O O9 0.844220 0.404234 0.073654
O O10 0.748628 0.778033 0.512096
O O11 0.000526 0.614134 0.287339
O O12 0.973797 0.788990 0.173860
O O13 0.722418 0.822381 0.269220
O O14 0.004852 0.881031 0.982123
#
# Coordination Sequence:
#
# PCOD9138771 Si02
#       7
#     4   4   4   4   4   4   4
#     4  12  26  46  76 112 159 200 259 336 410 465
#     4  11  24  45  74 113 154 204 259 326 401 488
#     4  12  27  51  77 114 160 208 264 341 401 491
#     4  12  27  48  79 109 154 210 265 324 408 484
#     4  12  27  50  76 112 160 205 270 333 397 488
#     4  11  24  46  77 111 154 208 259 332 401 482
#     4  10  23  46  75 113 157 207 266 320 408 490
#
# _framework density 24.875484
#
# number of rings (size 3 to 8) (size 9 to 14) (size 15 to 20)
#    0.000    0.571    1.429    6.857    4.000    3.429 
#    5.143    0.000    0.000    0.000    0.000    0.000 
#    0.000    0.000    0.000    0.000    0.000    0.000 
#
# Total GULP energy -78254.687816 kJ/mol
# GULP energy per Si atom -5589.620558 kJ/mol
# Density = 2.481887 g / cm^3
# Si number density = 24.875484 Si / 1000 Ang^3
#
#
#
# Elastic Constant Matrix: (Units=GPa)
#
#
# Indices 1 2 3 4 5 6 
#
# 1 83.5454 23.9589 25.5382 0.0000 4.8784 0.0000
# 2 23.9589 112.8339 56.2677 0.0000 10.9966 0.0000
# 3 25.5382 56.2677 194.2016 0.0000 23.2135 0.0000
# 4 0.0000 0.0000 0.0000 27.0250 0.0000 -0.7438
# 5 4.8784 10.9966 23.2135 0.0000 44.7585 0.0000
# 6 0.0000 0.0000 0.0000 -0.7438 0.0000 20.5659
#
#
#
# Elastic Compliance Matrix: (Units=1/GPa)
#
#
# Indices 1 2 3 4 5 6 
#
# 1 0.012934 -0.002204 -0.001022 0.000000 -0.000338 0.000000
# 2 -0.002204 0.010782 -0.002714 0.000000 -0.001001 0.000000
# 3 -0.001022 -0.002714 0.006372 0.000000 -0.002527 0.000000
# 4 0.000000 0.000000 0.000000 0.037040 0.000000 0.001340
# 5 -0.000338 -0.001001 -0.002527 0.000000 0.023935 0.000000
# 6 0.000000 0.000000 0.000000 0.001340 0.000000 0.048673
#
#
# Mechanical properties :
#
#
# Convention : Reuss Voigt Hill
#
# Bulk Modulus (GPa) = 54.92276 66.90117 60.91196
# Shear Modulus (GPa) = 31.70892 37.45761 34.58326
#
# Velocity S-wave (km/s) = 3.57418 3.88468 3.73266
# Velocity P-wave (km/s) = 6.25779 6.86103 6.56634
#
# Compressibility (1/GPa) = 0.01820739
#
# Stress axis : x y z
#
# Youngs Moduli (GPa) = 77.31774 92.74975 156.93288
#
# Poissons Ratio (x) = 0.20440 0.16037
# Poissons Ratio (y) = 0.17039 0.42598
# Poissons Ratio (z) = 0.07901 0.25176
#
# Static dielectric constant tensor:
#      x y z
#    x 2.090620 0.000000 0.003260 
#    y 0.000000 2.010770 0.000000 
#    z 0.003260 0.000000 1.982030 
# 
# From -- ./inp_files/25644.got.cif
#   From: 2010.05.17/outbox.cif.g08.bks.cpg/sg9_13_cif.got.tgz:25644.got - 2010.06.03 20:04:27.
