data_PCOD9138885
_publ_section_title
;
Structure prediction by ZEFSAII (Michael W. Deem and Ramdas Pophale) SiO2 
 PCOD9138885
Probable space group: C C
;
_chemical_formula_sum "Si O2"
_cell_formula_units_Z 32
_cell_length_a 8.683253
_cell_length_b 19.961848
_cell_length_c 14.949956
_cell_angle_alpha 90.000000
_cell_angle_beta 32.414533
_cell_angle_gamma 90.000000
_cell_volume 1389.060220
_symmetry_space_group_name_H-M "C C"
_symmetry_group_IT_number 9
_symmetry_cell_setting 'monoclinic'
loop_
_space_group_symop_operation_xyz
x,y,z
x,-y,1/2+z
1/2+x,1/2+y,z
1/2+x,1/2-y,1/2+z
loop_
_atom_site_type_symbol
_atom_site_label
_atom_site_fract_x
_atom_site_fract_y
_atom_site_fract_z
Si Si1 0.471750 0.150086 0.914720
Si Si2 0.590344 0.214882 0.569446
Si Si3 0.612520 0.151582 0.044622
Si Si4 0.108000 0.379234 0.739866
Si Si5 0.482372 0.537498 0.179383
Si Si6 0.471967 0.413030 0.068369
Si Si7 0.531819 0.242001 0.396089
Si Si8 0.983025 0.086406 0.373103
O O1 0.702385 0.133018 0.725105
O O2 0.296131 0.220657 0.992616
O O3 0.656565 0.145943 0.916601
O O4 0.238352 0.089816 0.031783
O O5 0.494351 0.213824 0.512559
O O6 0.770167 0.147813 0.488652
O O7 0.302074 0.207782 0.769382
O O8 0.726857 0.116465 0.080723
O O9 0.286239 0.124481 0.209058
O O10 0.739803 0.225390 0.003423
O O11 0.180760 0.311581 0.756978
O O12 0.215364 0.437913 0.750547
O O13 0.764806 0.373334 0.908773
O O14 0.533836 0.463520 0.118933
O O15 0.425621 0.543166 0.312857
O O16 0.452020 0.451544 0.982727
#
# Coordination Sequence:
#
# PCOD9138885 Si02
#       8
#     4   4   4   4   4   4   4   4
#     4  11  24  42  65 102 133 178 221 277 339 394
#     4  12  23  40  66  96 139 171 215 272 341 402
#     4  10  24  39  62  96 135 168 211 272 330 394
#     4  11  23  42  62  94 129 172 225 271 324 392
#     4  11  22  48  64  91 135 178 225 277 331 392
#     4  11  26  40  70  95 129 179 231 276 328 396
#     4  12  22  39  62  96 131 176 206 267 334 399
#     4  10  24  44  67  98 133 174 220 280 335 393
#
# _framework density 23.037158000000002
#
# number of rings (size 3 to 8) (size 9 to 14) (size 15 to 20)
#    0.000    1.000    3.750    2.250    7.000    1.000 
#    0.000    3.750    0.000    0.000    0.000    0.000 
#    0.000    0.000    0.000    0.000    0.000    0.000 
#
# Total GULP energy -89133.601307 kJ/mol
# GULP energy per Si atom -5570.850082 kJ/mol
# Density = 2.298472 g / cm^3
# Si number density = 23.037158 Si / 1000 Ang^3
#
#
#
# Elastic Constant Matrix: (Units=GPa)
#
#
# Indices 1 2 3 4 5 6 
#
# 1 103.2115 13.9684 37.0878 -0.0018 32.1826 -0.0029
# 2 13.9684 50.7351 -0.8290 -0.0022 4.1457 -0.0016
# 3 37.0878 -0.8290 65.3304 -0.0188 20.9143 0.0002
# 4 -0.0018 -0.0022 -0.0188 20.8019 0.0008 7.1388
# 5 32.1826 4.1457 20.9143 0.0008 26.7834 -0.0004
# 6 -0.0029 -0.0016 0.0002 7.1388 -0.0004 20.9477
#
#
#
# Elastic Compliance Matrix: (Units=1/GPa)
#
#
# Indices 1 2 3 4 5 6 
#
# 1 0.016772 -0.003364 -0.004372 -0.000003 -0.016219 0.000003
# 2 -0.003364 0.020773 0.002545 0.000004 -0.001160 0.000000
# 3 -0.004372 0.002545 0.021687 0.000023 -0.012075 -0.000009
# 4 -0.000003 0.000004 0.000023 0.054440 -0.000017 -0.018553
# 5 -0.016219 -0.001160 -0.012075 -0.000017 0.066433 0.000005
# 6 0.000003 0.000000 -0.000009 -0.018553 0.000005 0.054061
#
#
# Mechanical properties :
#
#
# Convention : Reuss Voigt Hill
#
# Bulk Modulus (GPa) = 20.47122 35.52571 27.99847
# Shear Modulus (GPa) = 19.16951 24.97657 22.07304
#
# Velocity S-wave (km/s) = 2.88777 3.29627 3.09876
# Velocity P-wave (km/s) = 4.47486 5.47190 4.99831
#
# Compressibility (1/GPa) = 0.04884906
#
# Stress axis : x y z
#
# Youngs Moduli (GPa) = 59.62182 48.13994 46.11122
#
# Poissons Ratio (x) = 0.16194 0.20161
# Poissons Ratio (y) = 0.20056 -0.11734
# Poissons Ratio (z) = 0.26068 -0.12251
#
# Static dielectric constant tensor:
#      x y z
#    x 1.989000 -0.000010 -0.007560 
#    y -0.000010 2.038960 0.000000 
#    z -0.007560 0.000000 1.859070 
# 
# From -- ./inp_files/23848.got.cif
#   From: 2010.05.17/outbox.cif.g08.bks.cpg/sg9_12_cif.got.tgz:23848.got - 2010.06.03 20:04:27.
