data_PCOD9138441
_publ_section_title
;
Structure prediction by ZEFSAII (Michael W. Deem and Ramdas Pophale) SiO2 
 PCOD9138441
Probable space group: C C
;
_chemical_formula_sum "Si O2"
_cell_formula_units_Z 32
_cell_length_a 5.885707
_cell_length_b 25.445226
_cell_length_c 9.472034
_cell_angle_alpha 90.000000
_cell_angle_beta 114.692073
_cell_angle_gamma 90.000000
_cell_volume 1288.856812
_symmetry_space_group_name_H-M "C C"
_symmetry_group_IT_number 9
_symmetry_cell_setting 'monoclinic'
loop_
_space_group_symop_operation_xyz
x,y,z
x,-y,1/2+z
1/2+x,1/2+y,z
1/2+x,1/2-y,1/2+z
loop_
_atom_site_type_symbol
_atom_site_label
_atom_site_fract_x
_atom_site_fract_y
_atom_site_fract_z
Si Si1 0.268850 0.773936 0.918990
Si Si2 0.266312 0.602098 0.635307
Si Si3 0.148051 0.976625 0.321163
Si Si4 0.923280 0.490830 0.129198
Si Si5 0.808662 0.933432 0.835507
Si Si6 0.475049 0.821768 0.226251
Si Si7 0.139180 0.186480 0.088511
Si Si8 0.095104 0.636668 0.028186
O O1 0.053134 0.730415 0.833378
O O2 0.254683 0.808810 0.775841
O O3 0.253272 0.806082 0.061715
O O4 0.528513 0.741664 0.000969
O O5 0.032657 0.562660 0.597585
O O6 0.327914 0.597866 0.486123
O O7 0.192599 0.658153 0.676823
O O8 0.468428 0.572995 0.785852
O O9 0.185789 0.982722 0.165339
O O10 0.045921 0.033225 0.345263
O O11 0.374937 0.969710 0.487350
O O12 0.108737 0.518706 0.288484
O O13 0.706386 0.897895 0.683830
O O14 0.458872 0.868265 0.337864
O O15 0.871113 0.157101 0.041548
O O16 0.364903 0.166405 0.049661
#
# Coordination Sequence:
#
# PCOD9138441 Si02
#       8
#     4   4   4   4   4   4   4   4
#     4   9  21  46  73  98 135 180 230 294 369 423
#     4  11  24  43  63 103 133 179 240 280 347 417
#     4  11  24  42  66  98 140 190 226 285 343 412
#     4  11  24  42  67  95 142 188 228 282 346 409
#     4  11  25  41  67  98 143 186 237 286 342 413
#     4  10  23  43  71 101 137 179 235 298 356 434
#     4  10  23  44  68 101 136 179 231 291 355 426
#     4  11  26  43  69 106 140 183 237 288 352 420
#
# _framework density 24.828203999999999
#
# number of rings (size 3 to 8) (size 9 to 14) (size 15 to 20)
#    0.000    1.500    2.500    0.750    5.250    6.000 
#    0.000    2.500    0.000    0.000    0.000    0.000 
#    0.000    0.000    0.000    0.000    0.000    0.000 
#
# Total GULP energy -89116.885935 kJ/mol
# GULP energy per Si atom -5569.805371 kJ/mol
# Density = 2.477169 g / cm^3
# Si number density = 24.828204 Si / 1000 Ang^3
#
#
#
# Elastic Constant Matrix: (Units=GPa)
#
#
# Indices 1 2 3 4 5 6 
#
# 1 87.7562 28.0379 40.8023 0.0000 -11.2189 0.0000
# 2 28.0379 34.1757 26.6205 0.0000 -8.7751 0.0000
# 3 40.8023 26.6205 187.8591 0.0000 -12.1957 0.0000
# 4 0.0000 0.0000 0.0000 47.4669 0.0000 1.9217
# 5 -11.2189 -8.7751 -12.1957 0.0000 33.0561 0.0000
# 6 0.0000 0.0000 0.0000 1.9217 0.0000 20.9008
#
#
#
# Elastic Compliance Matrix: (Units=1/GPa)
#
#
# Indices 1 2 3 4 5 6 
#
# 1 0.016071 -0.011350 -0.001766 0.000000 0.001790 0.000000
# 2 -0.011350 0.042660 -0.003171 0.000000 0.006303 0.000000
# 3 -0.001766 -0.003171 0.006211 0.000000 0.000850 0.000000
# 4 0.000000 0.000000 0.000000 0.021146 0.000000 -0.001944
# 5 0.001790 0.006303 0.000850 0.000000 0.032846 0.000000
# 6 0.000000 0.000000 0.000000 -0.001944 0.000000 0.048024
#
#
# Mechanical properties :
#
#
# Convention : Reuss Voigt Hill
#
# Bulk Modulus (GPa) = 30.89344 55.63473 43.26409
# Shear Modulus (GPa) = 23.77306 34.57344 29.17325
#
# Velocity S-wave (km/s) = 3.09771 3.73568 3.43155
# Velocity P-wave (km/s) = 5.02636 6.40809 5.75881
#
# Compressibility (1/GPa) = 0.03236933
#
# Stress axis : x y z
#
# Youngs Moduli (GPa) = 62.22221 23.44107 160.99767
#
# Poissons Ratio (x) = 0.26605 0.28434
# Poissons Ratio (y) = 0.70621 0.51050
# Poissons Ratio (z) = 0.10989 0.07433
#
# Static dielectric constant tensor:
#      x y z
#    x 2.085270 0.000000 0.082660 
#    y 0.000000 2.076140 0.000000 
#    z 0.082660 0.000000 2.000640 
# 
# From -- ./inp_files/4412.got.cif
#   From: 2010.05.17/outbox.cif.g08.bks.cpg/sg9_3_cif.got.tgz:4412.got - 2010.06.03 20:04:27.
