data_PCOD9138468
_publ_section_title
;
Structure prediction by ZEFSAII (Michael W. Deem and Ramdas Pophale) SiO2 
 PCOD9138468
Probable space group: C C
;
_chemical_formula_sum "Si O2"
_cell_formula_units_Z 28
_cell_length_a 8.126278
_cell_length_b 11.703361
_cell_length_c 14.183244
_cell_angle_alpha 90.000000
_cell_angle_beta 127.644944
_cell_angle_gamma 90.000000
_cell_volume 1068.068892
_symmetry_space_group_name_H-M "C C"
_symmetry_group_IT_number 9
_symmetry_cell_setting 'monoclinic'
loop_
_space_group_symop_operation_xyz
x,y,z
x,-y,1/2+z
1/2+x,1/2+y,z
1/2+x,1/2-y,1/2+z
loop_
_atom_site_type_symbol
_atom_site_label
_atom_site_fract_x
_atom_site_fract_y
_atom_site_fract_z
Si Si1 0.366140 0.065827 0.821330
Si Si2 0.655991 0.638059 0.129787
Si Si3 0.227983 0.342691 0.045983
Si Si4 0.264451 0.914115 0.933157
Si Si5 0.796890 0.004374 0.412779
Si Si6 0.318114 0.772728 0.134558
Si Si7 0.307053 0.553397 0.207731
O O1 0.612573 0.060439 0.900908
O O2 0.311045 0.169871 0.735043
O O3 0.276608 0.954582 0.733669
O O4 0.294431 0.043252 0.903356
O O5 0.789280 0.722960 0.112341
O O6 0.525440 0.721836 0.154220
O O7 0.498851 0.569848 0.006173
O O8 0.317823 0.444553 0.143167
O O9 0.302551 0.373406 0.967424
O O10 0.973723 0.353324 0.964372
O O11 0.030782 0.894389 0.816057
O O12 0.258258 0.870514 0.038207
O O13 0.726826 0.012409 0.280403
O O14 0.196760 0.655473 0.113948
#
# Coordination Sequence:
#
# PCOD9138468 Si02
#       7
#     4   4   4   4   4   4   4
#     4  11  24  46  72 106 137 201 246 294 378 435
#     4  11  23  49  75 101 154 192 243 309 367 443
#     4  10  24  44  75 108 137 198 254 288 372 454
#     4  10  23  43  74 102 143 198 234 302 367 429
#     4  11  24  43  70 107 143 189 249 301 366 435
#     4  11  24  43  76 107 146 195 249 297 366 446
#     4  12  24  46  74 111 150 195 245 311 370 436
#
# _framework density 26.215537999999999
#
# number of rings (size 3 to 8) (size 9 to 14) (size 15 to 20)
#    0.000    1.143    2.857    2.571    4.000    3.429 
#   12.857    0.000    0.000    0.000    0.000    0.000 
#    0.000    0.000    0.000    0.000    0.000    0.000 
#
# Total GULP energy -78143.988607 kJ/mol
# GULP energy per Si atom -5581.713472 kJ/mol
# Density = 2.615587 g / cm^3
# Si number density = 26.215538 Si / 1000 Ang^3
#
#
#
# Elastic Constant Matrix: (Units=GPa)
#
#
# Indices 1 2 3 4 5 6 
#
# 1 71.0834 23.7233 35.0267 0.0000 -18.2269 0.0000
# 2 23.7233 131.2984 46.9193 0.0000 -4.4016 0.0000
# 3 35.0267 46.9193 90.6216 0.0000 -7.0837 0.0000
# 4 0.0000 0.0000 0.0000 32.7613 0.0000 -11.9789
# 5 -18.2269 -4.4016 -7.0837 0.0000 45.3652 0.0000
# 6 0.0000 0.0000 0.0000 -11.9789 0.0000 37.6623
#
#
#
# Elastic Compliance Matrix: (Units=1/GPa)
#
#
# Indices 1 2 3 4 5 6 
#
# 1 0.019258 -0.000960 -0.006427 0.000000 0.006641 0.000000
# 2 -0.000960 0.009394 -0.004507 0.000000 -0.000178 0.000000
# 3 -0.006427 -0.004507 0.015809 0.000000 -0.000551 0.000000
# 4 0.000000 0.000000 0.000000 0.034541 0.000000 0.010986
# 5 0.006641 -0.000178 -0.000551 0.000000 0.024608 0.000000
# 6 0.000000 0.000000 0.000000 0.010986 0.000000 0.030046
#
#
# Mechanical properties :
#
#
# Convention : Reuss Voigt Hill
#
# Bulk Modulus (GPa) = 48.37107 56.03800 52.20454
# Shear Modulus (GPa) = 30.42533 35.64669 33.03601
#
# Velocity S-wave (km/s) = 3.41043 3.69149 3.55374
# Velocity P-wave (km/s) = 5.83090 6.29219 6.06593
#
# Compressibility (1/GPa) = 0.02067351
#
# Stress axis : x y z
#
# Youngs Moduli (GPa) = 51.92534 106.44871 63.25329
#
# Poissons Ratio (x) = 0.10221 0.40656
# Poissons Ratio (y) = 0.04986 0.28506
# Poissons Ratio (z) = 0.33375 0.47972
#
# Static dielectric constant tensor:
#      x y z
#    x 2.111010 0.000000 -0.032080 
#    y 0.000000 2.104440 0.000000 
#    z -0.032080 0.000000 2.192750 
# 
# From -- ./inp_files/14227.got.cif
#   From: 2010.05.17/outbox.cif.g08.bks.cpg/sg9_8_cif.got.tgz:14227.got - 2010.06.03 20:04:27.
