data_PCOD9138117
_publ_section_title
;
Structure prediction by ZEFSAII (Michael W. Deem and Ramdas Pophale) SiO2 
 PCOD9138117
Probable space group: C C
;
_chemical_formula_sum "Si O2"
_cell_formula_units_Z 28
_cell_length_a 11.430082
_cell_length_b 8.765333
_cell_length_c 20.500909
_cell_angle_alpha 90.000000
_cell_angle_beta 152.070467
_cell_angle_gamma 90.000000
_cell_volume 962.042213
_symmetry_space_group_name_H-M "C C"
_symmetry_group_IT_number 9
_symmetry_cell_setting 'monoclinic'
loop_
_space_group_symop_operation_xyz
x,y,z
x,-y,1/2+z
1/2+x,1/2+y,z
1/2+x,1/2-y,1/2+z
loop_
_atom_site_type_symbol
_atom_site_label
_atom_site_fract_x
_atom_site_fract_y
_atom_site_fract_z
Si Si1 0.067820 0.643380 0.855230
Si Si2 0.336329 0.787321 0.615524
Si Si3 0.993691 0.887469 0.065852
Si Si4 0.752628 0.839035 0.214218
Si Si5 0.516801 0.022539 0.487884
Si Si6 0.563013 0.420843 0.953087
Si Si7 0.541412 0.362196 0.720801
O O1 0.279715 0.516020 0.968200
O O2 0.090784 0.733730 0.799020
O O3 0.788238 0.576093 0.718664
O O4 0.087055 0.776777 0.918323
O O5 0.461164 0.733512 0.609001
O O6 0.394228 0.737761 0.720472
O O7 0.082118 0.685294 0.486139
O O8 0.289126 0.967209 0.586682
O O9 0.961068 0.855022 0.972086
O O10 0.232517 0.997771 0.328945
O O11 0.903525 0.957834 0.332436
O O12 0.615921 0.714014 0.189956
O O13 0.538194 0.940824 0.074203
O O14 0.761916 0.923136 0.594542
#
# Coordination Sequence:
#
# PCOD9138117 Si02
#       7
#     4   4   4   4   4   4   4
#     4  12  30  58  96 133 190 246 316 388 468 563
#     4  10  26  50  86 137 182 244 309 382 459 559
#     4  12  31  59  89 143 180 249 316 390 472 567
#     4  10  22  50  89 131 185 245 304 386 457 549
#     4  10  25  45  88 132 182 239 302 382 457 550
#     4  12  26  57  94 133 184 254 303 391 468 559
#     4  12  24  53  86 141 181 247 306 385 467 553
#
# _framework density 29.104752000000001
#
# number of rings (size 3 to 8) (size 9 to 14) (size 15 to 20)
#    0.857    0.000    4.286    0.000    2.000    9.143 
#    0.000    1.429    0.000    0.000    0.000    0.000 
#    0.000    0.000    0.000    0.000    0.000    0.000 
#
# Total GULP energy -78318.029212 kJ/mol
# GULP energy per Si atom -5594.144944 kJ/mol
# Density = 2.903851 g / cm^3
# Si number density = 29.104752 Si / 1000 Ang^3
#
#
#
# Elastic Constant Matrix: (Units=GPa)
#
#
# Indices 1 2 3 4 5 6 
#
# 1 227.0908 115.4566 123.3620 0.0013 -29.2290 0.0008
# 2 115.4566 155.4486 102.5070 0.0005 -6.4534 0.0002
# 3 123.3620 102.5070 163.4508 0.0033 -15.2540 0.0020
# 4 0.0013 0.0005 0.0033 61.0254 0.0018 -12.8132
# 5 -29.2290 -6.4534 -15.2540 0.0018 83.3180 0.0010
# 6 0.0008 0.0002 0.0020 -12.8132 0.0010 78.2509
#
#
#
# Elastic Compliance Matrix: (Units=1/GPa)
#
#
# Indices 1 2 3 4 5 6 
#
# 1 0.008799 -0.003746 -0.004100 0.000000 0.002046 0.000000
# 2 -0.003746 0.012579 -0.005181 0.000000 -0.001289 0.000000
# 3 -0.004100 -0.005181 0.012504 -0.000001 0.000449 0.000000
# 4 0.000000 0.000000 -0.000001 0.016970 0.000000 0.002779
# 5 0.002046 -0.001289 0.000449 0.000000 0.012702 0.000000
# 6 0.000000 0.000000 0.000000 0.002779 0.000000 0.013234
#
#
# Mechanical properties :
#
#
# Convention : Reuss Voigt Hill
#
# Bulk Modulus (GPa) = 127.78736 136.51570 132.15153
# Shear Modulus (GPa) = 47.41379 58.16316 52.78847
#
# Velocity S-wave (km/s) = 4.04056 4.47520 4.26342
# Velocity P-wave (km/s) = 8.10984 8.58546 8.35103
#
# Compressibility (1/GPa) = 0.00782550
#
# Stress axis : x y z
#
# Youngs Moduli (GPa) = 113.64755 79.49820 79.97260
#
# Poissons Ratio (x) = 0.29784 0.32793
# Poissons Ratio (y) = 0.42578 0.41437
# Poissons Ratio (z) = 0.46601 0.41191
#
# Static dielectric constant tensor:
#      x y z
#    x 2.280920 0.000000 0.003790 
#    y 0.000000 2.284070 0.000000 
#    z 0.003790 0.000000 2.418840 
# 
# From -- ./inp_files/29878.got.cif
#   From: 2010.05.17/outbox.cif.g08.bks.cpg/sg9_15_cif.got.tgz:29878.got - 2010.06.03 20:04:27.
