data_PCOD9138425
_publ_section_title
;
Structure prediction by ZEFSAII (Michael W. Deem and Ramdas Pophale) SiO2 
 PCOD9138425
Probable space group: C C
;
_chemical_formula_sum "Si O2"
_cell_formula_units_Z 32
_cell_length_a 14.556676
_cell_length_b 5.284888
_cell_length_c 16.634228
_cell_angle_alpha 90.000000
_cell_angle_beta 93.015263
_cell_angle_gamma 90.000000
_cell_volume 1277.906212
_symmetry_space_group_name_H-M "C C"
_symmetry_group_IT_number 9
_symmetry_cell_setting 'monoclinic'
loop_
_space_group_symop_operation_xyz
x,y,z
x,-y,1/2+z
1/2+x,1/2+y,z
1/2+x,1/2-y,1/2+z
loop_
_atom_site_type_symbol
_atom_site_label
_atom_site_fract_x
_atom_site_fract_y
_atom_site_fract_z
Si Si1 0.506940 0.205837 0.265480
Si Si2 0.898152 0.540667 0.629313
Si Si3 0.817868 0.164605 0.833010
Si Si4 0.060715 0.771212 0.601854
Si Si5 0.087249 0.724249 0.004348
Si Si6 0.106985 0.202124 0.325410
Si Si7 0.303504 0.382945 0.510376
Si Si8 0.265234 0.685304 0.664554
O O1 0.416686 0.207456 0.319577
O O2 0.566383 0.457079 0.280177
O O3 0.464482 0.170145 0.174353
O O4 0.572718 0.970364 0.289282
O O5 0.858889 0.634042 0.541179
O O6 0.804931 0.470514 0.671785
O O7 0.968460 0.768075 0.649851
O O8 0.719024 0.312158 0.835795
O O9 0.826841 0.033251 0.920807
O O10 0.796826 0.034478 0.745181
O O11 0.047097 0.534698 0.538971
O O12 0.156641 0.706273 0.648817
O O13 0.068355 0.030819 0.555952
O O14 0.063247 0.791132 0.912470
O O15 0.196399 0.681824 0.007955
O O16 0.309962 0.585067 0.583345
#
# Coordination Sequence:
#
# PCOD9138425 Si02
#       8
#     4   4   4   4   4   4   4   4
#     4  11  27  46  73 108 146 193 250 307 370 447
#     4  11  25  41  67 101 140 186 243 299 365 440
#     4  10  25  48  75 107 148 207 240 316 386 426
#     4  11  23  41  70  99 138 188 231 293 374 422
#     4  10  23  43  69 103 140 185 234 302 362 434
#     4  11  25  48  71 108 149 187 254 308 363 453
#     4  10  23  46  72 103 150 189 255 303 371 449
#     4  10  23  47  67 103 149 189 247 308 363 451
#
# _framework density 25.040963000000001
#
# number of rings (size 3 to 8) (size 9 to 14) (size 15 to 20)
#    0.000    1.500    1.250    1.500    8.750    2.000 
#    4.500    0.000    0.000    0.000    0.000    0.000 
#    0.000    0.000    0.000    0.000    0.000    0.000 
#
# Total GULP energy -89144.100605 kJ/mol
# GULP energy per Si atom -5571.506288 kJ/mol
# Density = 2.498397 g / cm^3
# Si number density = 25.040963 Si / 1000 Ang^3
#
#
#
# Elastic Constant Matrix: (Units=GPa)
#
#
# Indices 1 2 3 4 5 6 
#
# 1 121.3964 19.2858 9.9739 0.0000 -20.2132 0.0000
# 2 19.2858 107.4091 32.9737 0.0000 -10.8786 0.0000
# 3 9.9739 32.9737 147.4398 0.0000 -9.4153 0.0000
# 4 0.0000 0.0000 0.0000 23.7437 0.0000 8.0831
# 5 -20.2132 -10.8786 -9.4153 0.0000 37.5993 0.0000
# 6 0.0000 0.0000 0.0000 8.0831 0.0000 30.7985
#
#
#
# Elastic Compliance Matrix: (Units=1/GPa)
#
#
# Indices 1 2 3 4 5 6 
#
# 1 0.009192 -0.001165 -0.000068 0.000000 0.004587 0.000000
# 2 -0.001165 0.010356 -0.002120 0.000000 0.001839 0.000000
# 3 -0.000068 -0.002120 0.007337 0.000000 0.001187 0.000000
# 4 0.000000 0.000000 0.000000 0.046249 0.000000 -0.012138
# 5 0.004587 0.001839 0.001187 0.000000 0.029892 0.000000
# 6 0.000000 0.000000 0.000000 -0.012138 0.000000 0.035655
#
#
# Mechanical properties :
#
#
# Convention : Reuss Voigt Hill
#
# Bulk Modulus (GPa) = 49.55596 55.63467 52.59531
# Shear Modulus (GPa) = 32.87026 39.36242 36.11634
#
# Velocity S-wave (km/s) = 3.62700 3.96905 3.80187
# Velocity P-wave (km/s) = 6.11335 6.57800 6.34993
#
# Compressibility (1/GPa) = 0.02017921
#
# Stress axis : x y z
#
# Youngs Moduli (GPa) = 108.79045 96.55837 136.29634
#
# Poissons Ratio (x) = 0.11248 0.00932
# Poissons Ratio (y) = 0.12673 0.28893
# Poissons Ratio (z) = 0.00744 0.20469
#
# Static dielectric constant tensor:
#      x y z
#    x 2.002030 0.000000 -0.039390 
#    y 0.000000 2.028040 0.000000 
#    z -0.039390 0.000000 2.127320 
# 
# From -- ./inp_files/30381.got.cif
#   From: 2010.05.17/outbox.cif.g08.bks.cpg/sg9_16_cif.got.tgz:30381.got - 2010.06.03 20:04:27.
