data_PCOD9138805
_publ_section_title
;
Structure prediction by ZEFSAII (Michael W. Deem and Ramdas Pophale) SiO2 
 PCOD9138805
Probable space group: C C
;
_chemical_formula_sum "Si O2"
_cell_formula_units_Z 28
_cell_length_a 31.820243
_cell_length_b 7.498123
_cell_length_c 19.843077
_cell_angle_alpha 90.000000
_cell_angle_beta 167.314064
_cell_angle_gamma 90.000000
_cell_volume 1039.706442
_symmetry_space_group_name_H-M "C C"
_symmetry_group_IT_number 9
_symmetry_cell_setting 'monoclinic'
loop_
_space_group_symop_operation_xyz
x,y,z
x,-y,1/2+z
1/2+x,1/2+y,z
1/2+x,1/2-y,1/2+z
loop_
_atom_site_type_symbol
_atom_site_label
_atom_site_fract_x
_atom_site_fract_y
_atom_site_fract_z
Si Si1 0.385740 0.984763 0.251080
Si Si2 0.937031 0.468765 0.612080
Si Si3 0.417208 0.665712 0.219643
Si Si4 0.832807 0.999593 0.307858
Si Si5 0.518157 0.631975 0.975846
Si Si6 0.810723 0.065889 0.425928
Si Si7 0.837919 0.616532 0.819103
O O1 0.433288 0.691834 0.455657
O O2 0.587802 0.891599 0.582545
O O3 0.281322 0.972708 0.159758
O O4 0.320926 0.852101 0.091065
O O5 0.119294 0.519732 0.942249
O O6 0.916051 0.255588 0.593019
O O7 0.957914 0.488149 0.563269
O O8 0.741660 0.577966 0.321692
O O9 0.339249 0.567618 0.031932
O O10 0.407238 0.528531 0.265852
O O11 0.840218 0.971482 0.399453
O O12 0.643869 0.331742 0.055528
O O13 0.939372 0.858598 0.428300
O O14 0.445621 0.814344 0.827225
#
# Coordination Sequence:
#
# PCOD9138805 Si02
#       7
#     4   4   4   4   4   4   4
#     4  12  25  47  73 113 152 205 264 318 396 466
#     4  10  24  49  80 111 157 202 257 331 393 466
#     4  11  25  51  71 108 160 201 252 337 379 467
#     4  11  23  49  75 117 153 205 259 322 400 462
#     4  11  26  48  79 114 155 206 269 316 398 477
#     4  11  26  47  76 108 157 198 263 324 392 470
#     4  10  23  47  72 109 152 195 258 322 388 462
#
# _framework density 26.930679000000001
#
# number of rings (size 3 to 8) (size 9 to 14) (size 15 to 20)
#    0.000    1.143    5.714    0.000    8.000    1.143 
#    5.143    0.000    0.000    0.000    0.000    0.000 
#    0.000    0.000    0.000    0.000    0.000    0.000 
#
# Total GULP energy -78321.321168 kJ/mol
# GULP energy per Si atom -5594.380083 kJ/mol
# Density = 2.686938 g / cm^3
# Si number density = 26.930679 Si / 1000 Ang^3
#
#
#
# Elastic Constant Matrix: (Units=GPa)
#
#
# Indices 1 2 3 4 5 6 
#
# 1 159.6070 68.7659 42.5792 0.0000 -29.0099 0.0000
# 2 68.7659 160.6587 21.9771 0.0000 -16.0648 0.0000
# 3 42.5792 21.9771 106.2046 0.0000 -26.1309 0.0000
# 4 0.0000 0.0000 0.0000 23.5400 0.0000 -10.6696
# 5 -29.0099 -16.0648 -26.1309 0.0000 46.3134 0.0000
# 6 0.0000 0.0000 0.0000 -10.6696 0.0000 45.8336
#
#
#
# Elastic Compliance Matrix: (Units=1/GPa)
#
#
# Indices 1 2 3 4 5 6 
#
# 1 0.008758 -0.003143 -0.002066 0.000000 0.003230 0.000000
# 2 -0.003143 0.007653 -0.000180 0.000000 0.000584 0.000000
# 3 -0.002066 -0.000180 0.011551 0.000000 0.005161 0.000000
# 4 0.000000 0.000000 0.000000 0.047492 0.000000 0.011056
# 5 0.003230 0.000584 0.005161 0.000000 0.026730 0.000000
# 6 0.000000 0.000000 0.000000 0.011056 0.000000 0.024392
#
#
# Mechanical properties :
#
#
# Convention : Reuss Voigt Hill
#
# Bulk Modulus (GPa) = 58.19379 77.01273 67.60326
# Shear Modulus (GPa) = 34.94545 42.68062 38.81304
#
# Velocity S-wave (km/s) = 3.60614 3.98531 3.80046
# Velocity P-wave (km/s) = 6.24457 7.05944 6.66447
#
# Compressibility (1/GPa) = 0.01718396
#
# Stress axis : x y z
#
# Youngs Moduli (GPa) = 114.18490 130.67363 86.57189
#
# Poissons Ratio (x) = 0.41070 0.17886
# Poissons Ratio (y) = 0.35888 0.01556
# Poissons Ratio (z) = 0.23592 0.02349
#
# Static dielectric constant tensor:
#      x y z
#    x 2.168670 0.000000 -0.057330 
#    y 0.000000 2.149510 0.000000 
#    z -0.057330 0.000000 2.252290 
# 
# From -- ./inp_files/31834.got.cif
#   From: 2010.05.17/outbox.cif.g08.bks.cpg/sg9_16_cif.got.tgz:31834.got - 2010.06.03 20:04:27.
