data_PCOD9138273
_publ_section_title
;
Structure prediction by ZEFSAII (Michael W. Deem and Ramdas Pophale) SiO2 
 PCOD9138273
Probable space group: C C
;
_chemical_formula_sum "Si O2"
_cell_formula_units_Z 24
_cell_length_a 11.941250
_cell_length_b 6.956157
_cell_length_c 23.638853
_cell_angle_alpha 90.000000
_cell_angle_beta 153.806369
_cell_angle_gamma 90.000000
_cell_volume 866.730156
_symmetry_space_group_name_H-M "C C"
_symmetry_group_IT_number 9
_symmetry_cell_setting 'monoclinic'
loop_
_space_group_symop_operation_xyz
x,y,z
x,-y,1/2+z
1/2+x,1/2+y,z
1/2+x,1/2-y,1/2+z
loop_
_atom_site_type_symbol
_atom_site_label
_atom_site_fract_x
_atom_site_fract_y
_atom_site_fract_z
Si Si1 0.970010 0.550081 0.561420
Si Si2 0.800859 0.482670 0.221201
Si Si3 0.121385 0.361507 0.258362
Si Si4 0.793741 0.143344 0.493998
Si Si5 0.303083 0.511932 0.112577
Si Si6 0.982978 0.187550 0.392117
O O1 0.918631 0.327724 0.524529
O O2 0.686257 0.630436 0.435796
O O3 0.052551 0.588394 0.662775
O O4 0.194211 0.586788 0.619126
O O5 0.502131 0.526559 0.077369
O O6 0.928636 0.429840 0.219681
O O7 0.010949 0.621753 0.343346
O O8 0.800316 0.314206 0.269175
O O9 0.368253 0.502446 0.372904
O O10 0.070617 0.128921 0.240190
O O11 0.787349 0.153288 0.558502
O O12 0.118962 0.671298 0.998810
#
# Coordination Sequence:
#
# PCOD9138273 Si02
#       6
#     4   4   4   4   4   4
#     4  11  23  45  67 100 134 183 228 280 343 413
#     4  11  24  46  69 102 142 177 234 284 341 412
#     4  11  21  42  69  95 140 178 225 286 342 404
#     4  11  24  46  69 102 138 181 227 288 340 405
#     4  10  23  43  63  99 141 172 234 283 338 409
#     4  10  23  42  65  96 135 187 224 279 346 407
#
# _framework density 27.690280000000001
#
# number of rings (size 3 to 8) (size 9 to 14) (size 15 to 20)
#    0.000    1.333    3.333    1.000    4.667    1.333 
#   15.000    0.000    0.000    0.000    0.000    0.000 
#    0.000    0.000    0.000    0.000    0.000    0.000 
#
# Total GULP energy -66993.441508 kJ/mol
# GULP energy per Si atom -5582.786792 kJ/mol
# Density = 2.762726 g / cm^3
# Si number density = 27.690280 Si / 1000 Ang^3
#
#
#
# Elastic Constant Matrix: (Units=GPa)
#
#
# Indices 1 2 3 4 5 6 
#
# 1 207.4753 43.4692 37.7170 0.0013 -1.5777 0.0001
# 2 43.4692 35.8535 20.4042 0.0008 13.8586 0.0003
# 3 37.7170 20.4042 101.0082 0.0084 20.4266 -0.0008
# 4 0.0013 0.0008 0.0084 44.0920 -0.0005 21.1636
# 5 -1.5777 13.8586 20.4266 -0.0005 35.9766 -0.0001
# 6 0.0001 0.0003 -0.0008 21.1636 -0.0001 46.0489
#
#
#
# Elastic Compliance Matrix: (Units=1/GPa)
#
#
# Indices 1 2 3 4 5 6 
#
# 1 0.007207 -0.009690 -0.001754 0.000000 0.005045 0.000000
# 2 -0.009690 0.047801 -0.002517 0.000000 -0.017409 0.000000
# 3 -0.001754 -0.002517 0.012295 -0.000003 -0.006088 0.000002
# 4 0.000000 0.000000 -0.000003 0.029099 0.000002 -0.013374
# 5 0.005045 -0.017409 -0.006088 0.000002 0.038180 -0.000001
# 6 0.000000 0.000000 0.000002 -0.013374 -0.000001 0.027862
#
#
# Mechanical properties :
#
#
# Convention : Reuss Voigt Hill
#
# Bulk Modulus (GPa) = 25.39287 60.83529 43.11408
# Shear Modulus (GPa) = 24.57079 41.40661 32.98870
#
# Velocity S-wave (km/s) = 2.98206 3.87117 3.45533
# Velocity P-wave (km/s) = 4.58772 6.48065 5.61454
#
# Compressibility (1/GPa) = 0.03938114
#
# Stress axis : x y z
#
# Youngs Moduli (GPa) = 138.74943 20.91997 81.33543
#
# Poissons Ratio (x) = 0.20271 0.14266
# Poissons Ratio (y) = 1.34446 0.20474
# Poissons Ratio (z) = 0.24336 0.05266
#
# Static dielectric constant tensor:
#      x y z
#    x 2.082850 0.000000 0.089870 
#    y 0.000000 2.331760 0.000000 
#    z 0.089870 0.000000 2.372250 
# 
# From -- ./inp_files/15841.got.cif
#   From: 2010.05.17/outbox.cif.g08.bks.cpg/sg9_8_cif.got.tgz:15841.got - 2010.06.03 20:04:27.
