data_PCOD9138386
_publ_section_title
;
Structure prediction by ZEFSAII (Michael W. Deem and Ramdas Pophale) SiO2 
 PCOD9138386
Probable space group: C C
;
_chemical_formula_sum "Si O2"
_cell_formula_units_Z 32
_cell_length_a 24.541847
_cell_length_b 9.898457
_cell_length_c 9.450914
_cell_angle_alpha 90.000000
_cell_angle_beta 144.313240
_cell_angle_gamma 90.000000
_cell_volume 1339.307783
_symmetry_space_group_name_H-M "C C"
_symmetry_group_IT_number 9
_symmetry_cell_setting 'monoclinic'
loop_
_space_group_symop_operation_xyz
x,y,z
x,-y,1/2+z
1/2+x,1/2+y,z
1/2+x,1/2-y,1/2+z
loop_
_atom_site_type_symbol
_atom_site_label
_atom_site_fract_x
_atom_site_fract_y
_atom_site_fract_z
Si Si1 0.202930 0.685054 0.796410
Si Si2 0.777528 0.581004 0.076194
Si Si3 0.658105 0.456987 0.590745
Si Si4 0.379340 0.344420 0.842098
Si Si5 0.515339 0.314946 0.863053
Si Si6 0.060164 0.456987 0.568719
Si Si7 0.838929 0.844419 0.317366
Si Si8 0.940741 0.418995 0.583269
O O1 0.140017 0.814198 0.628507
O O2 0.144080 0.559643 0.726421
O O3 0.261404 0.656828 0.777423
O O4 0.282932 0.717341 0.078852
O O5 0.688173 0.566640 0.992957
O O6 0.803805 0.739314 0.126180
O O7 0.859134 0.500000 0.329732
O O8 0.746513 0.519623 0.862261
O O9 0.574190 0.559643 0.433043
O O10 0.456865 0.343173 0.882040
O O11 0.359134 0.500000 0.829731
O O12 0.414464 0.239315 0.033284
O O13 0.578251 0.185802 0.030956
O O14 0.435338 0.282659 0.580611
O O15 0.030097 0.433360 0.666507
O O16 0.971756 0.519624 0.297203
#
# Coordination Sequence:
#
# PCOD9138386 Si02
#       8
#     4   4   4   4   4   4   4   4
#     4  10  24  43  62  99 133 170 215 281 322 389
#     4  11  23  45  68  94 132 178 215 269 328 394
#     4  11  25  41  70  96 134 170 224 269 329 386
#     4  10  23  43  66  90 137 172 221 265 333 385
#     4  10  24  43  62  99 133 170 215 281 322 389
#     4  11  25  41  70  96 134 170 224 269 329 386
#     4  10  23  43  66  90 137 172 221 265 333 385
#     4  11  23  45  68  94 132 178 215 269 328 394
#
# _framework density 23.892939999999999
#
# number of rings (size 3 to 8) (size 9 to 14) (size 15 to 20)
#    0.000    1.500    2.500    0.750    7.000    5.000 
#    4.500    0.000    0.000    0.000    0.000    0.000 
#    0.000    0.000    0.000    0.000    0.000    0.000 
#
# Total GULP energy -89601.787872 kJ/mol
# GULP energy per Si atom -5600.111742 kJ/mol
# Density = 2.383856 g / cm^3
# Si number density = 23.892940 Si / 1000 Ang^3
#
#
#
# Elastic Constant Matrix: (Units=GPa)
#
#
# Indices 1 2 3 4 5 6 
#
# 1 51.4514 31.3504 27.6308 0.0000 -1.0230 0.0000
# 2 31.3504 161.2040 16.0510 0.0000 11.2319 0.0000
# 3 27.6308 16.0510 61.8990 0.0000 14.7721 0.0000
# 4 0.0000 0.0000 0.0000 41.8000 0.0000 10.7522
# 5 -1.0230 11.2319 14.7721 0.0000 37.0433 0.0000
# 6 0.0000 0.0000 0.0000 10.7522 0.0000 32.3456
#
#
#
# Elastic Compliance Matrix: (Units=1/GPa)
#
#
# Indices 1 2 3 4 5 6 
#
# 1 0.030229 -0.005032 -0.014094 0.000000 0.007981 0.000000
# 2 -0.005032 0.007272 0.001016 0.000000 -0.002749 0.000000
# 3 -0.014094 0.001016 0.024700 0.000000 -0.010547 0.000000
# 4 0.000000 0.000000 0.000000 0.026160 0.000000 -0.008696
# 5 0.007981 -0.002749 -0.010547 0.000000 0.032255 0.000000
# 6 0.000000 0.000000 0.000000 -0.008696 0.000000 0.033807
#
#
# Mechanical properties :
#
#
# Convention : Reuss Voigt Hill
#
# Bulk Modulus (GPa) = 38.48579 47.17986 42.83282
# Shear Modulus (GPa) = 25.08748 35.53927 30.31338
#
# Velocity S-wave (km/s) = 3.24388 3.86092 3.56577
# Velocity P-wave (km/s) = 5.49299 6.29800 5.90922
#
# Compressibility (1/GPa) = 0.02598362
#
# Stress axis : x y z
#
# Youngs Moduli (GPa) = 33.08086 137.50987 40.48577
#
# Poissons Ratio (x) = 0.69189 0.57059
# Poissons Ratio (y) = 0.16645 -0.04115
# Poissons Ratio (z) = 0.46623 -0.13976
#
# Static dielectric constant tensor:
#      x y z
#    x 1.862830 0.000000 0.011700 
#    y 0.000000 1.908380 0.000000 
#    z 0.011700 0.000000 1.926580 
# 
# From -- ./inp_files/17803.got.cif
#   From: 2010.05.17/outbox.cif.g08.bks.cpg/sg9_9_cif.got.tgz:17803.got - 2010.06.03 20:04:27.
