data_PCOD9138924
_publ_section_title
;
Structure prediction by ZEFSAII (Michael W. Deem and Ramdas Pophale) SiO2 
 PCOD9138924
Probable space group: C C
;
_chemical_formula_sum "Si O2"
_cell_formula_units_Z 28
_cell_length_a 7.371030
_cell_length_b 28.601059
_cell_length_c 5.727156
_cell_angle_alpha 90.000000
_cell_angle_beta 73.705300
_cell_angle_gamma 90.000000
_cell_volume 1158.895272
_symmetry_space_group_name_H-M "C C"
_symmetry_group_IT_number 9
_symmetry_cell_setting 'monoclinic'
loop_
_space_group_symop_operation_xyz
x,y,z
x,-y,1/2+z
1/2+x,1/2+y,z
1/2+x,1/2-y,1/2+z
loop_
_atom_site_type_symbol
_atom_site_label
_atom_site_fract_x
_atom_site_fract_y
_atom_site_fract_z
Si Si1 0.644510 0.701498 0.723610
Si Si2 0.934437 0.642714 0.903728
Si Si3 0.744236 0.809038 0.619781
Si Si4 0.619812 0.107941 0.433320
Si Si5 0.617303 0.990543 0.761573
Si Si6 0.535735 0.476846 0.092692
Si Si7 0.699503 0.620072 0.382036
O O1 0.831221 0.680751 0.779592
O O2 0.678818 0.756490 0.693537
O O3 0.632108 0.671124 0.489535
O O4 0.450455 0.692286 0.931109
O O5 0.067952 0.605955 0.723273
O O6 0.753368 0.618840 0.091537
O O7 0.080597 0.670112 0.013461
O O8 0.739311 0.845866 0.835539
O O9 0.689254 0.062634 0.274163
O O10 0.408378 0.113148 0.410776
O O11 0.518269 0.997063 0.545250
O O12 0.809571 0.019360 0.680922
O O13 0.596958 0.495271 0.330564
O O14 0.583628 0.422867 0.024289
#
# Coordination Sequence:
#
# PCOD9138924 Si02
#       7
#     4   4   4   4   4   4   4
#     4  11  25  43  71 104 139 182 238 294 364 438
#     4  10  24  46  68  98 144 180 236 292 368 424
#     4  11  25  43  71 104 139 182 238 294 364 438
#     4  10  24  43  68  97 136 186 236 299 359 434
#     4  10  24  41  66  98 139 182 245 294 361 432
#     4  10  24  41  66  98 139 182 245 294 361 432
#     4  10  24  43  68  97 136 186 236 299 359 434
#
# _framework density 24.16094
#
# number of rings (size 3 to 8) (size 9 to 14) (size 15 to 20)
#    0.000    1.714    0.000    2.571   12.000    9.143 
#    0.000    0.000    0.000    0.000    0.000    0.000 
#    0.000    0.000    0.000    0.000    0.000    0.000 
#
# Total GULP energy -78144.704333 kJ/mol
# GULP energy per Si atom -5581.764595 kJ/mol
# Density = 2.410595 g / cm^3
# Si number density = 24.160940 Si / 1000 Ang^3
#
#
#
# Elastic Constant Matrix: (Units=GPa)
#
#
# Indices 1 2 3 4 5 6 
#
# 1 67.4245 2.6659 19.7745 0.0000 -18.8818 0.0000
# 2 2.6659 140.3951 57.6209 0.0000 -11.8657 0.0000
# 3 19.7745 57.6209 152.0044 0.0000 -2.2253 0.0000
# 4 0.0000 0.0000 0.0000 33.3755 0.0000 3.5139
# 5 -18.8818 -11.8657 -2.2253 0.0000 47.2958 0.0000
# 6 0.0000 0.0000 0.0000 3.5139 0.0000 8.3923
#
#
#
# Elastic Compliance Matrix: (Units=1/GPa)
#
#
# Indices 1 2 3 4 5 6 
#
# 1 0.017601 0.001391 -0.002711 0.000000 0.007248 0.000000
# 2 0.001391 0.008732 -0.003453 0.000000 0.002584 0.000000
# 3 -0.002711 -0.003453 0.008218 0.000000 -0.001562 0.000000
# 4 0.000000 0.000000 0.000000 0.031344 0.000000 -0.013124
# 5 0.007248 0.002584 -0.001562 0.000000 0.024612 0.000000
# 6 0.000000 0.000000 0.000000 -0.013124 0.000000 0.124651
#
#
# Mechanical properties :
#
#
# Convention : Reuss Voigt Hill
#
# Bulk Modulus (GPa) = 39.99265 57.77184 48.88225
# Shear Modulus (GPa) = 21.45564 36.46358 28.95961
#
# Velocity S-wave (km/s) = 2.98322 3.88905 3.46585
# Velocity P-wave (km/s) = 5.33429 6.64300 6.02429
#
# Compressibility (1/GPa) = 0.02500459
#
# Stress axis : x y z
#
# Youngs Moduli (GPa) = 56.81385 114.52185 121.69031
#
# Poissons Ratio (x) = -0.15930 0.32990
# Poissons Ratio (y) = -0.07903 0.42022
# Poissons Ratio (z) = 0.15402 0.39547
#
# Static dielectric constant tensor:
#      x y z
#    x 1.907770 0.000000 0.104040 
#    y 0.000000 1.982280 0.000000 
#    z 0.104040 0.000000 2.231230 
# 
# From -- ./inp_files/1214.got.cif
#   From: 2010.05.17/outbox.cif.g08.bks.cpg/sg9_1_cif.got.tgz:1214.got - 2010.06.03 20:04:27.
