data_PCOD9138095
_publ_section_title
;
Structure prediction by ZEFSAII (Michael W. Deem and Ramdas Pophale) SiO2 
 PCOD9138095
Probable space group: C C
;
_chemical_formula_sum "Si O2"
_cell_formula_units_Z 20
_cell_length_a 19.933253
_cell_length_b 6.728073
_cell_length_c 9.721615
_cell_angle_alpha 90.000000
_cell_angle_beta 142.265391
_cell_angle_gamma 90.000000
_cell_volume 797.925166
_symmetry_space_group_name_H-M "C C"
_symmetry_group_IT_number 9
_symmetry_cell_setting 'monoclinic'
loop_
_space_group_symop_operation_xyz
x,y,z
x,-y,1/2+z
1/2+x,1/2+y,z
1/2+x,1/2-y,1/2+z
loop_
_atom_site_type_symbol
_atom_site_label
_atom_site_fract_x
_atom_site_fract_y
_atom_site_fract_z
Si Si1 0.632020 0.240450 0.300080
Si Si2 0.596719 0.593070 0.042907
Si Si3 0.360506 0.515031 0.694309
Si Si4 0.904199 0.410356 0.362960
Si Si5 0.323619 0.187295 0.458798
O O1 0.605627 0.370732 0.393968
O O2 0.529463 0.093997 0.112365
O O3 0.747405 0.131397 0.509769
O O4 0.627590 0.376475 0.155374
O O5 0.473752 0.632054 0.895442
O O6 0.694191 0.721611 0.267473
O O7 0.376205 0.400305 0.572458
O O8 0.360669 0.320199 0.794753
O O9 0.839897 0.566498 0.348375
O O10 0.879299 0.451997 0.163555
#
# Coordination Sequence:
#
# PCOD9138095 Si02
#       5
#     4   4   4   4   4
#     4  11  25  51  75 109 153 200 251 310 378 446
#     4  11  25  48  76 108 153 196 248 320 368 445
#     4   9  25  49  72 110 150 196 251 302 380 442
#     4   9  23  46  74 110 148 194 245 309 371 447
#     4  10  22  48  73 109 148 194 243 309 373 444
#
# _framework density 25.065009
#
# number of rings (size 3 to 8) (size 9 to 14) (size 15 to 20)
#    1.200    0.800    0.000    1.200    2.800    6.400 
#    7.200    0.000    4.400    0.000    0.000    0.000 
#    0.000    0.000    0.000    0.000    0.000    0.000 
#
# Total GULP energy -55825.178691 kJ/mol
# GULP energy per Si atom -5582.517869 kJ/mol
# Density = 2.500796 g / cm^3
# Si number density = 25.065009 Si / 1000 Ang^3
#
#
#
# Elastic Constant Matrix: (Units=GPa)
#
#
# Indices 1 2 3 4 5 6 
#
# 1 100.2951 61.3031 64.9706 0.0000 17.4522 0.0000
# 2 61.3031 81.7563 51.3993 0.0000 9.0142 0.0000
# 3 64.9706 51.3993 161.5191 0.0000 47.4499 0.0000
# 4 0.0000 0.0000 0.0000 51.3106 0.0000 4.7077
# 5 17.4522 9.0142 47.4499 0.0000 54.6538 0.0000
# 6 0.0000 0.0000 0.0000 4.7077 0.0000 44.2061
#
#
#
# Elastic Compliance Matrix: (Units=1/GPa)
#
#
# Indices 1 2 3 4 5 6 
#
# 1 0.020489 -0.012830 -0.003837 0.000000 -0.001095 0.000000
# 2 -0.012830 0.023540 -0.003213 0.000000 0.003004 0.000000
# 3 -0.003837 -0.003213 0.011063 0.000000 -0.007850 0.000000
# 4 0.000000 0.000000 0.000000 0.019681 0.000000 -0.002096
# 5 -0.001095 0.003004 -0.007850 0.000000 0.024966 0.000000
# 6 0.000000 0.000000 0.000000 -0.002096 0.000000 0.022845
#
#
# Mechanical properties :
#
#
# Convention : Reuss Voigt Hill
#
# Bulk Modulus (GPa) = 65.21939 77.65739 71.43839
# Shear Modulus (GPa) = 29.85882 41.09394 35.47638
#
# Velocity S-wave (km/s) = 3.45520 4.05346 3.76623
# Velocity P-wave (km/s) = 6.48031 7.27716 6.89026
#
# Compressibility (1/GPa) = 0.01533286
#
# Stress axis : x y z
#
# Youngs Moduli (GPa) = 48.80715 42.48019 90.39152
#
# Poissons Ratio (x) = 0.54502 0.34683
# Poissons Ratio (y) = 0.62620 0.29039
# Poissons Ratio (z) = 0.18727 0.13647
#
# Static dielectric constant tensor:
#      x y z
#    x 2.029840 0.000000 -0.021110 
#    y 0.000000 2.026010 0.000000 
#    z -0.021110 0.000000 1.971880 
# 
# From -- ./inp_files/10388.got.cif
#   From: 2010.05.17/outbox.cif.g08.bks.cpg/sg9_6_cif.got.tgz:10388.got - 2010.06.03 20:04:27.
