data_PCOD9138322
_publ_section_title
;
Structure prediction by ZEFSAII (Michael W. Deem and Ramdas Pophale) SiO2 
 PCOD9138322
Probable space group: C C
;
_chemical_formula_sum "Si O2"
_cell_formula_units_Z 32
_cell_length_a 8.712660
_cell_length_b 16.424332
_cell_length_c 11.895891
_cell_angle_alpha 90.000000
_cell_angle_beta 125.375699
_cell_angle_gamma 90.000000
_cell_volume 1388.008114
_symmetry_space_group_name_H-M "C C"
_symmetry_group_IT_number 9
_symmetry_cell_setting 'monoclinic'
loop_
_space_group_symop_operation_xyz
x,y,z
x,-y,1/2+z
1/2+x,1/2+y,z
1/2+x,1/2-y,1/2+z
loop_
_atom_site_type_symbol
_atom_site_label
_atom_site_fract_x
_atom_site_fract_y
_atom_site_fract_z
Si Si1 0.884960 0.888643 0.284250
Si Si2 0.765280 0.215724 0.070722
Si Si3 0.603091 0.520194 0.078233
Si Si4 0.954702 0.385525 0.777096
Si Si5 0.364497 0.377912 0.918417
Si Si6 0.818460 0.053717 0.154700
Si Si7 0.692631 0.729869 0.301156
Si Si8 0.015786 0.770159 0.148697
O O1 0.761439 0.817914 0.287045
O O2 0.997968 0.840430 0.234516
O O3 0.013410 0.928587 0.436338
O O4 0.770109 0.963878 0.179691
O O5 0.692374 0.121450 0.038272
O O6 0.707367 0.258590 0.162019
O O7 0.991626 0.213993 0.158578
O O8 0.682939 0.264034 0.930811
O O9 0.819117 0.542700 0.181106
O O10 0.495495 0.540641 0.148380
O O11 0.547036 0.427512 0.034110
O O12 0.847782 0.337423 0.831283
O O13 0.968368 0.315121 0.687666
O O14 0.168187 0.415116 0.882666
O O15 0.362029 0.394734 0.785704
O O16 0.372159 0.292313 0.986088
#
# Coordination Sequence:
#
# PCOD9138322 Si02
#       8
#     4   4   4   4   4   4   4   4
#     4  10  23  42  69  95 140 187 226 285 350 428
#     4  12  24  43  69 103 143 182 233 303 349 423
#     4  11  23  46  69  95 142 182 237 281 353 422
#     4  11  25  42  73 102 137 189 233 284 361 424
#     4  11  25  46  70  99 144 180 235 291 348 433
#     4  11  21  44  64  97 137 186 224 290 344 414
#     4  11  24  41  70 104 141 183 238 288 362 421
#     4  11  25  42  70 103 138 179 230 288 361 411
#
# _framework density 23.054618000000001
#
# number of rings (size 3 to 8) (size 9 to 14) (size 15 to 20)
#    0.000    1.000    5.000    0.750    7.000    0.000 
#    4.500    2.500    0.000    0.000    0.000    0.000 
#    0.000    0.000    0.000    0.000    0.000    0.000 
#
# Total GULP energy -89285.386044 kJ/mol
# GULP energy per Si atom -5580.336628 kJ/mol
# Density = 2.300214 g / cm^3
# Si number density = 23.054618 Si / 1000 Ang^3
#
#
#
# Elastic Constant Matrix: (Units=GPa)
#
#
# Indices 1 2 3 4 5 6 
#
# 1 60.6924 13.0248 14.5937 0.0000 -21.5036 0.0000
# 2 13.0248 97.7153 9.8445 0.0000 1.5983 0.0000
# 3 14.5937 9.8445 53.4369 0.0000 -18.8171 0.0000
# 4 0.0000 0.0000 0.0000 42.1980 0.0000 1.7744
# 5 -21.5036 1.5983 -18.8171 0.0000 41.0654 0.0000
# 6 0.0000 0.0000 0.0000 1.7744 0.0000 28.3517
#
#
#
# Elastic Compliance Matrix: (Units=1/GPa)
#
#
# Indices 1 2 3 4 5 6 
#
# 1 0.021176 -0.002836 -0.001571 0.000000 0.010479 0.000000
# 2 -0.002836 0.010889 -0.002270 0.000000 -0.002949 0.000000
# 3 -0.001571 -0.002270 0.023016 0.000000 0.009812 0.000000
# 4 0.000000 0.000000 0.000000 0.023760 0.000000 -0.001487
# 5 0.010479 -0.002949 0.009812 0.000000 0.034450 0.000000
# 6 0.000000 0.000000 0.000000 -0.001487 0.000000 0.035364
#
#
# Mechanical properties :
#
#
# Convention : Reuss Voigt Hill
#
# Bulk Modulus (GPa) = 23.96484 31.86339 27.91411
# Shear Modulus (GPa) = 28.42258 33.94847 31.18553
#
# Velocity S-wave (km/s) = 3.51499 3.84151 3.68187
# Velocity P-wave (km/s) = 5.18564 5.79026 5.49627
#
# Compressibility (1/GPa) = 0.04172781
#
# Stress axis : x y z
#
# Youngs Moduli (GPa) = 47.22435 91.83818 43.44788
#
# Poissons Ratio (x) = 0.26043 0.06824
# Poissons Ratio (y) = 0.13392 0.09862
# Poissons Ratio (z) = 0.07417 0.20847
#
# Static dielectric constant tensor:
#      x y z
#    x 1.856690 0.000000 -0.016350 
#    y 0.000000 1.918310 0.000000 
#    z -0.016350 0.000000 1.910610 
# 
# From -- ./inp_files/15184.got.cif
#   From: 2010.05.17/outbox.cif.g08.bks.cpg/sg9_8_cif.got.tgz:15184.got - 2010.06.03 20:04:27.
