data_PCOD9138528
_publ_section_title
;
Structure prediction by ZEFSAII (Michael W. Deem and Ramdas Pophale) SiO2 
 PCOD9138528
Probable space group: C C
;
_chemical_formula_sum "Si O2"
_cell_formula_units_Z 32
_cell_length_a 18.070777
_cell_length_b 5.141481
_cell_length_c 13.600283
_cell_angle_alpha 90.000000
_cell_angle_beta 90.255773
_cell_angle_gamma 90.000000
_cell_volume 1263.597273
_symmetry_space_group_name_H-M "C C"
_symmetry_group_IT_number 9
_symmetry_cell_setting 'monoclinic'
loop_
_space_group_symop_operation_xyz
x,y,z
x,-y,1/2+z
1/2+x,1/2+y,z
1/2+x,1/2-y,1/2+z
loop_
_atom_site_type_symbol
_atom_site_label
_atom_site_fract_x
_atom_site_fract_y
_atom_site_fract_z
Si Si1 0.473190 0.099972 0.369520
Si Si2 0.766233 0.916774 0.896931
Si Si3 0.849464 0.384414 0.261805
Si Si4 0.385340 0.625012 0.011331
Si Si5 0.611006 0.357598 0.577643
Si Si6 0.614195 0.149194 0.948488
Si Si7 0.275757 0.061724 0.093303
Si Si8 0.964722 0.029733 0.680376
O O1 0.459799 0.235329 0.474432
O O2 0.545987 0.927046 0.378693
O O3 0.475223 0.274988 0.270975
O O4 0.395838 0.951976 0.358052
O O5 0.775395 0.757367 0.797546
O O6 0.694014 0.093695 0.900729
O O7 0.770118 0.742872 0.996942
O O8 0.844542 0.057451 0.909567
O O9 0.821699 0.619141 0.193021
O O10 0.911204 0.207858 0.209502
O O11 0.319102 0.797354 0.060701
O O12 0.420532 0.395077 0.078640
O O13 0.611905 0.059485 0.539328
O O14 0.690075 0.442269 0.622970
O O15 0.544608 0.424392 0.649800
O O16 0.606366 0.556527 0.484662
#
# Coordination Sequence:
#
# PCOD9138528 Si02
#       8
#     4   4   4   4   4   4   4   4
#     4  12  25  42  69 107 141 191 240 305 354 444
#     4  11  22  44  69  98 139 183 234 300 347 436
#     4  11  25  42  70 108 135 189 245 296 361 424
#     4  11  21  44  67  98 137 185 234 298 352 426
#     4  11  25  48  70 105 143 192 234 294 365 430
#     4  11  27  45  75 102 144 193 235 291 369 421
#     4  10  23  44  69  97 139 184 239 293 359 423
#     4  11  26  41  69 101 146 183 243 291 371 424
#
# _framework density 25.324525999999999
#
# number of rings (size 3 to 8) (size 9 to 14) (size 15 to 20)
#    0.000    1.000    5.000    0.750    7.000    0.000 
#    0.000    1.250    0.000    0.000    0.000    0.000 
#    0.000    0.000    0.000    0.000    0.000    0.000 
#
# Total GULP energy -89270.572342 kJ/mol
# GULP energy per Si atom -5579.410771 kJ/mol
# Density = 2.526689 g / cm^3
# Si number density = 25.324526 Si / 1000 Ang^3
#
#
#
# Elastic Constant Matrix: (Units=GPa)
#
#
# Indices 1 2 3 4 5 6 
#
# 1 111.0851 7.3291 37.1118 0.0000 2.7684 0.0000
# 2 7.3291 43.6051 -4.5235 0.0000 0.3899 0.0000
# 3 37.1118 -4.5235 49.2582 0.0000 2.5374 0.0000
# 4 0.0000 0.0000 0.0000 37.5084 0.0000 -3.5135
# 5 2.7684 0.3899 2.5374 0.0000 52.0861 0.0000
# 6 0.0000 0.0000 0.0000 -3.5135 0.0000 32.3150
#
#
#
# Elastic Compliance Matrix: (Units=1/GPa)
#
#
# Indices 1 2 3 4 5 6 
#
# 1 0.012431 -0.003088 -0.009640 0.000000 -0.000168 0.000000
# 2 -0.003088 0.023925 0.004536 0.000000 -0.000236 0.000000
# 3 -0.009640 0.004536 0.028027 0.000000 -0.000887 0.000000
# 4 0.000000 0.000000 0.000000 0.026935 0.000000 0.002929
# 5 -0.000168 -0.000236 -0.000887 0.000000 0.019253 0.000000
# 6 0.000000 0.000000 0.000000 0.002929 0.000000 0.031264
#
#
# Mechanical properties :
#
#
# Convention : Reuss Voigt Hill
#
# Bulk Modulus (GPa) = 20.83473 31.53147 26.18310
# Shear Modulus (GPa) = 28.69968 35.31728 32.00848
#
# Velocity S-wave (km/s) = 3.37007 3.73847 3.55904
# Velocity P-wave (km/s) = 4.83613 5.57789 5.22020
#
# Compressibility (1/GPa) = 0.04799677
#
# Stress axis : x y z
#
# Youngs Moduli (GPa) = 80.44584 41.79778 35.68040
#
# Poissons Ratio (x) = 0.12907 0.34397
# Poissons Ratio (y) = 0.24841 -0.16183
# Poissons Ratio (z) = 0.77553 -0.18958
#
# Static dielectric constant tensor:
#      x y z
#    x 1.954620 0.000000 0.007560 
#    y 0.000000 2.218210 0.000000 
#    z 0.007560 0.000000 2.166790 
# 
# From -- ./inp_files/26353.got.cif
#   From: 2010.05.17/outbox.cif.g08.bks.cpg/sg9_14_cif.got.tgz:26353.got - 2010.06.03 20:04:27.
