data_PCOD9138639
_publ_section_title
;
Structure prediction by ZEFSAII (Michael W. Deem and Ramdas Pophale) SiO2 
 PCOD9138639
Probable space group: C C
;
_chemical_formula_sum "Si O2"
_cell_formula_units_Z 28
_cell_length_a 8.587295
_cell_length_b 17.122393
_cell_length_c 8.776446
_cell_angle_alpha 90.000000
_cell_angle_beta 107.961990
_cell_angle_gamma 90.000000
_cell_volume 1227.550482
_symmetry_space_group_name_H-M "C C"
_symmetry_group_IT_number 9
_symmetry_cell_setting 'monoclinic'
loop_
_space_group_symop_operation_xyz
x,y,z
x,-y,1/2+z
1/2+x,1/2+y,z
1/2+x,1/2-y,1/2+z
loop_
_atom_site_type_symbol
_atom_site_label
_atom_site_fract_x
_atom_site_fract_y
_atom_site_fract_z
Si Si1 0.270960 0.028575 0.479580
Si Si2 0.727382 0.158153 0.189688
Si Si3 0.720402 0.661218 0.702401
Si Si4 0.421948 0.603248 0.809433
Si Si5 0.984128 0.559504 0.270304
Si Si6 0.595383 0.112958 0.835930
Si Si7 0.473118 0.545191 0.171438
O O1 0.198897 0.093734 0.570107
O O2 0.416111 0.063326 0.420593
O O3 0.139457 0.017523 0.305669
O O4 0.341863 0.954758 0.597337
O O5 0.712586 0.248876 0.151937
O O6 0.607431 0.130504 0.285449
O O7 0.907034 0.120171 0.246493
O O8 0.656391 0.111733 0.025671
O O9 0.577176 0.648970 0.785279
O O10 0.915093 0.649853 0.792992
O O11 0.249853 0.648348 0.789570
O O12 0.374196 0.533737 0.677913
O O13 0.472113 0.567630 0.992407
O O14 0.073718 0.476509 0.281871
#
# Coordination Sequence:
#
# PCOD9138639 Si02
#       7
#     4   4   4   4   4   4   4
#     4  11  24  40  70 103 132 178 229 280 339 400
#     4  11  25  44  70  99 140 175 223 285 345 395
#     4  11  27  46  66 101 144 175 220 287 341 403
#     4  11  23  43  73 100 135 179 231 276 337 402
#     4  11  21  44  72  99 130 179 231 277 331 409
#     4  10  23  45  70  99 134 177 228 279 331 407
#     4  11  23  42  71 101 131 177 234 282 326 408
#
# _framework density 22.809650999999999
#
# number of rings (size 3 to 8) (size 9 to 14) (size 15 to 20)
#    0.000    1.143    2.857    3.429    4.000    2.286 
#    5.143    0.000    0.000    0.000    0.000    0.000 
#    0.000    0.000    0.000    0.000    0.000    0.000 
#
# Total GULP energy -77971.936210 kJ/mol
# GULP energy per Si atom -5569.424015 kJ/mol
# Density = 2.275773 g / cm^3
# Si number density = 22.809651 Si / 1000 Ang^3
#
#
#
# Elastic Constant Matrix: (Units=GPa)
#
#
# Indices 1 2 3 4 5 6 
#
# 1 141.7432 12.4794 37.7572 0.0000 -26.7695 0.0000
# 2 12.4794 68.1746 4.4649 0.0000 -1.1519 0.0000
# 3 37.7572 4.4649 79.9110 0.0000 -10.5809 0.0000
# 4 0.0000 0.0000 0.0000 4.0916 0.0000 -4.8335
# 5 -26.7695 -1.1519 -10.5809 0.0000 46.7309 0.0000
# 6 0.0000 0.0000 0.0000 -4.8335 0.0000 27.4805
#
#
#
# Elastic Compliance Matrix: (Units=1/GPa)
#
#
# Indices 1 2 3 4 5 6 
#
# 1 0.008933 -0.001328 -0.003581 0.000000 0.004274 0.000000
# 2 -0.001328 0.014921 -0.000266 0.000000 -0.000453 0.000000
# 3 -0.003581 -0.000266 0.014379 0.000000 0.001198 0.000000
# 4 0.000000 0.000000 0.000000 0.308508 0.000000 0.054263
# 5 0.004274 -0.000453 0.001198 0.000000 0.024107 0.000000
# 6 0.000000 0.000000 0.000000 0.054263 0.000000 0.045934
#
#
# Mechanical properties :
#
#
# Convention : Reuss Voigt Hill
#
# Bulk Modulus (GPa) = 35.86409 44.35907 40.11158
# Shear Modulus (GPa) = 11.45667 31.33574 21.39621
#
# Velocity S-wave (km/s) = 2.24358 3.71049 3.06606
# Velocity P-wave (km/s) = 4.74013 6.15197 5.49161
#
# Compressibility (1/GPa) = 0.02788305
#
# Stress axis : x y z
#
# Youngs Moduli (GPa) = 111.94592 67.01891 69.54475
#
# Poissons Ratio (x) = 0.08903 0.24901
# Poissons Ratio (y) = 0.14872 0.01850
# Poissons Ratio (z) = 0.40083 0.01783
#
# Static dielectric constant tensor:
#      x y z
#    x 2.129310 0.000000 0.037360 
#    y 0.000000 1.818940 0.000000 
#    z 0.037360 0.000000 1.867280 
# 
# From -- ./inp_files/5380.got.cif
#   From: 2010.05.17/outbox.cif.g08.bks.cpg/sg9_3_cif.got.tgz:5380.got - 2010.06.03 20:04:27.
