data_PCOD9138530
_publ_section_title
;
Structure prediction by ZEFSAII (Michael W. Deem and Ramdas Pophale) SiO2 
 PCOD9138530
Probable space group: C C
;
_chemical_formula_sum "Si O2"
_cell_formula_units_Z 24
_cell_length_a 17.449997
_cell_length_b 5.274223
_cell_length_c 10.077407
_cell_angle_alpha 90.000000
_cell_angle_beta 104.491223
_cell_angle_gamma 90.000000
_cell_volume 897.969188
_symmetry_space_group_name_H-M "C C"
_symmetry_group_IT_number 9
_symmetry_cell_setting 'monoclinic'
loop_
_space_group_symop_operation_xyz
x,y,z
x,-y,1/2+z
1/2+x,1/2+y,z
1/2+x,1/2-y,1/2+z
loop_
_atom_site_type_symbol
_atom_site_label
_atom_site_fract_x
_atom_site_fract_y
_atom_site_fract_z
Si Si1 0.821280 0.880300 0.030960
Si Si2 0.391975 0.990310 0.235233
Si Si3 0.734671 0.373467 0.278596
Si Si4 0.677192 0.890857 0.338840
Si Si5 0.035847 0.295096 0.886351
Si Si6 0.486243 0.567005 0.115572
O O1 0.850018 0.759875 0.180728
O O2 0.908129 0.944532 0.012775
O O3 0.774300 0.648196 0.942423
O O4 0.755940 0.087076 0.964367
O O5 0.453001 0.061860 0.375318
O O6 0.313816 0.835800 0.229584
O O7 0.448419 0.823013 0.164351
O O8 0.684160 0.626704 0.266432
O O9 0.684646 0.121060 0.237252
O O10 0.601586 0.990421 0.387326
O O11 0.019848 0.115178 0.748834
O O12 0.046945 0.130763 0.023588
#
# Coordination Sequence:
#
# PCOD9138530 Si02
#       6
#     4   4   4   4   4   4
#     4   9  21  39  68 100 138 196 246 311 366 457
#     4  11  22  39  73 105 146 197 259 316 377 462
#     4  10  23  44  69  97 144 192 258 305 382 448
#     4  10  24  45  67 105 146 197 254 317 386 452
#     4  11  26  45  73 113 157 206 258 328 391 474
#     4  11  24  46  76 116 153 212 263 323 394 471
#
# _framework density 26.726973999999998
#
# number of rings (size 3 to 8) (size 9 to 14) (size 15 to 20)
#    1.000    0.667    0.000    4.000    7.000    2.667 
#    0.000    0.000    0.000    0.000    0.000    0.000 
#    0.000    0.000    0.000    0.000    0.000    0.000 
#
# Total GULP energy -66813.958768 kJ/mol
# GULP energy per Si atom -5567.829897 kJ/mol
# Density = 2.666614 g / cm^3
# Si number density = 26.726974 Si / 1000 Ang^3
#
#
#
# Elastic Constant Matrix: (Units=GPa)
#
#
# Indices 1 2 3 4 5 6 
#
# 1 107.9314 38.0303 36.9866 0.0000 17.8995 0.0000
# 2 38.0303 160.7533 39.6930 0.0000 13.4595 0.0000
# 3 36.9866 39.6930 81.5984 0.0000 11.8132 0.0000
# 4 0.0000 0.0000 0.0000 21.6870 0.0000 -9.6875
# 5 17.8995 13.4595 11.8132 0.0000 32.1189 0.0000
# 6 0.0000 0.0000 0.0000 -9.6875 0.0000 36.7244
#
#
#
# Elastic Compliance Matrix: (Units=1/GPa)
#
#
# Indices 1 2 3 4 5 6 
#
# 1 0.011911 -0.001439 -0.004040 0.000000 -0.004549 0.000000
# 2 -0.001439 0.007343 -0.002736 0.000000 -0.001269 0.000000
# 3 -0.004040 -0.002736 0.015765 0.000000 -0.002400 0.000000
# 4 0.000000 0.000000 0.000000 0.052270 0.000000 0.013788
# 5 -0.004549 -0.001269 -0.002400 0.000000 0.035084 0.000000
# 6 0.000000 0.000000 0.000000 0.013788 0.000000 0.030867
#
#
# Mechanical properties :
#
#
# Convention : Reuss Voigt Hill
#
# Bulk Modulus (GPa) = 53.79841 64.41144 59.10493
# Shear Modulus (GPa) = 28.43063 33.81095 31.12079
#
# Velocity S-wave (km/s) = 3.26505 3.56061 3.41603
# Velocity P-wave (km/s) = 5.86401 6.40750 6.14177
#
# Compressibility (1/GPa) = 0.01858791
#
# Stress axis : x y z
#
# Youngs Moduli (GPa) = 83.95396 136.18423 63.43230
#
# Poissons Ratio (x) = 0.19603 0.25629
# Poissons Ratio (y) = 0.12084 0.17354
# Poissons Ratio (z) = 0.33920 0.37258
#
# Static dielectric constant tensor:
#      x y z
#    x 2.169390 0.000000 -0.122100 
#    y 0.000000 2.338810 0.000000 
#    z -0.122100 0.000000 2.216590 
# 
# From -- ./inp_files/18812.got.cif
#   From: 2010.05.17/outbox.cif.g08.bks.cpg/sg9_10_cif.got.tgz:18812.got - 2010.06.03 20:04:27.
