data_PCOD9138172
_publ_section_title
;
Structure prediction by ZEFSAII (Michael W. Deem and Ramdas Pophale) SiO2 
 PCOD9138172
Probable space group: C C
;
_chemical_formula_sum "Si O2"
_cell_formula_units_Z 32
_cell_length_a 14.464471
_cell_length_b 21.179342
_cell_length_c 13.901947
_cell_angle_alpha 90.000000
_cell_angle_beta 19.617464
_cell_angle_gamma 90.000000
_cell_volume 1429.855163
_symmetry_space_group_name_H-M "C C"
_symmetry_group_IT_number 9
_symmetry_cell_setting 'monoclinic'
loop_
_space_group_symop_operation_xyz
x,y,z
x,-y,1/2+z
1/2+x,1/2+y,z
1/2+x,1/2-y,1/2+z
loop_
_atom_site_type_symbol
_atom_site_label
_atom_site_fract_x
_atom_site_fract_y
_atom_site_fract_z
Si Si1 0.443860 0.795066 0.500000
Si Si2 0.376291 0.090492 0.711200
Si Si3 0.385597 0.488325 0.746393
Si Si4 0.049963 0.553971 0.224709
Si Si5 0.495947 0.290502 0.242310
Si Si6 0.218453 0.112236 0.376911
Si Si7 0.377757 0.207971 0.839829
Si Si8 0.079745 0.102028 0.801248
O O1 0.742099 0.763986 0.221405
O O2 0.356412 0.855253 0.649336
O O3 0.420199 0.810673 0.409765
O O4 0.643291 0.047749 0.426599
O O5 0.455749 0.153256 0.689864
O O6 0.196250 0.104006 0.793198
O O7 0.158212 0.053114 0.991166
O O8 0.231955 0.499544 0.998383
O O9 0.511492 0.551875 0.573186
O O10 0.263122 0.587459 0.087843
O O11 0.953989 0.590476 0.221697
O O12 0.767585 0.550809 0.560235
O O13 0.552757 0.333365 0.094616
O O14 0.679019 0.227904 0.057664
O O15 0.610882 0.330503 0.218974
O O16 0.564677 0.269363 0.637191
#
# Coordination Sequence:
#
# PCOD9138172 Si02
#       8
#     4   4   4   4   4   4   4   4
#     4  10  23  40  67 101 135 176 232 285 345 406
#     4  12  26  45  70 104 131 184 236 276 340 417
#     4  12  24  44  66  98 141 176 228 275 337 423
#     4  11  21  44  65  91 140 181 208 277 342 396
#     4  11  22  35  62  95 129 177 225 264 337 409
#     4  11  23  40  68  97 147 176 219 281 346 406
#     4  10  23  48  72  96 134 175 229 297 342 391
#     4  11  24  42  64  94 141 175 223 283 335 396
#
# _framework density 22.379888000000001
#
# number of rings (size 3 to 8) (size 9 to 14) (size 15 to 20)
#    0.000    1.000    3.750    3.750    1.750    1.000 
#    6.750    0.000    0.000    0.000    0.000    0.000 
#    0.000    0.000    0.000    0.000    0.000    0.000 
#
# Total GULP energy -89331.957261 kJ/mol
# GULP energy per Si atom -5583.247329 kJ/mol
# Density = 2.232895 g / cm^3
# Si number density = 22.379888 Si / 1000 Ang^3
#
#
#
# Elastic Constant Matrix: (Units=GPa)
#
#
# Indices 1 2 3 4 5 6 
#
# 1 107.6134 48.9750 24.9279 0.0156 -9.4207 -0.1169
# 2 48.9750 62.0176 12.8102 0.1165 -2.1009 -0.1947
# 3 24.9279 12.8102 102.6644 0.0277 -21.5848 -0.2678
# 4 0.0156 0.1165 0.0277 37.7139 -0.0873 -2.5710
# 5 -9.4207 -2.1009 -21.5848 -0.0873 32.7194 0.0130
# 6 -0.1169 -0.1947 -0.2678 -2.5710 0.0130 16.8433
#
#
#
# Elastic Compliance Matrix: (Units=1/GPa)
#
#
# Indices 1 2 3 4 5 6 
#
# 1 0.015155 -0.011529 -0.001718 0.000033 0.002490 -0.000052
# 2 -0.011529 0.025325 -0.000832 -0.000065 -0.002242 0.000191
# 3 -0.001718 -0.000832 0.011780 0.000023 0.007223 0.000164
# 4 0.000033 -0.000065 0.000023 0.026795 0.000090 0.004090
# 5 0.002490 -0.002242 0.007223 0.000090 0.035901 0.000092
# 6 -0.000052 0.000191 0.000164 0.004090 0.000092 0.060000
#
#
# Mechanical properties :
#
#
# Convention : Reuss Voigt Hill
#
# Bulk Modulus (GPa) = 41.48663 49.52461 45.50562
# Shear Modulus (GPa) = 23.67999 29.82746 26.75373
#
# Velocity S-wave (km/s) = 3.25636 3.65469 3.46126
# Velocity P-wave (km/s) = 5.71981 6.32346 6.02919
#
# Compressibility (1/GPa) = 0.02410415
#
# Stress axis : x y z
#
# Youngs Moduli (GPa) = 65.98356 39.48593 84.88616
#
# Poissons Ratio (x) = 0.45524 0.14582
# Poissons Ratio (y) = 0.76073 0.07059
# Poissons Ratio (z) = 0.11335 0.03284
#
# Static dielectric constant tensor:
#      x y z
#    x 1.825080 0.000020 0.018500 
#    y 0.000020 1.858590 0.000280 
#    z 0.018500 0.000280 1.831840 
# 
# From -- ./inp_files/26146.got.cif
#   From: 2010.05.17/outbox.cif.g08.bks.cpg/sg9_14_cif.got.tgz:26146.got - 2010.06.03 20:04:27.
