data_PCOD9138154
_publ_section_title
;
Structure prediction by ZEFSAII (Michael W. Deem and Ramdas Pophale) SiO2 
 PCOD9138154
Probable space group: C C
;
_chemical_formula_sum "Si O2"
_cell_formula_units_Z 32
_cell_length_a 11.638202
_cell_length_b 15.018117
_cell_length_c 13.772085
_cell_angle_alpha 90.000000
_cell_angle_beta 145.144503
_cell_angle_gamma 90.000000
_cell_volume 1375.700488
_symmetry_space_group_name_H-M "C C"
_symmetry_group_IT_number 9
_symmetry_cell_setting 'monoclinic'
loop_
_space_group_symop_operation_xyz
x,y,z
x,-y,1/2+z
1/2+x,1/2+y,z
1/2+x,1/2-y,1/2+z
loop_
_atom_site_type_symbol
_atom_site_label
_atom_site_fract_x
_atom_site_fract_y
_atom_site_fract_z
Si Si1 0.877920 0.985207 0.529800
Si Si2 0.076899 0.149275 0.549500
Si Si3 0.492117 0.027051 0.526333
Si Si4 0.933178 0.218210 0.712758
Si Si5 0.429768 0.400423 0.381358
Si Si6 0.052051 0.606438 0.365789
Si Si7 0.618628 0.548350 0.393227
Si Si8 0.349803 0.168695 0.897363
O O1 0.650515 0.020064 0.383809
O O2 0.981650 0.066505 0.542615
O O3 0.924648 0.901449 0.493477
O O4 0.970332 0.969941 0.699922
O O5 0.063320 0.127914 0.426918
O O6 0.297807 0.158452 0.747463
O O7 0.969056 0.241557 0.498071
O O8 0.720037 0.051303 0.707983
O O9 0.444315 0.070696 0.387890
O O10 0.334863 0.061769 0.495947
O O11 0.461835 0.920934 0.504106
O O12 0.931807 0.191247 0.825396
O O13 0.745389 0.166509 0.535168
O O14 0.935078 0.325276 0.714895
O O15 0.136864 0.181239 0.805076
O O16 0.600078 0.462482 0.450852
#
# Coordination Sequence:
#
# PCOD9138154 Si02
#       8
#     4   4   4   4   4   4   4   4
#     4  11  20  42  65  98 135 170 223 283 339 398
#     4  11  25  39  70 102 134 180 227 283 351 392
#     4  11  23  43  69  94 138 182 226 274 347 417
#     4  11  20  43  62  98 134 160 231 282 327 405
#     4  10  23  39  69  96 128 179 223 280 346 395
#     4  11  23  39  64  98 130 174 219 282 339 401
#     4  11  22  46  62  96 144 171 226 284 334 417
#     4  12  22  43  69 104 133 176 231 286 341 409
#
# _framework density 23.260877000000001
#
# number of rings (size 3 to 8) (size 9 to 14) (size 15 to 20)
#    0.000    1.000    7.500    0.000    3.500    3.000 
#    0.000    5.000    0.000    0.000    0.000    0.000 
#    0.000    0.000    0.000    0.000    0.000    0.000 
#
# Total GULP energy -89499.577717 kJ/mol
# GULP energy per Si atom -5593.723607 kJ/mol
# Density = 2.320793 g / cm^3
# Si number density = 23.260877 Si / 1000 Ang^3
#
#
#
# Elastic Constant Matrix: (Units=GPa)
#
#
# Indices 1 2 3 4 5 6 
#
# 1 128.5235 34.0997 28.5842 0.0003 -12.6710 0.0000
# 2 34.0997 79.4195 26.9338 -0.0008 2.0544 -0.0005
# 3 28.5842 26.9338 50.5102 -0.0003 -4.2273 0.0003
# 4 0.0003 -0.0008 -0.0003 32.1181 -0.0005 -4.2285
# 5 -12.6710 2.0544 -4.2273 -0.0005 39.8504 0.0000
# 6 0.0000 -0.0005 0.0003 -4.2285 0.0000 22.0742
#
#
#
# Elastic Compliance Matrix: (Units=1/GPa)
#
#
# Indices 1 2 3 4 5 6 
#
# 1 0.009663 -0.002989 -0.003637 0.000000 0.002841 0.000000
# 2 -0.002989 0.016407 -0.007272 0.000000 -0.002568 0.000001
# 3 -0.003637 -0.007272 0.025898 0.000000 0.001966 -0.000001
# 4 0.000000 0.000000 0.000000 0.031941 0.000000 0.006118
# 5 0.002841 -0.002568 0.001966 0.000000 0.026338 0.000000
# 6 0.000000 0.000001 -0.000001 0.006118 0.000000 0.046474
#
#
# Mechanical properties :
#
#
# Convention : Reuss Voigt Hill
#
# Bulk Modulus (GPa) = 41.36937 48.63209 45.00073
# Shear Modulus (GPa) = 25.96400 30.06424 28.01412
#
# Velocity S-wave (km/s) = 3.34460 3.59901 3.47413
# Velocity P-wave (km/s) = 5.72177 6.18249 5.95658
#
# Compressibility (1/GPa) = 0.02417247
#
# Stress axis : x y z
#
# Youngs Moduli (GPa) = 103.49245 60.94795 38.61237
#
# Poissons Ratio (x) = 0.18217 0.14042
# Poissons Ratio (y) = 0.30933 0.28081
# Poissons Ratio (z) = 0.37636 0.44324
#
# Static dielectric constant tensor:
#      x y z
#    x 1.880120 0.000000 -0.032900 
#    y 0.000000 1.875350 0.000000 
#    z -0.032900 0.000000 1.967700 
# 
# From -- ./inp_files/11773.got.cif
#   From: 2010.05.17/outbox.cif.g08.bks.cpg/sg9_6_cif.got.tgz:11773.got - 2010.06.03 20:04:27.
