data_PCOD9138731
_publ_section_title
;
Structure prediction by ZEFSAII (Michael W. Deem and Ramdas Pophale) SiO2 
 PCOD9138731
Probable space group: C C
;
_chemical_formula_sum "Si O2"
_cell_formula_units_Z 32
_cell_length_a 14.892694
_cell_length_b 11.952655
_cell_length_c 9.776049
_cell_angle_alpha 90.000000
_cell_angle_beta 127.043895
_cell_angle_gamma 90.000000
_cell_volume 1388.988709
_symmetry_space_group_name_H-M "C C"
_symmetry_group_IT_number 9
_symmetry_cell_setting 'monoclinic'
loop_
_space_group_symop_operation_xyz
x,y,z
x,-y,1/2+z
1/2+x,1/2+y,z
1/2+x,1/2-y,1/2+z
loop_
_atom_site_type_symbol
_atom_site_label
_atom_site_fract_x
_atom_site_fract_y
_atom_site_fract_z
Si Si1 0.774720 0.154633 0.674640
Si Si2 0.425932 0.271079 0.092432
Si Si3 0.262270 0.075330 0.848265
Si Si4 0.476205 0.072712 0.497857
Si Si5 0.944396 0.998711 0.943727
Si Si6 0.587181 0.089332 0.307297
Si Si7 0.589504 0.290470 0.669289
Si Si8 0.631776 0.566322 0.444157
O O1 0.882062 0.213332 0.706180
O O2 0.825180 0.058912 0.816537
O O3 0.708324 0.100860 0.485688
O O4 0.688911 0.240265 0.666695
O O5 0.544547 0.207451 0.208343
O O6 0.335027 0.186787 0.941901
O O7 0.436211 0.388645 0.027438
O O8 0.191429 0.083016 0.644552
O O9 0.354310 0.977501 0.911243
O O10 0.189046 0.034483 0.910942
O O11 0.508386 0.063765 0.367644
O O12 0.493942 0.196474 0.572498
O O13 0.563792 0.999498 0.668141
O O14 0.000681 0.959214 0.852871
O O15 0.033355 0.093166 0.072840
O O16 0.638396 0.320663 0.861888
#
# Coordination Sequence:
#
# PCOD9138731 Si02
#       8
#     4   4   4   4   4   4   4   4
#     4  11  25  44  76 102 150 200 242 305 385 446
#     4  11  26  46  74 107 152 194 253 307 378 448
#     4  11  25  47  78 106 147 202 250 302 383 448
#     4  10  23  46  70 110 142 193 247 307 361 452
#     4  12  27  47  73 114 149 195 253 314 369 449
#     4  10  24  44  74 103 147 192 246 307 372 443
#     4  11  26  44  74 105 152 190 252 306 378 443
#     4  12  26  46  77 111 149 194 253 310 374 451
#
# _framework density 23.038345
#
# number of rings (size 3 to 8) (size 9 to 14) (size 15 to 20)
#    0.000    1.000    1.250    4.500    8.750    4.000 
#    0.000    0.000    0.000    0.000    0.000    0.000 
#    0.000    0.000    0.000    0.000    0.000    0.000 
#
# Total GULP energy -89548.950675 kJ/mol
# GULP energy per Si atom -5596.809417 kJ/mol
# Density = 2.298591 g / cm^3
# Si number density = 23.038345 Si / 1000 Ang^3
#
#
#
# Elastic Constant Matrix: (Units=GPa)
#
#
# Indices 1 2 3 4 5 6 
#
# 1 93.5328 40.8655 18.2475 0.0000 -5.0845 0.0000
# 2 40.8655 157.3756 57.4245 0.0000 -6.0906 0.0000
# 3 18.2475 57.4245 129.7062 0.0000 -4.2459 0.0000
# 4 0.0000 0.0000 0.0000 44.8406 0.0000 -0.2443
# 5 -5.0845 -6.0906 -4.2459 0.0000 32.1611 0.0000
# 6 0.0000 0.0000 0.0000 -0.2443 0.0000 31.2791
#
#
#
# Elastic Compliance Matrix: (Units=1/GPa)
#
#
# Indices 1 2 3 4 5 6 
#
# 1 0.012129 -0.002972 -0.000348 0.000000 0.001309 0.000000
# 2 -0.002972 0.008339 -0.003251 0.000000 0.000680 0.000000
# 3 -0.000348 -0.003251 0.009216 0.000000 0.000546 0.000000
# 4 0.000000 0.000000 0.000000 0.022302 0.000000 0.000174
# 5 0.001309 0.000680 0.000546 0.000000 0.031501 0.000000
# 6 0.000000 0.000000 0.000000 0.000174 0.000000 0.031972
#
#
# Mechanical properties :
#
#
# Convention : Reuss Voigt Hill
#
# Bulk Modulus (GPa) = 60.45430 68.18774 64.32102
# Shear Modulus (GPa) = 37.28155 39.26128 38.27142
#
# Velocity S-wave (km/s) = 4.02710 4.13264 4.08021
# Velocity P-wave (km/s) = 6.92250 7.24109 7.08359
#
# Compressibility (1/GPa) = 0.01654142
#
# Stress axis : x y z
#
# Youngs Moduli (GPa) = 82.44763 119.92325 108.50694
#
# Poissons Ratio (x) = 0.35641 0.03773
# Poissons Ratio (y) = 0.24503 0.35280
# Poissons Ratio (z) = 0.02867 0.38992
#
# Static dielectric constant tensor:
#      x y z
#    x 1.899580 0.000000 0.024770 
#    y 0.000000 1.864960 0.000000 
#    z 0.024770 0.000000 1.895640 
# 
# From -- ./inp_files/9328.got.cif
#   From: 2010.05.17/outbox.cif.g08.bks.cpg/sg9_5_cif.got.tgz:9328.got - 2010.06.03 20:04:27.
