data_PCOD9138066
_publ_section_title
;
Structure prediction by ZEFSAII (Michael W. Deem and Ramdas Pophale) SiO2 
 PCOD9138066
Probable space group: C C
;
_chemical_formula_sum "Si O2"
_cell_formula_units_Z 28
_cell_length_a 17.391623
_cell_length_b 5.317919
_cell_length_c 13.575246
_cell_angle_alpha 90.000000
_cell_angle_beta 123.847014
_cell_angle_gamma 90.000000
_cell_volume 1042.758340
_symmetry_space_group_name_H-M "C C"
_symmetry_group_IT_number 9
_symmetry_cell_setting 'monoclinic'
loop_
_space_group_symop_operation_xyz
x,y,z
x,-y,1/2+z
1/2+x,1/2+y,z
1/2+x,1/2-y,1/2+z
loop_
_atom_site_type_symbol
_atom_site_label
_atom_site_fract_x
_atom_site_fract_y
_atom_site_fract_z
Si Si1 0.105370 0.347049 0.006930
Si Si2 0.279087 0.777247 0.727163
Si Si3 0.360628 0.844725 0.167744
Si Si4 0.494604 0.982203 0.601646
Si Si5 0.668838 0.360627 0.269742
Si Si6 0.856435 0.875737 0.888939
Si Si7 0.654676 0.674547 0.438014
O O1 0.202038 0.408762 0.132149
O O2 0.029035 0.344182 0.036317
O O3 0.096080 0.585270 0.929096
O O4 0.116745 0.084645 0.959628
O O5 0.348957 0.864459 0.693938
O O6 0.335547 0.670581 0.858808
O O7 0.213215 0.015124 0.704269
O O8 0.441845 0.854725 0.146029
O O9 0.372444 0.705045 0.283061
O O10 0.263172 0.788183 0.043286
O O11 0.583751 0.824961 0.701814
O O12 0.432107 0.762683 0.507373
O O13 0.760224 0.216366 0.371004
O O14 0.647269 0.604415 0.318908
#
# Coordination Sequence:
#
# PCOD9138066 Si02
#       7
#     4   4   4   4   4   4   4
#     4  11  24  46  72 107 149 200 254 315 384 457
#     4  10  22  47  74  97 156 200 249 322 383 473
#     4  10  23  45  70 111 143 197 261 312 384 459
#     4  12  25  45  74 113 149 199 261 324 386 474
#     4  11  25  46  72 111 153 204 260 318 401 462
#     4  11  23  48  71 107 151 202 250 324 392 470
#     4  11  24  47  77 104 153 206 253 319 390 459
#
# _framework density 26.851862000000001
#
# number of rings (size 3 to 8) (size 9 to 14) (size 15 to 20)
#    0.000    1.143    4.286    1.714    4.000    1.143 
#   12.857    0.000    0.000    0.000    0.000    0.000 
#    0.000    0.000    0.000    0.000    0.000    0.000 
#
# Total GULP energy -78316.068753 kJ/mol
# GULP energy per Si atom -5594.004911 kJ/mol
# Density = 2.679075 g / cm^3
# Si number density = 26.851862 Si / 1000 Ang^3
#
#
#
# Elastic Constant Matrix: (Units=GPa)
#
#
# Indices 1 2 3 4 5 6 
#
# 1 170.1969 48.1784 35.0979 0.0000 -8.7054 0.0000
# 2 48.1784 91.4211 16.6459 0.0002 -0.8550 0.0003
# 3 35.0979 16.6459 70.7415 0.0000 3.1705 0.0000
# 4 0.0000 0.0002 0.0000 35.3944 0.0000 -3.9825
# 5 -8.7054 -0.8550 3.1705 0.0000 42.8882 0.0000
# 6 0.0000 0.0003 0.0000 -3.9825 0.0000 31.6039
#
#
#
# Elastic Compliance Matrix: (Units=1/GPa)
#
#
# Indices 1 2 3 4 5 6 
#
# 1 0.007551 -0.003414 -0.003019 0.000000 0.001688 0.000000
# 2 -0.003414 0.012979 -0.001345 0.000000 -0.000335 0.000000
# 3 -0.003019 -0.001345 0.016032 0.000000 -0.001825 0.000000
# 4 0.000000 0.000000 0.000000 0.028659 0.000000 0.003611
# 5 0.001688 -0.000335 -0.001825 0.000000 0.023787 0.000000
# 6 0.000000 0.000000 0.000000 0.003611 0.000000 0.032097
#
#
# Mechanical properties :
#
#
# Convention : Reuss Voigt Hill
#
# Bulk Modulus (GPa) = 47.60435 59.13375 53.36905
# Shear Modulus (GPa) = 34.80365 37.47311 36.13838
#
# Velocity S-wave (km/s) = 3.60409 3.73976 3.67255
# Velocity P-wave (km/s) = 5.92337 6.38105 6.15646
#
# Compressibility (1/GPa) = 0.02100648
#
# Stress axis : x y z
#
# Youngs Moduli (GPa) = 132.43777 77.04596 62.37530
#
# Poissons Ratio (x) = 0.26302 0.18829
# Poissons Ratio (y) = 0.45211 0.08392
# Poissons Ratio (z) = 0.39978 0.10366
#
# Static dielectric constant tensor:
#      x y z
#    x 2.043270 0.000000 0.006570 
#    y 0.000000 2.194450 0.000000 
#    z 0.006570 0.000000 2.201060 
# 
# From -- ./inp_files/26414.got.cif
#   From: 2010.05.17/outbox.cif.g08.bks.cpg/sg9_14_cif.got.tgz:26414.got - 2010.06.03 20:04:27.
