data_PCOD9138559
_publ_section_title
;
Structure prediction by ZEFSAII (Michael W. Deem and Ramdas Pophale) SiO2 
 PCOD9138559
Probable space group: C C
;
_chemical_formula_sum "Si O2"
_cell_formula_units_Z 20
_cell_length_a 20.215262
_cell_length_b 7.240495
_cell_length_c 13.696149
_cell_angle_alpha 90.000000
_cell_angle_beta 24.789466
_cell_angle_gamma 90.000000
_cell_volume 840.534636
_symmetry_space_group_name_H-M "C C"
_symmetry_group_IT_number 9
_symmetry_cell_setting 'monoclinic'
loop_
_space_group_symop_operation_xyz
x,y,z
x,-y,1/2+z
1/2+x,1/2+y,z
1/2+x,1/2-y,1/2+z
loop_
_atom_site_type_symbol
_atom_site_label
_atom_site_fract_x
_atom_site_fract_y
_atom_site_fract_z
Si Si1 0.985210 0.331703 0.118810
Si Si2 0.480279 0.816055 0.351939
Si Si3 0.433545 0.600832 0.704429
Si Si4 0.283881 0.100423 0.277512
Si Si5 0.239764 0.507897 0.632696
O O1 0.829295 0.434237 0.287744
O O2 0.011526 0.368918 0.198140
O O3 0.634023 0.155137 0.712721
O O4 0.956531 0.113647 0.146563
O O5 0.349993 0.943485 0.581168
O O6 0.393444 0.617251 0.464764
O O7 0.382688 0.727137 0.684239
O O8 0.604313 0.656267 0.514398
O O9 0.305319 0.626270 0.961331
O O10 0.630034 0.911217 0.860117
#
# Coordination Sequence:
#
# PCOD9138559 Si02
#       5
#     4   4   4   4   4
#     4  10  25  47  73 108 146 194 244 302 376 438
#     4  10  23  44  72 104 147 191 240 309 357 434
#     4  11  27  46  73 111 147 195 249 305 364 444
#     4  11  25  48  74 105 147 196 245 309 368 439
#     4  10  24  45  74 110 149 196 246 305 373 439
#
# _framework density 23.794377999999998
#
# number of rings (size 3 to 8) (size 9 to 14) (size 15 to 20)
#    0.000    1.600    0.000    2.400   16.800    1.600 
#   10.800    0.000    0.000    0.000    0.000    0.000 
#    0.000    0.000    0.000    0.000    0.000    0.000 
#
# Total GULP energy -55948.890248 kJ/mol
# GULP energy per Si atom -5594.889025 kJ/mol
# Density = 2.374022 g / cm^3
# Si number density = 23.794378 Si / 1000 Ang^3
#
#
#
# Elastic Constant Matrix: (Units=GPa)
#
#
# Indices 1 2 3 4 5 6 
#
# 1 122.5861 55.8748 67.3237 0.0000 15.6398 0.0000
# 2 55.8748 84.0794 28.6023 0.0000 -1.9904 0.0000
# 3 67.3237 28.6023 149.5333 0.0000 11.1533 0.0000
# 4 0.0000 0.0000 0.0000 29.2361 0.0000 2.8171
# 5 15.6398 -1.9904 11.1533 0.0000 47.0011 0.0000
# 6 0.0000 0.0000 0.0000 2.8171 0.0000 34.2605
#
#
#
# Elastic Compliance Matrix: (Units=1/GPa)
#
#
# Indices 1 2 3 4 5 6 
#
# 1 0.015349 -0.008621 -0.004941 0.000000 -0.004300 0.000000
# 2 -0.008621 0.017624 0.000245 0.000000 0.003557 0.000000
# 3 -0.004941 0.000245 0.008899 0.000000 -0.000457 0.000000
# 4 0.000000 0.000000 0.000000 0.034477 0.000000 -0.002835
# 5 -0.004300 0.003557 -0.000457 0.000000 0.022966 0.000000
# 6 0.000000 0.000000 0.000000 -0.002835 0.000000 0.029421
#
#
# Mechanical properties :
#
#
# Convention : Reuss Voigt Hill
#
# Bulk Modulus (GPa) = 65.62462 73.31115 69.46788
# Shear Modulus (GPa) = 31.16236 35.72607 33.44421
#
# Velocity S-wave (km/s) = 3.62284 3.87906 3.75314
# Velocity P-wave (km/s) = 6.71861 7.13722 6.93108
#
# Compressibility (1/GPa) = 0.01523818
#
# Stress axis : x y z
#
# Youngs Moduli (GPa) = 65.14978 56.74218 112.37029
#
# Poissons Ratio (x) = 0.48919 0.55520
# Poissons Ratio (y) = 0.56168 -0.02756
# Poissons Ratio (z) = 0.32189 -0.01392
#
# Static dielectric constant tensor:
#      x y z
#    x 1.977010 0.000000 0.068350 
#    y 0.000000 1.914520 0.000000 
#    z 0.068350 0.000000 1.968810 
# 
# From -- ./inp_files/4793.got.cif
#   From: 2010.05.17/outbox.cif.g08.bks.cpg/sg9_3_cif.got.tgz:4793.got - 2010.06.03 20:04:27.
