data_PCOD9138565
_publ_section_title
;
Structure prediction by ZEFSAII (Michael W. Deem and Ramdas Pophale) SiO2 
 PCOD9138565
Probable space group: C C
;
_chemical_formula_sum "Si O2"
_cell_formula_units_Z 32
_cell_length_a 11.605407
_cell_length_b 19.150636
_cell_length_c 8.255545
_cell_angle_alpha 90.000000
_cell_angle_beta 137.233064
_cell_angle_gamma 90.000000
_cell_volume 1245.863517
_symmetry_space_group_name_H-M "C C"
_symmetry_group_IT_number 9
_symmetry_cell_setting 'monoclinic'
loop_
_space_group_symop_operation_xyz
x,y,z
x,-y,1/2+z
1/2+x,1/2+y,z
1/2+x,1/2-y,1/2+z
loop_
_atom_site_type_symbol
_atom_site_label
_atom_site_fract_x
_atom_site_fract_y
_atom_site_fract_z
Si Si1 0.449580 0.158989 0.489590
Si Si2 0.579864 0.292378 0.508326
Si Si3 0.331457 0.207623 0.712871
Si Si4 0.904017 0.518170 0.293164
Si Si5 0.018503 0.397465 0.603156
Si Si6 0.961742 0.158988 0.231609
Si Si7 0.507299 0.481832 0.928033
Si Si8 0.392812 0.602535 0.618036
O O1 0.579511 0.208977 0.529166
O O2 0.267627 0.178165 0.222982
O O3 0.434775 0.181216 0.660648
O O4 0.468413 0.077292 0.484740
O O5 0.491172 0.326715 0.263015
O O6 0.476546 0.318785 0.560549
O O7 0.143694 0.178165 0.498217
O O8 0.420147 0.173286 0.958181
O O9 0.331810 0.291024 0.692030
O O10 0.008716 0.448113 0.436341
O O11 0.926671 0.556240 0.145475
O O12 0.705658 0.500002 0.110601
O O13 0.205657 0.384984 0.860596
O O14 0.942912 0.077291 0.236462
O O15 0.484645 0.443761 0.075718
O O16 0.402596 0.551887 0.784848
#
# Coordination Sequence:
#
# PCOD9138565 Si02
#       8
#     4   4   4   4   4   4   4   4
#     4  10  23  44  73 100 138 188 233 294 347 428
#     4  10  23  45  70 102 140 185 237 287 358 418
#     4  10  23  45  70 102 140 185 237 287 358 418
#     4  12  25  45  72 102 141 189 237 292 357 427
#     4  12  27  46  70 106 144 185 237 300 356 421
#     4  10  23  44  73 100 138 188 233 294 347 428
#     4  12  25  45  72 102 141 189 237 292 357 427
#     4  12  27  46  70 106 144 185 237 300 356 421
#
# _framework density 25.684995000000001
#
# number of rings (size 3 to 8) (size 9 to 14) (size 15 to 20)
#    0.000    1.000    2.500    3.000    7.000    1.000 
#    4.500    0.000    0.000    0.000    0.000    0.000 
#    0.000    0.000    0.000    0.000    0.000    0.000 
#
# Total GULP energy -89716.732832 kJ/mol
# GULP energy per Si atom -5607.295802 kJ/mol
# Density = 2.562654 g / cm^3
# Si number density = 25.684995 Si / 1000 Ang^3
#
#
#
# Elastic Constant Matrix: (Units=GPa)
#
#
# Indices 1 2 3 4 5 6 
#
# 1 62.0394 0.7773 27.4352 0.0000 -6.7345 0.0000
# 2 0.7773 105.8296 10.6124 0.0000 0.8525 0.0000
# 3 27.4352 10.6124 127.8390 0.0000 12.6625 0.0000
# 4 0.0000 0.0000 0.0000 46.4526 0.0000 -8.4255
# 5 -6.7345 0.8525 12.6625 0.0000 37.9221 0.0000
# 6 0.0000 0.0000 0.0000 -8.4255 0.0000 37.4583
#
#
#
# Elastic Compliance Matrix: (Units=1/GPa)
#
#
# Indices 1 2 3 4 5 6 
#
# 1 0.018625 0.000275 -0.004496 0.000000 0.004802 0.000000
# 2 0.000275 0.009533 -0.000863 0.000000 0.000123 0.000000
# 3 -0.004496 -0.000863 0.009242 0.000000 -0.003865 0.000000
# 4 0.000000 0.000000 0.000000 0.022443 0.000000 0.005048
# 5 0.004802 0.000123 -0.003865 0.000000 0.028510 0.000000
# 6 0.000000 0.000000 0.000000 0.005048 0.000000 0.027832
#
#
# Mechanical properties :
#
#
# Convention : Reuss Voigt Hill
#
# Bulk Modulus (GPa) = 36.71974 41.48416 39.10195
# Shear Modulus (GPa) = 36.92016 41.49212 39.20614
#
# Velocity S-wave (km/s) = 3.79545 4.02359 3.91118
# Velocity P-wave (km/s) = 5.79089 6.14589 5.97103
#
# Compressibility (1/GPa) = 0.02723331
#
# Stress axis : x y z
#
# Youngs Moduli (GPa) = 53.69220 104.90270 108.20730
#
# Poissons Ratio (x) = -0.02888 0.48645
# Poissons Ratio (y) = -0.01478 0.09334
# Poissons Ratio (z) = 0.24137 0.09049
#
# Static dielectric constant tensor:
#      x y z
#    x 2.074070 0.000000 -0.070570 
#    y 0.000000 2.013790 0.000000 
#    z -0.070570 0.000000 2.003990 
# 
# From -- ./inp_files/10057.got.cif
#   From: 2010.05.17/outbox.cif.g08.bks.cpg/sg9_6_cif.got.tgz:10057.got - 2010.06.03 20:04:27.
