data_PCOD9138192
_publ_section_title
;
Structure prediction by ZEFSAII (Michael W. Deem and Ramdas Pophale) SiO2 
 PCOD9138192
Probable space group: C C
;
_chemical_formula_sum "Si O2"
_cell_formula_units_Z 28
_cell_length_a 11.300580
_cell_length_b 12.653777
_cell_length_c 14.790413
_cell_angle_alpha 90.000000
_cell_angle_beta 150.393441
_cell_angle_gamma 90.000000
_cell_volume 1044.875522
_symmetry_space_group_name_H-M "C C"
_symmetry_group_IT_number 9
_symmetry_cell_setting 'monoclinic'
loop_
_space_group_symop_operation_xyz
x,y,z
x,-y,1/2+z
1/2+x,1/2+y,z
1/2+x,1/2-y,1/2+z
loop_
_atom_site_type_symbol
_atom_site_label
_atom_site_fract_x
_atom_site_fract_y
_atom_site_fract_z
Si Si1 0.689310 0.389663 0.740770
Si Si2 0.662435 0.148886 0.243307
Si Si3 0.382605 0.508625 0.750310
Si Si4 0.782405 0.580118 0.120195
Si Si5 0.111403 0.623910 0.854471
Si Si6 0.015428 0.110761 0.649691
Si Si7 0.764401 0.327132 0.976053
O O1 0.795098 0.350259 0.717501
O O2 0.397707 0.385261 0.548860
O O3 0.706470 0.516458 0.763430
O O4 0.817524 0.329474 0.906021
O O5 0.703620 0.075310 0.181462
O O6 0.402569 0.121046 0.110036
O O7 0.648398 0.276286 0.234335
O O8 0.843975 0.114226 0.445925
O O9 0.371061 0.577623 0.648632
O O10 0.603044 0.429566 0.877414
O O11 0.500914 0.571595 0.911638
O O12 0.939473 0.475716 0.252746
O O13 0.099598 0.731898 0.904833
O O14 0.006565 0.662943 0.690091
#
# Coordination Sequence:
#
# PCOD9138192 Si02
#       7
#     4   4   4   4   4   4   4
#     4  11  23  49  69 108 153 192 257 326 382 477
#     4  12  25  50  76 110 157 206 259 334 400 483
#     4  10  24  47  74 109 156 197 259 330 390 476
#     4  11  23  46  70 104 146 197 252 316 394 463
#     4  11  21  44  70 105 151 185 255 317 379 474
#     4  11  25  50  74 114 150 204 268 319 406 479
#     4  10  23  40  75 114 137 203 256 308 409 474
#
# _framework density 26.797450000000001
#
# number of rings (size 3 to 8) (size 9 to 14) (size 15 to 20)
#    0.000    1.143    4.286    0.857    2.000    0.000 
#   20.571    0.000    0.000    0.000    0.000    0.000 
#    0.000    0.000    0.000    0.000    0.000    0.000 
#
# Total GULP energy -77966.305859 kJ/mol
# GULP energy per Si atom -5569.021847 kJ/mol
# Density = 2.673646 g / cm^3
# Si number density = 26.797450 Si / 1000 Ang^3
#
#
#
# Elastic Constant Matrix: (Units=GPa)
#
#
# Indices 1 2 3 4 5 6 
#
# 1 119.6481 20.6822 24.0510 0.0013 -15.5705 0.0003
# 2 20.6822 98.2347 22.0644 -0.0010 4.3198 -0.0026
# 3 24.0510 22.0644 137.9446 0.0040 -16.9609 0.0007
# 4 0.0013 -0.0010 0.0040 37.4090 0.0027 -0.6980
# 5 -15.5705 4.3198 -16.9609 0.0027 23.1403 0.0008
# 6 0.0003 -0.0026 0.0007 -0.6980 0.0008 8.5068
#
#
#
# Elastic Compliance Matrix: (Units=1/GPa)
#
#
# Indices 1 2 3 4 5 6 
#
# 1 0.009699 -0.002210 -0.000532 -0.000001 0.006549 -0.000002
# 2 -0.002210 0.011331 -0.002055 0.000001 -0.005109 0.000004
# 3 -0.000532 -0.002055 0.008434 -0.000001 0.006207 -0.000002
# 4 -0.000001 0.000001 -0.000001 0.026773 -0.000005 0.002197
# 5 0.006549 -0.005109 0.006207 -0.000005 0.053125 -0.000007
# 6 -0.000002 0.000004 -0.000002 0.002197 -0.000007 0.117733
#
#
# Mechanical properties :
#
#
# Convention : Reuss Voigt Hill
#
# Bulk Modulus (GPa) = 50.33078 54.38030 52.35554
# Shear Modulus (GPa) = 20.54958 33.07987 26.81472
#
# Velocity S-wave (km/s) = 2.77221 3.51727 3.16673
# Velocity P-wave (km/s) = 5.39162 6.06894 5.74028
#
# Compressibility (1/GPa) = 0.01986856
#
# Stress axis : x y z
#
# Youngs Moduli (GPa) = 103.10153 88.25044 118.56693
#
# Poissons Ratio (x) = 0.19508 0.06311
# Poissons Ratio (y) = 0.22790 0.24369
# Poissons Ratio (z) = 0.05488 0.18138
#
# Static dielectric constant tensor:
#      x y z
#    x 2.174340 0.000000 -0.026410 
#    y 0.000000 2.331630 0.000000 
#    z -0.026410 0.000000 2.157340 
# 
# From -- ./inp_files/24944.got.cif
#   From: 2010.05.17/outbox.cif.g08.bks.cpg/sg9_13_cif.got.tgz:24944.got - 2010.06.03 20:04:27.
