data_PCOD9138167
_publ_section_title
;
Structure prediction by ZEFSAII (Michael W. Deem and Ramdas Pophale) SiO2 
 PCOD9138167
Probable space group: C C
;
_chemical_formula_sum "Si O2"
_cell_formula_units_Z 28
_cell_length_a 6.592182
_cell_length_b 22.895998
_cell_length_c 7.120297
_cell_angle_alpha 90.000000
_cell_angle_beta 92.685130
_cell_angle_gamma 90.000000
_cell_volume 1073.519131
_symmetry_space_group_name_H-M "C C"
_symmetry_group_IT_number 9
_symmetry_cell_setting 'monoclinic'
loop_
_space_group_symop_operation_xyz
x,y,z
x,-y,1/2+z
1/2+x,1/2+y,z
1/2+x,1/2-y,1/2+z
loop_
_atom_site_type_symbol
_atom_site_label
_atom_site_fract_x
_atom_site_fract_y
_atom_site_fract_z
Si Si1 0.392740 0.682287 0.698790
Si Si2 0.234628 0.423934 0.824102
Si Si3 0.662685 0.595138 0.487993
Si Si4 0.517479 0.041660 0.680627
Si Si5 0.318674 0.213441 0.410504
Si Si6 0.558412 0.862298 0.473473
Si Si7 0.859367 0.749717 0.842857
O O1 0.161525 0.574831 0.536803
O O2 0.554953 0.633454 0.647733
O O3 0.467171 0.742969 0.802799
O O4 0.288718 0.703917 0.499803
O O5 0.479603 0.423509 0.844677
O O6 0.132030 0.482653 0.737541
O O7 0.157346 0.374532 0.678232
O O8 0.818012 0.643165 0.407882
O O9 0.797678 0.542203 0.570800
O O10 0.739572 0.158199 0.845068
O O11 0.486113 0.078944 0.868180
O O12 0.887793 0.312576 0.452057
O O13 0.091895 0.226221 0.327482
O O14 0.813006 0.735093 0.625145
#
# Coordination Sequence:
#
# PCOD9138167 Si02
#       7
#     4   4   4   4   4   4   4
#     4  10  24  44  74 109 163 197 253 311 376 482
#     4  12  28  52  78 107 153 198 267 343 381 457
#     4  11  26  49  77 116 151 210 259 312 405 455
#     4  12  26  53  76 110 148 199 270 331 386 461
#     4  10  23  41  67 110 157 202 250 298 383 470
#     4  11  24  47  72 104 156 202 241 327 391 433
#     4  10  23  40  66 108 154 198 252 294 376 466
#
# _framework density 26.082439999999998
#
# number of rings (size 3 to 8) (size 9 to 14) (size 15 to 20)
#    0.000    1.143    4.286    0.000   10.000    5.714 
#    2.571    0.000    0.000    0.000    0.000    0.000 
#    0.000    0.000    0.000    0.000    0.000    0.000 
#
# Total GULP energy -78257.643606 kJ/mol
# GULP energy per Si atom -5589.831686 kJ/mol
# Density = 2.602308 g / cm^3
# Si number density = 26.082440 Si / 1000 Ang^3
#
#
#
# Elastic Constant Matrix: (Units=GPa)
#
#
# Indices 1 2 3 4 5 6 
#
# 1 74.8381 37.1231 58.1507 0.0000 4.1897 0.0000
# 2 37.1231 119.8867 42.9736 0.0000 4.6609 0.0000
# 3 58.1507 42.9736 158.0227 0.0000 6.5113 0.0000
# 4 0.0000 0.0000 0.0000 54.4013 0.0000 11.6264
# 5 4.1897 4.6609 6.5113 0.0000 36.9679 0.0000
# 6 0.0000 0.0000 0.0000 11.6264 0.0000 49.1340
#
#
#
# Elastic Compliance Matrix: (Units=1/GPa)
#
#
# Indices 1 2 3 4 5 6 
#
# 1 0.020325 -0.003985 -0.006368 0.000000 -0.000680 0.000000
# 2 -0.003985 0.010043 -0.001240 0.000000 -0.000596 0.000000
# 3 -0.006368 -0.001240 0.009038 0.000000 -0.000714 0.000000
# 4 0.000000 0.000000 0.000000 0.019361 0.000000 -0.004581
# 5 -0.000680 -0.000596 -0.000714 0.000000 0.027328 0.000000
# 6 0.000000 0.000000 0.000000 -0.004581 0.000000 0.021437
#
#
# Mechanical properties :
#
#
# Convention : Reuss Voigt Hill
#
# Bulk Modulus (GPa) = 61.65035 69.91581 65.78308
# Shear Modulus (GPa) = 36.73142 42.40066 39.56604
#
# Velocity S-wave (km/s) = 3.75678 4.03630 3.89904
# Velocity P-wave (km/s) = 6.51965 6.97038 6.74878
#
# Compressibility (1/GPa) = 0.01622051
#
# Stress axis : x y z
#
# Youngs Moduli (GPa) = 49.20153 99.57388 110.64249
#
# Poissons Ratio (x) = 0.39676 0.70453
# Poissons Ratio (y) = 0.19605 0.13722
# Poissons Ratio (z) = 0.31330 0.12349
#
# Static dielectric constant tensor:
#      x y z
#    x 2.164630 0.000000 0.039110 
#    y 0.000000 2.159260 0.000000 
#    z 0.039110 0.000000 2.055250 
# 
# From -- ./inp_files/5654.got.cif
#   From: 2010.05.17/outbox.cif.g08.bks.cpg/sg9_3_cif.got.tgz:5654.got - 2010.06.03 20:04:27.
