data_PCOD9138290
_publ_section_title
;
Structure prediction by ZEFSAII (Michael W. Deem and Ramdas Pophale) SiO2 
 PCOD9138290
Probable space group: C C
;
_chemical_formula_sum "Si O2"
_cell_formula_units_Z 24
_cell_length_a 6.472871
_cell_length_b 12.439341
_cell_length_c 13.953963
_cell_angle_alpha 90.000000
_cell_angle_beta 118.132351
_cell_angle_gamma 90.000000
_cell_volume 990.813509
_symmetry_space_group_name_H-M "C C"
_symmetry_group_IT_number 9
_symmetry_cell_setting 'monoclinic'
loop_
_space_group_symop_operation_xyz
x,y,z
x,-y,1/2+z
1/2+x,1/2+y,z
1/2+x,1/2-y,1/2+z
loop_
_atom_site_type_symbol
_atom_site_label
_atom_site_fract_x
_atom_site_fract_y
_atom_site_fract_z
Si Si1 0.981160 0.582389 0.272250
Si Si2 0.763663 0.126356 0.874478
Si Si3 0.475821 0.829873 0.582520
Si Si4 0.408241 0.622207 0.682338
Si Si5 0.954543 0.891709 0.620489
Si Si6 0.329763 0.213440 0.846239
O O1 0.707534 0.611467 0.228446
O O2 0.108987 0.482862 0.348615
O O3 0.967248 0.571061 0.153447
O O4 0.165056 0.682166 0.322865
O O5 0.836069 0.129402 0.778563
O O6 0.589451 0.224580 0.862098
O O7 0.947183 0.122586 0.003066
O O8 0.353248 0.727648 0.607756
O O9 0.754718 0.813925 0.620987
O O10 0.360959 0.841990 0.455369
O O11 0.355045 0.511226 0.620080
O O12 0.688737 0.633101 0.747867
#
# Coordination Sequence:
#
# PCOD9138290 Si02
#       6
#     4   4   4   4   4   4
#     4  11  22  42  70 101 137 183 232 284 347 413
#     4  11  23  43  70 104 143 185 232 289 350 414
#     4  10  23  42  67 100 139 181 231 283 343 413
#     4  11  22  42  70 101 137 183 232 284 347 413
#     4  11  23  43  70 104 143 185 232 289 350 414
#     4  10  23  42  67 100 139 181 231 283 343 413
#
# _framework density 24.222519999999999
#
# number of rings (size 3 to 8) (size 9 to 14) (size 15 to 20)
#    0.000    1.333    3.333    2.000    0.000    5.333 
#    0.000    0.000    0.000    0.000    0.000    0.000 
#    0.000    0.000    0.000    0.000    0.000    0.000 
#
# Total GULP energy -66853.462621 kJ/mol
# GULP energy per Si atom -5571.121885 kJ/mol
# Density = 2.416739 g / cm^3
# Si number density = 24.222520 Si / 1000 Ang^3
#
#
#
# Elastic Constant Matrix: (Units=GPa)
#
#
# Indices 1 2 3 4 5 6 
#
# 1 96.9395 38.1255 26.7513 0.0000 -6.4061 0.0000
# 2 38.1255 93.3636 34.9390 0.0000 5.2045 0.0000
# 3 26.7513 34.9390 123.7918 0.0000 -2.2286 0.0000
# 4 0.0000 0.0000 0.0000 25.4195 0.0000 -0.4256
# 5 -6.4061 5.2045 -2.2286 0.0000 53.9214 0.0000
# 6 0.0000 0.0000 0.0000 -0.4256 0.0000 30.9167
#
#
#
# Elastic Compliance Matrix: (Units=1/GPa)
#
#
# Indices 1 2 3 4 5 6 
#
# 1 0.012699 -0.004783 -0.001360 0.000000 0.001914 0.000000
# 2 -0.004783 0.013869 -0.002917 0.000000 -0.002027 0.000000
# 3 -0.001360 -0.002917 0.009204 0.000000 0.000500 0.000000
# 4 0.000000 0.000000 0.000000 0.039349 0.000000 0.000542
# 5 0.001914 -0.002027 0.000500 0.000000 0.018989 0.000000
# 6 0.000000 0.000000 0.000000 0.000542 0.000000 0.032352
#
#
# Mechanical properties :
#
#
# Convention : Reuss Voigt Hill
#
# Bulk Modulus (GPa) = 56.65302 57.08070 56.86686
# Shear Modulus (GPa) = 33.22993 36.33678 34.78336
#
# Velocity S-wave (km/s) = 3.70788 3.87735 3.79356
# Velocity P-wave (km/s) = 6.46301 6.60768 6.53574
#
# Compressibility (1/GPa) = 0.01765131
#
# Stress axis : x y z
#
# Youngs Moduli (GPa) = 78.74817 72.10395 108.64558
#
# Poissons Ratio (x) = 0.34491 0.14772
# Poissons Ratio (y) = 0.37669 0.31694
# Poissons Ratio (z) = 0.10707 0.21034
#
# Static dielectric constant tensor:
#      x y z
#    x 2.071950 0.000000 0.027030 
#    y 0.000000 1.987970 0.000000 
#    z 0.027030 0.000000 1.904020 
# 
# From -- ./inp_files/21693.got.cif
#   From: 2010.05.17/outbox.cif.g08.bks.cpg/sg9_11_cif.got.tgz:21693.got - 2010.06.03 20:04:27.
