data_PCOD9138802
_publ_section_title
;
Structure prediction by ZEFSAII (Michael W. Deem and Ramdas Pophale) SiO2 
 PCOD9138802
Probable space group: C C
;
_chemical_formula_sum "Si O2"
_cell_formula_units_Z 28
_cell_length_a 11.612923
_cell_length_b 7.872597
_cell_length_c 24.842609
_cell_angle_alpha 90.000000
_cell_angle_beta 147.718583
_cell_angle_gamma 90.000000
_cell_volume 1213.002234
_symmetry_space_group_name_H-M "C C"
_symmetry_group_IT_number 9
_symmetry_cell_setting 'monoclinic'
loop_
_space_group_symop_operation_xyz
x,y,z
x,-y,1/2+z
1/2+x,1/2+y,z
1/2+x,1/2-y,1/2+z
loop_
_atom_site_type_symbol
_atom_site_label
_atom_site_fract_x
_atom_site_fract_y
_atom_site_fract_z
Si Si1 0.529980 0.292775 0.515260
Si Si2 0.111081 0.070069 0.356365
Si Si3 0.428379 0.554667 0.677693
Si Si4 0.256737 0.732094 0.049479
Si Si5 0.795923 0.600934 0.018090
Si Si6 0.644939 0.374201 0.124877
Si Si7 0.360664 0.194463 0.816272
O O1 0.292558 0.214659 0.422126
O O2 0.704129 0.147813 0.597827
O O3 0.612343 0.347629 0.488403
O O4 0.553927 0.446900 0.566598
O O5 0.928873 0.117471 0.327367
O O6 0.221795 0.908728 0.426843
O O7 0.992540 0.049806 0.254709
O O8 0.414664 0.425487 0.622460
O O9 0.630971 0.679424 0.752842
O O10 0.053401 0.654970 0.934972
O O11 0.345085 0.903745 0.055165
O O12 0.202073 0.789261 0.089201
O O13 0.981692 0.741642 0.089479
O O14 0.830784 0.394899 0.245097
#
# Coordination Sequence:
#
# PCOD9138802 Si02
#       7
#     4   4   4   4   4   4   4
#     4  11  26  45  73 106 145 188 242 303 364 445
#     4  11  26  48  71 104 143 188 238 298 369 433
#     4  12  23  47  72 106 145 189 244 298 364 447
#     4  10  24  46  69 105 146 189 242 309 355 447
#     4  10  23  47  71  99 146 187 237 301 363 435
#     4  11  22  48  72 104 146 190 240 303 372 435
#     4  11  24  43  72 104 139 187 241 292 365 434
#
# _framework density 23.083223
#
# number of rings (size 3 to 8) (size 9 to 14) (size 15 to 20)
#    0.000    1.143    2.857    2.571    4.000    1.143 
#   23.143    0.000    0.000    0.000    0.000    0.000 
#    0.000    0.000    0.000    0.000    0.000    0.000 
#
# Total GULP energy -78045.227761 kJ/mol
# GULP energy per Si atom -5574.659126 kJ/mol
# Density = 2.303068 g / cm^3
# Si number density = 23.083223 Si / 1000 Ang^3
#
#
#
# Elastic Constant Matrix: (Units=GPa)
#
#
# Indices 1 2 3 4 5 6 
#
# 1 103.5526 29.9597 35.1236 0.0000 -13.2021 0.0000
# 2 29.9597 108.3372 59.8500 0.0000 1.0527 0.0000
# 3 35.1236 59.8500 130.6550 0.0001 -37.8066 0.0000
# 4 0.0000 0.0000 0.0001 25.9059 0.0000 -4.5532
# 5 -13.2021 1.0527 -37.8066 0.0000 45.3190 0.0000
# 6 0.0000 0.0000 0.0000 -4.5532 0.0000 22.4215
#
#
#
# Elastic Compliance Matrix: (Units=1/GPa)
#
#
# Indices 1 2 3 4 5 6 
#
# 1 0.011054 -0.002409 -0.001213 0.000000 0.002264 0.000000
# 2 -0.002409 0.014589 -0.008353 0.000000 -0.008009 0.000000
# 3 -0.001213 -0.008353 0.015502 0.000000 0.012773 0.000000
# 4 0.000000 0.000000 0.000000 0.040030 0.000000 0.008129
# 5 0.002264 -0.008009 0.012773 0.000000 0.033567 0.000000
# 6 0.000000 0.000000 0.000000 0.008129 0.000000 0.046251
#
#
# Mechanical properties :
#
#
# Convention : Reuss Voigt Hill
#
# Bulk Modulus (GPa) = 58.15357 65.82348 61.98852
# Shear Modulus (GPa) = 26.22290 33.23671 29.72980
#
# Velocity S-wave (km/s) = 3.37414 3.79867 3.59268
# Velocity P-wave (km/s) = 6.35826 6.91502 6.64247
#
# Compressibility (1/GPa) = 0.01719585
#
# Stress axis : x y z
#
# Youngs Moduli (GPa) = 90.46555 68.54624 64.50799
#
# Poissons Ratio (x) = 0.16511 0.07825
# Poissons Ratio (y) = 0.21791 0.53881
# Poissons Ratio (z) = 0.10974 0.57254
#
# Static dielectric constant tensor:
#      x y z
#    x 1.930170 0.000000 -0.035620 
#    y 0.000000 1.981340 0.000000 
#    z -0.035620 0.000000 1.935150 
# 
# From -- ./inp_files/36525.got.cif
#   From: 2010.05.17/outbox.cif.g08.bks.cpg/sg9_19_cif.got.tgz:36525.got - 2010.06.03 20:04:27.
