data_PCOD9138196
_publ_section_title
;
Structure prediction by ZEFSAII (Michael W. Deem and Ramdas Pophale) SiO2 
 PCOD9138196
Probable space group: C C
;
_chemical_formula_sum "Si O2"
_cell_formula_units_Z 28
_cell_length_a 10.616600
_cell_length_b 11.444259
_cell_length_c 14.127703
_cell_angle_alpha 90.000000
_cell_angle_beta 53.385128
_cell_angle_gamma 90.000000
_cell_volume 1377.773301
_symmetry_space_group_name_H-M "C C"
_symmetry_group_IT_number 9
_symmetry_cell_setting 'monoclinic'
loop_
_space_group_symop_operation_xyz
x,y,z
x,-y,1/2+z
1/2+x,1/2+y,z
1/2+x,1/2-y,1/2+z
loop_
_atom_site_type_symbol
_atom_site_label
_atom_site_fract_x
_atom_site_fract_y
_atom_site_fract_z
Si Si1 0.650300 0.566277 0.708470
Si Si2 0.708247 0.597466 0.015663
Si Si3 0.564114 0.041113 0.846973
Si Si4 0.641286 0.162864 0.172457
Si Si5 0.230514 0.657741 0.612716
Si Si6 0.457040 0.456996 0.476516
Si Si7 0.504083 0.990875 0.591224
O O1 0.631573 0.497300 0.619550
O O2 0.634492 0.703678 0.701439
O O3 0.524989 0.527751 0.841944
O O4 0.827742 0.536380 0.660809
O O5 0.880117 0.556579 0.906618
O O6 0.592245 0.601918 0.979270
O O7 0.734905 0.714347 0.065917
O O8 0.658559 0.143128 0.750143
O O9 0.621885 0.921002 0.772470
O O10 0.572442 0.034940 0.956372
O O11 0.512855 0.123460 0.153035
O O12 0.807771 0.128490 0.051136
O O13 0.391658 0.583578 0.538826
O O14 0.111490 0.584668 0.598021
#
# Coordination Sequence:
#
# PCOD9138196 Si02
#       7
#     4   4   4   4   4   4   4
#     4  11  24  40  64  95 123 163 214 251 314 383
#     4  11  24  39  65  93 125 165 208 256 317 374
#     4   9  21  41  62  86 128 165 201 261 321 360
#     4  10  23  41  64  92 126 161 211 258 310 376
#     4  10  23  41  63  94 125 161 213 257 309 378
#     4  10  23  41  62  96 120 165 212 254 317 375
#     4   9  20  43  64  92 123 168 205 257 318 364
#
# _framework density 20.322647
#
# number of rings (size 3 to 8) (size 9 to 14) (size 15 to 20)
#    0.000    2.286    0.000    2.571    8.000    6.857 
#    0.000    0.000    0.000    0.000    0.000    0.000 
#    0.000    0.000    0.000    0.000    0.000    0.000 
#
# Total GULP energy -78172.356525 kJ/mol
# GULP energy per Si atom -5583.739752 kJ/mol
# Density = 2.027639 g / cm^3
# Si number density = 20.322647 Si / 1000 Ang^3
#
#
#
# Elastic Constant Matrix: (Units=GPa)
#
#
# Indices 1 2 3 4 5 6 
#
# 1 37.9810 -17.4572 -20.6437 0.0000 -4.3600 0.0000
# 2 -17.4572 206.1664 129.5141 0.0000 56.1694 0.0000
# 3 -20.6437 129.5141 210.0711 0.0000 44.0358 0.0000
# 4 0.0000 0.0000 0.0000 11.1678 0.0000 0.2250
# 5 -4.3600 56.1694 44.0358 0.0000 50.2365 0.0000
# 6 0.0000 0.0000 0.0000 0.2250 0.0000 17.2296
#
#
#
# Elastic Compliance Matrix: (Units=1/GPa)
#
#
# Indices 1 2 3 4 5 6 
#
# 1 0.027978 0.001245 0.002162 0.000000 -0.000859 0.000000
# 2 0.001245 0.009509 -0.004330 0.000000 -0.006729 0.000000
# 3 0.002162 -0.004330 0.008071 0.000000 -0.002046 0.000000
# 4 0.000000 0.000000 0.000000 0.089566 0.000000 -0.001170
# 5 -0.000859 -0.006729 -0.002046 0.000000 0.029148 0.000000
# 6 0.000000 0.000000 0.000000 -0.001170 0.000000 0.058055
#
#
# Mechanical properties :
#
#
# Convention : Reuss Voigt Hill
#
# Bulk Modulus (GPa) = 22.87713 70.78276 46.82995
# Shear Modulus (GPa) = 20.94298 39.91383 30.42840
#
# Velocity S-wave (km/s) = 3.21366 4.43652 3.87365
# Velocity P-wave (km/s) = 5.00515 7.81976 6.56507
#
# Compressibility (1/GPa) = 0.04371177
#
# Stress axis : x y z
#
# Youngs Moduli (GPa) = 35.74285 105.16354 123.89977
#
# Poissons Ratio (x) = -0.13092 -0.26786
# Poissons Ratio (y) = -0.04450 0.53645
# Poissons Ratio (z) = -0.07727 0.45533
#
# Static dielectric constant tensor:
#      x y z
#    x 1.702640 0.000000 -0.023190 
#    y 0.000000 1.723440 0.000000 
#    z -0.023190 0.000000 1.666470 
# 
# From -- ./inp_files/16037.got.cif
#   From: 2010.05.17/outbox.cif.g08.bks.cpg/sg9_9_cif.got.tgz:16037.got - 2010.06.03 20:04:27.
