data_PCOD9138669
_publ_section_title
;
Structure prediction by ZEFSAII (Michael W. Deem and Ramdas Pophale) SiO2 
 PCOD9138669
Probable space group: C C
;
_chemical_formula_sum "Si O2"
_cell_formula_units_Z 24
_cell_length_a 7.322443
_cell_length_b 7.238735
_cell_length_c 18.348650
_cell_angle_alpha 90.000000
_cell_angle_beta 60.313777
_cell_angle_gamma 90.000000
_cell_volume 844.924540
_symmetry_space_group_name_H-M "C C"
_symmetry_group_IT_number 9
_symmetry_cell_setting 'monoclinic'
loop_
_space_group_symop_operation_xyz
x,y,z
x,-y,1/2+z
1/2+x,1/2+y,z
1/2+x,1/2-y,1/2+z
loop_
_atom_site_type_symbol
_atom_site_label
_atom_site_fract_x
_atom_site_fract_y
_atom_site_fract_z
Si Si1 0.590450 0.852778 0.829780
Si Si2 0.128130 0.661980 0.112932
Si Si3 0.440970 0.773913 0.163717
Si Si4 0.696312 0.244092 0.744584
Si Si5 0.165269 0.070963 0.468763
Si Si6 0.838674 0.160420 0.421760
O O1 0.753773 0.707011 0.761705
O O2 0.635319 0.032566 0.772289
O O3 0.659024 0.897589 0.900029
O O4 0.343000 0.819561 0.885471
O O5 0.341612 0.661826 0.117307
O O6 0.943440 0.737577 0.202845
O O7 0.142150 0.805344 0.044678
O O8 0.031969 0.462877 0.113405
O O9 0.629398 0.696913 0.175896
O O10 0.540279 0.345621 0.828885
O O11 0.942294 0.060275 0.470502
O O12 0.266168 0.867630 0.458036
#
# Coordination Sequence:
#
# PCOD9138669 Si02
#       6
#     4   4   4   4   4   4
#     4  10  23  45  73  98 140 190 251 299 366 435
#     4  12  26  41  75  99 152 182 246 299 374 427
#     4  11  24  44  68 104 135 193 238 304 358 440
#     4  10  24  42  69 104 132 187 243 304 358 435
#     4  11  25  46  64 111 141 195 236 309 364 439
#     4  10  24  42  71  96 146 185 248 293 368 434
#
# _framework density 28.404906
#
# number of rings (size 3 to 8) (size 9 to 14) (size 15 to 20)
#    0.000    1.333    1.667    2.000    9.333    5.333 
#    0.000    0.000    0.000    0.000    0.000    0.000 
#    0.000    0.000    0.000    0.000    0.000    0.000 
#
# Total GULP energy -67255.434681 kJ/mol
# GULP energy per Si atom -5604.619557 kJ/mol
# Density = 2.834026 g / cm^3
# Si number density = 28.404906 Si / 1000 Ang^3
#
#
#
# Elastic Constant Matrix: (Units=GPa)
#
#
# Indices 1 2 3 4 5 6 
#
# 1 199.0143 36.9886 22.4341 0.0000 20.9589 0.0000
# 2 36.9886 87.2544 17.4199 0.0000 4.6280 0.0000
# 3 22.4341 17.4199 110.0351 0.0000 -16.2487 0.0000
# 4 0.0000 0.0000 0.0000 42.4245 0.0000 -1.9840
# 5 20.9589 4.6280 -16.2487 0.0000 63.9671 0.0000
# 6 0.0000 0.0000 0.0000 -1.9840 0.0000 49.4862
#
#
#
# Elastic Compliance Matrix: (Units=1/GPa)
#
#
# Indices 1 2 3 4 5 6 
#
# 1 0.005758 -0.002106 -0.001139 0.000000 -0.002024 0.000000
# 2 -0.002106 0.012724 -0.001682 0.000000 -0.000658 0.000000
# 3 -0.001139 -0.001682 0.010036 0.000000 0.003044 0.000000
# 4 0.000000 0.000000 0.000000 0.023616 0.000000 0.000947
# 5 -0.002024 -0.000658 0.003044 0.000000 0.017117 0.000000
# 6 0.000000 0.000000 0.000000 0.000947 0.000000 0.020246
#
#
# Mechanical properties :
#
#
# Convention : Reuss Voigt Hill
#
# Bulk Modulus (GPa) = 53.58151 61.10988 57.34569
# Shear Modulus (GPa) = 47.36092 52.47297 49.91695
#
# Velocity S-wave (km/s) = 4.08775 4.30271 4.19661
# Velocity P-wave (km/s) = 6.41748 6.80037 6.61169
#
# Compressibility (1/GPa) = 0.01866316
#
# Stress axis : x y z
#
# Youngs Moduli (GPa) = 173.67984 78.59011 99.63972
#
# Poissons Ratio (x) = 0.16551 0.11352
# Poissons Ratio (y) = 0.36577 0.16761
# Poissons Ratio (z) = 0.19787 0.13220
#
# Static dielectric constant tensor:
#      x y z
#    x 2.131920 0.000000 0.056560 
#    y 0.000000 2.213320 0.000000 
#    z 0.056560 0.000000 2.247150 
# 
# From -- ./inp_files/32354.got.cif
#   From: 2010.05.17/outbox.cif.g08.bks.cpg/sg9_17_cif.got.tgz:32354.got - 2010.06.03 20:04:27.
