data_PCOD9138698
_publ_section_title
;
Structure prediction by ZEFSAII (Michael W. Deem and Ramdas Pophale) SiO2 
 PCOD9138698
Probable space group: C C
;
_chemical_formula_sum "Si O2"
_cell_formula_units_Z 28
_cell_length_a 7.645765
_cell_length_b 13.985371
_cell_length_c 10.288040
_cell_angle_alpha 90.000000
_cell_angle_beta 104.777615
_cell_angle_gamma 90.000000
_cell_volume 1063.700893
_symmetry_space_group_name_H-M "C C"
_symmetry_group_IT_number 9
_symmetry_cell_setting 'monoclinic'
loop_
_space_group_symop_operation_xyz
x,y,z
x,-y,1/2+z
1/2+x,1/2+y,z
1/2+x,1/2-y,1/2+z
loop_
_atom_site_type_symbol
_atom_site_label
_atom_site_fract_x
_atom_site_fract_y
_atom_site_fract_z
Si Si1 0.258730 0.919053 0.468400
Si Si2 0.463370 0.587050 0.702920
Si Si3 0.051901 0.738661 0.047841
Si Si4 0.648365 0.168418 0.790944
Si Si5 0.501963 0.972154 0.861785
Si Si6 0.798672 0.905576 0.752233
Si Si7 0.654653 0.638376 0.208598
O O1 0.360530 0.817473 0.498786
O O2 0.423510 0.994663 0.485717
O O3 0.134841 0.923264 0.572444
O O4 0.148364 0.934246 0.315535
O O5 0.513954 0.656821 0.595915
O O6 0.351351 0.643359 0.791935
O O7 0.323475 0.498214 0.662047
O O8 0.181775 0.679336 0.169657
O O9 0.145732 0.721680 0.928028
O O10 0.523615 0.074836 0.788159
O O11 0.607510 0.250010 0.676546
O O12 0.699147 0.931076 0.866713
O O13 0.357796 0.892677 0.785794
O O14 0.009496 0.882590 0.793623
#
# Coordination Sequence:
#
# PCOD9138698 Si02
#       7
#     4   4   4   4   4   4   4
#     4  11  23  45  74 102 152 191 243 315 365 447
#     4  11  23  47  72 107 143 196 248 297 379 448
#     4  11  24  46  72 107 153 189 245 316 367 446
#     4  10  24  45  69 106 149 190 243 307 373 445
#     4  10  23  46  66 106 146 188 250 305 359 445
#     4  11  24  43  74 102 145 193 246 303 365 443
#     4  12  23  46  73 108 146 197 243 305 382 438
#
# _framework density 26.323187000000001
#
# number of rings (size 3 to 8) (size 9 to 14) (size 15 to 20)
#    0.000    1.143    4.286    0.857    4.000    1.143 
#    7.714    1.429    0.000    0.000    0.000    0.000 
#    0.000    0.000    0.000    0.000    0.000    0.000 
#
# Total GULP energy -78041.848316 kJ/mol
# GULP energy per Si atom -5574.417737 kJ/mol
# Density = 2.626327 g / cm^3
# Si number density = 26.323187 Si / 1000 Ang^3
#
#
#
# Elastic Constant Matrix: (Units=GPa)
#
#
# Indices 1 2 3 4 5 6 
#
# 1 181.5977 24.4177 21.0425 0.0000 -20.0403 0.0000
# 2 24.4177 98.0879 7.7162 0.0000 13.3618 0.0000
# 3 21.0425 7.7162 55.3828 0.0000 -9.8731 0.0000
# 4 0.0000 0.0000 0.0000 33.1913 0.0000 -1.1410
# 5 -20.0403 13.3618 -9.8731 0.0000 44.5671 0.0000
# 6 0.0000 0.0000 0.0000 -1.1410 0.0000 37.7284
#
#
#
# Elastic Compliance Matrix: (Units=1/GPa)
#
#
# Indices 1 2 3 4 5 6 
#
# 1 0.006273 -0.001849 -0.001587 0.000000 0.003023 0.000000
# 2 -0.001849 0.011422 -0.001715 0.000000 -0.004636 0.000000
# 3 -0.001587 -0.001715 0.019638 0.000000 0.004151 0.000000
# 4 0.000000 0.000000 0.000000 0.030160 0.000000 0.000912
# 5 0.003023 -0.004636 0.004151 0.000000 0.026107 0.000000
# 6 0.000000 0.000000 0.000000 0.000912 0.000000 0.026533
#
#
# Mechanical properties :
#
#
# Convention : Reuss Voigt Hill
#
# Bulk Modulus (GPa) = 36.99457 49.04680 43.02068
# Shear Modulus (GPa) = 35.85682 41.89016 38.87349
#
# Velocity S-wave (km/s) = 3.69477 3.99354 3.84706
# Velocity P-wave (km/s) = 5.68210 6.31961 6.00931
#
# Compressibility (1/GPa) = 0.02703100
#
# Stress axis : x y z
#
# Youngs Moduli (GPa) = 159.41990 87.55415 50.92154
#
# Poissons Ratio (x) = 0.16185 0.08080
# Poissons Ratio (y) = 0.29469 0.08735
# Poissons Ratio (z) = 0.25297 0.15018
#
# Static dielectric constant tensor:
#      x y z
#    x 2.119890 0.000000 -0.002170 
#    y 0.000000 2.276410 0.000000 
#    z -0.002170 0.000000 2.059170 
# 
# From -- ./inp_files/14497.got.cif
#   From: 2010.05.17/outbox.cif.g08.bks.cpg/sg9_8_cif.got.tgz:14497.got - 2010.06.03 20:04:27.
