data_PCOD9138334
_publ_section_title
;
Structure prediction by ZEFSAII (Michael W. Deem and Ramdas Pophale) SiO2 
 PCOD9138334
Probable space group: C C
;
_chemical_formula_sum "Si O2"
_cell_formula_units_Z 28
_cell_length_a 5.090708
_cell_length_b 17.956972
_cell_length_c 13.570631
_cell_angle_alpha 90.000000
_cell_angle_beta 76.422028
_cell_angle_gamma 90.000000
_cell_volume 1205.870119
_symmetry_space_group_name_H-M "C C"
_symmetry_group_IT_number 9
_symmetry_cell_setting 'monoclinic'
loop_
_space_group_symop_operation_xyz
x,y,z
x,-y,1/2+z
1/2+x,1/2+y,z
1/2+x,1/2-y,1/2+z
loop_
_atom_site_type_symbol
_atom_site_label
_atom_site_fract_x
_atom_site_fract_y
_atom_site_fract_z
Si Si1 0.465560 0.644279 0.016580
Si Si2 0.485804 0.326681 0.720695
Si Si3 0.705350 0.438897 0.154849
Si Si4 0.139826 0.012213 0.457197
Si Si5 0.014952 0.412837 0.671583
Si Si6 0.203428 0.468285 0.333845
Si Si7 0.858945 0.670340 0.811479
O O1 0.530368 0.697564 0.102286
O O2 0.151938 0.623766 0.061177
O O3 0.612310 0.564581 0.022793
O O4 0.593336 0.668182 0.903526
O O5 0.747377 0.371180 0.727859
O O6 0.439532 0.254995 0.789467
O O7 0.240231 0.385257 0.730756
O O8 0.913114 0.509439 0.369277
O O9 0.661256 0.427643 0.041992
O O10 0.422558 0.466461 0.226714
O O11 0.789381 0.368237 0.213003
O O12 0.434581 0.002272 0.154697
O O13 0.883974 0.001317 0.407904
O O14 0.086439 0.383010 0.339888
#
# Coordination Sequence:
#
# PCOD9138334 Si02
#       7
#     4   4   4   4   4   4   4
#     4   9  21  43  71  93 135 193 230 282 366 439
#     4  10  24  43  68 100 138 190 232 301 353 435
#     4  12  24  42  75 108 139 191 245 307 357 447
#     4  11  23  40  67 101 141 185 240 290 360 437
#     4  10  23  42  70  95 137 185 235 288 369 425
#     4  11  25  40  66 106 141 187 232 303 362 428
#     4  11  26  44  75 107 143 189 258 293 363 443
#
# _framework density 23.219747999999999
#
# number of rings (size 3 to 8) (size 9 to 14) (size 15 to 20)
#    0.857    0.571    4.286    0.857   10.000    0.000 
#    0.000    2.857    0.000    0.000    0.000    0.000 
#    0.000    0.000    0.000    0.000    0.000    0.000 
#
# Total GULP energy -78024.446671 kJ/mol
# GULP energy per Si atom -5573.174762 kJ/mol
# Density = 2.316690 g / cm^3
# Si number density = 23.219748 Si / 1000 Ang^3
#
#
#
# Elastic Constant Matrix: (Units=GPa)
#
#
# Indices 1 2 3 4 5 6 
#
# 1 182.8759 31.5267 25.9168 0.0000 -7.6252 0.0000
# 2 31.5267 65.0985 3.6813 0.0000 -14.4729 0.0000
# 3 25.9168 3.6813 68.3054 0.0000 -5.1120 0.0000
# 4 0.0000 0.0000 0.0000 39.9816 0.0000 -2.2748
# 5 -7.6252 -14.4729 -5.1120 0.0000 38.4335 0.0000
# 6 0.0000 0.0000 0.0000 -2.2748 0.0000 20.9491
#
#
#
# Elastic Compliance Matrix: (Units=1/GPa)
#
#
# Indices 1 2 3 4 5 6 
#
# 1 0.006288 -0.002955 -0.002239 0.000000 -0.000163 0.000000
# 2 -0.002955 0.018166 0.000616 0.000000 0.006337 0.000000
# 3 -0.002239 0.000616 0.015596 0.000000 0.001862 0.000000
# 4 0.000000 0.000000 0.000000 0.025167 0.000000 0.002733
# 5 -0.000163 0.006337 0.001862 0.000000 0.028621 0.000000
# 6 0.000000 0.000000 0.000000 0.002733 0.000000 0.048031
#
#
# Mechanical properties :
#
#
# Convention : Reuss Voigt Hill
#
# Bulk Modulus (GPa) = 32.36726 48.72547 40.54636
# Shear Modulus (GPa) = 30.99385 36.88317 33.93851
#
# Velocity S-wave (km/s) = 3.65746 3.98985 3.82727
# Velocity P-wave (km/s) = 5.63967 6.50040 6.08527
#
# Compressibility (1/GPa) = 0.03089542
#
# Stress axis : x y z
#
# Youngs Moduli (GPa) = 159.03112 55.04696 64.12004
#
# Poissons Ratio (x) = 0.16266 0.14355
# Poissons Ratio (y) = 0.46992 -0.03952
# Poissons Ratio (z) = 0.35604 -0.03393
#
# Static dielectric constant tensor:
#      x y z
#    x 1.927760 0.000000 0.095930 
#    y 0.000000 1.840630 0.000000 
#    z 0.095930 0.000000 2.016530 
# 
# From -- ./inp_files/13302.got.cif
#   From: 2010.05.17/outbox.cif.g08.bks.cpg/sg9_7_cif.got.tgz:13302.got - 2010.06.03 20:04:27.
