data_PCOD9138333
_publ_section_title
;
Structure prediction by ZEFSAII (Michael W. Deem and Ramdas Pophale) SiO2 
 PCOD9138333
Probable space group: C C
;
_chemical_formula_sum "Si O2"
_cell_formula_units_Z 28
_cell_length_a 8.596906
_cell_length_b 16.952990
_cell_length_c 11.343332
_cell_angle_alpha 90.000000
_cell_angle_beta 48.114439
_cell_angle_gamma 90.000000
_cell_volume 1230.784614
_symmetry_space_group_name_H-M "C C"
_symmetry_group_IT_number 9
_symmetry_cell_setting 'monoclinic'
loop_
_space_group_symop_operation_xyz
x,y,z
x,-y,1/2+z
1/2+x,1/2+y,z
1/2+x,1/2-y,1/2+z
loop_
_atom_site_type_symbol
_atom_site_label
_atom_site_fract_x
_atom_site_fract_y
_atom_site_fract_z
Si Si1 0.989050 0.563367 0.528290
Si Si2 0.123654 0.138115 0.868945
Si Si3 0.524294 0.643881 0.534953
Si Si4 0.975800 0.689430 0.371340
Si Si5 0.808696 0.716309 0.215449
Si Si6 0.727624 0.416618 0.579771
Si Si7 0.399888 0.513649 0.431453
O O1 0.828313 0.613913 0.689786
O O2 0.095270 0.621470 0.379495
O O3 0.882840 0.491273 0.511788
O O4 0.160189 0.530041 0.530359
O O5 0.044523 0.226998 0.889086
O O6 0.948205 0.078064 0.911602
O O7 0.168720 0.113881 0.980792
O O8 0.732003 0.659072 0.507410
O O9 0.590301 0.694371 0.386341
O O10 0.331076 0.691030 0.684149
O O11 0.480551 0.557080 0.510236
O O12 0.983005 0.694381 0.226217
O O13 0.826271 0.657981 0.098066
O O14 0.533548 0.448063 0.757169
#
# Coordination Sequence:
#
# PCOD9138333 Si02
#       7
#     4   4   4   4   4   4   4
#     4  11  25  43  71  99 137 183 225 282 341 403
#     4  11  25  45  69 104 134 181 232 278 337 416
#     4   9  20  40  66  92 132 171 217 273 339 399
#     4  10  23  42  70  90 139 173 229 271 341 395
#     4   9  21  39  68  93 130 171 218 278 337 392
#     4  10  24  44  68  98 140 173 230 279 338 409
#     4  10  24  45  66 102 138 176 221 285 343 400
#
# _framework density 22.749713
#
# number of rings (size 3 to 8) (size 9 to 14) (size 15 to 20)
#    0.857    1.143    0.000    1.714    6.000    5.714 
#    0.000    0.000    0.000    0.000    0.000    0.000 
#    0.000    0.000    0.000    0.000    0.000    0.000 
#
# Total GULP energy -78092.226780 kJ/mol
# GULP energy per Si atom -5578.016199 kJ/mol
# Density = 2.269793 g / cm^3
# Si number density = 22.749713 Si / 1000 Ang^3
#
#
#
# Elastic Constant Matrix: (Units=GPa)
#
#
# Indices 1 2 3 4 5 6 
#
# 1 114.5832 61.7864 31.1758 0.0000 18.2326 0.0000
# 2 61.7864 78.1040 12.5690 0.0000 4.3659 0.0000
# 3 31.1758 12.5690 37.4195 0.0000 27.0130 0.0000
# 4 0.0000 0.0000 0.0000 27.4099 0.0000 5.8685
# 5 18.2326 4.3659 27.0130 0.0000 37.8668 0.0000
# 6 0.0000 0.0000 0.0000 5.8685 0.0000 34.8213
#
#
#
# Elastic Compliance Matrix: (Units=1/GPa)
#
#
# Indices 1 2 3 4 5 6 
#
# 1 0.018899 -0.013059 -0.012117 0.000000 0.001050 0.000000
# 2 -0.013059 0.022784 0.001205 0.000000 0.002802 0.000000
# 3 -0.012117 0.001205 0.066601 0.000000 -0.041816 0.000000
# 4 0.000000 0.000000 0.000000 0.037849 0.000000 -0.006379
# 5 0.001050 0.002802 -0.041816 0.000000 0.055410 0.000000
# 6 0.000000 0.000000 0.000000 -0.006379 0.000000 0.029793
#
#
# Mechanical properties :
#
#
# Convention : Reuss Voigt Hill
#
# Bulk Modulus (GPa) = 16.57239 49.01881 32.79560
# Shear Modulus (GPa) = 16.70054 28.32463 22.51258
#
# Velocity S-wave (km/s) = 2.71237 3.53236 3.14917
# Velocity P-wave (km/s) = 4.13639 6.18308 5.26024
#
# Compressibility (1/GPa) = 0.06034132
#
# Stress axis : x y z
#
# Youngs Moduli (GPa) = 52.91316 43.89067 15.01484
#
# Poissons Ratio (x) = 0.57318 0.18193
# Poissons Ratio (y) = 0.69101 -0.01809
# Poissons Ratio (z) = 0.64113 -0.05288
#
# Static dielectric constant tensor:
#      x y z
#    x 1.879240 0.000000 0.006360 
#    y 0.000000 1.812120 0.000000 
#    z 0.006360 0.000000 1.922850 
# 
# From -- ./inp_files/14698.got.cif
#   From: 2010.05.17/outbox.cif.g08.bks.cpg/sg9_8_cif.got.tgz:14698.got - 2010.06.03 20:04:27.
