data_PCOD9138006
_publ_section_title
;
Structure prediction by ZEFSAII (Michael W. Deem and Ramdas Pophale) SiO2 
 PCOD9138006
Probable space group: C C
;
_chemical_formula_sum "Si O2"
_cell_formula_units_Z 28
_cell_length_a 19.085646
_cell_length_b 5.138196
_cell_length_c 16.429627
_cell_angle_alpha 90.000000
_cell_angle_beta 137.259335
_cell_angle_gamma 90.000000
_cell_volume 1093.480360
_symmetry_space_group_name_H-M "C C"
_symmetry_group_IT_number 9
_symmetry_cell_setting 'monoclinic'
loop_
_space_group_symop_operation_xyz
x,y,z
x,-y,1/2+z
1/2+x,1/2+y,z
1/2+x,1/2-y,1/2+z
loop_
_atom_site_type_symbol
_atom_site_label
_atom_site_fract_x
_atom_site_fract_y
_atom_site_fract_z
Si Si1 0.962490 0.843085 0.142470
Si Si2 0.666541 0.595190 0.356571
Si Si3 0.653836 0.167507 0.122952
Si Si4 0.771300 0.113930 0.390028
Si Si5 0.866334 0.060697 0.228007
Si Si6 0.536665 0.686900 0.970660
Si Si7 0.027481 0.459092 0.320513
O O1 0.000052 0.564059 0.207455
O O2 0.896771 0.946703 0.164891
O O3 0.893190 0.856173 0.004172
O O4 0.064513 0.013641 0.219380
O O5 0.729255 0.329566 0.418387
O O6 0.737776 0.819532 0.379856
O O7 0.613051 0.737677 0.386879
O O8 0.717022 0.192670 0.260512
O O9 0.746239 0.087430 0.140664
O O10 0.599914 0.436325 0.052696
O O11 0.568916 0.935277 0.052848
O O12 0.926600 0.336517 0.276207
O O13 0.919779 0.900406 0.347808
O O14 0.566322 0.801614 0.906685
#
# Coordination Sequence:
#
# PCOD9138006 Si02
#       7
#     4   4   4   4   4   4   4
#     4  10  25  44  74 105 138 179 238 296 350 406
#     4  11  25  47  70 102 141 182 234 289 346 412
#     4  12  28  45  70 105 143 191 230 280 359 427
#     4  12  28  45  70 105 143 191 230 280 359 427
#     4  10  25  44  74 105 138 179 238 296 350 406
#     4  11  25  47  70 102 141 182 234 289 346 412
#     4  10  22  46  72 106 136 182 232 302 350 390
#
# _framework density 25.606311000000002
#
# number of rings (size 3 to 8) (size 9 to 14) (size 15 to 20)
#    0.000    1.143    2.857    0.857   10.000    2.286 
#    0.000    0.000    0.000    0.000    0.000    0.000 
#    0.000    0.000    0.000    0.000    0.000    0.000 
#
# Total GULP energy -78296.747750 kJ/mol
# GULP energy per Si atom -5592.624839 kJ/mol
# Density = 2.554803 g / cm^3
# Si number density = 25.606311 Si / 1000 Ang^3
#
#
#
# Elastic Constant Matrix: (Units=GPa)
#
#
# Indices 1 2 3 4 5 6 
#
# 1 53.2787 8.7917 11.9859 0.0000 4.3815 0.0000
# 2 8.7917 165.4869 62.9255 0.0000 5.4305 0.0002
# 3 11.9859 62.9255 184.9205 0.0000 -10.9352 0.0000
# 4 0.0000 0.0000 0.0000 21.6910 0.0000 6.7668
# 5 4.3815 5.4305 -10.9352 0.0000 31.6534 0.0000
# 6 0.0000 0.0002 0.0000 6.7668 0.0000 21.1246
#
#
#
# Elastic Compliance Matrix: (Units=1/GPa)
#
#
# Indices 1 2 3 4 5 6 
#
# 1 0.019382 -0.000440 -0.001287 0.000000 -0.003052 0.000000
# 2 -0.000440 0.007083 -0.002501 0.000000 -0.002018 0.000000
# 3 -0.001287 -0.002501 0.006511 0.000000 0.002857 0.000000
# 4 0.000000 0.000000 0.000000 0.051221 0.000000 -0.016408
# 5 -0.003052 -0.002018 0.002857 0.000000 0.033348 0.000000
# 6 0.000000 0.000000 0.000000 -0.016408 0.000000 0.052594
#
#
# Mechanical properties :
#
#
# Convention : Reuss Voigt Hill
#
# Bulk Modulus (GPa) = 40.78263 63.45470 52.11867
# Shear Modulus (GPa) = 26.77092 36.22599 31.49845
#
# Velocity S-wave (km/s) = 3.23690 3.76537 3.51109
# Velocity P-wave (km/s) = 5.47096 6.61352 6.06919
#
# Compressibility (1/GPa) = 0.02452024
#
# Stress axis : x y z
#
# Youngs Moduli (GPa) = 51.59329 141.17372 153.58152
#
# Poissons Ratio (x) = 0.06214 0.19766
# Poissons Ratio (y) = 0.02271 0.38414
# Poissons Ratio (z) = 0.06640 0.35311
#
# Static dielectric constant tensor:
#      x y z
#    x 2.102970 0.000000 -0.062920 
#    y 0.000000 2.041230 0.000000 
#    z -0.062920 0.000000 2.023430 
# 
# From -- ./inp_files/31108.got.cif
#   From: 2010.05.17/outbox.cif.g08.bks.cpg/sg9_16_cif.got.tgz:31108.got - 2010.06.03 20:04:27.
