data_PCOD9138443
_publ_section_title
;
Structure prediction by ZEFSAII (Michael W. Deem and Ramdas Pophale) SiO2 
 PCOD9138443
Probable space group: C C
;
_chemical_formula_sum "Si O2"
_cell_formula_units_Z 28
_cell_length_a 7.669106
_cell_length_b 26.007263
_cell_length_c 8.048016
_cell_angle_alpha 90.000000
_cell_angle_beta 38.840076
_cell_angle_gamma 90.000000
_cell_volume 1006.697054
_symmetry_space_group_name_H-M "C C"
_symmetry_group_IT_number 9
_symmetry_cell_setting 'monoclinic'
loop_
_space_group_symop_operation_xyz
x,y,z
x,-y,1/2+z
1/2+x,1/2+y,z
1/2+x,1/2-y,1/2+z
loop_
_atom_site_type_symbol
_atom_site_label
_atom_site_fract_x
_atom_site_fract_y
_atom_site_fract_z
Si Si1 0.454590 0.052708 0.360820
Si Si2 0.106656 0.235122 0.893435
Si Si3 0.593798 0.381972 0.703366
Si Si4 0.132309 0.771071 0.772978
Si Si5 0.134014 0.874046 0.303739
Si Si6 0.644704 0.888761 0.437294
Si Si7 0.942722 0.977403 0.047646
O O1 0.329899 0.077114 0.620753
O O2 0.224476 0.015899 0.445142
O O3 0.460100 0.102566 0.237833
O O4 0.752895 0.025681 0.143613
O O5 0.272074 0.271750 0.644551
O O6 0.263314 0.181846 0.731684
O O7 0.128720 0.244188 0.077182
O O8 0.516772 0.329708 0.858949
O O9 0.493846 0.381550 0.588844
O O10 0.510613 0.435189 0.853665
O O11 0.930574 0.373808 0.453319
O O12 0.465598 0.761694 0.533450
O O13 0.924878 0.866493 0.304189
O O14 0.734158 0.945830 0.318481
#
# Coordination Sequence:
#
# PCOD9138443 Si02
#       7
#     4   4   4   4   4   4   4
#     4  10  24  46  71  99 142 185 240 303 361 438
#     4   9  19  37  67 104 144 182 238 297 360 435
#     4  10  23  43  71 103 139 190 232 296 362 432
#     4   9  19  37  67 104 144 182 238 297 360 435
#     4  10  23  43  71 103 139 190 232 296 362 432
#     4  10  24  42  66  98 144 174 236 294 354 432
#     4  10  24  46  71  99 142 185 240 303 361 438
#
# _framework density 27.81373
#
# number of rings (size 3 to 8) (size 9 to 14) (size 15 to 20)
#    0.000    2.286    0.000    0.000    4.000    9.143 
#    0.000    8.571    0.000    0.000    0.000    0.000 
#    0.000    0.000    0.000    0.000    0.000    0.000 
#
# Total GULP energy -78044.324252 kJ/mol
# GULP energy per Si atom -5574.594589 kJ/mol
# Density = 2.775042 g / cm^3
# Si number density = 27.813730 Si / 1000 Ang^3
#
#
#
# Elastic Constant Matrix: (Units=GPa)
#
#
# Indices 1 2 3 4 5 6 
#
# 1 108.5367 37.0989 19.7552 0.0000 -4.1727 0.0000
# 2 37.0989 103.7170 36.1096 0.0000 1.3699 0.0000
# 3 19.7552 36.1096 140.3947 0.0000 -15.9307 0.0000
# 4 0.0000 0.0000 0.0000 29.0045 0.0000 -21.4049
# 5 -4.1727 1.3699 -15.9307 0.0000 42.5378 0.0000
# 6 0.0000 0.0000 0.0000 -21.4049 0.0000 9.5640
#
#
#
# Elastic Compliance Matrix: (Units=1/GPa)
#
#
# Indices 1 2 3 4 5 6 
#
# 1 0.010577 -0.003644 -0.000439 0.000000 0.000991 0.000000
# 2 -0.003644 0.011928 -0.002756 0.000000 -0.001774 0.000000
# 3 -0.000439 -0.002756 0.008249 0.000000 0.003135 0.000000
# 4 0.000000 0.000000 0.000000 -0.052906 0.000000 -0.118408
# 5 0.000991 -0.001774 0.003135 0.000000 0.024837 0.000000
# 6 0.000000 0.000000 0.000000 -0.118408 0.000000 -0.160448
#
#
# Mechanical properties :
#
#
# Convention : Reuss Voigt Hill
#
# Bulk Modulus (GPa) = 58.56027 59.84177 59.20102
# Shear Modulus (GPa) = -36.12904 33.53358 -1.29773
#
# Velocity S-wave (km/s) = -3.60802 3.47601 -0.68381
# Velocity P-wave (km/s) = 1.93469 6.13776 4.55056
#
# Compressibility (1/GPa) = 0.01707642
#
# Stress axis : x y z
#
# Youngs Moduli (GPa) = 94.54629 83.83612 121.22346
#
# Poissons Ratio (x) = 0.30547 0.05319
# Poissons Ratio (y) = 0.34449 0.33415
# Poissons Ratio (z) = 0.04148 0.23109
#
# Static dielectric constant tensor:
#      x y z
#    x 2.544340 0.000000 -0.244100 
#    y 0.000000 2.297840 0.000000 
#    z -0.244100 0.000000 2.288960 
# 
# From -- ./inp_files/6426.got.cif
#   From: 2010.05.17/outbox.cif.g08.bks.cpg/sg9_4_cif.got.tgz:6426.got - 2010.06.03 20:04:27.
