data_PCOD9138736
_publ_section_title
;
Structure prediction by ZEFSAII (Michael W. Deem and Ramdas Pophale) SiO2 
 PCOD9138736
Probable space group: C C
;
_chemical_formula_sum "Si O2"
_cell_formula_units_Z 32
_cell_length_a 12.729701
_cell_length_b 13.841988
_cell_length_c 20.941838
_cell_angle_alpha 90.000000
_cell_angle_beta 156.168472
_cell_angle_gamma 90.000000
_cell_volume 1490.957243
_symmetry_space_group_name_H-M "C C"
_symmetry_group_IT_number 9
_symmetry_cell_setting 'monoclinic'
loop_
_space_group_symop_operation_xyz
x,y,z
x,-y,1/2+z
1/2+x,1/2+y,z
1/2+x,1/2-y,1/2+z
loop_
_atom_site_type_symbol
_atom_site_label
_atom_site_fract_x
_atom_site_fract_y
_atom_site_fract_z
Si Si1 0.186520 0.288228 0.312650
Si Si2 0.673285 0.799398 0.154114
Si Si3 0.197872 0.344017 0.554508
Si Si4 0.468439 0.091761 0.798970
Si Si5 0.958788 0.616448 0.254439
Si Si6 0.470048 0.726354 0.528188
Si Si7 0.938327 0.582877 0.095602
Si Si8 0.888855 0.996011 0.765385
O O1 0.386586 0.223452 0.465990
O O2 0.237358 0.307088 0.265910
O O3 0.917291 0.231600 0.158843
O O4 0.133028 0.381912 0.326907
O O5 0.775910 0.899803 0.182942
O O6 0.825229 0.707305 0.212396
O O7 0.311504 0.416009 0.670687
O O8 0.128082 0.400487 0.452431
O O9 0.963593 0.282223 0.456206
O O10 0.247512 0.173391 0.683392
O O11 0.374831 0.982791 0.740215
O O12 0.262545 0.642969 0.424555
O O13 0.894723 0.605278 0.144829
O O14 0.429058 0.814309 0.554269
O O15 0.698842 0.511501 0.943921
O O16 0.218059 0.536580 0.232394
#
# Coordination Sequence:
#
# PCOD9138736 Si02
#       8
#     4   4   4   4   4   4   4   4
#     4  11  24  46  70 101 141 179 232 289 351 428
#     4  12  25  43  69 103 142 182 227 294 356 420
#     4  10  23  46  71 102 133 186 234 288 349 424
#     4  11  25  44  72 101 137 183 233 292 358 421
#     4  12  27  42  70 102 141 180 233 294 355 424
#     4  10  24  46  69  98 139 185 232 291 352 428
#     4  11  24  47  71 104 140 189 238 291 360 434
#     4  11  24  44  72 101 137 188 237 287 357 431
#
# _framework density 21.462721999999999
#
# number of rings (size 3 to 8) (size 9 to 14) (size 15 to 20)
#    0.000    1.000    2.500    3.000    5.250    0.000 
#    4.500    0.000    0.000    0.000    0.000    0.000 
#    0.000    0.000    0.000    0.000    0.000    0.000 
#
# Total GULP energy -89329.741205 kJ/mol
# GULP energy per Si atom -5583.108825 kJ/mol
# Density = 2.141387 g / cm^3
# Si number density = 21.462722 Si / 1000 Ang^3
#
#
#
# Elastic Constant Matrix: (Units=GPa)
#
#
# Indices 1 2 3 4 5 6 
#
# 1 69.6305 15.2534 24.7886 0.0005 -9.4875 0.0008
# 2 15.2534 79.0919 -19.6197 0.0082 -1.4423 0.0013
# 3 24.7886 -19.6197 33.7127 0.0278 -6.3129 0.0081
# 4 0.0005 0.0082 0.0278 27.8539 0.0064 8.9489
# 5 -9.4875 -1.4423 -6.3129 0.0064 28.2238 0.0024
# 6 0.0008 0.0013 0.0081 8.9489 0.0024 35.7020
#
#
#
# Elastic Compliance Matrix: (Units=1/GPa)
#
#
# Indices 1 2 3 4 5 6 
#
# 1 0.026224 -0.011307 -0.025383 0.000028 0.002560 -0.000002
# 2 -0.011307 0.019867 0.020201 -0.000027 0.001733 0.000002
# 3 -0.025383 0.020201 0.061243 -0.000069 0.006198 0.000003
# 4 0.000028 -0.000027 -0.000069 0.039046 -0.000015 -0.009787
# 5 0.002560 0.001733 0.006198 -0.000015 0.037766 0.000000
# 6 -0.000002 0.000002 0.000003 -0.009787 0.000000 0.030463
#
#
# Mechanical properties :
#
#
# Convention : Reuss Voigt Hill
#
# Bulk Modulus (GPa) = 13.44928 24.80888 19.12908
# Shear Modulus (GPa) = 18.35707 29.15680 23.75693
#
# Velocity S-wave (km/s) = 2.92772 3.68976 3.33061
# Velocity P-wave (km/s) = 4.20817 5.45313 4.87059
#
# Compressibility (1/GPa) = 0.07435344
#
# Stress axis : x y z
#
# Youngs Moduli (GPa) = 38.13313 50.33518 16.32828
#
# Poissons Ratio (x) = 0.56916 0.41447
# Poissons Ratio (y) = 0.43119 -0.32984
# Poissons Ratio (z) = 0.96795 -1.01680
#
# Static dielectric constant tensor:
#      x y z
#    x 1.842740 0.000000 0.032660 
#    y 0.000000 1.734790 -0.000010 
#    z 0.032660 -0.000010 1.809450 
# 
# From -- ./inp_files/30148.got.cif
#   From: 2010.05.17/outbox.cif.g08.bks.cpg/sg9_16_cif.got.tgz:30148.got - 2010.06.03 20:04:27.
