data_PCOD9138129
_publ_section_title
;
Structure prediction by ZEFSAII (Michael W. Deem and Ramdas Pophale) SiO2 
 PCOD9138129
Probable space group: C C
;
_chemical_formula_sum "Si O2"
_cell_formula_units_Z 28
_cell_length_a 21.573434
_cell_length_b 8.500176
_cell_length_c 15.046591
_cell_angle_alpha 90.000000
_cell_angle_beta 157.944622
_cell_angle_gamma 90.000000
_cell_volume 1036.091774
_symmetry_space_group_name_H-M "C C"
_symmetry_group_IT_number 9
_symmetry_cell_setting 'monoclinic'
loop_
_space_group_symop_operation_xyz
x,y,z
x,-y,1/2+z
1/2+x,1/2+y,z
1/2+x,1/2-y,1/2+z
loop_
_atom_site_type_symbol
_atom_site_label
_atom_site_fract_x
_atom_site_fract_y
_atom_site_fract_z
Si Si1 0.298630 0.239469 0.352490
Si Si2 0.525887 0.052527 0.903502
Si Si3 0.167757 0.015173 0.426705
Si Si4 0.892410 0.050813 0.410592
Si Si5 0.035678 0.013794 0.431991
Si Si6 0.576625 0.954342 0.165473
Si Si7 0.186115 0.650317 0.460007
O O1 0.338248 0.366071 0.327852
O O2 0.467396 0.147727 0.587421
O O3 0.993239 0.479471 0.958850
O O4 0.164295 0.112003 0.143662
O O5 0.338292 0.101926 0.627768
O O6 0.573679 0.935919 0.884935
O O7 0.709702 0.127586 0.171460
O O8 0.098032 0.089972 0.424477
O O9 0.204658 0.833647 0.500003
O O10 0.024842 0.981632 0.164183
O O11 0.731254 0.847069 0.342326
O O12 0.984820 0.119854 0.448255
O O13 0.864141 0.928448 0.182441
O O14 0.605285 0.114822 0.255707
#
# Coordination Sequence:
#
# PCOD9138129 Si02
#       7
#     4   4   4   4   4   4   4
#     4  11  20  37  65  90 125 161 211 264 314 359
#     4  10  23  37  64  94 121 164 215 264 305 372
#     4  12  22  39  67  95 124 169 215 260 321 377
#     4  10  23  37  62  95 126 160 211 269 316 369
#     4  11  20  40  64  93 119 164 220 266 302 369
#     4  11  22  39  64  96 128 159 215 269 314 371
#     4  11  24  39  66  95 127 165 213 268 320 379
#
# _framework density 27.024633999999999
#
# number of rings (size 3 to 8) (size 9 to 14) (size 15 to 20)
#    0.000    1.143    2.857    6.857    2.000    0.000 
#    0.000    0.000   15.714    0.000    0.000    0.000 
#    0.000    0.000    0.000    0.000    0.000    0.000 
#
# Total GULP energy -78111.372892 kJ/mol
# GULP energy per Si atom -5579.383778 kJ/mol
# Density = 2.696312 g / cm^3
# Si number density = 27.024634 Si / 1000 Ang^3
#
#
#
# Elastic Constant Matrix: (Units=GPa)
#
#
# Indices 1 2 3 4 5 6 
#
# 1 147.2021 5.5593 83.8861 0.0000 0.5631 0.0000
# 2 5.5593 34.3354 17.6253 0.0000 -9.3185 0.0000
# 3 83.8861 17.6253 172.0128 0.0000 12.9535 0.0000
# 4 0.0000 0.0000 0.0000 40.0868 0.0000 -12.5144
# 5 0.5631 -9.3185 12.9535 0.0000 45.8983 0.0000
# 6 0.0000 0.0000 0.0000 -12.5144 0.0000 33.0173
#
#
#
# Elastic Compliance Matrix: (Units=1/GPa)
#
#
# Indices 1 2 3 4 5 6 
#
# 1 0.009532 0.001398 -0.004909 0.000000 0.001552 0.000000
# 2 0.001398 0.033531 -0.004729 0.000000 0.008125 0.000000
# 3 -0.004909 -0.004729 0.008950 0.000000 -0.003426 0.000000
# 4 0.000000 0.000000 0.000000 0.028294 0.000000 0.010724
# 5 0.001552 0.008125 -0.003426 0.000000 0.024385 0.000000
# 6 0.000000 0.000000 0.000000 0.010724 0.000000 0.034352
#
#
# Mechanical properties :
#
#
# Convention : Reuss Voigt Hill
#
# Bulk Modulus (GPa) = 28.14332 63.07685 45.61008
# Shear Modulus (GPa) = 29.87440 40.23244 35.05342
#
# Velocity S-wave (km/s) = 3.32844 3.86260 3.60542
# Velocity P-wave (km/s) = 5.02075 6.57906 5.85200
#
# Compressibility (1/GPa) = 0.03553242
#
# Stress axis : x y z
#
# Youngs Moduli (GPa) = 104.91086 29.82321 111.73371
#
# Poissons Ratio (x) = -0.04168 0.54845
# Poissons Ratio (y) = -0.14662 0.52841
# Poissons Ratio (z) = 0.51496 0.14104
#
# Static dielectric constant tensor:
#      x y z
#    x 2.185740 0.000000 -0.075170 
#    y 0.000000 2.122390 0.000000 
#    z -0.075170 0.000000 2.251830 
# 
# From -- ./inp_files/31602.got.cif
#   From: 2010.05.17/outbox.cif.g08.bks.cpg/sg9_16_cif.got.tgz:31602.got - 2010.06.03 20:04:27.
