data_PCOD9138537
_publ_section_title
;
Structure prediction by ZEFSAII (Michael W. Deem and Ramdas Pophale) SiO2 
 PCOD9138537
Probable space group: C C
;
_chemical_formula_sum "Si O2"
_cell_formula_units_Z 32
_cell_length_a 12.236657
_cell_length_b 8.453253
_cell_length_c 22.894245
_cell_angle_alpha 90.000000
_cell_angle_beta 144.521261
_cell_angle_gamma 90.000000
_cell_volume 1374.488138
_symmetry_space_group_name_H-M "C C"
_symmetry_group_IT_number 9
_symmetry_cell_setting 'monoclinic'
loop_
_space_group_symop_operation_xyz
x,y,z
x,-y,1/2+z
1/2+x,1/2+y,z
1/2+x,1/2-y,1/2+z
loop_
_atom_site_type_symbol
_atom_site_label
_atom_site_fract_x
_atom_site_fract_y
_atom_site_fract_z
Si Si1 0.361960 0.353263 0.752750
Si Si2 0.354640 0.010525 0.244230
Si Si3 0.475813 0.073408 0.040508
Si Si4 0.443682 0.621111 0.098480
Si Si5 0.957911 0.942112 0.402716
Si Si6 0.332687 0.071744 0.601974
Si Si7 0.283251 0.786716 0.912674
Si Si8 0.212330 0.665897 0.460639
O O1 0.327319 0.170191 0.753175
O O2 0.360698 0.470611 0.807049
O O3 0.575178 0.355632 0.823495
O O4 0.196850 0.402595 0.637861
O O5 0.369338 0.008256 0.180215
O O6 0.548266 0.075580 0.354570
O O7 0.165649 0.101333 0.182048
O O8 0.421898 0.011433 0.083115
O O9 0.357457 0.234876 0.983415
O O10 0.415592 0.941192 0.967775
O O11 0.407858 0.749265 0.132933
O O12 0.342933 0.704491 0.999195
O O13 0.338123 0.452422 0.054568
O O14 0.810856 0.852550 0.378997
O O15 0.095736 0.799129 0.444039
O O16 0.105825 0.063979 0.495660
#
# Coordination Sequence:
#
# PCOD9138537 Si02
#       8
#     4   4   4   4   4   4   4   4
#     4  12  24  43  71 104 145 192 240 300 366 433
#     4  12  25  41  73 105 143 197 241 298 371 435
#     4  10  24  44  70 103 149 184 241 313 355 439
#     4  11  22  44  68 101 149 179 240 302 354 443
#     4  11  24  44  71 100 143 191 244 303 362 432
#     4  10  23  44  70 102 138 198 239 297 369 428
#     4  11  23  45  72 100 140 196 238 295 376 431
#     4  11  23  45  65 101 147 185 237 308 357 427
#
# _framework density 23.281393000000001
#
# number of rings (size 3 to 8) (size 9 to 14) (size 15 to 20)
#    0.000    1.000    7.500    0.000    5.250    1.000 
#    0.000    2.500    2.750    0.000    0.000    0.000 
#    0.000    0.000    0.000    0.000    0.000    0.000 
#
# Total GULP energy -89481.660997 kJ/mol
# GULP energy per Si atom -5592.603812 kJ/mol
# Density = 2.322840 g / cm^3
# Si number density = 23.281393 Si / 1000 Ang^3
#
#
#
# Elastic Constant Matrix: (Units=GPa)
#
#
# Indices 1 2 3 4 5 6 
#
# 1 83.9181 27.9133 44.4153 0.0000 12.2894 0.0000
# 2 27.9133 98.6742 40.9125 0.0000 14.9040 0.0000
# 3 44.4153 40.9125 143.2677 0.0000 42.4995 0.0000
# 4 0.0000 0.0000 0.0000 37.3453 0.0000 8.1990
# 5 12.2894 14.9040 42.4995 0.0000 24.3751 0.0000
# 6 0.0000 0.0000 0.0000 8.1990 0.0000 25.2261
#
#
#
# Elastic Compliance Matrix: (Units=1/GPa)
#
#
# Indices 1 2 3 4 5 6 
#
# 1 0.014854 -0.002656 -0.004364 0.000000 0.001743 0.000000
# 2 -0.002656 0.012057 -0.001719 0.000000 -0.003036 0.000000
# 3 -0.004364 -0.001719 0.016279 0.000000 -0.025132 0.000000
# 4 0.000000 0.000000 0.000000 0.028835 0.000000 -0.009372
# 5 0.001743 -0.003036 -0.025132 0.000000 0.085822 0.000000
# 6 0.000000 0.000000 0.000000 -0.009372 0.000000 0.042687
#
#
# Mechanical properties :
#
#
# Convention : Reuss Voigt Hill
#
# Bulk Modulus (GPa) = 38.89169 61.37135 50.13152
# Shear Modulus (GPa) = 22.06694 31.56390 26.81542
#
# Velocity S-wave (km/s) = 3.08203 3.68605 3.39749
# Velocity P-wave (km/s) = 5.42278 6.67337 6.08032
#
# Compressibility (1/GPa) = 0.02571244
#
# Stress axis : x y z
#
# Youngs Moduli (GPa) = 67.32144 82.93925 61.42869
#
# Poissons Ratio (x) = 0.22029 0.26805
# Poissons Ratio (y) = 0.17881 0.10561
# Poissons Ratio (z) = 0.29377 0.14259
#
# Static dielectric constant tensor:
#      x y z
#    x 1.928270 0.000000 -0.009790 
#    y 0.000000 1.930520 0.000000 
#    z -0.009790 0.000000 1.872790 
# 
# From -- ./inp_files/35328.got.cif
#   From: 2010.05.17/outbox.cif.g08.bks.cpg/sg9_18_cif.got.tgz:35328.got - 2010.06.03 20:04:27.
