data_PCOD9138241
_publ_section_title
;
Structure prediction by ZEFSAII (Michael W. Deem and Ramdas Pophale) SiO2 
 PCOD9138241
Probable space group: C C
;
_chemical_formula_sum "Si O2"
_cell_formula_units_Z 32
_cell_length_a 18.462721
_cell_length_b 4.936341
_cell_length_c 16.011792
_cell_angle_alpha 90.000000
_cell_angle_beta 64.428316
_cell_angle_gamma 90.000000
_cell_volume 1316.344198
_symmetry_space_group_name_H-M "C C"
_symmetry_group_IT_number 9
_symmetry_cell_setting 'monoclinic'
loop_
_space_group_symop_operation_xyz
x,y,z
x,-y,1/2+z
1/2+x,1/2+y,z
1/2+x,1/2-y,1/2+z
loop_
_atom_site_type_symbol
_atom_site_label
_atom_site_fract_x
_atom_site_fract_y
_atom_site_fract_z
Si Si1 0.658240 0.318857 0.912480
Si Si2 0.543350 0.690111 0.920401
Si Si3 0.910269 0.498803 0.567751
Si Si4 0.653619 0.995178 0.752387
Si Si5 0.814714 0.008894 0.066857
Si Si6 0.490203 0.209627 0.274782
Si Si7 0.752757 0.167048 0.419914
Si Si8 0.407485 0.709462 0.247557
O O1 0.571113 0.455962 0.967605
O O2 0.660489 0.250838 0.811353
O O3 0.722422 0.532236 0.916295
O O4 0.679722 0.045025 0.949942
O O5 0.490653 0.634124 0.864070
O O6 0.626919 0.780758 0.835981
O O7 0.497212 0.932265 0.987408
O O8 0.850423 0.691179 0.544424
O O9 0.879229 0.193982 0.577146
O O10 0.907066 0.632322 0.660679
O O11 0.734935 0.971891 0.662373
O O12 0.577385 0.942731 0.728501
O O13 0.792377 0.881733 0.989496
O O14 0.467105 0.451103 0.223509
O O15 0.430789 0.954269 0.299421
O O16 0.820018 0.100210 0.316757
#
# Coordination Sequence:
#
# PCOD9138241 Si02
#       8
#     4   4   4   4   4   4   4   4
#     4  12  23  45  69 100 137 184 235 280 361 407
#     4  10  25  45  72  99 140 188 227 290 352 419
#     4  12  27  44  72 101 144 183 239 290 350 421
#     4  10  25  45  74  99 142 189 228 289 356 419
#     4  12  27  46  69 105 141 185 241 287 354 418
#     4  10  23  41  69  95 138 179 232 277 354 406
#     4  12  25  41  71 101 143 181 234 297 345 416
#     4  12  23  43  66 104 137 181 230 290 346 408
#
# _framework density 24.309752
#
# number of rings (size 3 to 8) (size 9 to 14) (size 15 to 20)
#    0.750    0.000    1.250    6.000    3.500    2.000 
#    0.000    0.000    0.000    0.000    0.000    0.000 
#    0.000    0.000    0.000    0.000    0.000    0.000 
#
# Total GULP energy -89293.130394 kJ/mol
# GULP energy per Si atom -5580.820650 kJ/mol
# Density = 2.425442 g / cm^3
# Si number density = 24.309752 Si / 1000 Ang^3
#
#
#
# Elastic Constant Matrix: (Units=GPa)
#
#
# Indices 1 2 3 4 5 6 
#
# 1 65.1155 29.8001 -3.4847 0.0023 21.6727 0.0000
# 2 29.8001 114.8763 -3.7399 0.0002 2.3594 0.0333
# 3 -3.4847 -3.7399 49.7037 0.0033 11.4056 0.0034
# 4 0.0023 0.0002 0.0033 18.4809 -0.0022 5.6600
# 5 21.6727 2.3594 11.4056 -0.0022 27.8157 -0.0005
# 6 0.0000 0.0333 0.0034 5.6600 -0.0005 53.0959
#
#
#
# Elastic Compliance Matrix: (Units=1/GPa)
#
#
# Indices 1 2 3 4 5 6 
#
# 1 0.025906 -0.006050 0.006485 -0.000008 -0.022330 0.000004
# 2 -0.006050 0.010171 -0.000599 0.000003 0.004097 -0.000007
# 3 0.006485 -0.000599 0.023928 -0.000007 -0.014814 -0.000001
# 4 -0.000008 0.000003 -0.000007 0.055936 0.000013 -0.005963
# 5 -0.022330 0.004097 -0.014814 0.000013 0.059076 -0.000002
# 6 0.000004 -0.000007 -0.000001 -0.005963 -0.000002 0.019469
#
#
# Mechanical properties :
#
#
# Convention : Reuss Voigt Hill
#
# Bulk Modulus (GPa) = 16.75712 30.53852 23.64782
# Shear Modulus (GPa) = 23.28749 33.68649 28.48699
#
# Velocity S-wave (km/s) = 3.09843 3.72656 3.42692
# Velocity P-wave (km/s) = 4.43943 5.57727 5.04056
#
# Compressibility (1/GPa) = 0.05967613
#
# Stress axis : x y z
#
# Youngs Moduli (GPa) = 38.60153 98.31958 41.79177
#
# Poissons Ratio (x) = 0.59488 -0.27103
# Poissons Ratio (y) = 0.23356 0.02504
# Poissons Ratio (z) = -0.25034 0.05890
#
# Static dielectric constant tensor:
#      x y z
#    x 2.037260 -0.000010 0.035830 
#    y -0.000010 1.943380 0.000000 
#    z 0.035830 0.000000 1.925590 
# 
# From -- ./inp_files/26460.got.cif
#   From: 2010.05.17/outbox.cif.g08.bks.cpg/sg9_14_cif.got.tgz:26460.got - 2010.06.03 20:04:27.
