data_PCOD9138319
_publ_section_title
;
Structure prediction by ZEFSAII (Michael W. Deem and Ramdas Pophale) SiO2 
 PCOD9138319
Probable space group: C C
;
_chemical_formula_sum "Si O2"
_cell_formula_units_Z 32
_cell_length_a 18.470559
_cell_length_b 14.137597
_cell_length_c 5.448003
_cell_angle_alpha 90.000000
_cell_angle_beta 62.659396
_cell_angle_gamma 90.000000
_cell_volume 1263.713761
_symmetry_space_group_name_H-M "C C"
_symmetry_group_IT_number 9
_symmetry_cell_setting 'monoclinic'
loop_
_space_group_symop_operation_xyz
x,y,z
x,-y,1/2+z
1/2+x,1/2+y,z
1/2+x,1/2-y,1/2+z
loop_
_atom_site_type_symbol
_atom_site_label
_atom_site_fract_x
_atom_site_fract_y
_atom_site_fract_z
Si Si1 0.127750 0.943449 0.089090
Si Si2 0.454946 0.361051 0.251327
Si Si3 0.322664 0.242388 0.749134
Si Si4 0.816096 0.139036 0.653828
Si Si5 0.679970 0.240545 0.173924
Si Si6 0.885517 0.552923 0.413223
Si Si7 0.671488 0.054273 0.640443
Si Si8 0.541420 0.831005 0.603294
O O1 0.172728 0.843043 0.056493
O O2 0.029994 0.921260 0.235992
O O3 0.146947 0.007233 0.298656
O O4 0.386712 0.320038 0.543093
O O5 0.396838 0.406809 0.135712
O O6 0.496750 0.264300 0.087135
O O7 0.225097 0.248478 0.861414
O O8 0.343507 0.147852 0.574365
O O9 0.338393 0.257615 0.009973
O O10 0.766892 0.080701 0.527018
O O11 0.744199 0.167064 0.952611
O O12 0.590857 0.198811 0.270781
O O13 0.866972 0.480416 0.665129
O O14 0.980140 0.584350 0.256968
O O15 0.657466 0.015962 0.392091
O O16 0.607634 0.135894 0.804780
#
# Coordination Sequence:
#
# PCOD9138319 Si02
#       8
#     4   4   4   4   4   4   4   4
#     4  11  26  44  66  99 134 172 218 277 328 380
#     4   9  22  44  64  96 123 177 221 262 321 392
#     4  10  23  42  69  90 130 175 220 264 317 392
#     4  10  23  42  69  90 130 175 220 264 317 392
#     4   9  22  44  64  96 123 177 221 262 321 392
#     4  11  25  42  65  99 130 165 209 266 328 376
#     4  11  25  42  65  99 130 165 209 266 328 376
#     4   9  20  44  66  91 130 170 212 265 320 394
#
# _framework density 25.322188000000001
#
# number of rings (size 3 to 8) (size 9 to 14) (size 15 to 20)
#    0.000    2.000    0.000    0.750   14.000    2.000 
#    4.500    0.000    0.000    0.000    0.000    0.000 
#    0.000    0.000    0.000    0.000    0.000    0.000 
#
# Total GULP energy -89333.706574 kJ/mol
# GULP energy per Si atom -5583.356661 kJ/mol
# Density = 2.526455 g / cm^3
# Si number density = 25.322188 Si / 1000 Ang^3
#
#
#
# Elastic Constant Matrix: (Units=GPa)
#
#
# Indices 1 2 3 4 5 6 
#
# 1 103.2219 -2.8059 14.4835 0.0000 -0.7156 0.0000
# 2 -2.8059 39.7135 34.4440 0.0000 6.6913 0.0000
# 3 14.4835 34.4440 82.1633 0.0000 -0.2065 0.0000
# 4 0.0000 0.0000 0.0000 44.6322 0.0000 0.4517
# 5 -0.7156 6.6913 -0.2065 0.0000 33.2283 0.0000
# 6 0.0000 0.0000 0.0000 0.4517 0.0000 30.9028
#
#
#
# Elastic Compliance Matrix: (Units=1/GPa)
#
#
# Indices 1 2 3 4 5 6 
#
# 1 0.010261 0.003753 -0.003384 0.000000 -0.000556 0.000000
# 2 0.003753 0.043229 -0.018806 0.000000 -0.008741 0.000000
# 3 -0.003384 -0.018806 0.020661 0.000000 0.003843 0.000000
# 4 0.000000 0.000000 0.000000 0.022409 0.000000 -0.000328
# 5 -0.000556 -0.008741 0.003843 0.000000 0.031867 0.000000
# 6 0.000000 0.000000 0.000000 -0.000328 0.000000 0.032364
#
#
# Mechanical properties :
#
#
# Convention : Reuss Voigt Hill
#
# Bulk Modulus (GPa) = 26.82540 35.26021 31.04280
# Shear Modulus (GPa) = 23.79954 33.68445 28.74199
#
# Velocity S-wave (km/s) = 3.06905 3.65119 3.37271
# Velocity P-wave (km/s) = 4.81409 5.63292 5.23952
#
# Compressibility (1/GPa) = 0.03727811
#
# Stress axis : x y z
#
# Youngs Moduli (GPa) = 97.45835 23.13278 48.40138
#
# Poissons Ratio (x) = -0.08682 0.16377
# Poissons Ratio (y) = -0.36578 0.91022
# Poissons Ratio (z) = 0.32975 0.43503
#
# Static dielectric constant tensor:
#      x y z
#    x 2.035180 0.000000 0.036640 
#    y 0.000000 2.139760 0.000000 
#    z 0.036640 0.000000 2.044280 
# 
# From -- ./inp_files/2926.got.cif
#   From: 2010.05.17/outbox.cif.g08.bks.cpg/sg9_2_cif.got.tgz:2926.got - 2010.06.03 20:04:27.
