data_PCOD9138902
_publ_section_title
;
Structure prediction by ZEFSAII (Michael W. Deem and Ramdas Pophale) SiO2 
 PCOD9138902
Probable space group: C C
;
_chemical_formula_sum "Si O2"
_cell_formula_units_Z 28
_cell_length_a 19.585173
_cell_length_b 5.021115
_cell_length_c 12.632776
_cell_angle_alpha 90.000000
_cell_angle_beta 70.056773
_cell_angle_gamma 90.000000
_cell_volume 1167.800290
_symmetry_space_group_name_H-M "C C"
_symmetry_group_IT_number 9
_symmetry_cell_setting 'monoclinic'
loop_
_space_group_symop_operation_xyz
x,y,z
x,-y,1/2+z
1/2+x,1/2+y,z
1/2+x,1/2-y,1/2+z
loop_
_atom_site_type_symbol
_atom_site_label
_atom_site_fract_x
_atom_site_fract_y
_atom_site_fract_z
Si Si1 0.906770 0.654278 0.450030
Si Si2 0.173431 0.708434 0.145051
Si Si3 0.725175 0.598011 0.827454
Si Si4 0.807416 0.086727 0.833589
Si Si5 0.133108 0.216188 0.047608
Si Si6 0.925379 0.154297 0.586840
Si Si7 0.519513 0.939410 0.705568
O O1 0.839142 0.786449 0.423985
O O2 0.896313 0.401630 0.531748
O O3 0.957777 0.549677 0.326348
O O4 0.937946 0.898393 0.505272
O O5 0.226745 0.796896 0.207332
O O6 0.183852 0.436773 0.077383
O O7 0.089666 0.681056 0.227132
O O8 0.165563 0.940293 0.066122
O O9 0.744099 0.288263 0.826936
O O10 0.783567 0.781373 0.856637
O O11 0.648118 0.696794 0.915841
O O12 0.867776 0.088872 0.709362
O O13 0.054197 0.293583 0.134747
O O14 0.993712 0.267849 0.617968
#
# Coordination Sequence:
#
# PCOD9138902 Si02
#       7
#     4   4   4   4   4   4   4
#     4  11  25  44  70  96 129 177 214 281 332 377
#     4  10  24  40  64  97 132 168 215 265 321 398
#     4  12  24  43  70  93 136 178 212 272 334 380
#     4  11  26  44  64 101 131 167 236 265 312 412
#     4  10  24  42  62  98 134 166 216 265 321 392
#     4  11  25  43  71  93 132 176 215 279 333 374
#     4   9  26  42  67 100 132 160 232 263 323 407
#
# _framework density 23.976700999999998
#
# number of rings (size 3 to 8) (size 9 to 14) (size 15 to 20)
#    0.857    0.571    0.000    3.429    6.000    9.143 
#    0.000    0.000    0.000    0.000    0.000    0.000 
#    0.000    0.000    0.000    0.000    0.000    0.000 
#
# Total GULP energy -78131.219459 kJ/mol
# GULP energy per Si atom -5580.801390 kJ/mol
# Density = 2.392213 g / cm^3
# Si number density = 23.976701 Si / 1000 Ang^3
#
#
#
# Elastic Constant Matrix: (Units=GPa)
#
#
# Indices 1 2 3 4 5 6 
#
# 1 -6.2012 -470.2297 -162.5323 0.0000 -61.4954 0.0000
# 2 -470.2297-3922.7589-1478.6300 0.0000 -628.3291 0.0002
# 3 -162.5323-1478.6300 -469.3221 0.0000 -229.1594 0.0001
# 4 0.0000 0.0000 0.0000 22.2622 0.0000 7.7717
# 5 -61.4954 -628.3291 -229.1594 0.0000 -64.2856 0.0000
# 6 0.0000 0.0002 0.0001 7.7717 0.0000 82.9179
#
#
#
# Elastic Compliance Matrix: (Units=1/GPa)
#
#
# Indices 1 2 3 4 5 6 
#
# 1 0.023095 -0.000280 -0.003152 0.000000 -0.008115 0.000000
# 2 -0.000280 0.001817 -0.003933 0.000000 -0.003468 0.000000
# 3 -0.003152 -0.003933 0.012004 0.000000 -0.001337 0.000000
# 4 0.000000 0.000000 0.000000 0.046439 0.000000 -0.004353
# 5 -0.008115 -0.003468 -0.001337 0.000000 0.030873 0.000000
# 6 0.000000 0.000000 0.000000 -0.004353 0.000000 0.012468
#
#
# Mechanical properties :
#
#
# Convention : Reuss Voigt Hill
#
# Bulk Modulus (GPa) = 45.07682 -957.89627 -456.40972
# Shear Modulus (GPa) = 33.59771 -144.28043 -55.34136
#
# Velocity S-wave (km/s) = 3.74741 -7.76569 -4.80951
# Velocity P-wave (km/s) = 6.12904 21.92684 14.88659
#
# Compressibility (1/GPa) = 0.02218435
#
# Stress axis : x y z
#
# Youngs Moduli (GPa) = 43.30027 550.49757 83.30732
#
# Poissons Ratio (x) = 0.15432 0.26261
# Poissons Ratio (y) = 0.01214 0.32761
# Poissons Ratio (z) = 0.13650 2.16487
#
# Static dielectric constant tensor:
#      x y z
#    x 2.635780 0.000000 -1.177660 
#    y 0.000000 1.869480 0.000000 
#    z -1.177660 0.000000 3.797970 
# 
# From -- ./inp_files/19559.got.cif
#   From: 2010.05.17/outbox.cif.g08.bks.cpg/sg9_10_cif.got.tgz:19559.got - 2010.06.03 20:04:27.
