data_PCOD9138515
_publ_section_title
;
Structure prediction by ZEFSAII (Michael W. Deem and Ramdas Pophale) SiO2 
 PCOD9138515
Probable space group: C C
;
_chemical_formula_sum "Si O2"
_cell_formula_units_Z 32
_cell_length_a 7.742878
_cell_length_b 15.134207
_cell_length_c 19.622109
_cell_angle_alpha 90.000000
_cell_angle_beta 138.144766
_cell_angle_gamma 90.000000
_cell_volume 1534.252643
_symmetry_space_group_name_H-M "C C"
_symmetry_group_IT_number 9
_symmetry_cell_setting 'monoclinic'
loop_
_space_group_symop_operation_xyz
x,y,z
x,-y,1/2+z
1/2+x,1/2+y,z
1/2+x,1/2-y,1/2+z
loop_
_atom_site_type_symbol
_atom_site_label
_atom_site_fract_x
_atom_site_fract_y
_atom_site_fract_z
Si Si1 0.654220 0.677037 0.134340
Si Si2 0.597857 0.261542 0.970878
Si Si3 0.038792 0.271369 0.862731
Si Si4 0.603311 0.929289 0.979196
Si Si5 0.692120 0.465828 0.143926
Si Si6 0.339887 0.943519 0.037060
Si Si7 0.014308 0.591338 0.864745
Si Si8 0.048310 0.119715 0.959634
O O1 0.661361 0.571065 0.146476
O O2 0.890850 0.713793 0.248140
O O3 0.380932 0.722405 0.076363
O O4 0.664869 0.681533 0.054665
O O5 0.349192 0.261669 0.946435
O O6 0.643671 0.362929 0.963842
O O7 0.518068 0.192314 0.889263
O O8 0.979909 0.351102 0.897861
O O9 0.951812 0.180625 0.870986
O O10 0.565749 0.923942 0.049541
O O11 0.484692 0.021862 0.917324
O O12 0.905783 0.928602 0.051367
O O13 0.816260 0.425557 0.247078
O O14 0.860588 0.445204 0.125545
O O15 0.236807 0.041963 0.992684
O O16 0.299937 0.572852 0.919254
#
# Coordination Sequence:
#
# PCOD9138515 Si02
#       8
#     4   4   4   4   4   4   4   4
#     4  10  23  44  68  99 138 181 230 284 348 411
#     4  11  23  44  67 103 142 177 230 290 335 416
#     4  12  24  42  72 102 142 184 228 286 353 409
#     4  12  22  44  70 101 137 181 226 291 344 416
#     4  11  23  46  71  99 140 183 228 293 347 413
#     4  11  24  45  69  98 139 178 227 287 344 404
#     4  11  22  43  69 100 139 181 226 284 355 406
#     4  10  23  44  68  98 141 177 225 293 334 413
#
# _framework density 20.857061999999999
#
# number of rings (size 3 to 8) (size 9 to 14) (size 15 to 20)
#    0.000    1.000    6.250    2.250    1.750    2.000 
#    2.250    0.000    0.000    0.000    0.000    0.000 
#    0.000    0.000    0.000    0.000    0.000    0.000 
#
# Total GULP energy -89224.136160 kJ/mol
# GULP energy per Si atom -5576.508510 kJ/mol
# Density = 2.080959 g / cm^3
# Si number density = 20.857062 Si / 1000 Ang^3
#
#
#
# Elastic Constant Matrix: (Units=GPa)
#
#
# Indices 1 2 3 4 5 6 
#
# 1 90.0143 20.7797 8.2575 0.0001 -5.6967 0.0000
# 2 20.7797 67.1937 49.6981 0.0001 -1.7448 0.0000
# 3 8.2575 49.6981 90.2471 0.0003 -16.2898 0.0001
# 4 0.0001 0.0001 0.0003 27.8717 0.0002 -3.8444
# 5 -5.6967 -1.7448 -16.2898 0.0002 13.4440 0.0000
# 6 0.0000 0.0000 0.0001 -3.8444 0.0000 27.8989
#
#
#
# Elastic Compliance Matrix: (Units=1/GPa)
#
#
# Indices 1 2 3 4 5 6 
#
# 1 0.012974 -0.007119 0.004555 0.000000 0.010093 0.000000
# 2 -0.007119 0.032597 -0.021862 0.000000 -0.025276 0.000000
# 3 0.004555 -0.021862 0.028849 -0.000001 0.034048 0.000000
# 4 0.000000 0.000000 -0.000001 0.036574 -0.000001 0.005040
# 5 0.010093 -0.025276 0.034048 -0.000001 0.116635 -0.000001
# 6 0.000000 0.000000 0.000000 0.005040 -0.000001 0.036538
#
#
# Mechanical properties :
#
#
# Convention : Reuss Voigt Hill
#
# Bulk Modulus (GPa) = 39.11145 44.99177 42.05161
# Shear Modulus (GPa) = 15.55012 25.09091 20.32052
#
# Velocity S-wave (km/s) = 2.73345 3.47218 3.12472
# Velocity P-wave (km/s) = 5.36239 6.13947 5.76404
#
# Compressibility (1/GPa) = 0.02556796
#
# Stress axis : x y z
#
# Youngs Moduli (GPa) = 77.07926 30.67751 34.66349
#
# Poissons Ratio (x) = 0.21840 -0.15790
# Poissons Ratio (y) = 0.54874 0.75781
# Poissons Ratio (z) = -0.35111 0.67067
#
# Static dielectric constant tensor:
#      x y z
#    x 1.784050 0.000000 0.000070 
#    y 0.000000 1.771760 0.000000 
#    z 0.000070 0.000000 1.742820 
# 
# From -- ./inp_files/32748.got.cif
#   From: 2010.05.17/outbox.cif.g08.bks.cpg/sg9_17_cif.got.tgz:32748.got - 2010.06.03 20:04:27.
