data_PCOD9138584
_publ_section_title
;
Structure prediction by ZEFSAII (Michael W. Deem and Ramdas Pophale) SiO2 
 PCOD9138584
Probable space group: C C
;
_chemical_formula_sum "Si O2"
_cell_formula_units_Z 32
_cell_length_a 16.110430
_cell_length_b 9.495735
_cell_length_c 22.792835
_cell_angle_alpha 90.000000
_cell_angle_beta 156.553770
_cell_angle_gamma 90.000000
_cell_volume 1387.379256
_symmetry_space_group_name_H-M "C C"
_symmetry_group_IT_number 9
_symmetry_cell_setting 'monoclinic'
loop_
_space_group_symop_operation_xyz
x,y,z
x,-y,1/2+z
1/2+x,1/2+y,z
1/2+x,1/2-y,1/2+z
loop_
_atom_site_type_symbol
_atom_site_label
_atom_site_fract_x
_atom_site_fract_y
_atom_site_fract_z
Si Si1 0.490730 0.494208 0.838050
Si Si2 0.089469 0.760797 0.992443
Si Si3 0.879260 0.979763 0.639144
Si Si4 0.841506 0.721847 0.069787
Si Si5 0.113446 0.295425 0.095710
Si Si6 0.188709 0.994484 0.134278
Si Si7 0.214557 0.888333 0.766235
Si Si8 0.813510 0.189485 0.415040
O O1 0.479518 0.362796 0.874217
O O2 0.518363 0.461948 0.787615
O O3 0.274213 0.577900 0.698315
O O4 0.675828 0.600005 0.974219
O O5 0.791832 0.494253 0.764934
O O6 0.936333 0.715600 0.946304
O O7 0.249025 0.869340 0.130098
O O8 0.786257 0.134951 0.569008
O O9 0.708179 0.860537 0.536227
O O10 0.031436 0.957717 0.683749
O O11 0.074123 0.680918 0.241019
O O12 0.835626 0.756691 0.995887
O O13 0.115180 0.239539 0.163776
O O14 0.200442 0.154108 0.119625
O O15 0.897392 0.337073 0.926644
O O16 0.945327 0.954879 0.990884
#
# Coordination Sequence:
#
# PCOD9138584 Si02
#       8
#     4   4   4   4   4   4   4   4
#     4  12  29  47  73 115 144 199 252 311 377 443
#     4  10  26  49  70 109 154 190 245 309 381 436
#     4  12  27  47  71 116 146 191 248 317 377 428
#     4  12  25  51  77 108 147 196 255 307 368 460
#     4  10  23  46  76 104 145 197 256 296 375 450
#     4   8  21  44  74 104 136 199 243 290 373 439
#     4  10  23  44  76 102 149 192 248 306 370 450
#     4  10  24  48  77 102 147 200 247 296 377 454
#
# _framework density 23.065071
#
# number of rings (size 3 to 8) (size 9 to 14) (size 15 to 20)
#    1.500    0.000    2.500    0.750    7.000    3.000 
#    9.000    0.000    0.000    0.000    0.000    0.000 
#    0.000    0.000    0.000    0.000    0.000    0.000 
#
# Total GULP energy -89359.986353 kJ/mol
# GULP energy per Si atom -5584.999147 kJ/mol
# Density = 2.301257 g / cm^3
# Si number density = 23.065071 Si / 1000 Ang^3
#
#
#
# Elastic Constant Matrix: (Units=GPa)
#
#
# Indices 1 2 3 4 5 6 
#
# 1 92.6654 24.5001 22.3823 0.0023 -25.9961 0.0026
# 2 24.5001 88.0353 46.7657 0.0060 -0.2946 0.0032
# 3 22.3823 46.7657 131.2937 0.0064 -25.1846 0.0045
# 4 0.0023 0.0060 0.0064 43.7721 -0.0005 -7.8828
# 5 -25.9961 -0.2946 -25.1846 -0.0005 29.9613 -0.0005
# 6 0.0026 0.0032 0.0045 -7.8828 -0.0005 24.9955
#
#
#
# Elastic Compliance Matrix: (Units=1/GPa)
#
#
# Indices 1 2 3 4 5 6 
#
# 1 0.016215 -0.005696 0.002328 0.000000 0.015970 -0.000001
# 2 -0.005696 0.016624 -0.006995 -0.000001 -0.010658 -0.000001
# 3 0.002328 -0.006995 0.012024 -0.000001 0.012058 -0.000002
# 4 0.000000 -0.000001 -0.000001 0.024221 -0.000001 0.007639
# 5 0.015970 -0.010658 0.012058 -0.000001 0.057264 -0.000002
# 6 -0.000001 -0.000001 -0.000002 0.007639 -0.000002 0.042416
#
#
# Mechanical properties :
#
#
# Convention : Reuss Voigt Hill
#
# Bulk Modulus (GPa) = 41.42829 55.47673 48.45251
# Shear Modulus (GPa) = 25.31166 34.30220 29.80693
#
# Velocity S-wave (km/s) = 3.31630 3.86060 3.59875
# Velocity P-wave (km/s) = 5.71527 6.63150 6.19036
#
# Compressibility (1/GPa) = 0.02413810
#
# Stress axis : x y z
#
# Youngs Moduli (GPa) = 61.66964 60.15246 83.16560
#
# Poissons Ratio (x) = 0.34262 -0.19360
# Poissons Ratio (y) = 0.35127 0.58174
# Poissons Ratio (z) = -0.14356 0.42076
#
# Static dielectric constant tensor:
#      x y z
#    x 1.903420 0.000000 -0.043500 
#    y 0.000000 1.905770 0.000000 
#    z -0.043500 0.000000 1.856100 
# 
# From -- ./inp_files/37652.got.cif
#   From: 2010.05.17/outbox.cif.g08.bks.cpg/sg9_19_cif.got.tgz:37652.got - 2010.06.03 20:04:27.
