data_PCOD9138670
_publ_section_title
;
Structure prediction by ZEFSAII (Michael W. Deem and Ramdas Pophale) SiO2 
 PCOD9138670
Probable space group: C C
;
_chemical_formula_sum "Si O2"
_cell_formula_units_Z 28
_cell_length_a 7.538261
_cell_length_b 30.195919
_cell_length_c 5.066230
_cell_angle_alpha 90.000000
_cell_angle_beta 70.516956
_cell_angle_gamma 90.000000
_cell_volume 1087.167265
_symmetry_space_group_name_H-M "C C"
_symmetry_group_IT_number 9
_symmetry_cell_setting 'monoclinic'
loop_
_space_group_symop_operation_xyz
x,y,z
x,-y,1/2+z
1/2+x,1/2+y,z
1/2+x,1/2-y,1/2+z
loop_
_atom_site_type_symbol
_atom_site_label
_atom_site_fract_x
_atom_site_fract_y
_atom_site_fract_z
Si Si1 0.990700 0.278488 0.912500
Si Si2 0.102292 0.526089 0.874684
Si Si3 0.971728 0.333002 0.398608
Si Si4 0.125138 0.124103 0.310426
Si Si5 0.148767 0.029406 0.101247
Si Si6 0.873717 0.191850 0.208856
Si Si7 0.814941 0.885618 0.355899
O O1 0.995321 0.295103 0.610350
O O2 0.201358 0.282909 0.926468
O O3 0.888307 0.312119 0.169388
O O4 0.933752 0.227971 0.964006
O O5 0.142555 0.514650 0.551346
O O6 0.225607 0.566503 0.915742
O O7 0.877154 0.533871 0.002880
O O8 0.839348 0.368023 0.618922
O O9 0.165299 0.359255 0.242928
O O10 0.069638 0.078711 0.183528
O O11 0.044291 0.173380 0.291633
O O12 0.027591 0.114552 0.639654
O O13 0.097016 0.995588 0.360185
O O14 0.806241 0.146130 0.111154
#
# Coordination Sequence:
#
# PCOD9138670 Si02
#       7
#     4   4   4   4   4   4   4
#     4  11  26  48  71 102 147 184 238 291 354 421
#     4  10  23  45  73  99 141 188 230 288 352 416
#     4  11  26  47  73 102 145 185 232 301 350 413
#     4  12  26  44  75 105 142 188 234 297 348 425
#     4  10  24  45  70 104 138 185 234 286 353 419
#     4  11  27  45  72 106 143 186 240 290 355 419
#     4  11  26  46  68 112 138 188 238 293 348 427
#
# _framework density 25.755005000000001
#
# number of rings (size 3 to 8) (size 9 to 14) (size 15 to 20)
#    0.000    1.143    2.857    0.857   10.000    2.286 
#    0.000    0.000    0.000    0.000    0.000    0.000 
#    0.000    0.000    0.000    0.000    0.000    0.000 
#
# Total GULP energy -78201.807934 kJ/mol
# GULP energy per Si atom -5585.843424 kJ/mol
# Density = 2.569639 g / cm^3
# Si number density = 25.755005 Si / 1000 Ang^3
#
#
#
# Elastic Constant Matrix: (Units=GPa)
#
#
# Indices 1 2 3 4 5 6 
#
# 1 47.9744 16.2006 12.8215 0.0000 -15.9578 0.0000
# 2 16.2006 121.8864 12.9211 0.0000 1.1165 0.0000
# 3 12.8215 12.9211 110.2572 0.0000 10.2464 0.0000
# 4 0.0000 0.0000 0.0000 29.3614 0.0000 1.2444
# 5 -15.9578 1.1165 10.2464 0.0000 29.1677 0.0000
# 6 0.0000 0.0000 0.0000 1.2444 0.0000 45.1176
#
#
#
# Elastic Compliance Matrix: (Units=1/GPa)
#
#
# Indices 1 2 3 4 5 6 
#
# 1 0.029173 -0.003550 -0.004623 0.000000 0.017721 0.000000
# 2 -0.003550 0.008740 -0.000413 0.000000 -0.002131 0.000000
# 3 -0.004623 -0.000413 0.010223 0.000000 -0.006105 0.000000
# 4 0.000000 0.000000 0.000000 0.034098 0.000000 -0.000940
# 5 0.017721 -0.002131 -0.006105 0.000000 0.046206 0.000000
# 6 0.000000 0.000000 0.000000 -0.000940 0.000000 0.022190
#
#
# Mechanical properties :
#
#
# Convention : Reuss Voigt Hill
#
# Bulk Modulus (GPa) = 32.29650 40.44492 36.37071
# Shear Modulus (GPa) = 28.07033 36.60766 32.33900
#
# Velocity S-wave (km/s) = 3.30494 3.77421 3.54734
# Velocity P-wave (km/s) = 5.20871 5.89327 5.56153
#
# Compressibility (1/GPa) = 0.03096311
#
# Stress axis : x y z
#
# Youngs Moduli (GPa) = 34.27789 114.42272 97.81754
#
# Poissons Ratio (x) = 0.40618 0.45224
# Poissons Ratio (y) = 0.12168 0.04043
# Poissons Ratio (z) = 0.15848 0.04729
#
# Static dielectric constant tensor:
#      x y z
#    x 2.183060 0.000000 -0.047620 
#    y 0.000000 2.008270 0.000000 
#    z -0.047620 0.000000 2.115260 
# 
# From -- ./inp_files/1180.got.cif
#   From: 2010.05.17/outbox.cif.g08.bks.cpg/sg9_1_cif.got.tgz:1180.got - 2010.06.03 20:04:27.
