data_PCOD9138230
_publ_section_title
;
Structure prediction by ZEFSAII (Michael W. Deem and Ramdas Pophale) SiO2 
 PCOD9138230
Probable space group: C C
;
_chemical_formula_sum "Si O2"
_cell_formula_units_Z 28
_cell_length_a 5.441450
_cell_length_b 18.025739
_cell_length_c 14.666395
_cell_angle_alpha 90.000000
_cell_angle_beta 53.590250
_cell_angle_gamma 90.000000
_cell_volume 1157.751049
_symmetry_space_group_name_H-M "C C"
_symmetry_group_IT_number 9
_symmetry_cell_setting 'monoclinic'
loop_
_space_group_symop_operation_xyz
x,y,z
x,-y,1/2+z
1/2+x,1/2+y,z
1/2+x,1/2-y,1/2+z
loop_
_atom_site_type_symbol
_atom_site_label
_atom_site_fract_x
_atom_site_fract_y
_atom_site_fract_z
Si Si1 0.300290 0.239623 0.471190
Si Si2 0.749662 0.127994 0.870877
Si Si3 0.002956 0.095140 0.246454
Si Si4 0.762755 0.406122 0.882938
Si Si5 0.368722 0.854740 0.133631
Si Si6 0.855808 0.503783 0.524831
Si Si7 0.512368 0.236465 0.765419
O O1 0.200834 0.323069 0.472656
O O2 0.175580 0.178652 0.426882
O O3 0.265790 0.204473 0.578682
O O4 0.658662 0.247512 0.367369
O O5 0.620569 0.182154 0.821079
O O6 0.093522 0.117776 0.759335
O O7 0.588965 0.050482 0.922605
O O8 0.636330 0.092853 0.308271
O O9 0.123293 0.180248 0.222914
O O10 0.121667 0.068734 0.319271
O O11 0.157659 0.046250 0.135122
O O12 0.658296 0.457859 0.989043
O O13 0.569590 0.808827 0.159891
O O14 0.487139 0.926070 0.052869
#
# Coordination Sequence:
#
# PCOD9138230 Si02
#       7
#     4   4   4   4   4   4   4
#     4   9  21  42  68  94 138 183 237 295 362 421
#     4  11  23  42  68 101 134 183 244 293 354 444
#     4  11  24  45  74 102 147 191 244 296 366 426
#     4  10  23  47  67 104 147 189 239 303 361 438
#     4  10  24  46  65 100 142 183 236 303 367 427
#     4  11  26  43  70 106 143 197 234 306 372 436
#     4  10  23  41  68 101 133 182 240 300 344 440
#
# _framework density 24.184818
#
# number of rings (size 3 to 8) (size 9 to 14) (size 15 to 20)
#    0.000    1.714    1.429    0.857    6.000    1.143 
#   10.286    0.000    0.000    0.000    0.000    0.000 
#    0.000    0.000    0.000    0.000    0.000    0.000 
#
# Total GULP energy -78248.499196 kJ/mol
# GULP energy per Si atom -5589.178514 kJ/mol
# Density = 2.412977 g / cm^3
# Si number density = 24.184818 Si / 1000 Ang^3
#
#
#
# Elastic Constant Matrix: (Units=GPa)
#
#
# Indices 1 2 3 4 5 6 
#
# 1 79.2057 32.4997 45.3354 0.0000 13.6459 0.0000
# 2 32.4997 172.0622 46.3373 0.0000 17.5498 0.0000
# 3 45.3354 46.3373 123.8033 0.0000 5.0976 0.0000
# 4 0.0000 0.0000 0.0000 49.0399 0.0000 3.7081
# 5 13.6459 17.5498 5.0976 0.0000 20.5283 0.0000
# 6 0.0000 0.0000 0.0000 3.7081 0.0000 22.6589
#
#
#
# Elastic Compliance Matrix: (Units=1/GPa)
#
#
# Indices 1 2 3 4 5 6 
#
# 1 0.018024 -0.000816 -0.005890 0.000000 -0.009820 0.000000
# 2 -0.000816 0.007046 -0.002134 0.000000 -0.004951 0.000000
# 3 -0.005890 -0.002134 0.010908 0.000000 0.003031 0.000000
# 4 0.000000 0.000000 0.000000 0.020647 0.000000 -0.003379
# 5 -0.009820 -0.004951 0.003031 0.000000 0.058721 0.000000
# 6 0.000000 0.000000 0.000000 -0.003379 0.000000 0.044686
#
#
# Mechanical properties :
#
#
# Convention : Reuss Voigt Hill
#
# Bulk Modulus (GPa) = 54.65702 69.26845 61.96274
# Shear Modulus (GPa) = 27.20175 35.17200 31.18688
#
# Velocity S-wave (km/s) = 3.35736 3.81767 3.59489
# Velocity P-wave (km/s) = 6.13824 6.93803 6.55035
#
# Compressibility (1/GPa) = 0.01829591
#
# Stress axis : x y z
#
# Youngs Moduli (GPa) = 55.48275 141.92835 91.67390
#
# Poissons Ratio (x) = 0.11588 0.53997
# Poissons Ratio (y) = 0.04530 0.19566
# Poissons Ratio (z) = 0.32680 0.30292
#
# Static dielectric constant tensor:
#      x y z
#    x 1.975050 0.000000 -0.038280 
#    y 0.000000 1.907650 0.000000 
#    z -0.038280 0.000000 1.922040 
# 
# From -- ./inp_files/13088.got.cif
#   From: 2010.05.17/outbox.cif.g08.bks.cpg/sg9_7_cif.got.tgz:13088.got - 2010.06.03 20:04:27.
