data_PCOD9138687
_publ_section_title
;
Structure prediction by ZEFSAII (Michael W. Deem and Ramdas Pophale) SiO2 
 PCOD9138687
Probable space group: C C
;
_chemical_formula_sum "Si O2"
_cell_formula_units_Z 16
_cell_length_a 7.434167
_cell_length_b 17.794754
_cell_length_c 5.152478
_cell_angle_alpha 90.000000
_cell_angle_beta 112.280338
_cell_angle_gamma 90.000000
_cell_volume 630.727443
_symmetry_space_group_name_H-M "C C"
_symmetry_group_IT_number 9
_symmetry_cell_setting 'monoclinic'
loop_
_space_group_symop_operation_xyz
x,y,z
x,-y,1/2+z
1/2+x,1/2+y,z
1/2+x,1/2-y,1/2+z
loop_
_atom_site_type_symbol
_atom_site_label
_atom_site_fract_x
_atom_site_fract_y
_atom_site_fract_z
Si Si1 0.280960 0.682962 0.250000
Si Si2 0.151972 0.974245 0.598708
Si Si3 0.080852 0.462332 0.429794
Si Si4 0.037038 0.183383 0.878867
O O1 0.136087 0.618684 0.066666
O O2 0.162357 0.750687 0.318597
O O3 0.409612 0.655993 0.564253
O O4 0.409212 0.705557 0.064445
O O5 0.166580 0.886553 0.546482
O O6 0.045791 0.018026 0.313148
O O7 0.349868 0.019562 0.775694
O O8 0.150523 0.476911 0.178276
#
# Coordination Sequence:
#
# PCOD9138687 Si02
#       4
#     4   4   4   4
#     4  12  28  50  79 118 160 206 262 322 396 471
#     4  10  23  45  78 109 152 203 262 315 393 455
#     4  10  23  45  78 109 152 203 262 315 393 455
#     4  12  28  50  79 118 160 206 262 322 396 471
#
# _framework density 25.367536000000001
#
# number of rings (size 3 to 8) (size 9 to 14) (size 15 to 20)
#    0.000    1.000    0.000    4.500    7.000    6.000 
#    0.000    0.000    0.000    0.000    0.000    0.000 
#    0.000    0.000    0.000    0.000    0.000    0.000 
#
# Total GULP energy -44728.249349 kJ/mol
# GULP energy per Si atom -5591.031169 kJ/mol
# Density = 2.530980 g / cm^3
# Si number density = 25.367536 Si / 1000 Ang^3
#
#
#
# Elastic Constant Matrix: (Units=GPa)
#
#
# Indices 1 2 3 4 5 6 
#
# 1 166.7122 74.1312 50.9417 0.0000 -15.4385 0.0000
# 2 74.1312 157.7334 30.2250 0.0000 -12.9500 0.0000
# 3 50.9417 30.2250 138.9136 0.0000 -50.0916 0.0000
# 4 0.0000 0.0000 0.0000 50.6722 0.0000 -8.6788
# 5 -15.4385 -12.9500 -50.0916 0.0000 45.8823 0.0000
# 6 0.0000 0.0000 0.0000 -8.6788 0.0000 48.0051
#
#
#
# Elastic Compliance Matrix: (Units=1/GPa)
#
#
# Indices 1 2 3 4 5 6 
#
# 1 0.008250 -0.003456 -0.002679 0.000000 -0.001124 0.000000
# 2 -0.003456 0.008070 -0.000143 0.000000 0.000959 0.000000
# 3 -0.002679 -0.000143 0.012984 0.000000 0.013234 0.000000
# 4 0.000000 0.000000 0.000000 0.020365 0.000000 0.003682
# 5 -0.001124 0.000959 0.013234 0.000000 0.036135 0.000000
# 6 0.000000 0.000000 0.000000 0.003682 0.000000 0.021497
#
#
# Mechanical properties :
#
#
# Convention : Reuss Voigt Hill
#
# Bulk Modulus (GPa) = 59.70456 85.99501 72.84979
# Shear Modulus (GPa) = 39.86010 49.44934 44.65472
#
# Velocity S-wave (km/s) = 3.96827 4.41990 4.20016
# Velocity P-wave (km/s) = 6.67706 7.74729 7.23200
#
# Compressibility (1/GPa) = 0.01674914
#
# Stress axis : x y z
#
# Youngs Moduli (GPa) = 121.21844 123.91272 77.01774
#
# Poissons Ratio (x) = 0.42826 0.20629
# Poissons Ratio (y) = 0.41895 0.01099
# Poissons Ratio (z) = 0.32469 0.01768
#
# Static dielectric constant tensor:
#      x y z
#    x 2.277550 0.000000 -0.107270 
#    y 0.000000 1.959270 0.000000 
#    z -0.107270 0.000000 2.072070 
# 
# From -- ./inp_files/425.got.cif
#   From: 2010.05.17/outbox.cif.g08.bks.cpg/sg9_1_cif.got.tgz:425.got - 2010.06.03 20:04:27.
