data_PCOD9138020
_publ_section_title
;
Structure prediction by ZEFSAII (Michael W. Deem and Ramdas Pophale) SiO2 
 PCOD9138020
Probable space group: C C
;
_chemical_formula_sum "Si O2"
_cell_formula_units_Z 20
_cell_length_a 8.091591
_cell_length_b 11.303430
_cell_length_c 10.461743
_cell_angle_alpha 90.000000
_cell_angle_beta 55.365002
_cell_angle_gamma 90.000000
_cell_volume 787.293898
_symmetry_space_group_name_H-M "C C"
_symmetry_group_IT_number 9
_symmetry_cell_setting 'monoclinic'
loop_
_space_group_symop_operation_xyz
x,y,z
x,-y,1/2+z
1/2+x,1/2+y,z
1/2+x,1/2-y,1/2+z
loop_
_atom_site_type_symbol
_atom_site_label
_atom_site_fract_x
_atom_site_fract_y
_atom_site_fract_z
Si Si1 0.848180 0.628501 0.769410
Si Si2 0.444645 0.703329 0.844827
Si Si3 0.090972 0.852832 0.724324
Si Si4 0.533055 0.254265 0.019517
Si Si5 0.842602 0.462460 0.002229
O O1 0.931332 0.761764 0.737403
O O2 0.922667 0.560269 0.610598
O O3 0.606054 0.642246 0.865363
O O4 0.914958 0.555926 0.863593
O O5 0.399012 0.837954 0.909944
O O6 0.215842 0.660068 0.927897
O O7 0.543317 0.707714 0.662416
O O8 0.309123 0.794063 0.608472
O O9 0.124767 0.976302 0.637854
O O10 0.057357 0.848974 0.893019
#
# Coordination Sequence:
#
# PCOD9138020 Si02
#       5
#     4   4   4   4   4
#     4  12  26  50  78 110 160 200 260 322 384 460
#     4  11  24  48  74 112 153 201 250 333 367 477
#     4  11  24  48  74 112 153 201 250 333 367 477
#     4  10  22  46  74 104 156 190 254 320 382 436
#     4  12  26  46  76 114 146 202 264 306 398 462
#
# _framework density 25.403473000000002
#
# number of rings (size 3 to 8) (size 9 to 14) (size 15 to 20)
#    0.000    0.800    4.000    3.600    0.000    0.000 
#    7.200    4.000    0.000    0.000    0.000    0.000 
#    0.000    0.000    0.000    0.000    0.000    0.000 
#
# Total GULP energy -55732.532040 kJ/mol
# GULP energy per Si atom -5573.253204 kJ/mol
# Density = 2.534565 g / cm^3
# Si number density = 25.403473 Si / 1000 Ang^3
#
#
#
# Elastic Constant Matrix: (Units=GPa)
#
#
# Indices 1 2 3 4 5 6 
#
# 1 103.5322 23.7234 23.3065 0.0000 -5.1190 0.0000
# 2 23.7234 131.1992 70.5184 0.0000 8.6848 0.0000
# 3 23.3065 70.5184 210.0201 0.0000 24.1646 0.0000
# 4 0.0000 0.0000 0.0000 40.9967 0.0000 0.2016
# 5 -5.1190 8.6848 24.1646 0.0000 50.0253 0.0000
# 6 0.0000 0.0000 0.0000 0.2016 0.0000 27.0118
#
#
#
# Elastic Compliance Matrix: (Units=1/GPa)
#
#
# Indices 1 2 3 4 5 6 
#
# 1 0.010280 -0.001529 -0.000825 0.000000 0.001716 0.000000
# 2 -0.001529 0.009529 -0.002987 0.000000 -0.000368 0.000000
# 3 -0.000825 -0.002987 0.006148 0.000000 -0.002535 0.000000
# 4 0.000000 0.000000 0.000000 0.024393 0.000000 -0.000182
# 5 0.001716 -0.000368 -0.002535 0.000000 0.021454 0.000000
# 6 0.000000 0.000000 0.000000 -0.000182 0.000000 0.037022
#
#
# Mechanical properties :
#
#
# Convention : Reuss Voigt Hill
#
# Bulk Modulus (GPa) = 65.47266 75.53869 70.50567
# Shear Modulus (GPa) = 40.12875 45.42031 42.77453
#
# Velocity S-wave (km/s) = 3.97880 4.23301 4.10787
# Velocity P-wave (km/s) = 6.85105 7.32744 7.09324
#
# Compressibility (1/GPa) = 0.01527355
#
# Stress axis : x y z
#
# Youngs Moduli (GPa) = 97.27915 104.94814 162.66037
#
# Poissons Ratio (x) = 0.16047 0.13416
# Poissons Ratio (y) = 0.14874 0.48593
# Poissons Ratio (z) = 0.08023 0.31352
#
# Static dielectric constant tensor:
#      x y z
#    x 2.210480 0.000000 0.006770 
#    y 0.000000 2.183680 0.000000 
#    z 0.006770 0.000000 1.985730 
# 
# From -- ./inp_files/7144.got.cif
#   From: 2010.05.17/outbox.cif.g08.bks.cpg/sg9_4_cif.got.tgz:7144.got - 2010.06.03 20:04:27.
