data_PCOD9138299
_publ_section_title
;
Structure prediction by ZEFSAII (Michael W. Deem and Ramdas Pophale) SiO2 
 PCOD9138299
Probable space group: C C
;
_chemical_formula_sum "Si O2"
_cell_formula_units_Z 32
_cell_length_a 8.464645
_cell_length_b 31.719588
_cell_length_c 5.241048
_cell_angle_alpha 90.000000
_cell_angle_beta 80.089583
_cell_angle_gamma 90.000000
_cell_volume 1386.197357
_symmetry_space_group_name_H-M "C C"
_symmetry_group_IT_number 9
_symmetry_cell_setting 'monoclinic'
loop_
_space_group_symop_operation_xyz
x,y,z
x,-y,1/2+z
1/2+x,1/2+y,z
1/2+x,1/2-y,1/2+z
loop_
_atom_site_type_symbol
_atom_site_label
_atom_site_fract_x
_atom_site_fract_y
_atom_site_fract_z
Si Si1 0.591850 0.682899 0.585400
Si Si2 0.699315 0.478597 0.769253
Si Si3 0.812712 0.023932 0.329421
Si Si4 0.257399 0.310578 0.972854
Si Si5 0.681331 0.887154 0.675703
Si Si6 0.745091 0.285415 0.556146
Si Si7 0.991884 0.350351 0.347668
Si Si8 0.319011 0.893530 0.989439
O O1 0.402945 0.678624 0.619498
O O2 0.655010 0.716004 0.353052
O O3 0.681908 0.640506 0.472523
O O4 0.642508 0.693748 0.857546
O O5 0.752680 0.485939 0.462280
O O6 0.505982 0.477710 0.799711
O O7 0.757301 0.437007 0.896111
O O8 0.761943 0.070385 0.251032
O O9 0.755285 0.008256 0.623015
O O10 0.278591 0.260824 0.935118
O O11 0.078453 0.319031 0.124614
O O12 0.269045 0.344894 0.745288
O O13 0.641567 0.879395 0.391939
O O14 0.495788 0.887469 0.821674
O O15 0.899813 0.315884 0.545785
O O16 0.861596 0.382844 0.271957
#
# Coordination Sequence:
#
# PCOD9138299 Si02
#       8
#     4   4   4   4   4   4   4   4
#     4  11  25  44  67  97 129 180 226 276 335 399
#     4  10  23  42  67  98 130 169 221 276 334 403
#     4  10  24  45  68  98 134 173 220 278 333 402
#     4  11  26  40  69  98 132 180 228 281 337 404
#     4  11  24  43  67  98 137 179 223 278 340 404
#     4  11  25  44  67  95 137 176 228 281 339 396
#     4  10  24  45  64  98 140 178 225 284 337 401
#     4  10  23  43  65  94 135 177 217 278 335 405
#
# _framework density 23.084733
#
# number of rings (size 3 to 8) (size 9 to 14) (size 15 to 20)
#    0.000    1.500    1.250    1.500   10.500    1.000 
#    2.250    0.000    0.000    0.000    0.000    0.000 
#    0.000    0.000    0.000    0.000    0.000    0.000 
#
# Total GULP energy -89158.078732 kJ/mol
# GULP energy per Si atom -5572.379921 kJ/mol
# Density = 2.303219 g / cm^3
# Si number density = 23.084733 Si / 1000 Ang^3
#
#
#
# Elastic Constant Matrix: (Units=GPa)
#
#
# Indices 1 2 3 4 5 6 
#
# 1 40.4023 31.1930 23.6841 0.0000 20.1845 0.0000
# 2 31.1930 135.8895 24.2210 0.0000 35.8483 0.0000
# 3 23.6841 24.2210 67.9797 0.0000 22.1142 0.0000
# 4 0.0000 0.0000 0.0000 -123.9113 0.0000 -51.4352
# 5 20.1845 35.8483 22.1142 0.0000 34.4183 0.0000
# 6 0.0000 0.0000 0.0000 -51.4352 0.0000 8.7676
#
#
#
# Elastic Compliance Matrix: (Units=1/GPa)
#
#
# Indices 1 2 3 4 5 6 
#
# 1 0.039326 -0.003965 -0.007749 0.000000 -0.013954 0.000000
# 2 -0.003965 0.010549 0.000557 0.000000 -0.009020 0.000000
# 3 -0.007749 0.000557 0.020129 0.000000 -0.008969 0.000000
# 4 0.000000 0.000000 0.000000 -0.002349 0.000000 -0.013782
# 5 -0.013954 -0.009020 -0.008969 0.000000 0.052396 0.000000
# 6 0.000000 0.000000 0.000000 -0.013782 0.000000 0.033202
#
#
# Mechanical properties :
#
#
# Convention : Reuss Voigt Hill
#
# Bulk Modulus (GPa) = 20.96833 44.71866 32.84349
# Shear Modulus (GPa) = 26.11449 -5.13353 10.49048
#
# Velocity S-wave (km/s) = 3.36705 -1.49285 2.13406
# Velocity P-wave (km/s) = 4.92127 4.05489 4.50894
#
# Compressibility (1/GPa) = 0.04769097
#
# Stress axis : x y z
#
# Youngs Moduli (GPa) = 25.42837 94.79240 49.67879
#
# Poissons Ratio (x) = 0.37583 0.38497
# Poissons Ratio (y) = 0.10082 -0.02767
# Poissons Ratio (z) = 0.19705 -0.05280
#
# Static dielectric constant tensor:
#      x y z
#    x 1.847210 0.000000 0.039330 
#    y 0.000000 2.007230 0.000000 
#    z 0.039330 0.000000 2.180120 
# 
# From -- ./inp_files/1283.got.cif
#   From: 2010.05.17/outbox.cif.g08.bks.cpg/sg9_1_cif.got.tgz:1283.got - 2010.06.03 20:04:27.
