data_PCOD9138576
_publ_section_title
;
Structure prediction by ZEFSAII (Michael W. Deem and Ramdas Pophale) SiO2 
 PCOD9138576
Probable space group: C C
;
_chemical_formula_sum "Si O2"
_cell_formula_units_Z 32
_cell_length_a 13.682127
_cell_length_b 8.374690
_cell_length_c 14.057089
_cell_angle_alpha 90.000000
_cell_angle_beta 52.566190
_cell_angle_gamma 90.000000
_cell_volume 1278.995225
_symmetry_space_group_name_H-M "C C"
_symmetry_group_IT_number 9
_symmetry_cell_setting 'monoclinic'
loop_
_space_group_symop_operation_xyz
x,y,z
x,-y,1/2+z
1/2+x,1/2+y,z
1/2+x,1/2-y,1/2+z
loop_
_atom_site_type_symbol
_atom_site_label
_atom_site_fract_x
_atom_site_fract_y
_atom_site_fract_z
Si Si1 0.609130 0.782336 0.126270
Si Si2 0.154702 0.317860 0.736451
Si Si3 0.689221 0.002200 0.408863
Si Si4 0.938926 0.316550 0.547522
Si Si5 0.256447 0.167512 0.321399
Si Si6 0.836639 0.022172 0.547103
Si Si7 0.914462 0.468385 0.351316
Si Si8 0.067362 0.964722 0.792858
O O1 0.715032 0.867262 0.126659
O O2 0.598554 0.603493 0.170468
O O3 0.476288 0.848982 0.237747
O O4 0.662433 0.848792 0.996066
O O5 0.198340 0.410526 0.803756
O O6 0.270754 0.352167 0.598109
O O7 0.021635 0.395720 0.791139
O O8 0.128737 0.134960 0.768585
O O9 0.565989 0.898882 0.497303
O O10 0.777739 0.847117 0.347566
O O11 0.849235 0.377565 0.682135
O O12 0.924409 0.123264 0.564781
O O13 0.906294 0.380694 0.459266
O O14 0.289097 0.044629 0.386517
O O15 0.129017 0.148356 0.337608
O O16 0.921876 0.025475 0.403010
#
# Coordination Sequence:
#
# PCOD9138576 Si02
#       8
#     4   4   4   4   4   4   4   4
#     4  11  23  44  74 105 146 195 249 307 383 448
#     4  10  25  46  69 107 152 194 257 308 373 450
#     4  11  23  44  74 113 150 197 247 318 382 458
#     4  11  20  44  78 103 152 196 245 313 381 453
#     4  12  23  44  77 111 146 200 251 306 393 450
#     4  11  22  46  74  99 149 200 240 316 367 443
#     4  10  23  44  74 110 146 198 255 311 380 452
#     4  12  25  46  74 106 149 204 248 307 385 450
#
# _framework density 25.019641
#
# number of rings (size 3 to 8) (size 9 to 14) (size 15 to 20)
#    0.000    1.000    6.250    0.750    1.750    3.000 
#    2.250    1.250    0.000    0.000    0.000    0.000 
#    0.000    0.000    0.000    0.000    0.000    0.000 
#
# Total GULP energy -89108.578234 kJ/mol
# GULP energy per Si atom -5569.286140 kJ/mol
# Density = 2.496270 g / cm^3
# Si number density = 25.019641 Si / 1000 Ang^3
#
#
#
# Elastic Constant Matrix: (Units=GPa)
#
#
# Indices 1 2 3 4 5 6 
#
# 1 36.8714 20.9337 23.6880 0.0000 11.1887 0.0000
# 2 20.9337 86.4485 14.4865 0.0000 -5.9200 0.0000
# 3 23.6880 14.4865 133.2495 0.0000 -10.4916 0.0000
# 4 0.0000 0.0000 0.0000 31.1002 0.0000 0.3921
# 5 11.1887 -5.9200 -10.4916 0.0000 27.6267 0.0000
# 6 0.0000 0.0000 0.0000 0.3921 0.0000 17.5522
#
#
#
# Elastic Compliance Matrix: (Units=1/GPa)
#
#
# Indices 1 2 3 4 5 6 
#
# 1 0.047149 -0.011608 -0.009091 0.000000 -0.025035 0.000000
# 2 -0.011608 0.014760 0.001111 0.000000 0.008286 0.000000
# 3 -0.009091 0.001111 0.009596 0.000000 0.007564 0.000000
# 4 0.000000 0.000000 0.000000 0.032163 0.000000 -0.000719
# 5 -0.025035 0.008286 0.007564 0.000000 0.050984 0.000000
# 6 0.000000 0.000000 0.000000 -0.000719 0.000000 0.056989
#
#
# Mechanical properties :
#
#
# Convention : Reuss Voigt Hill
#
# Bulk Modulus (GPa) = 30.93203 41.64286 36.28745
# Shear Modulus (GPa) = 19.11364 28.41989 23.76676
#
# Velocity S-wave (km/s) = 2.76695 3.37397 3.08543
# Velocity P-wave (km/s) = 4.75373 5.64433 5.21807
#
# Compressibility (1/GPa) = 0.03232895
#
# Stress axis : x y z
#
# Youngs Moduli (GPa) = 21.20916 67.75183 104.21466
#
# Poissons Ratio (x) = 0.78649 0.94742
# Poissons Ratio (y) = 0.24620 -0.11583
# Poissons Ratio (z) = 0.19281 -0.07530
#
# Static dielectric constant tensor:
#      x y z
#    x 2.139040 0.000000 -0.017200 
#    y 0.000000 2.028740 0.000000 
#    z -0.017200 0.000000 2.036110 
# 
# From -- ./inp_files/25658.got.cif
#   From: 2010.05.17/outbox.cif.g08.bks.cpg/sg9_13_cif.got.tgz:25658.got - 2010.06.03 20:04:27.
