data_PCOD9138133
_publ_section_title
;
Structure prediction by ZEFSAII (Michael W. Deem and Ramdas Pophale) SiO2 
 PCOD9138133
Probable space group: C C
;
_chemical_formula_sum "Si O2"
_cell_formula_units_Z 28
_cell_length_a 6.778721
_cell_length_b 21.700901
_cell_length_c 8.113070
_cell_angle_alpha 90.000000
_cell_angle_beta 92.279156
_cell_angle_gamma 90.000000
_cell_volume 1192.523798
_symmetry_space_group_name_H-M "C C"
_symmetry_group_IT_number 9
_symmetry_cell_setting 'monoclinic'
loop_
_space_group_symop_operation_xyz
x,y,z
x,-y,1/2+z
1/2+x,1/2+y,z
1/2+x,1/2-y,1/2+z
loop_
_atom_site_type_symbol
_atom_site_label
_atom_site_fract_x
_atom_site_fract_y
_atom_site_fract_z
Si Si1 0.688610 0.420630 0.718270
Si Si2 0.010356 0.217042 0.681610
Si Si3 0.841553 0.371226 0.198300
Si Si4 0.247977 0.414945 0.613566
Si Si5 0.481652 0.160612 0.346240
Si Si6 0.407032 0.021380 0.921100
Si Si7 0.653651 0.800520 0.393074
O O1 0.457473 0.431718 0.696551
O O2 0.767747 0.351492 0.752012
O O3 0.794700 0.458847 0.869045
O O4 0.773431 0.442813 0.547531
O O5 0.116069 0.150848 0.694499
O O6 0.092304 0.244858 0.511857
O O7 0.069656 0.272382 0.809999
O O8 0.784461 0.210835 0.734416
O O9 0.890876 0.440657 0.249211
O O10 0.947289 0.330915 0.340636
O O11 0.946230 0.351335 0.034447
O O12 0.267656 0.354260 0.498600
O O13 0.116649 0.390026 0.760602
O O14 0.126482 0.467140 0.505913
#
# Coordination Sequence:
#
# PCOD9138133 Si02
#       7
#     4   4   4   4   4   4   4
#     4  11  22  43  70  91 137 175 222 287 342 409
#     4  11  22  40  60  96 129 180 223 279 339 405
#     4  11  23  42  65  93 139 172 225 288 335 407
#     4   9  22  43  66  97 133 175 220 283 338 407
#     4  10  23  40  62  99 127 175 228 276 339 413
#     4  10  23  42  66 100 129 174 232 277 343 412
#     4  10  23  38  63  92 132 175 226 272 340 405
#
# _framework density 23.479617000000001
#
# number of rings (size 3 to 8) (size 9 to 14) (size 15 to 20)
#    0.000    1.714    1.429    2.571    2.000    5.714 
#    0.000    4.286    0.000    0.000    0.000    0.000 
#    0.000    0.000    0.000    0.000    0.000    0.000 
#
# Total GULP energy -78058.223248 kJ/mol
# GULP energy per Si atom -5575.587375 kJ/mol
# Density = 2.342618 g / cm^3
# Si number density = 23.479617 Si / 1000 Ang^3
#
#
#
# Elastic Constant Matrix: (Units=GPa)
#
#
# Indices 1 2 3 4 5 6 
#
# 1 123.3643 31.0378 23.2751 0.0000 3.3744 0.0000
# 2 31.0378 60.6159 13.5662 0.0000 10.0625 0.0000
# 3 23.2751 13.5662 76.1680 0.0000 -10.6954 0.0000
# 4 0.0000 0.0000 0.0000 15.0179 0.0000 -2.3593
# 5 3.3744 10.0625 -10.6954 0.0000 33.1320 0.0000
# 6 0.0000 0.0000 0.0000 -2.3593 0.0000 16.0454
#
#
#
# Elastic Compliance Matrix: (Units=1/GPa)
#
#
# Indices 1 2 3 4 5 6 
#
# 1 0.009635 -0.004377 -0.002216 0.000000 -0.000368 0.000000
# 2 -0.004377 0.020620 -0.003302 0.000000 -0.006883 0.000000
# 3 -0.002216 -0.003302 0.015258 0.000000 0.006154 0.000000
# 4 0.000000 0.000000 0.000000 0.068162 0.000000 0.010023
# 5 -0.000368 -0.006883 0.006154 0.000000 0.034297 0.000000
# 6 0.000000 0.000000 0.000000 0.010023 0.000000 0.063797
#
#
# Mechanical properties :
#
#
# Convention : Reuss Voigt Hill
#
# Bulk Modulus (GPa) = 38.87393 43.98959 41.43176
# Shear Modulus (GPa) = 20.82178 25.65700 23.23939
#
# Velocity S-wave (km/s) = 2.98115 3.30924 3.14947
# Velocity P-wave (km/s) = 5.33311 5.77731 5.55965
#
# Compressibility (1/GPa) = 0.02572418
#
# Stress axis : x y z
#
# Youngs Moduli (GPa) = 103.78347 48.49707 65.53787
#
# Poissons Ratio (x) = 0.21226 0.14526
# Poissons Ratio (y) = 0.45422 0.21638
# Poissons Ratio (z) = 0.23003 0.16012
#
# Static dielectric constant tensor:
#      x y z
#    x 1.890220 0.000000 0.025530 
#    y 0.000000 2.106040 0.000000 
#    z 0.025530 0.000000 1.895920 
# 
# From -- ./inp_files/3996.got.cif
#   From: 2010.05.17/outbox.cif.g08.bks.cpg/sg9_2_cif.got.tgz:3996.got - 2010.06.03 20:04:27.
