data_PCOD9138900
_publ_section_title
;
Structure prediction by ZEFSAII (Michael W. Deem and Ramdas Pophale) SiO2 
 PCOD9138900
Probable space group: C C
;
_chemical_formula_sum "Si O2"
_cell_formula_units_Z 28
_cell_length_a 12.789677
_cell_length_b 5.152896
_cell_length_c 20.370393
_cell_angle_alpha 90.000000
_cell_angle_beta 109.620793
_cell_angle_gamma 90.000000
_cell_volume 1264.537164
_symmetry_space_group_name_H-M "C C"
_symmetry_group_IT_number 9
_symmetry_cell_setting 'monoclinic'
loop_
_space_group_symop_operation_xyz
x,y,z
x,-y,1/2+z
1/2+x,1/2+y,z
1/2+x,1/2-y,1/2+z
loop_
_atom_site_type_symbol
_atom_site_label
_atom_site_fract_x
_atom_site_fract_y
_atom_site_fract_z
Si Si1 0.966500 0.459429 0.428890
Si Si2 0.584842 0.059253 0.151547
Si Si3 0.742935 0.222176 0.770638
Si Si4 0.206127 0.385455 0.543737
Si Si5 0.962681 0.955245 0.346298
Si Si6 0.846369 0.610829 0.037242
Si Si7 0.154721 0.225779 0.797849
O O1 0.943370 0.752664 0.401423
O O2 0.883672 0.372149 0.469230
O O3 0.092253 0.451363 0.482188
O O4 0.962480 0.248538 0.370030
O O5 0.649819 0.808719 0.194752
O O6 0.664992 0.152690 0.110042
O O7 0.460701 0.035598 0.099017
O O8 0.585256 0.239774 0.215842
O O9 0.862531 0.114474 0.775432
O O10 0.743901 0.507819 0.799062
O O11 0.704989 0.011035 0.817600
O O12 0.291876 0.622829 0.551596
O O13 0.260134 0.121729 0.529233
O O14 0.078235 0.876155 0.338751
#
# Coordination Sequence:
#
# PCOD9138900 Si02
#       7
#     4   4   4   4   4   4   4
#     4  11  26  44  62  98 124 162 229 254 299 394
#     4   9  26  40  66  98 129 154 226 250 314 392
#     4  10  24  40  62  96 130 162 206 254 311 382
#     4  11  25  43  69  90 125 171 207 272 316 357
#     4  12  24  42  68  90 133 170 203 260 321 366
#     4  11  25  43  69  90 125 171 207 272 316 357
#     4  10  24  40  62  96 130 162 206 254 311 382
#
# _framework density 22.142489000000001
#
# number of rings (size 3 to 8) (size 9 to 14) (size 15 to 20)
#    0.857    0.571    0.000    3.429    6.000    9.143 
#    0.000    0.000    0.000    0.000    0.000    0.000 
#    0.000    0.000    0.000    0.000    0.000    0.000 
#
# Total GULP energy -78167.373697 kJ/mol
# GULP energy per Si atom -5583.383836 kJ/mol
# Density = 2.209209 g / cm^3
# Si number density = 22.142489 Si / 1000 Ang^3
#
#
#
# Elastic Constant Matrix: (Units=GPa)
#
#
# Indices 1 2 3 4 5 6 
#
# 1 77.5946 -1.3815 12.4918 0.0000 -10.3425 0.0000
# 2 -1.3815 72.9036 5.5430 0.0000 -3.9167 0.0000
# 3 12.4918 5.5430 43.9441 0.0000 -1.4675 0.0000
# 4 0.0000 0.0000 0.0000 22.6099 0.0000 5.7512
# 5 -10.3425 -3.9167 -1.4675 0.0000 25.2240 0.0000
# 6 0.0000 0.0000 0.0000 5.7512 0.0000 35.5673
#
#
#
# Elastic Compliance Matrix: (Units=1/GPa)
#
#
# Indices 1 2 3 4 5 6 
#
# 1 0.014315 0.000885 -0.003988 0.000000 0.005775 0.000000
# 2 0.000885 0.014011 -0.001938 0.000000 0.002426 0.000000
# 3 -0.003988 -0.001938 0.024116 0.000000 -0.000533 0.000000
# 4 0.000000 0.000000 0.000000 0.046126 0.000000 -0.007458
# 5 0.005775 0.002426 -0.000533 0.000000 0.042358 0.000000
# 6 0.000000 0.000000 0.000000 -0.007458 0.000000 0.029322
#
#
# Mechanical properties :
#
#
# Convention : Reuss Voigt Hill
#
# Bulk Modulus (GPa) = 23.60692 25.30543 24.45617
# Shear Modulus (GPa) = 25.71347 28.53284 27.12315
#
# Velocity S-wave (km/s) = 3.41144 3.59360 3.50371
# Velocity P-wave (km/s) = 5.11877 5.35462 5.23802
#
# Compressibility (1/GPa) = 0.04236046
#
# Stress axis : x y z
#
# Youngs Moduli (GPa) = 69.85678 71.37172 41.46543
#
# Poissons Ratio (x) = -0.06314 0.16536
# Poissons Ratio (y) = -0.06180 0.08035
# Poissons Ratio (z) = 0.27859 0.13830
#
# Static dielectric constant tensor:
#      x y z
#    x 1.815590 0.000000 0.045560 
#    y 0.000000 1.765120 0.000000 
#    z 0.045560 0.000000 1.863600 
# 
# From -- ./inp_files/31938.got.cif
#   From: 2010.05.17/outbox.cif.g08.bks.cpg/sg9_16_cif.got.tgz:31938.got - 2010.06.03 20:04:27.
