data_PCOD9138451
_publ_section_title
;
Structure prediction by ZEFSAII (Michael W. Deem and Ramdas Pophale) SiO2 
 PCOD9138451
Probable space group: C C
;
_chemical_formula_sum "Si O2"
_cell_formula_units_Z 24
_cell_length_a 10.484985
_cell_length_b 9.717656
_cell_length_c 15.547946
_cell_angle_alpha 90.000000
_cell_angle_beta 41.801053
_cell_angle_gamma 90.000000
_cell_volume 1055.923842
_symmetry_space_group_name_H-M "C C"
_symmetry_group_IT_number 9
_symmetry_cell_setting 'monoclinic'
loop_
_space_group_symop_operation_xyz
x,y,z
x,-y,1/2+z
1/2+x,1/2+y,z
1/2+x,1/2-y,1/2+z
loop_
_atom_site_type_symbol
_atom_site_label
_atom_site_fract_x
_atom_site_fract_y
_atom_site_fract_z
Si Si1 0.690800 0.597586 0.793680
Si Si2 0.001636 0.828710 0.923200
Si Si3 0.752339 0.618186 0.948744
Si Si4 0.720531 0.382626 0.092283
Si Si5 0.292855 0.639533 0.159949
Si Si6 0.346412 0.346838 0.185817
O O1 0.518967 0.491593 0.897879
O O2 0.810881 0.592554 0.820773
O O3 0.773234 0.554643 0.659169
O O4 0.672427 0.760792 0.784360
O O5 0.201772 0.765024 0.792801
O O6 0.845997 0.750228 0.944964
O O7 0.965467 0.801559 0.041931
O O8 0.799005 0.481867 0.979804
O O9 0.521670 0.642246 0.064360
O O10 0.767301 0.221686 0.082899
O O11 0.493189 0.385824 0.187608
O O12 0.239036 0.482663 0.203948
#
# Coordination Sequence:
#
# PCOD9138451 Si02
#       6
#     4   4   4   4   4   4
#     4  10  23  43  71  99 141 192 239 292 367 427
#     4  12  26  45  72 108 150 187 245 308 359 441
#     4  11  23  45  74 103 148 185 247 302 365 438
#     4   9  22  45  70 103 146 184 250 292 360 438
#     4   9  23  46  71 102 143 198 240 298 364 436
#     4  11  25  48  70 111 148 190 249 302 371 432
#
# _framework density 22.728912000000001
#
# number of rings (size 3 to 8) (size 9 to 14) (size 15 to 20)
#    1.000    0.667    3.333    1.000    7.000    4.000 
#    0.000    0.000    0.000    0.000    0.000    0.000 
#    0.000    0.000    0.000    0.000    0.000    0.000 
#
# Total GULP energy -66838.353612 kJ/mol
# GULP energy per Si atom -5569.862801 kJ/mol
# Density = 2.267718 g / cm^3
# Si number density = 22.728912 Si / 1000 Ang^3
#
#
#
# Elastic Constant Matrix: (Units=GPa)
#
#
# Indices 1 2 3 4 5 6 
#
# 1 74.4344 39.9710 15.6762 0.0000 24.7020 0.0000
# 2 39.9710 141.0180 38.0872 0.0000 10.0637 0.0000
# 3 15.6762 38.0872 89.2126 0.0000 20.2258 0.0000
# 4 0.0000 0.0000 0.0000 45.0226 0.0000 -3.1157
# 5 24.7020 10.0637 20.2258 0.0000 44.9775 0.0000
# 6 0.0000 0.0000 0.0000 -3.1157 0.0000 43.8279
#
#
#
# Elastic Compliance Matrix: (Units=1/GPa)
#
#
# Indices 1 2 3 4 5 6 
#
# 1 0.019186 -0.005005 0.001003 0.000000 -0.009868 0.000000
# 2 -0.005005 0.009324 -0.003621 0.000000 0.002290 0.000000
# 3 0.001003 -0.003621 0.013941 0.000000 -0.006010 0.000000
# 4 0.000000 0.000000 0.000000 0.022321 0.000000 0.001587
# 5 -0.009868 0.002290 -0.006010 0.000000 0.029843 0.000000
# 6 0.000000 0.000000 0.000000 0.001587 0.000000 0.022929
#
#
# Mechanical properties :
#
#
# Convention : Reuss Voigt Hill
#
# Bulk Modulus (GPa) = 36.75683 54.68155 45.71919
# Shear Modulus (GPa) = 35.24633 40.82762 38.03697
#
# Velocity S-wave (km/s) = 3.94220 4.24286 4.09529
# Velocity P-wave (km/s) = 6.07686 6.93634 6.52078
#
# Compressibility (1/GPa) = 0.02720583
#
# Stress axis : x y z
#
# Youngs Moduli (GPa) = 52.12177 107.24674 71.72956
#
# Poissons Ratio (x) = 0.53674 -0.07192
# Poissons Ratio (y) = 0.26085 0.25971
# Poissons Ratio (z) = -0.05226 0.38830
#
# Static dielectric constant tensor:
#      x y z
#    x 1.827100 0.000000 0.005750 
#    y 0.000000 1.864870 0.000000 
#    z 0.005750 0.000000 1.893560 
# 
# From -- ./inp_files/22507.got.cif
#   From: 2010.05.17/outbox.cif.g08.bks.cpg/sg9_12_cif.got.tgz:22507.got - 2010.06.03 20:04:27.
