data_PCOD9138567
_publ_section_title
;
Structure prediction by ZEFSAII (Michael W. Deem and Ramdas Pophale) SiO2 
 PCOD9138567
Probable space group: C C
;
_chemical_formula_sum "Si O2"
_cell_formula_units_Z 28
_cell_length_a 22.535922
_cell_length_b 9.537455
_cell_length_c 9.059222
_cell_angle_alpha 90.000000
_cell_angle_beta 37.122049
_cell_angle_gamma 90.000000
_cell_volume 1175.132166
_symmetry_space_group_name_H-M "C C"
_symmetry_group_IT_number 9
_symmetry_cell_setting 'monoclinic'
loop_
_space_group_symop_operation_xyz
x,y,z
x,-y,1/2+z
1/2+x,1/2+y,z
1/2+x,1/2-y,1/2+z
loop_
_atom_site_type_symbol
_atom_site_label
_atom_site_fract_x
_atom_site_fract_y
_atom_site_fract_z
Si Si1 0.656050 0.822215 0.790980
Si Si2 0.761104 0.362246 0.594842
Si Si3 0.321010 0.453146 0.040986
Si Si4 0.024837 0.674630 0.293868
Si Si5 0.452208 0.478858 0.525573
Si Si6 0.970002 0.510917 0.667651
Si Si7 0.157522 0.935698 0.497996
O O1 0.630465 0.817772 0.666984
O O2 0.671636 0.674608 0.837312
O O3 0.740886 0.929591 0.663980
O O4 0.552600 0.879880 0.060369
O O5 0.782675 0.198187 0.568885
O O6 0.860892 0.448360 0.428517
O O7 0.727231 0.396662 0.496134
O O8 0.682397 0.418099 0.868997
O O9 0.424217 0.482573 0.751999
O O10 0.354808 0.461490 0.141882
O O11 0.969135 0.816446 0.447759
O O12 0.976963 0.542611 0.478809
O O13 0.008684 0.635678 0.155981
O O14 0.549406 0.558976 0.283421
#
# Coordination Sequence:
#
# PCOD9138567 Si02
#       7
#     4   4   4   4   4   4   4
#     4  10  26  45  75 104 145 188 244 303 360 437
#     4  12  26  46  74 112 142 197 244 306 365 441
#     4  12  27  47  75 106 147 190 250 294 372 431
#     4  10  23  45  70 105 148 186 246 290 374 424
#     4  12  26  51  69 105 150 198 235 304 365 448
#     4  10  23  44  73 102 150 183 240 309 356 432
#     4  12  27  48  78 104 156 188 251 298 374 435
#
# _framework density 23.827107999999999
#
# number of rings (size 3 to 8) (size 9 to 14) (size 15 to 20)
#    0.857    0.000    1.429    5.143    8.000    1.143 
#    5.143    0.000    0.000    0.000    0.000    0.000 
#    0.000    0.000    0.000    0.000    0.000    0.000 
#
# Total GULP energy -78262.615177 kJ/mol
# GULP energy per Si atom -5590.186798 kJ/mol
# Density = 2.377288 g / cm^3
# Si number density = 23.827108 Si / 1000 Ang^3
#
#
#
# Elastic Constant Matrix: (Units=GPa)
#
#
# Indices 1 2 3 4 5 6 
#
# 1 105.4363 41.0767 24.1630 0.0000 -14.4320 0.0000
# 2 41.0767 83.0924 11.9320 0.0000 -5.5175 0.0000
# 3 24.1630 11.9320 60.1229 0.0000 -13.3644 0.0000
# 4 0.0000 0.0000 0.0000 27.5890 0.0000 7.3024
# 5 -14.4320 -5.5175 -13.3644 0.0000 31.0078 0.0000
# 6 0.0000 0.0000 0.0000 7.3024 0.0000 40.5360
#
#
#
# Elastic Compliance Matrix: (Units=1/GPa)
#
#
# Indices 1 2 3 4 5 6 
#
# 1 0.012944 -0.005690 -0.003272 0.000000 0.003602 0.000000
# 2 -0.005690 0.014934 -0.000747 0.000000 -0.000313 0.000000
# 3 -0.003272 -0.000747 0.019606 0.000000 0.006794 0.000000
# 4 0.000000 0.000000 0.000000 0.038061 0.000000 -0.006857
# 5 0.003602 -0.000313 0.006794 0.000000 0.036799 0.000000
# 6 0.000000 0.000000 0.000000 -0.006857 0.000000 0.025905
#
#
# Mechanical properties :
#
#
# Convention : Reuss Voigt Hill
#
# Bulk Modulus (GPa) = 35.62936 44.77722 40.20329
# Shear Modulus (GPa) = 28.24508 31.25856 29.75182
#
# Velocity S-wave (km/s) = 3.44673 3.62593 3.53746
# Velocity P-wave (km/s) = 5.55208 6.03019 5.79607
#
# Compressibility (1/GPa) = 0.02806674
#
# Stress axis : x y z
#
# Youngs Moduli (GPa) = 77.25594 66.96131 51.00432
#
# Poissons Ratio (x) = 0.38100 0.16690
# Poissons Ratio (y) = 0.43957 0.03808
# Poissons Ratio (z) = 0.25280 0.04999
#
# Static dielectric constant tensor:
#      x y z
#    x 1.855520 0.000000 0.005390 
#    y 0.000000 1.929110 0.000000 
#    z 0.005390 0.000000 1.914040 
# 
# From -- ./inp_files/11408.got.cif
#   From: 2010.05.17/outbox.cif.g08.bks.cpg/sg9_6_cif.got.tgz:11408.got - 2010.06.03 20:04:27.
