data_PCOD9138480
_publ_section_title
;
Structure prediction by ZEFSAII (Michael W. Deem and Ramdas Pophale) SiO2 
 PCOD9138480
Probable space group: C C
;
_chemical_formula_sum "Si O2"
_cell_formula_units_Z 28
_cell_length_a 11.515684
_cell_length_b 8.604459
_cell_length_c 14.032602
_cell_angle_alpha 90.000000
_cell_angle_beta 131.397470
_cell_angle_gamma 90.000000
_cell_volume 1043.023268
_symmetry_space_group_name_H-M "C C"
_symmetry_group_IT_number 9
_symmetry_cell_setting 'monoclinic'
loop_
_space_group_symop_operation_xyz
x,y,z
x,-y,1/2+z
1/2+x,1/2+y,z
1/2+x,1/2-y,1/2+z
loop_
_atom_site_type_symbol
_atom_site_label
_atom_site_fract_x
_atom_site_fract_y
_atom_site_fract_z
Si Si1 0.511850 0.821934 0.055130
Si Si2 0.757297 0.893334 0.466861
Si Si3 0.702374 0.897938 0.648330
Si Si4 0.787886 0.470932 0.305734
Si Si5 0.411246 0.283875 0.011684
Si Si6 0.741994 0.585420 0.077952
Si Si7 0.064700 0.111693 0.321152
O O1 0.398784 0.727066 0.062782
O O2 0.618558 0.700305 0.058876
O O3 0.617835 0.959053 0.154520
O O4 0.394010 0.900055 0.916524
O O5 0.681443 0.938825 0.525216
O O6 0.630690 0.785764 0.347263
O O7 0.835809 0.046172 0.465699
O O8 0.842419 0.687374 0.885238
O O9 0.596512 0.745860 0.608915
O O10 0.812709 0.497779 0.207410
O O11 0.618130 0.512139 0.257688
O O12 0.354173 0.193735 0.075717
O O13 0.386306 0.396524 0.753630
O O14 0.657606 0.470295 0.958873
#
# Coordination Sequence:
#
# PCOD9138480 Si02
#       7
#     4   4   4   4   4   4   4
#     4  10  23  43  82 109 155 209 264 324 407 471
#     4  11  24  51  79 119 157 209 275 332 396 492
#     4  11  24  52  76 117 161 207 267 337 403 484
#     4   9  22  48  79 118 159 211 268 329 405 490
#     4  10  24  49  82 116 158 218 272 326 410 484
#     4  11  22  47  81 116 160 215 264 334 403 490
#     4  10  25  48  79 117 164 205 270 334 412 475
#
# _framework density 26.845037000000001
#
# number of rings (size 3 to 8) (size 9 to 14) (size 15 to 20)
#    0.000    1.714    1.429    1.714    4.000    0.000 
#    5.143   15.714    0.000    0.000    0.000    0.000 
#    0.000    0.000    0.000    0.000    0.000    0.000 
#
# Total GULP energy -78466.937517 kJ/mol
# GULP energy per Si atom -5604.781251 kJ/mol
# Density = 2.678394 g / cm^3
# Si number density = 26.845037 Si / 1000 Ang^3
#
#
#
# Elastic Constant Matrix: (Units=GPa)
#
#
# Indices 1 2 3 4 5 6 
#
# 1 135.3774 44.2850 18.3906 0.0000 30.6143 0.0000
# 2 44.2850 161.6535 34.0713 0.0000 13.3861 0.0000
# 3 18.3906 34.0713 87.1523 0.0000 3.8535 0.0000
# 4 0.0000 0.0000 0.0000 22.6858 0.0000 -5.3290
# 5 30.6143 13.3861 3.8535 0.0000 54.8253 0.0000
# 6 0.0000 0.0000 0.0000 -5.3290 0.0000 70.0705
#
#
#
# Elastic Compliance Matrix: (Units=1/GPa)
#
#
# Indices 1 2 3 4 5 6 
#
# 1 0.009190 -0.001931 -0.000981 0.000000 -0.004591 0.000000
# 2 -0.001931 0.007267 -0.002410 0.000000 -0.000527 0.000000
# 3 -0.000981 -0.002410 0.012612 0.000000 0.000250 0.000000
# 4 0.000000 0.000000 0.000000 0.044882 0.000000 0.003413
# 5 -0.004591 -0.000527 0.000250 0.000000 0.020915 0.000000
# 6 0.000000 0.000000 0.000000 0.003413 0.000000 0.014531
#
#
# Mechanical properties :
#
#
# Convention : Reuss Voigt Hill
#
# Bulk Modulus (GPa) = 54.27529 64.18634 59.23081
# Shear Modulus (GPa) = 39.62522 48.67875 44.15199
#
# Velocity S-wave (km/s) = 3.84614 4.26293 4.05989
# Velocity P-wave (km/s) = 6.32342 6.94205 6.63994
#
# Compressibility (1/GPa) = 0.01842459
#
# Stress axis : x y z
#
# Youngs Moduli (GPa) = 108.81538 137.61716 79.28684
#
# Poissons Ratio (x) = 0.26567 0.07782
# Poissons Ratio (y) = 0.21007 0.19109
# Poissons Ratio (z) = 0.10680 0.33167
#
# Static dielectric constant tensor:
#      x y z
#    x 2.024690 0.000000 0.039010 
#    y 0.000000 2.105900 0.000000 
#    z 0.039010 0.000000 2.197310 
# 
# From -- ./inp_files/24423.got.cif
#   From: 2010.05.17/outbox.cif.g08.bks.cpg/sg9_13_cif.got.tgz:24423.got - 2010.06.03 20:04:27.
