data_PCOD9138361
_publ_section_title
;
Structure prediction by ZEFSAII (Michael W. Deem and Ramdas Pophale) SiO2 
 PCOD9138361
Probable space group: C C
;
_chemical_formula_sum "Si O2"
_cell_formula_units_Z 32
_cell_length_a 23.082870
_cell_length_b 7.660230
_cell_length_c 22.782244
_cell_angle_alpha 90.000000
_cell_angle_beta 20.001041
_cell_angle_gamma 90.000000
_cell_volume 1377.848531
_symmetry_space_group_name_H-M "C C"
_symmetry_group_IT_number 9
_symmetry_cell_setting 'monoclinic'
loop_
_space_group_symop_operation_xyz
x,y,z
x,-y,1/2+z
1/2+x,1/2+y,z
1/2+x,1/2-y,1/2+z
loop_
_atom_site_type_symbol
_atom_site_label
_atom_site_fract_x
_atom_site_fract_y
_atom_site_fract_z
Si Si1 0.557990 0.893780 0.342040
Si Si2 0.381232 0.889274 0.271915
Si Si3 0.875607 0.818685 0.107266
Si Si4 0.679810 0.828043 0.642946
Si Si5 0.535823 0.476367 0.799847
Si Si6 0.032268 0.959204 0.667536
Si Si7 0.685206 0.612749 0.382219
Si Si8 0.183921 0.341674 0.499635
O O1 0.735478 0.925779 0.206120
O O2 0.425893 0.851153 0.520076
O O3 0.565678 0.698987 0.307132
O O4 0.546987 0.039783 0.301623
O O5 0.440858 0.692963 0.218192
O O6 0.233645 0.938225 0.459492
O O7 0.291506 0.943429 0.297155
O O8 0.550571 0.002700 0.118622
O O9 0.798034 0.751725 0.241400
O O10 0.037873 0.921993 0.975835
O O11 0.665503 0.636413 0.684677
O O12 0.658285 0.792063 0.593140
O O13 0.855641 0.930202 0.481357
O O14 0.532923 0.415210 0.735500
O O15 0.882400 0.107467 0.805636
O O16 0.643716 0.705550 0.484707
#
# Coordination Sequence:
#
# PCOD9138361 Si02
#       8
#     4   4   4   4   4   4   4   4
#     4  11  23  46  73 101 141 194 247 306 370 436
#     4  12  23  41  68  97 148 186 236 301 361 456
#     4  10  23  42  75  96 136 194 249 308 359 444
#     4  11  26  43  71 110 145 190 242 302 382 450
#     4  11  26  43  69 107 145 189 244 303 371 453
#     4  11  25  41  65 104 151 186 233 296 380 450
#     4  11  22  43  72  99 134 191 250 298 371 436
#     4  11  24  43  67 108 144 188 237 302 372 459
#
# _framework density 23.224613999999999
#
# number of rings (size 3 to 8) (size 9 to 14) (size 15 to 20)
#    0.000    1.000    3.750    2.250    8.750    0.000 
#    0.000    0.000   27.500    0.000    0.000    0.000 
#    0.000    0.000    0.000    0.000    0.000    0.000 
#
# Total GULP energy -89189.506313 kJ/mol
# GULP energy per Si atom -5574.344145 kJ/mol
# Density = 2.317175 g / cm^3
# Si number density = 23.224614 Si / 1000 Ang^3
#
#
#
# Elastic Constant Matrix: (Units=GPa)
#
#
# Indices 1 2 3 4 5 6 
#
# 1 65.4714 4.0644 11.4338 -0.0003 -4.3724 0.0002
# 2 4.0644 67.0395 -13.0889 -0.0062 -7.9826 0.0019
# 3 11.4338 -13.0889 103.4729 -0.0076 -10.2465 0.0021
# 4 -0.0003 -0.0062 -0.0076 20.0360 0.0015 -3.7140
# 5 -4.3724 -7.9826 -10.2465 0.0015 36.2033 -0.0002
# 6 0.0002 0.0019 0.0021 -3.7140 -0.0002 7.0121
#
#
#
# Elastic Compliance Matrix: (Units=1/GPa)
#
#
# Indices 1 2 3 4 5 6 
#
# 1 0.015732 -0.001164 -0.001773 -0.000001 0.001142 0.000000
# 2 -0.001164 0.015975 0.002556 0.000005 0.004105 -0.000002
# 3 -0.001773 0.002556 0.010513 0.000004 0.003325 -0.000001
# 4 -0.000001 0.000005 0.000004 0.055344 0.000000 0.029313
# 5 0.001142 0.004105 0.003325 0.000000 0.029606 -0.000001
# 6 0.000000 -0.000002 -0.000001 0.029313 -0.000001 0.158137
#
#
# Mechanical properties :
#
#
# Convention : Reuss Voigt Hill
#
# Bulk Modulus (GPa) = 24.12049 26.75583 25.43816
# Shear Modulus (GPa) = 16.67296 28.22192 22.44744
#
# Velocity S-wave (km/s) = 2.68227 3.48971 3.11229
# Velocity P-wave (km/s) = 4.47226 5.27095 4.88795
#
# Compressibility (1/GPa) = 0.04145853
#
# Stress axis : x y z
#
# Youngs Moduli (GPa) = 63.56516 62.59790 95.12221
#
# Poissons Ratio (x) = 0.07286 0.16861
# Poissons Ratio (y) = 0.07398 -0.24312
# Poissons Ratio (z) = 0.11267 -0.15999
#
# Static dielectric constant tensor:
#      x y z
#    x 1.850160 0.000000 0.026720 
#    y 0.000000 1.914690 0.000000 
#    z 0.026720 0.000000 1.988700 
# 
# From -- ./inp_files/36066.got.cif
#   From: 2010.05.17/outbox.cif.g08.bks.cpg/sg9_19_cif.got.tgz:36066.got - 2010.06.03 20:04:27.
