data_PCOD9138863
_publ_section_title
;
Structure prediction by ZEFSAII (Michael W. Deem and Ramdas Pophale) SiO2 
 PCOD9138863
Probable space group: C C
;
_chemical_formula_sum "Si O2"
_cell_formula_units_Z 32
_cell_length_a 9.270675
_cell_length_b 12.094274
_cell_length_c 13.974760
_cell_angle_alpha 90.000000
_cell_angle_beta 128.376327
_cell_angle_gamma 90.000000
_cell_volume 1228.355005
_symmetry_space_group_name_H-M "C C"
_symmetry_group_IT_number 9
_symmetry_cell_setting 'monoclinic'
loop_
_space_group_symop_operation_xyz
x,y,z
x,-y,1/2+z
1/2+x,1/2+y,z
1/2+x,1/2-y,1/2+z
loop_
_atom_site_type_symbol
_atom_site_label
_atom_site_fract_x
_atom_site_fract_y
_atom_site_fract_z
Si Si1 0.783500 0.654136 0.672970
Si Si2 0.628747 0.122973 0.140449
Si Si3 0.313231 0.850098 0.869800
Si Si4 0.097582 0.225421 0.106107
Si Si5 0.469214 0.510025 0.528949
Si Si6 0.558284 0.040696 0.302182
Si Si7 0.242831 0.905580 0.380245
Si Si8 0.361778 0.410045 0.191397
O O1 0.768959 0.785976 0.656774
O O2 0.596238 0.609623 0.546175
O O3 0.770148 0.635833 0.782613
O O4 0.941414 0.564448 0.714955
O O5 0.584527 0.134725 0.233810
O O6 0.721868 0.002153 0.172164
O O7 0.430166 0.128007 0.009070
O O8 0.167740 0.781993 0.745207
O O9 0.460105 0.903440 0.853685
O O10 0.231288 0.961176 0.880198
O O11 0.407201 0.780326 0.993144
O O12 0.248006 0.302013 0.118555
O O13 0.088038 0.099952 0.068738
O O14 0.263809 0.499949 0.407919
O O15 0.441081 0.534221 0.629337
O O16 0.036237 0.873743 0.327254
#
# Coordination Sequence:
#
# PCOD9138863 Si02
#       8
#     4   4   4   4   4   4   4   4
#     4  10  25  47  69 101 144 189 243 305 375 436
#     4  12  27  44  71 107 147 196 246 300 386 455
#     4  11  24  46  74 107 147 198 254 313 373 456
#     4  12  24  43  79 108 142 194 252 304 383 439
#     4  11  24  46  75 101 143 189 247 312 367 445
#     4  11  25  46  69 109 147 194 249 307 377 453
#     4  10  23  50  68  99 149 193 244 313 376 441
#     4  11  24  46  71 104 143 191 245 308 371 447
#
# _framework density 26.051100999999999
#
# number of rings (size 3 to 8) (size 9 to 14) (size 15 to 20)
#    0.000    1.000    6.250    0.750    7.000    4.000 
#    0.000    0.000    0.000    0.000    0.000    0.000 
#    0.000    0.000    0.000    0.000    0.000    0.000 
#
# Total GULP energy -89504.353752 kJ/mol
# GULP energy per Si atom -5594.022110 kJ/mol
# Density = 2.599181 g / cm^3
# Si number density = 26.051101 Si / 1000 Ang^3
#
#
#
# Elastic Constant Matrix: (Units=GPa)
#
#
# Indices 1 2 3 4 5 6 
#
# 1 78.9035 35.7306 34.4248 0.0000 20.0822 0.0000
# 2 35.7306 138.6293 31.5284 0.0000 12.2588 0.0000
# 3 34.4248 31.5284 155.5636 0.0000 35.2450 0.0000
# 4 0.0000 0.0000 0.0000 26.7133 0.0000 15.1446
# 5 20.0822 12.2588 35.2450 0.0000 38.3521 0.0000
# 6 0.0000 0.0000 0.0000 15.1446 0.0000 28.2487
#
#
#
# Elastic Compliance Matrix: (Units=1/GPa)
#
#
# Indices 1 2 3 4 5 6 
#
# 1 0.016421 -0.003335 -0.001580 0.000000 -0.006080 0.000000
# 2 -0.003335 0.008289 -0.000931 0.000000 -0.000047 0.000000
# 3 -0.001580 -0.000931 0.008477 0.000000 -0.006665 0.000000
# 4 0.000000 0.000000 0.000000 0.053781 0.000000 -0.028833
# 5 -0.006080 -0.000047 -0.006665 0.000000 0.035398 0.000000
# 6 0.000000 0.000000 0.000000 -0.028833 0.000000 0.050858
#
#
# Mechanical properties :
#
#
# Convention : Reuss Voigt Hill
#
# Bulk Modulus (GPa) = 46.52638 64.05156 55.28897
# Shear Modulus (GPa) = 26.03066 36.75698 31.39382
#
# Velocity S-wave (km/s) = 3.16447 3.76035 3.47520
# Velocity P-wave (km/s) = 5.59019 6.59499 6.11327
#
# Compressibility (1/GPa) = 0.02149318
#
# Stress axis : x y z
#
# Youngs Moduli (GPa) = 60.89741 120.64044 117.97090
#
# Poissons Ratio (x) = 0.40238 0.18643
# Poissons Ratio (y) = 0.20311 0.10985
# Poissons Ratio (z) = 0.09624 0.11234
#
# Static dielectric constant tensor:
#      x y z
#    x 2.077730 0.000000 0.007120 
#    y 0.000000 2.004650 0.000000 
#    z 0.007120 0.000000 2.107990 
# 
# From -- ./inp_files/30059.got.cif
#   From: 2010.05.17/outbox.cif.g08.bks.cpg/sg9_16_cif.got.tgz:30059.got - 2010.06.03 20:04:27.
