data_PCOD9138723
_publ_section_title
;
Structure prediction by ZEFSAII (Michael W. Deem and Ramdas Pophale) SiO2 
 PCOD9138723
Probable space group: C C
;
_chemical_formula_sum "Si O2"
_cell_formula_units_Z 32
_cell_length_a 9.140522
_cell_length_b 11.314945
_cell_length_c 27.189839
_cell_angle_alpha 90.000000
_cell_angle_beta 29.347290
_cell_angle_gamma 90.000000
_cell_volume 1378.213853
_symmetry_space_group_name_H-M "C C"
_symmetry_group_IT_number 9
_symmetry_cell_setting 'monoclinic'
loop_
_space_group_symop_operation_xyz
x,y,z
x,-y,1/2+z
1/2+x,1/2+y,z
1/2+x,1/2-y,1/2+z
loop_
_atom_site_type_symbol
_atom_site_label
_atom_site_fract_x
_atom_site_fract_y
_atom_site_fract_z
Si Si1 0.769720 0.820194 0.858900
Si Si2 0.459719 0.437682 0.307660
Si Si3 0.089974 0.770934 0.668410
Si Si4 0.564116 0.796232 0.364800
Si Si5 0.332344 0.587003 0.482074
Si Si6 0.779234 0.828863 0.456147
Si Si7 0.614303 0.013845 0.646190
Si Si8 0.471340 0.307355 0.590260
O O1 0.935609 0.836749 0.758279
O O2 0.952875 0.737955 0.843209
O O3 0.457153 0.761066 0.938215
O O4 0.749256 0.952812 0.884513
O O5 0.408463 0.335132 0.363203
O O6 0.790332 0.491899 0.215180
O O7 0.350076 0.377350 0.289431
O O8 0.078369 0.632580 0.688687
O O9 0.950646 0.798455 0.655409
O O10 0.432024 0.804899 0.560923
O O11 0.591142 0.669468 0.384498
O O12 0.289240 0.856483 0.475859
O O13 0.338107 0.459491 0.458182
O O14 0.338223 0.561651 0.538356
O O15 0.038755 0.669011 0.556439
O O16 0.725483 0.892783 0.638089
#
# Coordination Sequence:
#
# PCOD9138723 Si02
#       8
#     4   4   4   4   4   4   4   4
#     4  12  27  45  69 113 141 192 248 302 372 433
#     4  12  24  46  68 103 147 187 244 300 358 439
#     4  11  25  44  69 108 145 188 244 308 367 431
#     4  10  23  46  70 100 139 190 244 290 367 431
#     4   9  21  43  67  98 135 188 239 294 358 430
#     4  12  23  46  72 101 148 184 245 303 362 442
#     4  11  22  43  70 104 142 186 242 299 364 434
#     4   9  21  43  71 101 135 195 242 286 374 430
#
# _framework density 23.218457999999998
#
# number of rings (size 3 to 8) (size 9 to 14) (size 15 to 20)
#    0.750    0.500    3.750    1.500    1.750    3.000 
#    4.500    0.000    0.000    0.000    0.000    0.000 
#    0.000    0.000    0.000    0.000    0.000    0.000 
#
# Total GULP energy -89220.760716 kJ/mol
# GULP energy per Si atom -5576.297545 kJ/mol
# Density = 2.316561 g / cm^3
# Si number density = 23.218458 Si / 1000 Ang^3
#
#
#
# Elastic Constant Matrix: (Units=GPa)
#
#
# Indices 1 2 3 4 5 6 
#
# 1 72.9266 19.9094 18.6543 -0.0105 -0.7115 0.0190
# 2 19.9094 92.4598 4.5480 -0.0080 -23.0681 0.0241
# 3 18.6543 4.5480 70.3881 -0.0191 -4.4646 0.0589
# 4 -0.0105 -0.0080 -0.0191 26.4506 0.0055 -12.1803
# 5 -0.7115 -23.0681 -4.4646 0.0055 35.5684 -0.0111
# 6 0.0190 0.0241 0.0589 -12.1803 -0.0111 50.9285
#
#
#
# Elastic Compliance Matrix: (Units=1/GPa)
#
#
# Indices 1 2 3 4 5 6 
#
# 1 0.015795 -0.003876 -0.004108 0.000003 -0.002713 0.000001
# 2 -0.003876 0.013861 0.000703 -0.000001 0.009000 -0.000004
# 3 -0.004108 0.000703 0.015396 0.000002 0.002306 -0.000016
# 4 0.000003 -0.000001 0.000002 0.042485 -0.000003 0.010161
# 5 -0.002713 0.009000 0.002306 -0.000003 0.034187 0.000001
# 6 0.000001 -0.000004 -0.000016 0.010161 0.000001 0.022066
#
#
# Mechanical properties :
#
#
# Convention : Reuss Voigt Hill
#
# Bulk Modulus (GPa) = 32.79760 35.77754 34.28757
# Shear Modulus (GPa) = 29.67070 35.43367 32.55219
#
# Velocity S-wave (km/s) = 3.57864 3.91077 3.74839
# Velocity P-wave (km/s) = 5.58855 5.98621 5.79079
#
# Compressibility (1/GPa) = 0.03049004
#
# Stress axis : x y z
#
# Youngs Moduli (GPa) = 63.31177 72.14426 64.95013
#
# Poissons Ratio (x) = 0.27964 0.26679
# Poissons Ratio (y) = 0.24540 -0.04563
# Poissons Ratio (z) = 0.26006 -0.05068
#
# Static dielectric constant tensor:
#      x y z
#    x 1.945110 -0.000010 -0.002070 
#    y -0.000010 1.934490 -0.000010 
#    z -0.002070 -0.000010 1.950910 
# 
# From -- ./inp_files/22796.got.cif
#   From: 2010.05.17/outbox.cif.g08.bks.cpg/sg9_12_cif.got.tgz:22796.got - 2010.06.03 20:04:27.
