data_PCOD9138860
_publ_section_title
;
Structure prediction by ZEFSAII (Michael W. Deem and Ramdas Pophale) SiO2 
 PCOD9138860
Probable space group: C C
;
_chemical_formula_sum "Si O2"
_cell_formula_units_Z 32
_cell_length_a 14.109655
_cell_length_b 8.936616
_cell_length_c 11.187738
_cell_angle_alpha 90.000000
_cell_angle_beta 114.798584
_cell_angle_gamma 90.000000
_cell_volume 1280.607799
_symmetry_space_group_name_H-M "C C"
_symmetry_group_IT_number 9
_symmetry_cell_setting 'monoclinic'
loop_
_space_group_symop_operation_xyz
x,y,z
x,-y,1/2+z
1/2+x,1/2+y,z
1/2+x,1/2-y,1/2+z
loop_
_atom_site_type_symbol
_atom_site_label
_atom_site_fract_x
_atom_site_fract_y
_atom_site_fract_z
Si Si1 0.212060 0.261166 0.360760
Si Si2 0.058231 0.783048 0.366109
Si Si3 0.679201 0.091129 0.258647
Si Si4 0.880314 0.662198 0.636941
Si Si5 0.506039 0.396940 0.853241
Si Si6 0.517700 0.979805 0.020648
Si Si7 0.266972 0.143546 0.125533
Si Si8 0.387007 0.268392 0.972632
O O1 0.187756 0.436585 0.336160
O O2 0.310287 0.233859 0.496739
O O3 0.116870 0.167742 0.368370
O O4 0.240789 0.203290 0.243001
O O5 0.093105 0.704944 0.263232
O O6 0.012632 0.648998 0.420724
O O7 0.160237 0.843163 0.492473
O O8 0.992070 0.930859 0.314378
O O9 0.785693 0.175789 0.345980
O O10 0.634525 0.044607 0.104724
O O11 0.812706 0.524683 0.653877
O O12 0.923935 0.792920 0.741437
O O13 0.981271 0.590784 0.626382
O O14 0.479294 0.379894 0.980218
O O15 0.434530 0.109712 0.954809
O O16 0.348020 0.239934 0.087134
#
# Coordination Sequence:
#
# PCOD9138860 Si02
#       8
#     4   4   4   4   4   4   4   4
#     4  12  25  50  81 112 165 211 274 340 412 491
#     4  11  24  48  80 111 159 213 270 326 409 488
#     4  11  25  48  75 113 153 207 262 333 400 491
#     4  11  26  44  80 117 157 209 269 344 413 489
#     4  12  26  49  75 121 159 213 273 337 413 496
#     4  11  24  49  78 111 156 212 263 331 411 480
#     4  10  23  49  80 115 154 216 269 339 408 483
#     4  10  27  47  75 118 157 207 272 338 410 484
#
# _framework density 24.988133999999999
#
# number of rings (size 3 to 8) (size 9 to 14) (size 15 to 20)
#    0.000    1.000    3.750    0.750    5.250    4.000 
#    2.250    0.000    0.000    0.000    0.000    0.000 
#    0.000    0.000    0.000    0.000    0.000    0.000 
#
# Total GULP energy -89578.457448 kJ/mol
# GULP energy per Si atom -5598.653591 kJ/mol
# Density = 2.493126 g / cm^3
# Si number density = 24.988134 Si / 1000 Ang^3
#
#
#
# Elastic Constant Matrix: (Units=GPa)
#
#
# Indices 1 2 3 4 5 6 
#
# 1 116.7641 51.4318 40.7216 0.0000 -9.8827 0.0000
# 2 51.4318 168.8736 49.6003 0.0000 -1.2346 0.0000
# 3 40.7216 49.6003 117.1543 0.0000 11.8035 0.0000
# 4 0.0000 0.0000 0.0000 50.8243 0.0000 9.1682
# 5 -9.8827 -1.2346 11.8035 0.0000 36.5630 0.0000
# 6 0.0000 0.0000 0.0000 9.1682 0.0000 34.9157
#
#
#
# Elastic Compliance Matrix: (Units=1/GPa)
#
#
# Indices 1 2 3 4 5 6 
#
# 1 0.011084 -0.002396 -0.003237 0.000000 0.003960 0.000000
# 2 -0.002396 0.007331 -0.002306 0.000000 0.000344 0.000000
# 3 -0.003237 -0.002306 0.011094 0.000000 -0.004534 0.000000
# 4 0.000000 0.000000 0.000000 0.020654 0.000000 -0.005423
# 5 0.003960 0.000344 -0.004534 0.000000 0.029896 0.000000
# 6 0.000000 0.000000 0.000000 -0.005423 0.000000 0.030064
#
#
# Mechanical properties :
#
#
# Convention : Reuss Voigt Hill
#
# Bulk Modulus (GPa) = 73.36116 76.25547 74.80832
# Shear Modulus (GPa) = 38.30119 41.86315 40.08217
#
# Velocity S-wave (km/s) = 3.91931 4.09751 4.00940
# Velocity P-wave (km/s) = 7.06424 7.27798 7.17191
#
# Compressibility (1/GPa) = 0.01363119
#
# Stress axis : x y z
#
# Youngs Moduli (GPa) = 90.22213 136.40717 90.13899
#
# Poissons Ratio (x) = 0.32682 0.29180
# Poissons Ratio (y) = 0.21616 0.20783
# Poissons Ratio (z) = 0.29207 0.31451
#
# Static dielectric constant tensor:
#      x y z
#    x 2.035010 0.000000 -0.009950 
#    y 0.000000 1.946880 0.000000 
#    z -0.009950 0.000000 2.042290 
# 
# From -- ./inp_files/17986.got.cif
#   From: 2010.05.17/outbox.cif.g08.bks.cpg/sg9_9_cif.got.tgz:17986.got - 2010.06.03 20:04:27.
