data_PCOD9138697
_publ_section_title
;
Structure prediction by ZEFSAII (Michael W. Deem and Ramdas Pophale) SiO2 
 PCOD9138697
Probable space group: C C
;
_chemical_formula_sum "Si O2"
_cell_formula_units_Z 28
_cell_length_a 11.587972
_cell_length_b 8.534610
_cell_length_c 13.929108
_cell_angle_alpha 90.000000
_cell_angle_beta 123.259520
_cell_angle_gamma 90.000000
_cell_volume 1151.919185
_symmetry_space_group_name_H-M "C C"
_symmetry_group_IT_number 9
_symmetry_cell_setting 'monoclinic'
loop_
_space_group_symop_operation_xyz
x,y,z
x,-y,1/2+z
1/2+x,1/2+y,z
1/2+x,1/2-y,1/2+z
loop_
_atom_site_type_symbol
_atom_site_label
_atom_site_fract_x
_atom_site_fract_y
_atom_site_fract_z
Si Si1 0.486800 0.840540 0.058380
Si Si2 0.608329 0.108811 0.884103
Si Si3 0.275459 0.258883 0.615376
Si Si4 0.819327 0.536293 0.213972
Si Si5 0.732318 0.033978 0.270379
Si Si6 0.703406 0.453310 0.860924
Si Si7 0.490010 0.317666 0.355756
O O1 0.408756 0.731522 0.103824
O O2 0.610457 0.930166 0.166406
O O3 0.529755 0.761376 0.976478
O O4 0.362712 0.955566 0.968046
O O5 0.448450 0.075764 0.799989
O O6 0.684954 0.971502 0.859608
O O7 0.646728 0.281779 0.863376
O O8 0.664861 0.126147 0.016038
O O9 0.246267 0.071033 0.600820
O O10 0.260607 0.314528 0.718915
O O11 0.712463 0.551757 0.250498
O O12 0.901974 0.699665 0.246103
O O13 0.876029 0.944154 0.332693
O O14 0.612267 0.594520 0.857792
#
# Coordination Sequence:
#
# PCOD9138697 Si02
#       7
#     4   4   4   4   4   4   4
#     4  10  23  46  66 102 148 185 240 308 359 427
#     4  11  23  47  68  98 150 187 237 300 360 424
#     4  11  23  40  72 101 138 191 236 290 361 424
#     4  11  23  43  70 101 145 182 241 299 356 428
#     4  12  23  43  75 102 142 196 238 298 364 423
#     4  10  23  46  69 102 141 187 236 300 362 428
#     4  11  24  45  74 104 142 188 244 301 362 438
#
# _framework density 24.307258000000001
#
# number of rings (size 3 to 8) (size 9 to 14) (size 15 to 20)
#    0.000    1.143    5.714    2.571    2.000    2.286 
#    0.000    1.429    0.000    0.000    0.000    0.000 
#    0.000    0.000    0.000    0.000    0.000    0.000 
#
# Total GULP energy -78110.293009 kJ/mol
# GULP energy per Si atom -5579.306643 kJ/mol
# Density = 2.425193 g / cm^3
# Si number density = 24.307258 Si / 1000 Ang^3
#
#
#
# Elastic Constant Matrix: (Units=GPa)
#
#
# Indices 1 2 3 4 5 6 
#
# 1 110.6990 45.9534 2.0507 0.0000 0.0775 0.0000
# 2 45.9534 80.0557 1.8913 0.0000 -19.0894 0.0000
# 3 2.0507 1.8913 32.0446 0.0000 -7.3944 0.0000
# 4 0.0000 0.0000 0.0000 39.1325 0.0000 -9.6628
# 5 0.0775 -19.0894 -7.3944 0.0000 38.5488 0.0000
# 6 0.0000 0.0000 0.0000 -9.6628 0.0000 58.0575
#
#
#
# Elastic Compliance Matrix: (Units=1/GPa)
#
#
# Indices 1 2 3 4 5 6 
#
# 1 0.012438 -0.008135 -0.001309 0.000000 -0.004305 0.000000
# 2 -0.008135 0.019505 0.001676 0.000000 0.009997 0.000000
# 3 -0.001309 0.001676 0.032837 0.000000 0.007131 0.000000
# 4 0.000000 0.000000 0.000000 0.026649 0.000000 0.004435
# 5 -0.004305 0.009997 0.007131 0.000000 0.032268 0.000000
# 6 0.000000 0.000000 0.000000 0.004435 0.000000 0.017962
#
#
# Mechanical properties :
#
#
# Convention : Reuss Voigt Hill
#
# Bulk Modulus (GPa) = 20.30706 35.84336 28.07521
# Shear Modulus (GPa) = 28.80010 38.67469 33.73739
#
# Velocity S-wave (km/s) = 3.44588 3.99316 3.72957
# Velocity P-wave (km/s) = 4.91981 6.00320 5.48830
#
# Compressibility (1/GPa) = 0.04924395
#
# Stress axis : x y z
#
# Youngs Moduli (GPa) = 80.40018 51.26862 30.45347
#
# Poissons Ratio (x) = 0.41707 0.03987
# Poissons Ratio (y) = 0.65406 -0.05105
# Poissons Ratio (z) = 0.10525 -0.08594
#
# Static dielectric constant tensor:
#      x y z
#    x 1.946770 0.000000 -0.075210 
#    y 0.000000 1.989690 0.000000 
#    z -0.075210 0.000000 2.132960 
# 
# From -- ./inp_files/24263.got.cif
#   From: 2010.05.17/outbox.cif.g08.bks.cpg/sg9_13_cif.got.tgz:24263.got - 2010.06.03 20:04:27.
