data_PCOD9138187
_publ_section_title
;
Structure prediction by ZEFSAII (Michael W. Deem and Ramdas Pophale) SiO2 
 PCOD9138187
Probable space group: C C
;
_chemical_formula_sum "Si O2"
_cell_formula_units_Z 32
_cell_length_a 11.584069
_cell_length_b 11.139874
_cell_length_c 13.759389
_cell_angle_alpha 90.000000
_cell_angle_beta 42.293885
_cell_angle_gamma 90.000000
_cell_volume 1194.848268
_symmetry_space_group_name_H-M "C C"
_symmetry_group_IT_number 9
_symmetry_cell_setting 'monoclinic'
loop_
_space_group_symop_operation_xyz
x,y,z
x,-y,1/2+z
1/2+x,1/2+y,z
1/2+x,1/2-y,1/2+z
loop_
_atom_site_type_symbol
_atom_site_label
_atom_site_fract_x
_atom_site_fract_y
_atom_site_fract_z
Si Si1 0.152930 0.176231 0.032710
Si Si2 0.617764 0.060747 0.324701
Si Si3 0.718308 0.440322 0.079087
Si Si4 0.653844 0.063016 0.534076
Si Si5 0.963304 0.807210 0.915969
Si Si6 0.736980 0.189687 0.982633
Si Si7 0.618451 0.675026 0.825210
Si Si8 0.796002 0.185642 0.714060
O O1 0.069778 0.306506 0.113348
O O2 0.851932 0.083388 0.443711
O O3 0.105227 0.051585 0.112727
O O4 0.140480 0.157671 0.925663
O O5 0.635030 0.063226 0.430446
O O6 0.685853 0.191942 0.253813
O O7 0.417300 0.049772 0.425367
O O8 0.718814 0.943633 0.229807
O O9 0.848803 0.700199 0.942869
O O10 0.660643 0.315224 0.066919
O O11 0.946611 0.202734 0.542753
O O12 0.616084 0.925075 0.584746
O O13 0.708445 0.578305 0.700758
O O14 0.159031 0.788561 0.768939
O O15 0.789059 0.186554 0.835486
O O16 0.918211 0.177114 0.924521
#
# Coordination Sequence:
#
# PCOD9138187 Si02
#       8
#     4   4   4   4   4   4   4   4
#     4   9  21  44  61  99 128 178 225 280 339 418
#     4   9  19  44  62  94 135 182 225 273 343 421
#     4  11  22  40  65  96 134 172 228 282 349 397
#     4   8  19  42  62  90 129 174 224 268 334 406
#     4  10  23  40  71 101 129 183 228 283 333 413
#     4  10  24  41  63  99 131 175 223 285 340 406
#     4  10  23  41  66  96 135 178 228 283 349 409
#     4  11  23  44  70  99 143 178 233 282 349 412
#
# _framework density 26.781642999999999
#
# number of rings (size 3 to 8) (size 9 to 14) (size 15 to 20)
#    0.750    1.500    1.250    0.000    3.500    4.000 
#    0.000    2.500    0.000    0.000    0.000    0.000 
#    0.000    0.000    0.000    0.000    0.000    0.000 
#
# Total GULP energy -89438.219191 kJ/mol
# GULP energy per Si atom -5589.888699 kJ/mol
# Density = 2.672069 g / cm^3
# Si number density = 26.781643 Si / 1000 Ang^3
#
#
#
# Elastic Constant Matrix: (Units=GPa)
#
#
# Indices 1 2 3 4 5 6 
#
# 1 69.5103 45.5081 27.0924 0.0000 21.9550 0.0000
# 2 45.5081 182.6596 56.7764 0.0000 39.2819 0.0000
# 3 27.0924 56.7764 119.9700 0.0000 9.3894 0.0000
# 4 0.0000 0.0000 0.0000 19.1341 0.0000 16.2762
# 5 21.9550 39.2819 9.3894 0.0000 36.5893 0.0000
# 6 0.0000 0.0000 0.0000 16.2762 0.0000 23.3410
#
#
#
# Elastic Compliance Matrix: (Units=1/GPa)
#
#
# Indices 1 2 3 4 5 6 
#
# 1 0.019629 -0.002159 -0.002725 0.000000 -0.008761 0.000000
# 2 -0.002159 0.008438 -0.002958 0.000000 -0.007005 0.000000
# 3 -0.002725 -0.002958 0.010178 0.000000 0.002199 0.000000
# 4 0.000000 0.000000 0.000000 0.128462 0.000000 -0.089579
# 5 -0.008761 -0.007005 0.002199 0.000000 0.039543 0.000000
# 6 0.000000 0.000000 0.000000 -0.089579 0.000000 0.105309
#
#
# Mechanical properties :
#
#
# Convention : Reuss Voigt Hill
#
# Bulk Modulus (GPa) = 44.32272 70.09930 57.21101
# Shear Modulus (GPa) = 14.93583 31.99709 23.46646
#
# Velocity S-wave (km/s) = 2.36411 3.46025 2.96330
# Velocity P-wave (km/s) = 4.90281 6.49582 5.75470
#
# Compressibility (1/GPa) = 0.02256179
#
# Stress axis : x y z
#
# Youngs Moduli (GPa) = 50.94397 118.50631 98.24631
#
# Poissons Ratio (x) = 0.25590 0.26775
# Poissons Ratio (y) = 0.11001 0.29058
# Poissons Ratio (z) = 0.13884 0.35050
#
# Static dielectric constant tensor:
#      x y z
#    x 2.101830 0.000000 -0.014590 
#    y 0.000000 2.151380 0.000000 
#    z -0.014590 0.000000 2.043100 
# 
# From -- ./inp_files/24507.got.cif
#   From: 2010.05.17/outbox.cif.g08.bks.cpg/sg9_13_cif.got.tgz:24507.got - 2010.06.03 20:04:27.
