data_PCOD9138960
_publ_section_title
;
Structure prediction by ZEFSAII (Michael W. Deem and Ramdas Pophale) SiO2 
 PCOD9138960
Probable space group: C C
;
_chemical_formula_sum "Si O2"
_cell_formula_units_Z 32
_cell_length_a 7.195061
_cell_length_b 11.728664
_cell_length_c 19.235700
_cell_angle_alpha 90.000000
_cell_angle_beta 118.691996
_cell_angle_gamma 90.000000
_cell_volume 1423.954783
_symmetry_space_group_name_H-M "C C"
_symmetry_group_IT_number 9
_symmetry_cell_setting 'monoclinic'
loop_
_space_group_symop_operation_xyz
x,y,z
x,-y,1/2+z
1/2+x,1/2+y,z
1/2+x,1/2-y,1/2+z
loop_
_atom_site_type_symbol
_atom_site_label
_atom_site_fract_x
_atom_site_fract_y
_atom_site_fract_z
Si Si1 0.298230 0.747949 0.225770
Si Si2 0.726178 0.113302 0.073825
Si Si3 0.780953 0.526107 0.993488
Si Si4 0.974474 0.316491 0.055325
Si Si5 0.090098 0.738762 0.433242
Si Si6 0.234438 0.624988 0.791296
Si Si7 0.900446 0.100692 0.674353
Si Si8 0.852688 0.904196 0.873134
O O1 0.204208 0.673371 0.145494
O O2 0.517805 0.806725 0.241985
O O3 0.335980 0.674393 0.301953
O O4 0.128317 0.844953 0.212119
O O5 0.838098 0.207420 0.047685
O O6 0.868771 0.002853 0.115422
O O7 0.503759 0.072540 0.002458
O O8 0.674303 0.648366 0.988451
O O9 0.589197 0.454948 0.924277
O O10 0.869819 0.433881 0.065366
O O11 0.215514 0.308916 0.123158
O O12 0.984925 0.334937 0.974570
O O13 0.268635 0.670247 0.423049
O O14 0.910382 0.785874 0.349627
O O15 0.335231 0.568608 0.740649
O O16 0.209986 0.518375 0.839079
#
# Coordination Sequence:
#
# PCOD9138960 Si02
#       8
#     4   4   4   4   4   4   4   4
#     4  12  24  42  72  96 140 188 226 292 352 404
#     4  11  24  44  69 101 141 181 234 292 345 417
#     4  10  24  42  70  98 138 180 234 276 350 410
#     4  11  24  44  68 101 140 179 230 286 349 416
#     4  11  24  44  68 101 140 179 230 286 349 416
#     4  11  24  43  66 103 136 179 239 282 349 426
#     4  11  24  43  66 103 136 179 239 282 349 426
#     4  11  24  44  69 101 141 181 234 292 345 417
#
# _framework density 22.472626000000002
#
# number of rings (size 3 to 8) (size 9 to 14) (size 15 to 20)
#    0.000    1.000    3.750    2.250    0.000    8.000 
#    0.000    0.000    0.000    0.000    0.000    0.000 
#    0.000    0.000    0.000    0.000    0.000    0.000 
#
# Total GULP energy -89296.088856 kJ/mol
# GULP energy per Si atom -5581.005554 kJ/mol
# Density = 2.242148 g / cm^3
# Si number density = 22.472626 Si / 1000 Ang^3
#
#
#
# Elastic Constant Matrix: (Units=GPa)
#
#
# Indices 1 2 3 4 5 6 
#
# 1 100.6692 67.6441 35.0330 0.0000 8.8009 0.0000
# 2 67.6441 117.9045 18.7634 0.0000 8.4681 0.0000
# 3 35.0330 18.7634 52.0696 0.0000 -0.4181 0.0000
# 4 0.0000 0.0000 0.0000 34.9504 0.0000 6.2709
# 5 8.8009 8.4681 -0.4181 0.0000 40.7319 0.0000
# 6 0.0000 0.0000 0.0000 6.2709 0.0000 38.0014
#
#
#
# Elastic Compliance Matrix: (Units=1/GPa)
#
#
# Indices 1 2 3 4 5 6 
#
# 1 0.020291 -0.009856 -0.010120 0.000000 -0.002439 0.000000
# 2 -0.009856 0.013935 0.001604 0.000000 -0.000751 0.000000
# 3 -0.010120 0.001604 0.025453 0.000000 0.002115 0.000000
# 4 0.000000 0.000000 0.000000 0.029485 0.000000 -0.004866
# 5 -0.002439 -0.000751 0.002115 0.000000 0.025256 0.000000
# 6 0.000000 0.000000 0.000000 -0.004866 0.000000 0.027118
#
#
# Mechanical properties :
#
#
# Convention : Reuss Voigt Hill
#
# Bulk Modulus (GPa) = 43.60265 57.05827 50.33046
# Shear Modulus (GPa) = 26.89239 32.68358 29.78798
#
# Velocity S-wave (km/s) = 3.46305 3.81776 3.64472
# Velocity P-wave (km/s) = 5.95273 6.69918 6.33695
#
# Compressibility (1/GPa) = 0.02293438
#
# Stress axis : x y z
#
# Youngs Moduli (GPa) = 49.28281 71.76397 39.28793
#
# Poissons Ratio (x) = 0.70728 0.39760
# Poissons Ratio (y) = 0.48571 -0.06300
# Poissons Ratio (z) = 0.49875 -0.11508
#
# Static dielectric constant tensor:
#      x y z
#    x 1.807030 0.000000 -0.012560 
#    y 0.000000 1.848940 0.000000 
#    z -0.012560 0.000000 1.878290 
# 
# From -- ./inp_files/32024.got.cif
#   From: 2010.05.17/outbox.cif.g08.bks.cpg/sg9_17_cif.got.tgz:32024.got - 2010.06.03 20:04:27.
