data_PCOD9138101
_publ_section_title
;
Structure prediction by ZEFSAII (Michael W. Deem and Ramdas Pophale) SiO2 
 PCOD9138101
Probable space group: C C
;
_chemical_formula_sum "Si O2"
_cell_formula_units_Z 20
_cell_length_a 21.556345
_cell_length_b 4.981125
_cell_length_c 14.307773
_cell_angle_alpha 90.000000
_cell_angle_beta 26.669406
_cell_angle_gamma 90.000000
_cell_volume 689.553558
_symmetry_space_group_name_H-M "C C"
_symmetry_group_IT_number 9
_symmetry_cell_setting 'monoclinic'
loop_
_space_group_symop_operation_xyz
x,y,z
x,-y,1/2+z
1/2+x,1/2+y,z
1/2+x,1/2-y,1/2+z
loop_
_atom_site_type_symbol
_atom_site_label
_atom_site_fract_x
_atom_site_fract_y
_atom_site_fract_z
Si Si1 0.022100 0.843686 0.199290
Si Si2 0.692477 0.216755 0.712578
Si Si3 0.560437 0.716592 0.991691
Si Si4 0.336007 0.666556 0.772939
Si Si5 0.453801 0.903935 0.422046
O O1 0.914339 0.738683 0.263088
O O2 0.960058 0.708683 0.377588
O O3 0.174049 0.705448 0.996588
O O4 0.064995 0.129264 0.093306
O O5 0.649489 0.494613 0.816374
O O6 0.610519 0.192683 0.726933
O O7 0.856494 0.225551 0.485722
O O8 0.632997 0.984248 0.859002
O O9 0.403245 0.632554 0.173825
O O10 0.387900 0.828232 0.611568
#
# Coordination Sequence:
#
# PCOD9138101 Si02
#       5
#     4   4   4   4   4
#     4  10  22  48  79 122 170 233 285 357 437 525
#     4  11  24  49  82 119 171 220 282 362 435 514
#     4   9  23  47  79 112 170 225 270 354 437 501
#     4   9  20  48  76 116 178 220 292 357 430 518
#     4  11  23  48  84 123 167 230 285 356 441 524
#
# _framework density 29.004275
#
# number of rings (size 3 to 8) (size 9 to 14) (size 15 to 20)
#    1.200    0.800    2.000    0.000    0.000    4.800 
#    3.600   10.000    0.000    0.000    0.000    0.000 
#    0.000    0.000    0.000    0.000    0.000    0.000 
#
# Total GULP energy -55858.810077 kJ/mol
# GULP energy per Si atom -5585.881008 kJ/mol
# Density = 2.893826 g / cm^3
# Si number density = 29.004275 Si / 1000 Ang^3
#
#
#
# Elastic Constant Matrix: (Units=GPa)
#
#
# Indices 1 2 3 4 5 6 
#
# 1 191.0939 24.5239 63.1989 -0.0399 -28.3908 0.0380
# 2 24.5239 132.9573 34.8756 -0.0752 -9.7339 0.1345
# 3 63.1989 34.8756 83.5252 -0.1890 5.9977 0.0280
# 4 -0.0399 -0.0752 -0.1890 16.2380 0.0618 13.8085
# 5 -28.3908 -9.7339 5.9977 0.0618 69.0455 -0.0003
# 6 0.0380 0.1345 0.0280 13.8085 -0.0003 45.9758
#
#
#
# Elastic Compliance Matrix: (Units=1/GPa)
#
#
# Indices 1 2 3 4 5 6 
#
# 1 0.007877 0.000524 -0.006457 -0.000087 0.003874 0.000022
# 2 0.000524 0.008640 -0.004133 0.000008 0.001793 -0.000026
# 3 -0.006457 -0.004133 0.018935 0.000267 -0.004883 -0.000074
# 4 -0.000087 0.000008 0.000267 0.082713 -0.000132 -0.024842
# 5 0.003874 0.001793 -0.004883 -0.000132 0.016753 0.000034
# 6 0.000022 -0.000026 -0.000074 -0.024842 0.000034 0.029212
#
#
# Mechanical properties :
#
#
# Convention : Reuss Voigt Hill
#
# Bulk Modulus (GPa) = 65.27341 72.53035 68.90188
# Shear Modulus (GPa) = 26.40361 45.25039 35.82700
#
# Velocity S-wave (km/s) = 3.02045 3.95413 3.51840
# Velocity P-wave (km/s) = 5.89218 6.77554 6.34924
#
# Compressibility (1/GPa) = 0.01532018
#
# Stress axis : x y z
#
# Youngs Moduli (GPa) = 126.95529 115.74227 52.81147
#
# Poissons Ratio (x) = -0.06070 0.34102
# Poissons Ratio (y) = -0.06658 0.21827
# Poissons Ratio (z) = 0.81978 0.47837
#
# Static dielectric constant tensor:
#      x y z
#    x 2.357920 -0.000350 -0.045910 
#    y -0.000350 2.466920 0.000310 
#    z -0.045910 0.000310 2.253290 
# 
# From -- ./inp_files/27558.got.cif
#   From: 2010.05.17/outbox.cif.g08.bks.cpg/sg9_14_cif.got.tgz:27558.got - 2010.06.03 20:04:27.
