data_PCOD9138375
_publ_section_title
;
Structure prediction by ZEFSAII (Michael W. Deem and Ramdas Pophale) SiO2 
 PCOD9138375
Probable space group: C C
;
_chemical_formula_sum "Si O2"
_cell_formula_units_Z 20
_cell_length_a 19.412936
_cell_length_b 5.253308
_cell_length_c 13.055479
_cell_angle_alpha 90.000000
_cell_angle_beta 136.788644
_cell_angle_gamma 90.000000
_cell_volume 911.615878
_symmetry_space_group_name_H-M "C C"
_symmetry_group_IT_number 9
_symmetry_cell_setting 'monoclinic'
loop_
_space_group_symop_operation_xyz
x,y,z
x,-y,1/2+z
1/2+x,1/2+y,z
1/2+x,1/2-y,1/2+z
loop_
_atom_site_type_symbol
_atom_site_label
_atom_site_fract_x
_atom_site_fract_y
_atom_site_fract_z
Si Si1 0.273230 0.969094 0.508030
Si Si2 0.500440 0.469363 0.987454
Si Si3 0.790711 0.972943 0.656457
Si Si4 0.926515 0.534081 0.506352
Si Si5 0.714245 0.612929 0.723922
O O1 0.263119 0.731603 0.571381
O O2 0.202384 0.915731 0.333360
O O3 0.260331 0.236326 0.550492
O O4 0.383877 0.982902 0.573505
O O5 0.410380 0.472733 0.807803
O O6 0.477869 0.699049 0.040919
O O7 0.491083 0.199438 0.034870
O O8 0.612417 0.489978 0.065207
O O9 0.737575 0.895313 0.706400
O O10 0.821735 0.527623 0.326606
#
# Coordination Sequence:
#
# PCOD9138375 Si02
#       5
#     4   4   4   4   4
#     4  10  23  43  65  90 137 166 212 272 324 377
#     4  11  21  42  68  89 131 173 212 264 331 375
#     4  11  22  42  64  98 126 171 215 269 319 388
#     4   9  22  40  65  89 129 169 208 266 320 378
#     4   9  24  43  66  94 133 173 209 275 320 388
#
# _framework density 21.939063000000001
#
# number of rings (size 3 to 8) (size 9 to 14) (size 15 to 20)
#    1.200    0.800    0.000    3.600    0.000    6.400 
#   10.800    0.000    0.000    0.000    0.000    0.000 
#    0.000    0.000    0.000    0.000    0.000    0.000 
#
# Total GULP energy -55743.815261 kJ/mol
# GULP energy per Si atom -5574.381526 kJ/mol
# Density = 2.188913 g / cm^3
# Si number density = 21.939063 Si / 1000 Ang^3
#
#
#
# Elastic Constant Matrix: (Units=GPa)
#
#
# Indices 1 2 3 4 5 6 
#
# 1 71.7862 44.5405 28.1708 0.0001 16.3456 0.0000
# 2 44.5405 147.3782 41.3486 0.0004 -10.0834 0.0004
# 3 28.1708 41.3486 69.5415 0.0004 5.7998 0.0006
# 4 0.0001 0.0004 0.0004 20.4124 0.0000 -14.2497
# 5 16.3456 -10.0834 5.7998 0.0000 43.6960 0.0000
# 6 0.0000 0.0004 0.0006 -14.2497 0.0000 33.9675
#
#
#
# Elastic Compliance Matrix: (Units=1/GPa)
#
#
# Indices 1 2 3 4 5 6 
#
# 1 0.021227 -0.005761 -0.004450 0.000000 -0.008679 0.000000
# 2 -0.005761 0.009998 -0.004028 0.000000 0.004997 0.000000
# 3 -0.004450 -0.004028 0.018723 -0.000001 -0.001750 -0.000001
# 4 0.000000 0.000000 -0.000001 0.069278 0.000000 0.029063
# 5 -0.008679 0.004997 -0.001750 0.000000 0.027517 0.000000
# 6 0.000000 0.000000 -0.000001 0.029063 0.000000 0.041632
#
#
# Mechanical properties :
#
#
# Convention : Reuss Voigt Hill
#
# Bulk Modulus (GPa) = 46.57280 57.42507 51.99894
# Shear Modulus (GPa) = 22.32038 31.25823 26.78931
#
# Velocity S-wave (km/s) = 3.19310 3.77871 3.49818
# Velocity P-wave (km/s) = 5.90499 6.72829 6.33004
#
# Compressibility (1/GPa) = 0.02147176
#
# Stress axis : x y z
#
# Youngs Moduli (GPa) = 47.10994 100.01836 53.40893
#
# Poissons Ratio (x) = 0.57616 0.23766
# Poissons Ratio (y) = 0.27138 0.21513
# Poissons Ratio (z) = 0.20963 0.40287
#
# Static dielectric constant tensor:
#      x y z
#    x 1.805240 0.000000 -0.033370 
#    y 0.000000 1.797870 0.000000 
#    z -0.033370 0.000000 1.832630 
# 
# From -- ./inp_files/18707.got.cif
#   From: 2010.05.17/outbox.cif.g08.bks.cpg/sg9_10_cif.got.tgz:18707.got - 2010.06.03 20:04:27.
