data_PCOD9138467
_publ_section_title
;
Structure prediction by ZEFSAII (Michael W. Deem and Ramdas Pophale) SiO2 
 PCOD9138467
Probable space group: C C
;
_chemical_formula_sum "Si O2"
_cell_formula_units_Z 28
_cell_length_a 26.745921
_cell_length_b 5.518917
_cell_length_c 10.858603
_cell_angle_alpha 90.000000
_cell_angle_beta 136.021564
_cell_angle_gamma 90.000000
_cell_volume 1112.979910
_symmetry_space_group_name_H-M "C C"
_symmetry_group_IT_number 9
_symmetry_cell_setting 'monoclinic'
loop_
_space_group_symop_operation_xyz
x,y,z
x,-y,1/2+z
1/2+x,1/2+y,z
1/2+x,1/2-y,1/2+z
loop_
_atom_site_type_symbol
_atom_site_label
_atom_site_fract_x
_atom_site_fract_y
_atom_site_fract_z
Si Si1 0.929420 0.660730 0.617420
Si Si2 0.797173 0.298977 0.707652
Si Si3 0.979262 0.945767 0.046792
Si Si4 0.602757 0.091862 0.224232
Si Si5 0.838208 0.789110 0.694619
Si Si6 0.016974 0.259579 0.908750
Si Si7 0.661715 0.105084 0.590361
O O1 0.874844 0.667747 0.406702
O O2 0.877689 0.707927 0.640839
O O3 0.977179 0.428061 0.739034
O O4 0.980572 0.883696 0.668782
O O5 0.783877 0.565676 0.627703
O O6 0.737970 0.228367 0.704492
O O7 0.803202 0.058090 0.632864
O O8 0.059240 0.835889 0.174705
O O9 0.902340 0.807726 0.911253
O O10 0.970947 0.063871 0.896024
O O11 0.639631 0.005981 0.415677
O O12 0.653896 0.075564 0.193651
O O13 0.535672 0.930525 0.059889
O O14 0.097631 0.204396 0.007324
#
# Coordination Sequence:
#
# PCOD9138467 Si02
#       7
#     4   4   4   4   4   4   4
#     4  11  23  44  75 106 154 196 262 327 400 468
#     4  11  28  48  69 108 150 210 256 325 389 494
#     4  11  24  42  75 115 147 200 264 336 399 470
#     4  10  24  45  75 112 154 204 267 330 403 476
#     4  11  25  44  72 102 150 194 262 312 399 460
#     4  10  23  43  73 112 150 197 261 332 393 467
#     4  10  25  48  73 109 161 201 266 322 407 473
#
# _framework density 25.157686000000002
#
# number of rings (size 3 to 8) (size 9 to 14) (size 15 to 20)
#    0.857    0.571    1.429    2.571    6.000    4.571 
#    7.714    0.000    0.000    0.000    0.000    0.000 
#    0.000    0.000    0.000    0.000    0.000    0.000 
#
# Total GULP energy -78006.973332 kJ/mol
# GULP energy per Si atom -5571.926667 kJ/mol
# Density = 2.510043 g / cm^3
# Si number density = 25.157686 Si / 1000 Ang^3
#
#
#
# Elastic Constant Matrix: (Units=GPa)
#
#
# Indices 1 2 3 4 5 6 
#
# 1 141.1850 39.5379 6.0104 0.0000 8.7626 0.0000
# 2 39.5379 96.2144 -2.5520 0.0000 8.9736 0.0000
# 3 6.0104 -2.5520 68.0044 0.0000 -7.6625 0.0000
# 4 0.0000 0.0000 0.0000 16.8813 0.0000 -5.1236
# 5 8.7626 8.9736 -7.6625 0.0000 47.1201 0.0000
# 6 0.0000 0.0000 0.0000 -5.1236 0.0000 46.0885
#
#
#
# Elastic Compliance Matrix: (Units=1/GPa)
#
#
# Indices 1 2 3 4 5 6 
#
# 1 0.008100 -0.003257 -0.000956 0.000000 -0.001041 0.000000
# 2 -0.003257 0.011893 0.000557 0.000000 -0.001569 0.000000
# 3 -0.000956 0.000557 0.015095 0.000000 0.002526 0.000000
# 4 0.000000 0.000000 0.000000 0.061306 0.000000 0.006815
# 5 -0.001041 -0.001569 0.002526 0.000000 0.022126 0.000000
# 6 0.000000 0.000000 0.000000 0.006815 0.000000 0.022455
#
#
# Mechanical properties :
#
#
# Convention : Reuss Voigt Hill
#
# Bulk Modulus (GPa) = 35.99947 43.48848 39.74398
# Shear Modulus (GPa) = 31.73724 39.51183 35.62453
#
# Velocity S-wave (km/s) = 3.55566 3.96734 3.76713
# Velocity P-wave (km/s) = 5.58548 6.18953 5.89524
#
# Compressibility (1/GPa) = 0.02777819
#
# Stress axis : x y z
#
# Youngs Moduli (GPa) = 123.45231 84.08371 66.24729
#
# Poissons Ratio (x) = 0.27385 0.06330
# Poissons Ratio (y) = 0.40207 -0.03693
# Poissons Ratio (z) = 0.11796 -0.04687
#
# Static dielectric constant tensor:
#      x y z
#    x 1.968920 0.000000 -0.030230 
#    y 0.000000 2.245090 0.000000 
#    z -0.030230 0.000000 2.021510 
# 
# From -- ./inp_files/21049.got.cif
#   From: 2010.05.17/outbox.cif.g08.bks.cpg/sg9_11_cif.got.tgz:21049.got - 2010.06.03 20:04:27.
