data_PCOD9138870
_publ_section_title
;
Structure prediction by ZEFSAII (Michael W. Deem and Ramdas Pophale) SiO2 
 PCOD9138870
Probable space group: C C
;
_chemical_formula_sum "Si O2"
_cell_formula_units_Z 28
_cell_length_a 13.325880
_cell_length_b 5.145170
_cell_length_c 15.179965
_cell_angle_alpha 90.000000
_cell_angle_beta 96.511851
_cell_angle_gamma 90.000000
_cell_volume 1034.083084
_symmetry_space_group_name_H-M "C C"
_symmetry_group_IT_number 9
_symmetry_cell_setting 'monoclinic'
loop_
_space_group_symop_operation_xyz
x,y,z
x,-y,1/2+z
1/2+x,1/2+y,z
1/2+x,1/2-y,1/2+z
loop_
_atom_site_type_symbol
_atom_site_label
_atom_site_fract_x
_atom_site_fract_y
_atom_site_fract_z
Si Si1 0.106970 0.809366 0.488190
Si Si2 0.025016 0.592247 0.235501
Si Si3 0.954098 0.166111 0.549576
Si Si4 0.405452 0.436499 0.766675
Si Si5 0.754989 0.594616 0.844043
Si Si6 0.208490 0.713022 0.690222
Si Si7 0.392012 0.154248 0.477578
O O1 0.045907 0.081246 0.493730
O O2 0.159450 0.750789 0.588444
O O3 0.010902 0.618523 0.467398
O O4 0.176421 0.817140 0.409937
O O5 0.959845 0.324470 0.234969
O O6 0.984514 0.829311 0.292950
O O7 0.008747 0.740585 0.142147
O O8 0.892396 0.898057 0.540448
O O9 0.872621 0.387763 0.524901
O O10 0.318273 0.579581 0.701294
O O11 0.343196 0.306275 0.839933
O O12 0.637185 0.023795 0.742299
O O13 0.716069 0.482460 0.746600
O O14 0.813347 0.345733 0.891725
#
# Coordination Sequence:
#
# PCOD9138870 Si02
#       7
#     4   4   4   4   4   4   4
#     4  10  27  54  88 117 175 219 285 350 431 513
#     4  12  26  54  86 120 176 219 290 361 424 529
#     4  10  23  51  80 118 153 230 269 340 430 497
#     4  12  30  49  83 127 168 231 280 361 437 512
#     4  12  30  53  84 135 173 224 294 366 425 534
#     4  12  29  55  87 132 166 237 291 356 449 510
#     4  10  25  50  76 119 167 216 275 338 434 493
#
# _framework density 27.077127000000001
#
# number of rings (size 3 to 8) (size 9 to 14) (size 15 to 20)
#    0.857    0.000    2.857    1.714    8.000    5.714 
#    0.000    0.000    0.000    1.714    0.000    0.000 
#    0.000    0.000    0.000    0.000    0.000    0.000 
#
# Total GULP energy -78240.090351 kJ/mol
# GULP energy per Si atom -5588.577882 kJ/mol
# Density = 2.701550 g / cm^3
# Si number density = 27.077127 Si / 1000 Ang^3
#
#
#
# Elastic Constant Matrix: (Units=GPa)
#
#
# Indices 1 2 3 4 5 6 
#
# 1 141.8442 37.1537 26.4609 0.0000 -2.6444 0.0000
# 2 37.1537 206.0137 17.1776 0.0000 -1.1236 0.0000
# 3 26.4609 17.1776 107.7263 0.0000 8.0732 0.0000
# 4 0.0000 0.0000 0.0000 38.8920 0.0000 -6.2594
# 5 -2.6444 -1.1236 8.0732 0.0000 50.4529 0.0000
# 6 0.0000 0.0000 0.0000 -6.2594 0.0000 47.1675
#
#
#
# Elastic Compliance Matrix: (Units=1/GPa)
#
#
# Indices 1 2 3 4 5 6 
#
# 1 0.007713 -0.001242 -0.001746 0.000000 0.000656 0.000000
# 2 -0.001242 0.005122 -0.000522 0.000000 0.000132 0.000000
# 3 -0.001746 -0.000522 0.009921 0.000000 -0.001691 0.000000
# 4 0.000000 0.000000 0.000000 0.026273 0.000000 0.003487
# 5 0.000656 0.000132 -0.001691 0.000000 0.020128 0.000000
# 6 0.000000 0.000000 0.000000 0.003487 0.000000 0.021664
#
#
# Mechanical properties :
#
#
# Convention : Reuss Voigt Hill
#
# Bulk Modulus (GPa) = 63.53908 68.57426 66.05667
# Shear Modulus (GPa) = 48.50273 52.28862 50.39568
#
# Velocity S-wave (km/s) = 4.23694 4.39919 4.31883
# Velocity P-wave (km/s) = 6.88858 7.15433 7.02271
#
# Compressibility (1/GPa) = 0.01573835
#
# Stress axis : x y z
#
# Youngs Moduli (GPa) = 129.64826 195.22728 100.79146
#
# Poissons Ratio (x) = 0.24245 0.17595
# Poissons Ratio (y) = 0.16101 0.05258
# Poissons Ratio (z) = 0.22633 0.10184
#
# Static dielectric constant tensor:
#      x y z
#    x 2.182660 0.000000 -0.063650 
#    y 0.000000 2.196760 0.000000 
#    z -0.063650 0.000000 2.304460 
# 
# From -- ./inp_files/27592.got.cif
#   From: 2010.05.17/outbox.cif.g08.bks.cpg/sg9_14_cif.got.tgz:27592.got - 2010.06.03 20:04:27.
