data_PCOD9138482
_publ_section_title
;
Structure prediction by ZEFSAII (Michael W. Deem and Ramdas Pophale) SiO2 
 PCOD9138482
Probable space group: C C
;
_chemical_formula_sum "Si O2"
_cell_formula_units_Z 32
_cell_length_a 11.229493
_cell_length_b 7.839634
_cell_length_c 25.984132
_cell_angle_alpha 90.000000
_cell_angle_beta 36.488055
_cell_angle_gamma 90.000000
_cell_volume 1360.283284
_symmetry_space_group_name_H-M "C C"
_symmetry_group_IT_number 9
_symmetry_cell_setting 'monoclinic'
loop_
_space_group_symop_operation_xyz
x,y,z
x,-y,1/2+z
1/2+x,1/2+y,z
1/2+x,1/2-y,1/2+z
loop_
_atom_site_type_symbol
_atom_site_label
_atom_site_fract_x
_atom_site_fract_y
_atom_site_fract_z
Si Si1 0.022550 0.305738 0.218240
Si Si2 0.846895 0.881268 0.176587
Si Si3 0.457196 0.551989 0.753761
Si Si4 0.767247 0.653313 0.385228
Si Si5 0.870825 0.687141 0.022768
Si Si6 0.454417 0.493443 0.429970
Si Si7 0.282014 0.128817 0.488555
Si Si8 0.237076 0.994713 0.238193
O O1 0.141726 0.426504 0.217337
O O2 0.203323 0.217942 0.123200
O O3 0.890498 0.394393 0.220802
O O4 0.914746 0.146235 0.283671
O O5 0.898755 0.954940 0.214327
O O6 0.820379 0.681092 0.197864
O O7 0.045717 0.915114 0.074432
O O8 0.350402 0.717808 0.814145
O O9 0.676494 0.580722 0.703694
O O10 0.586362 0.769323 0.471076
O O11 0.657557 0.499404 0.394202
O O12 0.876589 0.598303 0.398962
O O13 0.874701 0.502222 0.996796
O O14 0.848411 0.832397 0.985743
O O15 0.329933 0.324783 0.484883
O O16 0.534708 0.498260 0.343716
#
# Coordination Sequence:
#
# PCOD9138482 Si02
#       8
#     4   4   4   4   4   4   4   4
#     4  11  24  43  68 102 135 179 231 284 349 409
#     4  11  22  43  69  96 135 177 223 289 338 406
#     4  11  23  43  68  98 136 179 225 283 347 402
#     4  10  23  44  61  98 141 168 238 284 325 430
#     4  10  23  45  66 101 135 173 236 284 333 421
#     4  10  23  44  63 100 137 176 228 281 339 413
#     4  12  22  44  71  91 140 184 222 289 353 390
#     4  11  24  42  66  98 137 178 225 284 346 409
#
# _framework density 23.524509999999999
#
# number of rings (size 3 to 8) (size 9 to 14) (size 15 to 20)
#    0.750    0.500    5.000    0.750    1.750    1.000 
#   11.250    0.000    0.000    0.000    0.000    0.000 
#    0.000    0.000    0.000    0.000    0.000    0.000 
#
# Total GULP energy -89173.015793 kJ/mol
# GULP energy per Si atom -5573.313487 kJ/mol
# Density = 2.347097 g / cm^3
# Si number density = 23.524510 Si / 1000 Ang^3
#
#
#
# Elastic Constant Matrix: (Units=GPa)
#
#
# Indices 1 2 3 4 5 6 
#
# 1 149.4116 15.6020 5.8882 0.0000 9.9079 0.0000
# 2 15.6020 57.9494 5.1493 0.0000 1.0226 0.0001
# 3 5.8882 5.1493 54.7859 -0.0001 17.7836 -0.0001
# 4 0.0000 0.0000 -0.0001 31.0827 0.0000 5.4983
# 5 9.9079 1.0226 17.7836 0.0000 27.6415 -0.0001
# 6 0.0000 0.0001 -0.0001 5.4983 -0.0001 39.9421
#
#
#
# Elastic Compliance Matrix: (Units=1/GPa)
#
#
# Indices 1 2 3 4 5 6 
#
# 1 0.007053 -0.001877 0.000274 0.000000 -0.002635 0.000000
# 2 -0.001877 0.017907 -0.001877 0.000000 0.001218 0.000000
# 3 0.000274 -0.001877 0.023268 0.000000 -0.014999 0.000000
# 4 0.000000 0.000000 0.000000 0.032975 0.000000 -0.004539
# 5 -0.002635 0.001218 -0.014999 0.000000 0.046727 0.000000
# 6 0.000000 0.000000 0.000000 -0.004539 0.000000 0.025661
#
#
# Mechanical properties :
#
#
# Convention : Reuss Voigt Hill
#
# Bulk Modulus (GPa) = 24.23131 35.04731 29.63931
# Shear Modulus (GPa) = 28.68506 35.43376 32.05941
#
# Velocity S-wave (km/s) = 3.49574 3.88525 3.69563
# Velocity P-wave (km/s) = 5.15911 5.92093 5.55310
#
# Compressibility (1/GPa) = 0.04126892
#
# Stress axis : x y z
#
# Youngs Moduli (GPa) = 141.78731 55.84423 42.97657
#
# Poissons Ratio (x) = 0.10480 -0.01176
# Poissons Ratio (y) = 0.26609 0.08065
# Poissons Ratio (z) = -0.03879 0.10480
#
# Static dielectric constant tensor:
#      x y z
#    x 1.947160 0.000000 -0.026010 
#    y 0.000000 1.868730 0.000000 
#    z -0.026010 0.000000 1.960170 
# 
# From -- ./inp_files/36502.got.cif
#   From: 2010.05.17/outbox.cif.g08.bks.cpg/sg9_19_cif.got.tgz:36502.got - 2010.06.03 20:04:27.
