data_PCOD9138408
_publ_section_title
;
Structure prediction by ZEFSAII (Michael W. Deem and Ramdas Pophale) SiO2 
 PCOD9138408
Probable space group: C C
;
_chemical_formula_sum "Si O2"
_cell_formula_units_Z 32
_cell_length_a 11.603965
_cell_length_b 9.559237
_cell_length_c 14.698050
_cell_angle_alpha 90.000000
_cell_angle_beta 68.420525
_cell_angle_gamma 90.000000
_cell_volume 1516.105710
_symmetry_space_group_name_H-M "C C"
_symmetry_group_IT_number 9
_symmetry_cell_setting 'monoclinic'
loop_
_space_group_symop_operation_xyz
x,y,z
x,-y,1/2+z
1/2+x,1/2+y,z
1/2+x,1/2-y,1/2+z
loop_
_atom_site_type_symbol
_atom_site_label
_atom_site_fract_x
_atom_site_fract_y
_atom_site_fract_z
Si Si1 0.589480 0.049008 0.470730
Si Si2 0.832268 0.379498 0.128804
Si Si3 0.916392 0.577614 0.269401
Si Si4 0.032183 0.219203 0.483371
Si Si5 0.343451 0.672765 0.687420
Si Si6 0.734456 0.488804 0.969902
Si Si7 0.263000 0.283060 0.021453
Si Si8 0.191791 0.608124 0.245086
O O1 0.467796 0.128576 0.542542
O O2 0.695389 0.076596 0.514184
O O3 0.639952 0.114644 0.362837
O O4 0.567796 0.882213 0.468938
O O5 0.859411 0.485489 0.204237
O O6 0.766663 0.242168 0.187664
O O7 0.750544 0.435259 0.068274
O O8 0.861611 0.732809 0.269725
O O9 0.865360 0.521191 0.379468
O O10 0.065275 0.580383 0.225117
O O11 0.140400 0.107551 0.440446
O O12 0.975972 0.178810 0.598634
O O13 0.909461 0.204523 0.457101
O O14 0.259393 0.740648 0.631301
O O15 0.286040 0.522152 0.717892
O O16 0.703814 0.651830 0.987714
#
# Coordination Sequence:
#
# PCOD9138408 Si02
#       8
#     4   4   4   4   4   4   4   4
#     4  12  23  49  72 101 148 186 233 299 359 420
#     4  12  25  45  71 105 142 187 234 299 348 419
#     4  12  23  48  70 102 142 190 234 294 361 419
#     4  10  23  44  69 100 140 185 225 293 356 410
#     4  10  23  44  66  98 136 184 230 284 351 412
#     4  12  23  43  76 100 144 183 240 293 352 427
#     4  10  23  43  68 101 136 185 227 286 360 413
#     4  12  27  44  72 107 140 188 243 286 359 430
#
# _framework density 21.106708000000001
#
# number of rings (size 3 to 8) (size 9 to 14) (size 15 to 20)
#    0.750    0.000    5.000    3.000    3.500    0.000 
#    0.000    3.750    0.000    0.000    0.000    0.000 
#    0.000    0.000    0.000    0.000    0.000    0.000 
#
# Total GULP energy -89218.295241 kJ/mol
# GULP energy per Si atom -5576.143453 kJ/mol
# Density = 2.105867 g / cm^3
# Si number density = 21.106708 Si / 1000 Ang^3
#
#
#
# Elastic Constant Matrix: (Units=GPa)
#
#
# Indices 1 2 3 4 5 6 
#
# 1 76.9909 51.8899 9.2567 0.0000 3.7532 0.0000
# 2 51.8899 103.0481 33.8157 0.0000 -7.9384 0.0000
# 3 9.2567 33.8157 85.3511 0.0000 -7.3401 0.0000
# 4 0.0000 0.0000 0.0000 23.6301 0.0000 -1.8415
# 5 3.7532 -7.9384 -7.3401 0.0000 23.5426 0.0000
# 6 0.0000 0.0000 0.0000 -1.8415 0.0000 39.2665
#
#
#
# Elastic Compliance Matrix: (Units=1/GPa)
#
#
# Indices 1 2 3 4 5 6 
#
# 1 0.020955 -0.011648 0.001765 0.000000 -0.006718 0.000000
# 2 -0.011648 0.017769 -0.005242 0.000000 0.006214 0.000000
# 3 0.001765 -0.005242 0.013796 0.000000 0.002252 0.000000
# 4 0.000000 0.000000 0.000000 0.042474 0.000000 0.001992
# 5 -0.006718 0.006214 0.002252 0.000000 0.046345 0.000000
# 6 0.000000 0.000000 0.000000 0.001992 0.000000 0.025560
#
#
# Mechanical properties :
#
#
# Convention : Reuss Voigt Hill
#
# Bulk Modulus (GPa) = 44.90926 50.59052 47.74989
# Shear Modulus (GPa) = 24.44127 28.64969 26.54548
#
# Velocity S-wave (km/s) = 3.40661 3.68825 3.55023
# Velocity P-wave (km/s) = 6.06603 6.49296 6.28313
#
# Compressibility (1/GPa) = 0.02226712
#
# Stress axis : x y z
#
# Youngs Moduli (GPa) = 47.72236 56.27887 72.48728
#
# Poissons Ratio (x) = 0.65555 -0.12791
# Poissons Ratio (y) = 0.55588 0.37999
# Poissons Ratio (z) = -0.08421 0.29502
#
# Static dielectric constant tensor:
#      x y z
#    x 1.823730 0.000000 -0.019780 
#    y 0.000000 1.726830 0.000000 
#    z -0.019780 0.000000 1.816170 
# 
# From -- ./inp_files/24216.got.cif
#   From: 2010.05.17/outbox.cif.g08.bks.cpg/sg9_13_cif.got.tgz:24216.got - 2010.06.03 20:04:27.
