data_PCOD9138658
_publ_section_title
;
Structure prediction by ZEFSAII (Michael W. Deem and Ramdas Pophale) SiO2 
 PCOD9138658
Probable space group: C C
;
_chemical_formula_sum "Si O2"
_cell_formula_units_Z 32
_cell_length_a 19.460391
_cell_length_b 8.568107
_cell_length_c 16.335879
_cell_angle_alpha 90.000000
_cell_angle_beta 149.155743
_cell_angle_gamma 90.000000
_cell_volume 1396.521157
_symmetry_space_group_name_H-M "C C"
_symmetry_group_IT_number 9
_symmetry_cell_setting 'monoclinic'
loop_
_space_group_symop_operation_xyz
x,y,z
x,-y,1/2+z
1/2+x,1/2+y,z
1/2+x,1/2-y,1/2+z
loop_
_atom_site_type_symbol
_atom_site_label
_atom_site_fract_x
_atom_site_fract_y
_atom_site_fract_z
Si Si1 0.082630 0.596361 0.183180
Si Si2 0.599181 0.612244 0.265690
Si Si3 0.156365 0.981057 0.565980
Si Si4 0.914625 0.402665 0.767082
Si Si5 0.058203 0.699165 0.565330
Si Si6 0.630571 0.921291 0.397420
Si Si7 0.924592 0.944409 0.214739
Si Si8 0.771606 0.622320 0.844792
O O1 0.126880 0.457924 0.167110
O O2 0.076414 0.519486 0.265332
O O3 0.191973 0.730008 0.296871
O O4 0.930900 0.644028 0.005122
O O5 0.528985 0.699078 0.116347
O O6 0.497711 0.493836 0.205766
O O7 0.726134 0.523270 0.355749
O O8 0.634387 0.745203 0.368052
O O9 0.266697 0.970535 0.608058
O O10 0.142077 0.809043 0.591197
O O11 0.013600 0.014111 0.379936
O O12 0.208137 0.092249 0.690201
O O13 0.025913 0.531494 0.860448
O O14 0.926259 0.242533 0.728191
O O15 0.934818 0.354159 0.882953
O O16 0.777124 0.985253 0.567614
#
# Coordination Sequence:
#
# PCOD9138658 Si02
#       8
#     4   4   4   4   4   4   4   4
#     4  11  25  45  72 101 142 184 239 302 356 425
#     4  10  25  44  72 103 139 186 238 297 355 423
#     4  10  23  45  72  99 142 188 230 294 353 436
#     4  11  22  45  72 105 140 189 232 292 358 428
#     4   9  21  44  71 101 136 182 239 282 352 426
#     4  11  27  42  71 104 141 185 235 296 361 428
#     4  11  24  43  68 106 137 187 234 289 358 430
#     4  11  25  48  70 103 139 189 239 300 361 424
#
# _framework density 22.914082000000001
#
# number of rings (size 3 to 8) (size 9 to 14) (size 15 to 20)
#    0.000    1.500    1.250    2.250    8.750    2.000 
#    9.000    0.000    0.000    0.000    0.000    0.000 
#    0.000    0.000    0.000    0.000    0.000    0.000 
#
# Total GULP energy -89480.135719 kJ/mol
# GULP energy per Si atom -5592.508482 kJ/mol
# Density = 2.286193 g / cm^3
# Si number density = 22.914082 Si / 1000 Ang^3
#
#
#
# Elastic Constant Matrix: (Units=GPa)
#
#
# Indices 1 2 3 4 5 6 
#
# 1 69.1877 19.5457 20.9822 0.0000 1.4803 0.0000
# 2 19.5457 67.0885 -0.3842 0.0000 -14.3702 0.0000
# 3 20.9822 -0.3842 96.8272 0.0000 -0.7883 0.0000
# 4 0.0000 0.0000 0.0000 20.7831 0.0000 -6.1095
# 5 1.4803 -14.3702 -0.7883 0.0000 26.8811 0.0000
# 6 0.0000 0.0000 0.0000 -6.1095 0.0000 30.9731
#
#
#
# Elastic Compliance Matrix: (Units=1/GPa)
#
#
# Indices 1 2 3 4 5 6 
#
# 1 0.017405 -0.006010 -0.003830 0.000000 -0.004284 0.000000
# 2 -0.006010 0.018911 0.001463 0.000000 0.010483 0.000000
# 3 -0.003830 0.001463 0.011174 0.000000 0.001321 0.000000
# 4 0.000000 0.000000 0.000000 0.051078 0.000000 0.010075
# 5 -0.004284 0.010483 0.001321 0.000000 0.043080 0.000000
# 6 0.000000 0.000000 0.000000 0.010075 0.000000 0.034273
#
#
# Mechanical properties :
#
#
# Convention : Reuss Voigt Hill
#
# Bulk Modulus (GPa) = 32.53724 34.82121 33.67922
# Shear Modulus (GPa) = 24.64024 28.59143 26.61584
#
# Velocity S-wave (km/s) = 3.28278 3.53621 3.41185
# Velocity P-wave (km/s) = 5.34784 5.64822 5.50008
#
# Compressibility (1/GPa) = 0.03073402
#
# Stress axis : x y z
#
# Youngs Moduli (GPa) = 57.45623 52.88058 89.49157
#
# Poissons Ratio (x) = 0.31782 0.34277
# Poissons Ratio (y) = 0.34532 -0.13091
# Poissons Ratio (z) = 0.22007 -0.07735
#
# Static dielectric constant tensor:
#      x y z
#    x 1.871670 0.000000 -0.036560 
#    y 0.000000 1.862140 0.000000 
#    z -0.036560 0.000000 1.836030 
# 
# From -- ./inp_files/31236.got.cif
#   From: 2010.05.17/outbox.cif.g08.bks.cpg/sg9_16_cif.got.tgz:31236.got - 2010.06.03 20:04:27.
