data_PCOD9138499
_publ_section_title
;
Structure prediction by ZEFSAII (Michael W. Deem and Ramdas Pophale) SiO2 
 PCOD9138499
Probable space group: C C
;
_chemical_formula_sum "Si O2"
_cell_formula_units_Z 32
_cell_length_a 12.906809
_cell_length_b 12.530875
_cell_length_c 8.658909
_cell_angle_alpha 90.000000
_cell_angle_beta 68.854072
_cell_angle_gamma 90.000000
_cell_volume 1306.137743
_symmetry_space_group_name_H-M "C C"
_symmetry_group_IT_number 9
_symmetry_cell_setting 'monoclinic'
loop_
_space_group_symop_operation_xyz
x,y,z
x,-y,1/2+z
1/2+x,1/2+y,z
1/2+x,1/2-y,1/2+z
loop_
_atom_site_type_symbol
_atom_site_label
_atom_site_fract_x
_atom_site_fract_y
_atom_site_fract_z
Si Si1 0.806570 0.794787 0.590370
Si Si2 0.881579 0.576657 0.497620
Si Si3 0.588127 0.118697 0.614410
Si Si4 0.325480 0.123852 0.199744
Si Si5 0.385765 0.352418 0.206101
Si Si6 0.524330 0.356343 0.648549
Si Si7 0.582828 0.442583 0.936148
Si Si8 0.696593 0.020478 0.279794
O O1 0.792420 0.667859 0.594401
O O2 0.858579 0.827157 0.398062
O O3 0.901230 0.823614 0.663107
O O4 0.702803 0.869964 0.679624
O O5 0.904591 0.596350 0.304382
O O6 0.840072 0.458541 0.553571
O O7 0.982605 0.598061 0.560439
O O8 0.592036 0.245981 0.631634
O O9 0.599713 0.058640 0.771721
O O10 0.682694 0.061539 0.461248
O O11 0.347528 0.244681 0.140521
O O12 0.204579 0.101666 0.336679
O O13 0.512502 0.376956 0.099700
O O14 0.308977 0.452184 0.202074
O O15 0.578933 0.435533 0.494204
O O16 0.519535 0.421256 0.809998
#
# Coordination Sequence:
#
# PCOD9138499 Si02
#       8
#     4   4   4   4   4   4   4   4
#     4  10  23  44  67 101 143 187 233 293 365 412
#     4  10  24  47  65 101 143 183 240 295 351 429
#     4  11  26  44  73 106 145 189 242 295 371 426
#     4  11  25  45  69 101 139 192 237 294 366 425
#     4  11  25  45  70 105 144 184 241 303 357 432
#     4  11  25  45  69 107 141 192 236 300 359 425
#     4  12  25  44  71 102 144 189 244 296 362 437
#     4  12  23  44  72 105 143 186 237 296 355 442
#
# _framework density 24.499713
#
# number of rings (size 3 to 8) (size 9 to 14) (size 15 to 20)
#    0.000    1.000    2.500    3.000    3.500    4.000 
#   11.250    0.000    0.000    0.000    0.000    0.000 
#    0.000    0.000    0.000    0.000    0.000    0.000 
#
# Total GULP energy -89524.498538 kJ/mol
# GULP energy per Si atom -5595.281159 kJ/mol
# Density = 2.444395 g / cm^3
# Si number density = 24.499713 Si / 1000 Ang^3
#
#
#
# Elastic Constant Matrix: (Units=GPa)
#
#
# Indices 1 2 3 4 5 6 
#
# 1 42.6441 -10.7116 -12.9058 0.0000 1.2047 0.0000
# 2 -10.7116 169.0775 22.7882 0.0000 -1.3072 0.0000
# 3 -12.9058 22.7882 54.2068 0.0000 11.4401 0.0000
# 4 0.0000 0.0000 0.0000 41.0066 0.0000 4.5587
# 5 1.2047 -1.3072 11.4401 0.0000 40.8879 0.0000
# 6 0.0000 0.0000 0.0000 4.5587 0.0000 30.2804
#
#
#
# Elastic Compliance Matrix: (Units=1/GPa)
#
#
# Indices 1 2 3 4 5 6 
#
# 1 0.025619 0.000753 0.006310 0.000000 -0.002496 0.000000
# 2 0.000753 0.006330 -0.002678 0.000000 0.000929 0.000000
# 3 0.006310 -0.002678 0.022459 0.000000 -0.006555 0.000000
# 4 0.000000 0.000000 0.000000 0.024801 0.000000 -0.003734
# 5 -0.002496 0.000929 -0.006555 0.000000 0.026395 0.000000
# 6 0.000000 0.000000 0.000000 -0.003734 0.000000 0.033587
#
#
# Mechanical properties :
#
#
# Convention : Reuss Voigt Hill
#
# Bulk Modulus (GPa) = 15.82808 29.36333 22.59571
# Shear Modulus (GPa) = 33.00736 40.21882 36.61309
#
# Velocity S-wave (km/s) = 3.67448 4.05607 3.86998
# Velocity P-wave (km/s) = 4.94742 5.82638 5.40480
#
# Compressibility (1/GPa) = 0.06317886
#
# Stress axis : x y z
#
# Youngs Moduli (GPa) = 39.03321 157.97028 44.52476
#
# Poissons Ratio (x) = -0.11901 -0.28093
# Poissons Ratio (y) = -0.02941 0.11924
# Poissons Ratio (z) = -0.24629 0.42305
#
# Static dielectric constant tensor:
#      x y z
#    x 2.013760 0.000000 0.009120 
#    y 0.000000 1.941530 0.000000 
#    z 0.009120 0.000000 1.934060 
# 
# From -- ./inp_files/9219.got.cif
#   From: 2010.05.17/outbox.cif.g08.bks.cpg/sg9_5_cif.got.tgz:9219.got - 2010.06.03 20:04:27.
