data_PCOD9138214
_publ_section_title
;
Structure prediction by ZEFSAII (Michael W. Deem and Ramdas Pophale) SiO2 
 PCOD9138214
Probable space group: C C
;
_chemical_formula_sum "Si O2"
_cell_formula_units_Z 32
_cell_length_a 8.893786
_cell_length_b 30.068765
_cell_length_c 5.185301
_cell_angle_alpha 90.000000
_cell_angle_beta 100.122923
_cell_angle_gamma 90.000000
_cell_volume 1365.093426
_symmetry_space_group_name_H-M "C C"
_symmetry_group_IT_number 9
_symmetry_cell_setting 'monoclinic'
loop_
_space_group_symop_operation_xyz
x,y,z
x,-y,1/2+z
1/2+x,1/2+y,z
1/2+x,1/2-y,1/2+z
loop_
_atom_site_type_symbol
_atom_site_label
_atom_site_fract_x
_atom_site_fract_y
_atom_site_fract_z
Si Si1 0.960540 0.518728 0.906020
Si Si2 0.689552 0.666520 0.557698
Si Si3 0.444053 0.881618 0.368886
Si Si4 0.748979 0.884604 0.147899
Si Si5 0.871497 0.838722 0.680814
Si Si6 0.812339 0.982344 0.364155
Si Si7 0.956038 0.301945 0.769341
Si Si8 0.241427 0.745967 0.372855
O O1 0.888655 0.512053 0.602805
O O2 0.959394 0.569635 0.995780
O O3 0.136277 0.505748 0.889645
O O4 0.767532 0.626050 0.735254
O O5 0.544254 0.658669 0.336474
O O6 0.830855 0.680798 0.424331
O O7 0.669817 0.708856 0.738412
O O8 0.570557 0.882135 0.177625
O O9 0.485009 0.840477 0.567333
O O10 0.841315 0.854885 0.383216
O O11 0.804621 0.934344 0.229301
O O12 0.782643 0.869077 0.867878
O O13 0.812261 0.788101 0.687906
O O14 0.883610 0.985213 0.670780
O O15 0.876312 0.261480 0.595420
O O16 0.105803 0.283143 0.953201
#
# Coordination Sequence:
#
# PCOD9138214 Si02
#       8
#     4   4   4   4   4   4   4   4
#     4   9  19  34  62  95 129 162 209 269 325 384
#     4  11  27  41  64  92 132 177 218 276 322 391
#     4  10  23  41  65  98 130 172 219 273 330 388
#     4  11  24  41  68  98 130 170 217 271 325 391
#     4  12  26  43  65  95 132 173 218 268 322 388
#     4   9  17  34  61  94 127 159 206 266 324 381
#     4  11  24  41  64  92 131 174 222 273 324 388
#     4  11  24  41  61  94 125 175 221 266 324 379
#
# _framework density 23.44162
#
# number of rings (size 3 to 8) (size 9 to 14) (size 15 to 20)
#    0.000    1.500    2.500    1.500    8.750    2.000 
#    0.000    0.000    0.000    4.500    0.000    0.000 
#    0.000    0.000    0.000    0.000    0.000    0.000 
#
# Total GULP energy -89394.841734 kJ/mol
# GULP energy per Si atom -5587.177608 kJ/mol
# Density = 2.338827 g / cm^3
# Si number density = 23.441620 Si / 1000 Ang^3
#
#
#
# Elastic Constant Matrix: (Units=GPa)
#
#
# Indices 1 2 3 4 5 6 
#
# 1 73.7877 13.4766 -5.1856 0.0000 16.7114 0.0000
# 2 13.4766 88.2004 14.2061 0.0000 -0.6938 0.0000
# 3 -5.1856 14.2061 70.5659 0.0000 -1.5072 0.0000
# 4 0.0000 0.0000 0.0000 31.6783 0.0000 4.6450
# 5 16.7114 -0.6938 -1.5072 0.0000 35.4660 0.0000
# 6 0.0000 0.0000 0.0000 4.6450 0.0000 11.6986
#
#
#
# Elastic Compliance Matrix: (Units=1/GPa)
#
#
# Indices 1 2 3 4 5 6 
#
# 1 0.015849 -0.002731 0.001555 0.000000 -0.007455 0.000000
# 2 -0.002731 0.012189 -0.002624 0.000000 0.001414 0.000000
# 3 0.001555 -0.002624 0.014810 0.000000 -0.000155 0.000000
# 4 0.000000 0.000000 0.000000 0.033519 0.000000 -0.013309
# 5 -0.007455 0.001414 -0.000155 0.000000 0.031730 0.000000
# 6 0.000000 0.000000 0.000000 -0.013309 0.000000 0.090765
#
#
# Mechanical properties :
#
#
# Convention : Reuss Voigt Hill
#
# Bulk Modulus (GPa) = 28.37003 30.83868 29.60436
# Shear Modulus (GPa) = 22.91357 29.77237 26.34297
#
# Velocity S-wave (km/s) = 3.12985 3.56766 3.35590
# Velocity P-wave (km/s) = 5.01896 5.49136 5.26047
#
# Compressibility (1/GPa) = 0.03524846
#
# Stress axis : x y z
#
# Youngs Moduli (GPa) = 63.09585 82.04208 67.51993
#
# Poissons Ratio (x) = 0.22404 -0.10501
# Poissons Ratio (y) = 0.17230 0.17719
# Poissons Ratio (z) = -0.09813 0.21530
#
# Static dielectric constant tensor:
#      x y z
#    x 1.896380 0.000000 0.046150 
#    y 0.000000 1.931960 0.000000 
#    z 0.046150 0.000000 1.998800 
# 
# From -- ./inp_files/1246.got.cif
#   From: 2010.05.17/outbox.cif.g08.bks.cpg/sg9_1_cif.got.tgz:1246.got - 2010.06.03 20:04:27.
