data_PCOD9138081
_publ_section_title
;
Structure prediction by ZEFSAII (Michael W. Deem and Ramdas Pophale) SiO2 
 PCOD9138081
Probable space group: C C
;
_chemical_formula_sum "Si O2"
_cell_formula_units_Z 32
_cell_length_a 12.090241
_cell_length_b 10.954916
_cell_length_c 15.488115
_cell_angle_alpha 90.000000
_cell_angle_beta 35.639999
_cell_angle_gamma 90.000000
_cell_volume 1195.309817
_symmetry_space_group_name_H-M "C C"
_symmetry_group_IT_number 9
_symmetry_cell_setting 'monoclinic'
loop_
_space_group_symop_operation_xyz
x,y,z
x,-y,1/2+z
1/2+x,1/2+y,z
1/2+x,1/2-y,1/2+z
loop_
_atom_site_type_symbol
_atom_site_label
_atom_site_fract_x
_atom_site_fract_y
_atom_site_fract_z
Si Si1 0.696060 0.477170 0.636070
Si Si2 0.484916 0.487631 0.594429
Si Si3 0.554663 0.249807 0.830058
Si Si4 0.552653 0.097129 0.342270
Si Si5 0.874187 0.472753 0.766186
Si Si6 0.047634 0.269763 0.540338
Si Si7 0.921243 0.145642 0.901085
Si Si8 0.206756 0.607340 0.576086
O O1 0.582507 0.444427 0.620930
O O2 0.653174 0.369391 0.728378
O O3 0.597402 0.599229 0.733549
O O4 0.915957 0.506696 0.482379
O O5 0.278068 0.427711 0.711256
O O6 0.473979 0.634822 0.610108
O O7 0.138493 0.646717 0.714794
O O8 0.917407 0.364945 0.673441
O O9 0.329854 0.518861 0.996744
O O10 0.333728 0.285317 0.956854
O O11 0.465528 0.075250 0.299927
O O12 0.497170 0.236183 0.403827
O O13 0.659420 0.518218 0.914273
O O14 0.252580 0.300696 0.449353
O O15 0.013235 0.581351 0.649047
O O16 0.063923 0.269655 0.426487
#
# Coordination Sequence:
#
# PCOD9138081 Si02
#       8
#     4   4   4   4   4   4   4   4
#     4  10  24  50  77 121 172 222 277 354 433 507
#     4  11  24  43  81 123 166 222 280 345 447 502
#     4  11  26  47  81 121 175 216 281 361 434 513
#     4  11  23  44  82 122 170 217 276 358 428 506
#     4  10  23  46  77 123 170 214 289 357 417 509
#     4  11  23  45  83 128 155 218 298 361 411 509
#     4  10  22  47  84 116 164 219 286 354 415 505
#     4  10  25  46  79 118 168 222 275 352 437 489
#
# _framework density 26.771303
#
# number of rings (size 3 to 8) (size 9 to 14) (size 15 to 20)
#    0.000    1.500    2.500    1.500    7.000    1.000 
#    0.000    5.000    0.000    6.000    3.250    0.000 
#    0.000    0.000    0.000    0.000    0.000    0.000 
#
# Total GULP energy -89538.775888 kJ/mol
# GULP energy per Si atom -5596.173493 kJ/mol
# Density = 2.671037 g / cm^3
# Si number density = 26.771303 Si / 1000 Ang^3
#
#
#
# Elastic Constant Matrix: (Units=GPa)
#
#
# Indices 1 2 3 4 5 6 
#
# 1 98.9686 77.9774 71.1852 0.0000 -3.0742 0.0000
# 2 77.9774 152.5198 83.9581 0.0000 -8.6654 0.0000
# 3 71.1852 83.9581 257.0612 0.0001 -19.2243 0.0000
# 4 0.0000 0.0000 0.0001 59.2674 0.0001 12.3078
# 5 -3.0742 -8.6654 -19.2243 0.0001 48.8831 0.0000
# 6 0.0000 0.0000 0.0000 12.3078 0.0000 21.4653
#
#
#
# Elastic Compliance Matrix: (Units=1/GPa)
#
#
# Indices 1 2 3 4 5 6 
#
# 1 0.018154 -0.007966 -0.002520 0.000000 -0.001261 0.000000
# 2 -0.007966 0.011497 -0.001478 0.000000 0.000956 0.000000
# 3 -0.002520 -0.001478 0.005192 0.000000 0.001621 0.000000
# 4 0.000000 0.000000 0.000000 0.019153 0.000000 -0.010982
# 5 -0.001261 0.000956 0.001621 0.000000 0.021185 0.000000
# 6 0.000000 0.000000 0.000000 -0.010982 0.000000 0.052884
#
#
# Mechanical properties :
#
#
# Convention : Reuss Voigt Hill
#
# Bulk Modulus (GPa) = 91.60924 108.31012 99.95968
# Shear Modulus (GPa) = 32.12762 44.28508 38.20635
#
# Velocity S-wave (km/s) = 3.46797 4.07160 3.78185
# Velocity P-wave (km/s) = 7.09431 7.91513 7.51593
#
# Compressibility (1/GPa) = 0.01091593
#
# Stress axis : x y z
#
# Youngs Moduli (GPa) = 55.08496 86.98026 192.61444
#
# Poissons Ratio (x) = 0.69288 0.48534
# Poissons Ratio (y) = 0.43880 0.28460
# Poissons Ratio (z) = 0.13880 0.12852
#
# Static dielectric constant tensor:
#      x y z
#    x 2.137020 0.000000 -0.024530 
#    y 0.000000 2.168600 0.000000 
#    z -0.024530 0.000000 2.164560 
# 
# From -- ./inp_files/33415.got.cif
#   From: 2010.05.17/outbox.cif.g08.bks.cpg/sg9_17_cif.got.tgz:33415.got - 2010.06.03 20:04:27.
