data_PCOD9138614
_publ_section_title
;
Structure prediction by ZEFSAII (Michael W. Deem and Ramdas Pophale) SiO2 
 PCOD9138614
Probable space group: C C
;
_chemical_formula_sum "Si O2"
_cell_formula_units_Z 20
_cell_length_a 11.871792
_cell_length_b 7.849815
_cell_length_c 10.233529
_cell_angle_alpha 90.000000
_cell_angle_beta 63.936454
_cell_angle_gamma 90.000000
_cell_volume 856.694651
_symmetry_space_group_name_H-M "C C"
_symmetry_group_IT_number 9
_symmetry_cell_setting 'monoclinic'
loop_
_space_group_symop_operation_xyz
x,y,z
x,-y,1/2+z
1/2+x,1/2+y,z
1/2+x,1/2-y,1/2+z
loop_
_atom_site_type_symbol
_atom_site_label
_atom_site_fract_x
_atom_site_fract_y
_atom_site_fract_z
Si Si1 0.846050 0.292570 0.004240
Si Si2 0.027412 0.785303 0.652052
Si Si3 0.917118 0.114656 0.717565
Si Si4 0.929255 0.649571 0.974813
Si Si5 0.181345 0.512592 0.983081
O O1 0.937810 0.233158 0.071916
O O2 0.831220 0.494396 0.027388
O O3 0.915733 0.261117 0.828790
O O4 0.727793 0.165192 0.054930
O O5 0.534591 0.488360 0.666728
O O6 0.148006 0.668422 0.562984
O O7 0.961922 0.708330 0.813408
O O8 0.898631 0.194430 0.585642
O O9 0.795916 0.005259 0.823341
O O10 0.057244 0.574647 0.972680
#
# Coordination Sequence:
#
# PCOD9138614 Si02
#       5
#     4   4   4   4   4
#     4   9  21  43  69  99 149 192 238 305 373 437
#     4  11  22  41  73 102 147 191 249 302 363 451
#     4  10  23  45  67 107 152 188 242 310 376 439
#     4  11  22  44  72 105 143 194 253 310 354 458
#     4   9  24  43  69 101 151 195 240 299 384 443
#
# _framework density 23.345538999999999
#
# number of rings (size 3 to 8) (size 9 to 14) (size 15 to 20)
#    1.200    0.800    0.000    3.600    2.800    0.000 
#    7.200    0.000    0.000    0.000    0.000    0.000 
#    0.000    0.000    0.000    0.000    0.000    0.000 
#
# Total GULP energy -55845.021979 kJ/mol
# GULP energy per Si atom -5584.502198 kJ/mol
# Density = 2.329240 g / cm^3
# Si number density = 23.345539 Si / 1000 Ang^3
#
#
#
# Elastic Constant Matrix: (Units=GPa)
#
#
# Indices 1 2 3 4 5 6 
#
# 1 108.8535 45.1747 26.0499 0.0000 1.8074 0.0000
# 2 45.1747 164.6284 25.0486 0.0000 -18.3705 0.0000
# 3 26.0499 25.0486 106.9722 0.0000 -5.2768 0.0000
# 4 0.0000 0.0000 0.0000 18.1908 0.0000 -2.1708
# 5 1.8074 -18.3705 -5.2768 0.0000 34.5665 0.0000
# 6 0.0000 0.0000 0.0000 -2.1708 0.0000 55.7269
#
#
#
# Elastic Compliance Matrix: (Units=1/GPa)
#
#
# Indices 1 2 3 4 5 6 
#
# 1 0.010959 -0.002964 -0.002097 0.000000 -0.002468 0.000000
# 2 -0.002964 0.007459 -0.000828 0.000000 0.003993 0.000000
# 3 -0.002097 -0.000828 0.010113 0.000000 0.001213 0.000000
# 4 0.000000 0.000000 0.000000 0.055230 0.000000 0.002151
# 5 -0.002468 0.003993 0.001213 0.000000 0.031366 0.000000
# 6 0.000000 0.000000 0.000000 0.002151 0.000000 0.018028
#
#
# Mechanical properties :
#
#
# Convention : Reuss Voigt Hill
#
# Bulk Modulus (GPa) = 59.68569 63.66673 61.67621
# Shear Modulus (GPa) = 33.21901 40.64223 36.93062
#
# Velocity S-wave (km/s) = 3.77626 4.17694 3.98164
# Velocity P-wave (km/s) = 6.68096 7.11288 6.90030
#
# Compressibility (1/GPa) = 0.01675443
#
# Stress axis : x y z
#
# Youngs Moduli (GPa) = 91.24647 134.06532 98.88746
#
# Poissons Ratio (x) = 0.39733 0.20733
# Poissons Ratio (y) = 0.27043 0.08187
# Poissons Ratio (z) = 0.19131 0.11100
#
# Static dielectric constant tensor:
#      x y z
#    x 1.892200 0.000000 -0.023210 
#    y 0.000000 1.901950 0.000000 
#    z -0.023210 0.000000 1.823680 
# 
# From -- ./inp_files/6800.got.cif
#   From: 2010.05.17/outbox.cif.g08.bks.cpg/sg9_4_cif.got.tgz:6800.got - 2010.06.03 20:04:27.
