data_PCOD9138742
_publ_section_title
;
Structure prediction by ZEFSAII (Michael W. Deem and Ramdas Pophale) SiO2 
 PCOD9138742
Probable space group: C C
;
_chemical_formula_sum "Si O2"
_cell_formula_units_Z 28
_cell_length_a 13.665066
_cell_length_b 9.501415
_cell_length_c 14.056013
_cell_angle_alpha 90.000000
_cell_angle_beta 142.924604
_cell_angle_gamma 90.000000
_cell_volume 1100.227648
_symmetry_space_group_name_H-M "C C"
_symmetry_group_IT_number 9
_symmetry_cell_setting 'monoclinic'
loop_
_space_group_symop_operation_xyz
x,y,z
x,-y,1/2+z
1/2+x,1/2+y,z
1/2+x,1/2-y,1/2+z
loop_
_atom_site_type_symbol
_atom_site_label
_atom_site_fract_x
_atom_site_fract_y
_atom_site_fract_z
Si Si1 0.302630 0.599219 0.136760
Si Si2 0.055605 0.785050 0.065848
Si Si3 0.533846 0.832698 0.280817
Si Si4 0.729091 0.471322 0.584358
Si Si5 0.261546 0.672158 0.698877
Si Si6 0.916996 0.321150 0.974843
Si Si7 0.738876 0.602581 0.873666
O O1 0.184482 0.670859 0.124162
O O2 0.469672 0.684211 0.268200
O O3 0.342506 0.440063 0.193368
O O4 0.203705 0.626288 0.961263
O O5 0.090521 0.838659 0.199090
O O6 0.099863 0.924019 0.035941
O O7 0.886509 0.701375 0.947985
O O8 0.503772 0.814287 0.145372
O O9 0.396597 0.941203 0.208258
O O10 0.761748 0.334209 0.671571
O O11 0.709300 0.407071 0.462990
O O12 0.073924 0.629579 0.539157
O O13 0.346048 0.682460 0.868513
O O14 0.784554 0.442492 0.881845
#
# Coordination Sequence:
#
# PCOD9138742 Si02
#       7
#     4   4   4   4   4   4   4
#     4  11  23  42  73 102 138 191 246 305 379 459
#     4  11  22  47  77 101 149 206 246 316 389 461
#     4  10  23  46  71  98 140 192 246 298 377 466
#     4  10  24  43  72 104 152 187 249 317 384 459
#     4  12  24  44  69 106 148 186 242 324 392 436
#     4  11  24  45  69 101 148 190 241 317 380 460
#     4  11  24  47  73 108 145 200 256 313 383 477
#
# _framework density 25.449280000000002
#
# number of rings (size 3 to 8) (size 9 to 14) (size 15 to 20)
#    0.000    1.143    2.857    3.429    0.000    6.857 
#    5.143    0.000    0.000    0.000    0.000    0.000 
#    0.000    0.000    0.000    0.000    0.000    0.000 
#
# Total GULP energy -78210.873868 kJ/mol
# GULP energy per Si atom -5586.490991 kJ/mol
# Density = 2.539136 g / cm^3
# Si number density = 25.449280 Si / 1000 Ang^3
#
#
#
# Elastic Constant Matrix: (Units=GPa)
#
#
# Indices 1 2 3 4 5 6 
#
# 1 79.1784 31.3954 25.7457 0.0000 -11.6945 0.0000
# 2 31.3954 116.0955 51.1296 0.0000 -10.1043 0.0000
# 3 25.7457 51.1296 123.0566 0.0000 -28.9905 0.0000
# 4 0.0000 0.0000 0.0000 45.5009 0.0000 -7.0265
# 5 -11.6945 -10.1043 -28.9905 0.0000 47.3189 0.0000
# 6 0.0000 0.0000 0.0000 -7.0265 0.0000 16.1704
#
#
#
# Elastic Compliance Matrix: (Units=1/GPa)
#
#
# Indices 1 2 3 4 5 6 
#
# 1 0.014626 -0.003237 -0.001200 0.000000 0.002189 0.000000
# 2 -0.003237 0.011269 -0.004239 0.000000 -0.000990 0.000000
# 3 -0.001200 -0.004239 0.011518 0.000000 0.005855 0.000000
# 4 0.000000 0.000000 0.000000 0.023558 0.000000 0.010237
# 5 0.002189 -0.000990 0.005855 0.000000 0.025050 0.000000
# 6 0.000000 0.000000 0.000000 0.010237 0.000000 0.066289
#
#
# Mechanical properties :
#
#
# Convention : Reuss Voigt Hill
#
# Bulk Modulus (GPa) = 49.84055 59.43021 54.63538
# Shear Modulus (GPa) = 28.35291 35.80203 32.07747
#
# Velocity S-wave (km/s) = 3.34143 3.75480 3.55413
# Velocity P-wave (km/s) = 5.87483 6.49624 6.19333
#
# Compressibility (1/GPa) = 0.02006398
#
# Stress axis : x y z
#
# Youngs Moduli (GPa) = 68.36950 88.73634 86.82233
#
# Poissons Ratio (x) = 0.28720 0.10416
# Poissons Ratio (y) = 0.22128 0.36800
# Poissons Ratio (z) = 0.08202 0.37611
#
# Static dielectric constant tensor:
#      x y z
#    x 2.104480 0.000000 -0.055020 
#    y 0.000000 1.965310 0.000000 
#    z -0.055020 0.000000 2.095210 
# 
# From -- ./inp_files/25745.got.cif
#   From: 2010.05.17/outbox.cif.g08.bks.cpg/sg9_13_cif.got.tgz:25745.got - 2010.06.03 20:04:27.
