data_PCOD9138033
_publ_section_title
;
Structure prediction by ZEFSAII (Michael W. Deem and Ramdas Pophale) SiO2 
 PCOD9138033
Probable space group: C C
;
_chemical_formula_sum "Si O2"
_cell_formula_units_Z 28
_cell_length_a 16.932698
_cell_length_b 4.721608
_cell_length_c 26.310631
_cell_angle_alpha 90.000000
_cell_angle_beta 151.352963
_cell_angle_gamma 90.000000
_cell_volume 1008.455380
_symmetry_space_group_name_H-M "C C"
_symmetry_group_IT_number 9
_symmetry_cell_setting 'monoclinic'
loop_
_space_group_symop_operation_xyz
x,y,z
x,-y,1/2+z
1/2+x,1/2+y,z
1/2+x,1/2-y,1/2+z
loop_
_atom_site_type_symbol
_atom_site_label
_atom_site_fract_x
_atom_site_fract_y
_atom_site_fract_z
Si Si1 0.599630 0.816933 0.192150
Si Si2 0.546725 0.785631 0.990541
Si Si3 0.820617 0.769628 0.230544
Si Si4 0.795649 0.113400 0.067464
Si Si5 0.960129 0.724962 0.760971
Si Si6 0.327363 0.322380 0.888343
Si Si7 0.301725 0.770208 0.962158
O O1 0.753358 0.693284 0.247701
O O2 0.483606 0.577881 0.152157
O O3 0.664360 0.052715 0.268158
O O4 0.470102 0.923640 0.075284
O O5 0.399692 0.002754 0.926380
O O6 0.466959 0.485514 0.934853
O O7 0.664390 0.886108 0.011871
O O8 0.668754 0.739454 0.106365
O O9 0.964407 0.587634 0.286147
O O10 0.870593 0.093659 0.253614
O O11 0.840803 0.278921 0.144445
O O12 0.724985 0.240888 0.976015
O O13 0.131201 0.871073 0.840369
O O14 0.334482 0.479764 0.948083
#
# Coordination Sequence:
#
# PCOD9138033 Si02
#       7
#     4   4   4   4   4   4   4
#     4  10  24  43  69 105 137 183 235 288 340 427
#     4  11  24  47  71  98 140 184 228 293 347 419
#     4  11  25  45  74  99 140 180 238 284 355 415
#     4   9  22  41  69  98 135 175 235 278 349 408
#     4  11  24  48  67 102 138 185 229 294 344 423
#     4  12  25  47  69 102 141 185 235 284 355 412
#     4  10  22  47  65 104 137 190 218 301 338 422
#
# _framework density 27.765235000000001
#
# number of rings (size 3 to 8) (size 9 to 14) (size 15 to 20)
#    0.857    0.571    2.857    1.714    4.000    1.143 
#    0.000   12.857    0.000    0.000    0.000    0.000 
#    0.000    0.000    0.000    0.000    0.000    0.000 
#
# Total GULP energy -77964.426028 kJ/mol
# GULP energy per Si atom -5568.887573 kJ/mol
# Density = 2.770204 g / cm^3
# Si number density = 27.765235 Si / 1000 Ang^3
#
#
#
# Elastic Constant Matrix: (Units=GPa)
#
#
# Indices 1 2 3 4 5 6 
#
# 1 126.4798 3.9988 3.0976 -0.0006 9.1867 0.0129
# 2 3.9988 78.4137 17.9363 -0.0089 6.0147 0.0372
# 3 3.0976 17.9363 159.7555 0.0028 -11.8108 0.0033
# 4 -0.0006 -0.0089 0.0028 31.2735 0.0006 3.1759
# 5 9.1867 6.0147 -11.8108 0.0006 51.0406 -0.0016
# 6 0.0129 0.0372 0.0033 3.1759 -0.0016 11.9452
#
#
#
# Elastic Compliance Matrix: (Units=1/GPa)
#
#
# Indices 1 2 3 4 5 6 
#
# 1 0.008027 -0.000242 -0.000237 0.000001 -0.001471 -0.000008
# 2 -0.000242 0.013283 -0.001627 0.000008 -0.001898 -0.000043
# 3 -0.000237 -0.001627 0.006577 -0.000001 0.001756 0.000004
# 4 0.000001 0.000008 -0.000001 0.032863 -0.000002 -0.008737
# 5 -0.001471 -0.001898 0.001756 -0.000002 0.020487 0.000010
# 6 -0.000008 -0.000043 0.000004 -0.008737 0.000010 0.086039
#
#
# Mechanical properties :
#
#
# Convention : Reuss Voigt Hill
#
# Bulk Modulus (GPa) = 42.24116 46.07939 44.16027
# Shear Modulus (GPa) = 27.87382 41.49294 34.68338
#
# Velocity S-wave (km/s) = 3.17189 3.86997 3.53819
# Velocity P-wave (km/s) = 5.35362 6.04987 5.71236
#
# Compressibility (1/GPa) = 0.02367359
#
# Stress axis : x y z
#
# Youngs Moduli (GPa) = 124.58392 75.28427 152.05263
#
# Poissons Ratio (x) = 0.01824 0.03607
# Poissons Ratio (y) = 0.03018 0.24738
# Poissons Ratio (z) = 0.02955 0.12248
#
# Static dielectric constant tensor:
#      x y z
#    x 2.221030 0.000000 -0.012580 
#    y 0.000000 2.123380 0.000000 
#    z -0.012580 0.000000 2.235500 
# 
# From -- ./inp_files/36820.got.cif
#   From: 2010.05.17/outbox.cif.g08.bks.cpg/sg9_19_cif.got.tgz:36820.got - 2010.06.03 20:04:27.
