data_PCOD9138932
_publ_section_title
;
Structure prediction by ZEFSAII (Michael W. Deem and Ramdas Pophale) SiO2 
 PCOD9138932
Probable space group: C C
;
_chemical_formula_sum "Si O2"
_cell_formula_units_Z 28
_cell_length_a 12.867892
_cell_length_b 11.630422
_cell_length_c 8.562092
_cell_angle_alpha 90.000000
_cell_angle_beta 61.588285
_cell_angle_gamma 90.000000
_cell_volume 1127.051984
_symmetry_space_group_name_H-M "C C"
_symmetry_group_IT_number 9
_symmetry_cell_setting 'monoclinic'
loop_
_space_group_symop_operation_xyz
x,y,z
x,-y,1/2+z
1/2+x,1/2+y,z
1/2+x,1/2-y,1/2+z
loop_
_atom_site_type_symbol
_atom_site_label
_atom_site_fract_x
_atom_site_fract_y
_atom_site_fract_z
Si Si1 0.781060 0.434252 0.046550
Si Si2 0.451281 0.733345 0.615939
Si Si3 0.330336 0.766448 0.272186
Si Si4 0.443369 0.398316 0.443385
Si Si5 0.139241 0.913575 0.841862
Si Si6 0.753294 0.900435 0.082700
Si Si7 0.990040 0.424965 0.384650
O O1 0.759864 0.346162 0.201722
O O2 0.716040 0.554140 0.137454
O O3 0.726792 0.396809 0.923311
O O4 0.920029 0.455590 0.940101
O O5 0.474113 0.675797 0.767079
O O6 0.547964 0.689571 0.418498
O O7 0.326833 0.678384 0.652675
O O8 0.467349 0.867516 0.571522
O O9 0.250435 0.682231 0.433993
O O10 0.414588 0.847158 0.316577
O O11 0.408588 0.683763 0.108617
O O12 0.550211 0.479108 0.420197
O O13 0.334116 0.487134 0.490452
O O14 0.625468 0.932703 0.238678
#
# Coordination Sequence:
#
# PCOD9138932 Si02
#       7
#     4   4   4   4   4   4   4
#     4  12  26  46  69 108 147 189 237 307 361 427
#     4  10  24  41  73 102 135 188 238 294 356 424
#     4  11  27  44  73 104 144 194 242 294 372 425
#     4  11  24  47  73 104 137 190 247 297 356 433
#     4  11  24  45  73  99 140 185 247 299 352 434
#     4  10  24  48  70 102 142 188 239 292 360 432
#     4  11  27  45  71 105 149 188 236 301 365 429
#
# _framework density 24.843575999999999
#
# number of rings (size 3 to 8) (size 9 to 14) (size 15 to 20)
#    0.000    1.143    2.857    1.714   12.000    2.286 
#    0.000    0.000    0.000    0.000    0.000    0.000 
#    0.000    0.000    0.000    0.000    0.000    0.000 
#
# Total GULP energy -78385.109944 kJ/mol
# GULP energy per Si atom -5598.936425 kJ/mol
# Density = 2.478703 g / cm^3
# Si number density = 24.843576 Si / 1000 Ang^3
#
#
#
# Elastic Constant Matrix: (Units=GPa)
#
#
# Indices 1 2 3 4 5 6 
#
# 1 95.0028 21.2706 32.4789 0.0000 -23.5226 0.0000
# 2 21.2706 68.5912 27.6255 0.0000 0.8404 0.0000
# 3 32.4789 27.6255 99.4173 0.0000 -10.5035 0.0000
# 4 0.0000 0.0000 0.0000 46.2597 0.0000 9.1605
# 5 -23.5226 0.8404 -10.5035 0.0000 55.6873 0.0000
# 6 0.0000 0.0000 0.0000 9.1605 0.0000 27.5741
#
#
#
# Elastic Compliance Matrix: (Units=1/GPa)
#
#
# Indices 1 2 3 4 5 6 
#
# 1 0.013526 -0.003039 -0.003026 0.000000 0.005188 0.000000
# 2 -0.003039 0.017169 -0.004021 0.000000 -0.002301 0.000000
# 3 -0.003026 -0.004021 0.012281 0.000000 0.001099 0.000000
# 4 0.000000 0.000000 0.000000 0.023139 0.000000 -0.007687
# 5 0.005188 -0.002301 0.001099 0.000000 0.020391 0.000000
# 6 0.000000 0.000000 0.000000 -0.007687 0.000000 0.038820
#
#
# Mechanical properties :
#
#
# Convention : Reuss Voigt Hill
#
# Bulk Modulus (GPa) = 43.85423 47.30679 45.58051
# Shear Modulus (GPa) = 32.65850 38.01330 35.33590
#
# Velocity S-wave (km/s) = 3.62963 3.91590 3.77548
# Velocity P-wave (km/s) = 5.93768 6.28720 6.11494
#
# Compressibility (1/GPa) = 0.02280282
#
# Stress axis : x y z
#
# Youngs Moduli (GPa) = 73.93366 58.24333 81.42877
#
# Poissons Ratio (x) = 0.17701 0.24641
# Poissons Ratio (y) = 0.22470 0.32744
# Poissons Ratio (z) = 0.22373 0.23421
#
# Static dielectric constant tensor:
#      x y z
#    x 1.948580 0.000000 -0.015040 
#    y 0.000000 2.030760 0.000000 
#    z -0.015040 0.000000 1.954370 
# 
# From -- ./inp_files/9215.got.cif
#   From: 2010.05.17/outbox.cif.g08.bks.cpg/sg9_5_cif.got.tgz:9215.got - 2010.06.03 20:04:27.
