data_PCOD9138240
_publ_section_title
;
Structure prediction by ZEFSAII (Michael W. Deem and Ramdas Pophale) SiO2 
 PCOD9138240
Probable space group: C C
;
_chemical_formula_sum "Si O2"
_cell_formula_units_Z 28
_cell_length_a 8.960529
_cell_length_b 18.308302
_cell_length_c 14.402141
_cell_angle_alpha 90.000000
_cell_angle_beta 31.770517
_cell_angle_gamma 90.000000
_cell_volume 1244.005562
_symmetry_space_group_name_H-M "C C"
_symmetry_group_IT_number 9
_symmetry_cell_setting 'monoclinic'
loop_
_space_group_symop_operation_xyz
x,y,z
x,-y,1/2+z
1/2+x,1/2+y,z
1/2+x,1/2-y,1/2+z
loop_
_atom_site_type_symbol
_atom_site_label
_atom_site_fract_x
_atom_site_fract_y
_atom_site_fract_z
Si Si1 0.373950 0.386507 0.733260
Si Si2 0.436480 0.754408 0.552150
Si Si3 0.490318 0.476307 0.854965
Si Si4 0.058316 0.405744 0.587743
Si Si5 0.874132 0.362862 0.890046
Si Si6 0.475020 0.828894 0.356882
Si Si7 0.872343 0.038952 0.633211
O O1 0.407618 0.417308 0.819675
O O2 0.646441 0.344027 0.548370
O O3 0.334722 0.459178 0.692220
O O4 0.086803 0.344427 0.860390
O O5 0.458124 0.835377 0.583265
O O6 0.646503 0.700701 0.494219
O O7 0.573689 0.769078 0.379545
O O8 0.140034 0.711581 0.686444
O O9 0.828477 0.469391 0.687614
O O10 0.380621 0.458173 0.016846
O O11 0.357205 0.556133 0.905389
O O12 0.032198 0.380085 0.708645
O O13 0.672581 0.432581 0.013102
O O14 0.625051 0.906299 0.293307
#
# Coordination Sequence:
#
# PCOD9138240 Si02
#       7
#     4   4   4   4   4   4   4
#     4  12  23  43  65 108 132 174 228 289 328 404
#     4  11  22  47  66  93 131 191 214 269 341 416
#     4  11  25  40  72  96 142 170 228 280 349 394
#     4  11  22  45  65  98 132 179 216 282 333 404
#     4  10  23  41  69  94 135 171 230 270 336 396
#     4  11  24  41  72  91 135 176 228 270 340 405
#     4  10  23  43  67 100 135 181 216 288 333 407
#
# _framework density 22.507937999999999
#
# number of rings (size 3 to 8) (size 9 to 14) (size 15 to 20)
#    0.000    1.143    4.286    1.714    4.000    0.000 
#    2.571    1.429    0.000    0.000    0.000    0.000 
#    0.000    0.000    0.000    0.000    0.000    0.000 
#
# Total GULP energy -78070.231455 kJ/mol
# GULP energy per Si atom -5576.445104 kJ/mol
# Density = 2.245671 g / cm^3
# Si number density = 22.507938 Si / 1000 Ang^3
#
#
#
# Elastic Constant Matrix: (Units=GPa)
#
#
# Indices 1 2 3 4 5 6 
#
# 1 85.5397 0.8278 26.5848 0.0029 -11.8959 0.0057
# 2 0.8278 90.5502 31.3546 0.0019 -14.6443 -0.0016
# 3 26.5848 31.3546 55.8335 -0.0270 -12.6955 0.0042
# 4 0.0029 0.0019 -0.0270 44.3531 0.0156 3.3858
# 5 -11.8959 -14.6443 -12.6955 0.0156 25.8923 0.0006
# 6 0.0057 -0.0016 0.0042 3.3858 0.0006 9.6698
#
#
#
# Elastic Compliance Matrix: (Units=1/GPa)
#
#
# Indices 1 2 3 4 5 6 
#
# 1 0.014759 0.003353 -0.007808 -0.000007 0.004849 -0.000002
# 2 0.003353 0.014949 -0.008687 -0.000009 0.005736 0.000007
# 3 -0.007808 -0.008687 0.027657 0.000017 0.005060 -0.000015
# 4 -0.000007 -0.000009 0.000017 0.023166 -0.000014 -0.008111
# 5 0.004849 0.005736 0.005060 -0.000014 0.046575 -0.000002
# 6 -0.000002 0.000007 -0.000015 -0.008111 -0.000002 0.106254
#
#
# Mechanical properties :
#
#
# Convention : Reuss Voigt Hill
#
# Bulk Modulus (GPa) = 32.17419 38.82865 35.50142
# Shear Modulus (GPa) = 18.51834 27.52680 23.02257
#
# Velocity S-wave (km/s) = 2.87147 3.50091 3.20169
# Velocity P-wave (km/s) = 5.03184 5.79917 5.42908
#
# Compressibility (1/GPa) = 0.03108081
#
# Stress axis : x y z
#
# Youngs Moduli (GPa) = 67.75576 66.89608 36.15729
#
# Poissons Ratio (x) = -0.22429 0.28230
# Poissons Ratio (y) = -0.22717 0.31410
# Poissons Ratio (z) = 0.52901 0.58112
#
# Static dielectric constant tensor:
#      x y z
#    x 1.897990 0.000010 0.017120 
#    y 0.000010 1.836470 0.000040 
#    z 0.017120 0.000040 1.873170 
# 
# From -- ./inp_files/5656.got.cif
#   From: 2010.05.17/outbox.cif.g08.bks.cpg/sg9_3_cif.got.tgz:5656.got - 2010.06.03 20:04:27.
