data_PCOD9138039
_publ_section_title
;
Structure prediction by ZEFSAII (Michael W. Deem and Ramdas Pophale) SiO2 
 PCOD9138039
Probable space group: C C
;
_chemical_formula_sum "Si O2"
_cell_formula_units_Z 32
_cell_length_a 7.804748
_cell_length_b 13.413121
_cell_length_c 15.873661
_cell_angle_alpha 90.000000
_cell_angle_beta 128.062446
_cell_angle_gamma 90.000000
_cell_volume 1308.361480
_symmetry_space_group_name_H-M "C C"
_symmetry_group_IT_number 9
_symmetry_cell_setting 'monoclinic'
loop_
_space_group_symop_operation_xyz
x,y,z
x,-y,1/2+z
1/2+x,1/2+y,z
1/2+x,1/2-y,1/2+z
loop_
_atom_site_type_symbol
_atom_site_label
_atom_site_fract_x
_atom_site_fract_y
_atom_site_fract_z
Si Si1 0.727730 0.626949 0.091720
Si Si2 0.216622 0.568335 0.510088
Si Si3 0.580445 0.262250 0.125709
Si Si4 0.751787 0.577705 0.284672
Si Si5 0.647260 0.399070 0.374498
Si Si6 0.534027 0.780303 0.281690
Si Si7 0.194783 0.334397 0.170240
Si Si8 0.650306 0.846346 0.488853
O O1 0.741828 0.560168 0.180569
O O2 0.637666 0.732262 0.103064
O O3 0.964181 0.668424 0.133637
O O4 0.626040 0.591067 0.971019
O O5 0.407386 0.650035 0.555587
O O6 0.152369 0.582531 0.588043
O O7 0.006210 0.586847 0.388201
O O8 0.270720 0.451932 0.520522
O O9 0.789954 0.291871 0.241868
O O10 0.706873 0.228289 0.080034
O O11 0.643662 0.496418 0.313695
O O12 0.625735 0.678313 0.270820
O O13 0.448212 0.332697 0.277894
O O14 0.895351 0.363736 0.435443
O O15 0.571012 0.858022 0.218208
O O16 0.675627 0.799657 0.406142
#
# Coordination Sequence:
#
# PCOD9138039 Si02
#       8
#     4   4   4   4   4   4   4   4
#     4   9  21  42  76  96 139 199 237 293 387 428
#     4  10  23  46  67 100 140 198 243 302 369 447
#     4  10  23  42  74  99 147 188 243 303 371 441
#     4  10  24  44  74 105 146 187 248 306 373 450
#     4  10  22  47  68 107 140 191 245 307 363 457
#     4  11  25  42  68 107 140 188 239 304 370 447
#     4  10  23  41  73  96 146 187 242 301 376 435
#     4  10  23  44  68 102 140 184 251 292 369 443
#
# _framework density 24.458074
#
# number of rings (size 3 to 8) (size 9 to 14) (size 15 to 20)
#    0.000    2.000    0.000    1.500   15.750    1.000 
#   15.750    2.500    0.000    0.000    0.000    0.000 
#    0.000    0.000    0.000    0.000    0.000    0.000 
#
# Total GULP energy -89280.659048 kJ/mol
# GULP energy per Si atom -5580.041191 kJ/mol
# Density = 2.440241 g / cm^3
# Si number density = 24.458074 Si / 1000 Ang^3
#
#
#
# Elastic Constant Matrix: (Units=GPa)
#
#
# Indices 1 2 3 4 5 6 
#
# 1 114.8623 32.3174 67.8216 0.0000 -11.3648 0.0000
# 2 32.3174 65.3821 43.4171 0.0000 -6.4919 0.0000
# 3 67.8216 43.4171 175.7213 0.0000 -24.4632 0.0000
# 4 0.0000 0.0000 0.0000 -43.2726 0.0000 -57.7515
# 5 -11.3648 -6.4919 -24.4632 0.0000 67.0133 0.0000
# 6 0.0000 0.0000 0.0000 -57.7515 0.0000 -19.3848
#
#
#
# Elastic Compliance Matrix: (Units=1/GPa)
#
#
# Indices 1 2 3 4 5 6 
#
# 1 0.011876 -0.003378 -0.003702 0.000000 0.000335 0.000000
# 2 -0.003378 0.019259 -0.003450 0.000000 0.000033 0.000000
# 3 -0.003702 -0.003450 0.008258 0.000000 0.002052 0.000000
# 4 0.000000 0.000000 0.000000 0.007765 0.000000 -0.023134
# 5 0.000335 0.000033 0.002052 0.000000 0.015732 0.000000
# 6 0.000000 0.000000 0.000000 -0.023134 0.000000 0.017334
#
#
# Mechanical properties :
#
#
# Convention : Reuss Voigt Hill
#
# Bulk Modulus (GPa) = 54.55053 71.45309 63.00181
# Shear Modulus (GPa) = 46.55731 15.03182 30.79457
#
# Velocity S-wave (km/s) = 4.36771 2.48179 3.55220
# Velocity P-wave (km/s) = 6.91288 6.12294 6.52987
#
# Compressibility (1/GPa) = 0.01833163
#
# Stress axis : x y z
#
# Youngs Moduli (GPa) = 84.20513 51.92438 121.09648
#
# Poissons Ratio (x) = 0.17541 0.44832
# Poissons Ratio (y) = 0.28447 0.41777
# Poissons Ratio (z) = 0.31175 0.17913
#
# Static dielectric constant tensor:
#      x y z
#    x 2.000620 0.000000 -0.037550 
#    y 0.000000 2.339590 0.000000 
#    z -0.037550 0.000000 2.039920 
# 
# From -- ./inp_files/23443.got.cif
#   From: 2010.05.17/outbox.cif.g08.bks.cpg/sg9_12_cif.got.tgz:23443.got - 2010.06.03 20:04:27.
