data_PCOD9138956
_publ_section_title
;
Structure prediction by ZEFSAII (Michael W. Deem and Ramdas Pophale) SiO2 
 PCOD9138956
Probable space group: C C
;
_chemical_formula_sum "Si O2"
_cell_formula_units_Z 32
_cell_length_a 15.012003
_cell_length_b 9.949526
_cell_length_c 18.269481
_cell_angle_alpha 90.000000
_cell_angle_beta 31.652225
_cell_angle_gamma 90.000000
_cell_volume 1431.955929
_symmetry_space_group_name_H-M "C C"
_symmetry_group_IT_number 9
_symmetry_cell_setting 'monoclinic'
loop_
_space_group_symop_operation_xyz
x,y,z
x,-y,1/2+z
1/2+x,1/2+y,z
1/2+x,1/2-y,1/2+z
loop_
_atom_site_type_symbol
_atom_site_label
_atom_site_fract_x
_atom_site_fract_y
_atom_site_fract_z
Si Si1 0.041180 0.066316 0.852470
Si Si2 0.359258 0.873487 0.745004
Si Si3 0.227498 0.415885 0.111011
Si Si4 0.930236 0.314752 0.221731
Si Si5 0.558414 0.724476 0.988193
Si Si6 0.472858 0.147500 0.328988
Si Si7 0.884952 0.476320 0.032147
Si Si8 0.993390 0.750465 0.007877
O O1 0.042278 0.110134 0.937593
O O2 0.023527 0.208466 0.823967
O O3 0.214363 0.006447 0.698993
O O4 0.878390 0.972685 0.953870
O O5 0.398706 0.834910 0.800734
O O6 0.473877 0.797296 0.605303
O O7 0.163411 0.832152 0.871838
O O8 0.404220 0.031922 0.710999
O O9 0.131189 0.546316 0.209666
O O10 0.088974 0.326312 0.165108
O O11 0.327642 0.334717 0.102237
O O12 0.751702 0.273531 0.380815
O O13 0.951239 0.218015 0.137162
O O14 0.498336 0.860086 0.989924
O O15 0.351658 0.075318 0.473208
O O16 0.983895 0.615840 0.965777
#
# Coordination Sequence:
#
# PCOD9138956 Si02
#       8
#     4   4   4   4   4   4   4   4
#     4  11  23  42  74 102 137 177 238 287 355 415
#     4  11  26  44  68  99 139 177 237 282 345 421
#     4  11  26  44  67 102 143 183 226 294 354 421
#     4  11  25  46  68 102 142 176 239 289 346 415
#     4  11  21  43  71 102 135 183 228 294 338 420
#     4  10  24  42  69 103 136 181 236 290 344 421
#     4  11  23  41  71 103 138 183 231 281 361 416
#     4  12  24  46  68  97 144 184 221 291 357 415
#
# _framework density 22.347057
#
# number of rings (size 3 to 8) (size 9 to 14) (size 15 to 20)
#    0.000    1.000    2.500    3.750    7.000    4.000 
#    2.250    0.000    0.000    0.000    0.000    0.000 
#    0.000    0.000    0.000    0.000    0.000    0.000 
#
# Total GULP energy -89459.121990 kJ/mol
# GULP energy per Si atom -5591.195124 kJ/mol
# Density = 2.229619 g / cm^3
# Si number density = 22.347057 Si / 1000 Ang^3
#
#
#
# Elastic Constant Matrix: (Units=GPa)
#
#
# Indices 1 2 3 4 5 6 
#
# 1 58.6405 -3.0102 9.4818 0.0000 11.3905 0.0000
# 2 -3.0102 43.9085 9.7610 0.0000 5.2578 0.0000
# 3 9.4818 9.7610 90.9951 -0.0007 -3.5608 0.0003
# 4 0.0000 0.0000 -0.0007 30.2900 0.0002 1.3322
# 5 11.3905 5.2578 -3.5608 0.0002 35.2389 -0.0001
# 6 0.0000 0.0000 0.0003 1.3322 -0.0001 22.6326
#
#
#
# Elastic Compliance Matrix: (Units=1/GPa)
#
#
# Indices 1 2 3 4 5 6 
#
# 1 0.018912 0.002667 -0.002521 0.000000 -0.006766 0.000000
# 2 0.002667 0.024211 -0.003062 0.000000 -0.004784 0.000000
# 3 -0.002521 -0.003062 0.011677 0.000000 0.002452 0.000000
# 4 0.000000 0.000000 0.000000 0.033100 0.000000 -0.001948
# 5 -0.006766 -0.004784 0.002452 0.000000 0.031526 0.000000
# 6 0.000000 0.000000 0.000000 -0.001948 0.000000 0.044299
#
#
# Mechanical properties :
#
#
# Convention : Reuss Voigt Hill
#
# Bulk Modulus (GPa) = 20.42201 25.11211 22.76706
# Shear Modulus (GPa) = 26.89911 29.45308 28.17610
#
# Velocity S-wave (km/s) = 3.47320 3.63434 3.55469
# Velocity P-wave (km/s) = 5.02420 5.37336 5.20171
#
# Compressibility (1/GPa) = 0.04896677
#
# Stress axis : x y z
#
# Youngs Moduli (GPa) = 52.87678 41.30336 85.64011
#
# Poissons Ratio (x) = -0.11017 0.21594
# Poissons Ratio (y) = -0.14103 0.26225
# Poissons Ratio (z) = 0.13333 0.12648
#
# Static dielectric constant tensor:
#      x y z
#    x 1.857440 0.000000 0.002930 
#    y 0.000000 1.801830 0.000000 
#    z 0.002930 0.000000 1.826500 
# 
# From -- ./inp_files/30710.got.cif
#   From: 2010.05.17/outbox.cif.g08.bks.cpg/sg9_16_cif.got.tgz:30710.got - 2010.06.03 20:04:27.
