data_PCOD9138344
_publ_section_title
;
Structure prediction by ZEFSAII (Michael W. Deem and Ramdas Pophale) SiO2 
 PCOD9138344
Probable space group: C C
;
_chemical_formula_sum "Si O2"
_cell_formula_units_Z 28
_cell_length_a 22.680482
_cell_length_b 8.142184
_cell_length_c 10.148530
_cell_angle_alpha 90.000000
_cell_angle_beta 145.992750
_cell_angle_gamma 90.000000
_cell_volume 1048.188632
_symmetry_space_group_name_H-M "C C"
_symmetry_group_IT_number 9
_symmetry_cell_setting 'monoclinic'
loop_
_space_group_symop_operation_xyz
x,y,z
x,-y,1/2+z
1/2+x,1/2+y,z
1/2+x,1/2-y,1/2+z
loop_
_atom_site_type_symbol
_atom_site_label
_atom_site_fract_x
_atom_site_fract_y
_atom_site_fract_z
Si Si1 0.181140 0.262264 0.929650
Si Si2 0.320719 0.903111 0.499639
Si Si3 0.170609 0.819200 0.008040
Si Si4 0.395109 0.455185 0.054130
Si Si5 0.232574 0.401572 0.418567
Si Si6 0.560432 0.980124 0.912823
Si Si7 0.523842 0.530438 0.543942
O O1 0.243143 0.426558 0.011461
O O2 0.105676 0.327232 0.908248
O O3 0.089022 0.198371 0.661716
O O4 0.271362 0.125467 0.054828
O O5 0.225150 0.938309 0.218289
O O6 0.346686 0.720095 0.496963
O O7 0.433396 0.992615 0.691167
O O8 0.251358 0.748693 0.048243
O O9 0.114534 0.650490 0.960337
O O10 0.091288 0.910920 0.762769
O O11 0.488734 0.480143 0.334049
O O12 0.426803 0.451986 0.962594
O O13 0.310020 0.593460 0.937359
O O14 0.112242 0.423444 0.146442
#
# Coordination Sequence:
#
# PCOD9138344 Si02
#       7
#     4   4   4   4   4   4   4
#     4  10  23  42  71  95 140 176 237 297 351 434
#     4  11  22  46  70 102 143 188 241 297 360 437
#     4  11  24  45  66 104 142 180 242 300 360 441
#     4  11  23  41  75  97 135 186 237 288 370 434
#     4  10  23  44  70  96 135 184 239 288 364 443
#     4  11  22  45  73  99 140 194 233 300 365 433
#     4  12  25  45  69 105 141 184 237 306 370 426
#
# _framework density 26.712751000000001
#
# number of rings (size 3 to 8) (size 9 to 14) (size 15 to 20)
#    0.000    1.143    4.286    2.571    4.000    0.000 
#   12.857    0.000    0.000    0.000    0.000    0.000 
#    0.000    0.000    0.000    0.000    0.000    0.000 
#
# Total GULP energy -78018.236548 kJ/mol
# GULP energy per Si atom -5572.731182 kJ/mol
# Density = 2.665195 g / cm^3
# Si number density = 26.712751 Si / 1000 Ang^3
#
#
#
# Elastic Constant Matrix: (Units=GPa)
#
#
# Indices 1 2 3 4 5 6 
#
# 1 133.4032 25.9852 18.2786 0.0000 16.0951 0.0000
# 2 25.9852 58.5763 19.3709 0.0000 -4.1156 0.0000
# 3 18.2786 19.3709 157.9459 0.0000 7.6136 0.0000
# 4 0.0000 0.0000 0.0000 41.8283 0.0000 5.1177
# 5 16.0951 -4.1156 7.6136 0.0000 49.2942 0.0000
# 6 0.0000 0.0000 0.0000 5.1177 0.0000 27.1518
#
#
#
# Elastic Compliance Matrix: (Units=1/GPa)
#
#
# Indices 1 2 3 4 5 6 
#
# 1 0.008692 -0.003952 -0.000371 0.000000 -0.003111 0.000000
# 2 -0.003952 0.019756 -0.002123 0.000000 0.003268 0.000000
# 3 -0.000371 -0.002123 0.006687 0.000000 -0.001089 0.000000
# 4 0.000000 0.000000 0.000000 0.024472 0.000000 -0.004613
# 5 -0.003111 0.003268 -0.001089 0.000000 0.021743 0.000000
# 6 0.000000 0.000000 0.000000 -0.004613 0.000000 0.037699
#
#
# Mechanical properties :
#
#
# Convention : Reuss Voigt Hill
#
# Bulk Modulus (GPa) = 44.95738 53.02166 48.98952
# Shear Modulus (GPa) = 35.87930 42.74092 39.31011
#
# Velocity S-wave (km/s) = 3.66888 4.00436 3.84029
# Velocity P-wave (km/s) = 5.90034 6.42431 6.16790
#
# Compressibility (1/GPa) = 0.02224329
#
# Stress axis : x y z
#
# Youngs Moduli (GPa) = 115.04880 50.61637 149.54089
#
# Poissons Ratio (x) = 0.20002 0.05553
# Poissons Ratio (y) = 0.45463 0.31750
# Poissons Ratio (z) = 0.04272 0.10747
#
# Static dielectric constant tensor:
#      x y z
#    x 2.209870 0.000000 0.060950 
#    y 0.000000 2.173710 0.000000 
#    z 0.060950 0.000000 2.294760 
# 
# From -- ./inp_files/15946.got.cif
#   From: 2010.05.17/outbox.cif.g08.bks.cpg/sg9_8_cif.got.tgz:15946.got - 2010.06.03 20:04:27.
