data_PCOD9138235
_publ_section_title
;
Structure prediction by ZEFSAII (Michael W. Deem and Ramdas Pophale) SiO2 
 PCOD9138235
Probable space group: C C
;
_chemical_formula_sum "Si O2"
_cell_formula_units_Z 32
_cell_length_a 17.839749
_cell_length_b 6.593036
_cell_length_c 14.019744
_cell_angle_alpha 90.000000
_cell_angle_beta 56.424869
_cell_angle_gamma 90.000000
_cell_volume 1373.862882
_symmetry_space_group_name_H-M "C C"
_symmetry_group_IT_number 9
_symmetry_cell_setting 'monoclinic'
loop_
_space_group_symop_operation_xyz
x,y,z
x,-y,1/2+z
1/2+x,1/2+y,z
1/2+x,1/2-y,1/2+z
loop_
_atom_site_type_symbol
_atom_site_label
_atom_site_fract_x
_atom_site_fract_y
_atom_site_fract_z
Si Si1 0.436090 0.354497 0.216100
Si Si2 0.618242 0.243368 0.828032
Si Si3 0.525432 0.997495 0.743897
Si Si4 0.862497 0.706185 0.973440
Si Si5 0.775199 0.170135 0.356919
Si Si6 0.307654 0.047663 0.205078
Si Si7 0.065197 0.420998 0.998646
Si Si8 0.482087 0.534608 0.984630
O O1 0.353840 0.499804 0.306553
O O2 0.385396 0.162621 0.206415
O O3 0.484383 0.472049 0.095796
O O4 0.501001 0.241316 0.246485
O O5 0.608144 0.079592 0.750564
O O6 0.718460 0.314140 0.778879
O O7 0.562503 0.141241 0.953573
O O8 0.562034 0.450337 0.861045
O O9 0.442345 0.111264 0.853700
O O10 0.542613 0.079507 0.625496
O O11 0.781464 0.733765 0.957297
O O12 0.832878 0.554896 0.077088
O O13 0.895660 0.917133 0.000711
O O14 0.798833 0.328672 0.257406
O O15 0.671707 0.119062 0.412189
O O16 0.001577 0.272883 0.982515
#
# Coordination Sequence:
#
# PCOD9138235 Si02
#       8
#     4   4   4   4   4   4   4   4
#     4  11  23  42  67 101 139 188 236 291 358 422
#     4  11  23  45  67 101 142 183 233 298 357 428
#     4  11  24  43  71 102 142 184 240 297 351 431
#     4  10  24  43  70 104 137 187 237 297 352 430
#     4  12  24  43  72 103 142 188 233 297 366 428
#     4  11  23  47  65 102 148 181 237 294 359 431
#     4  12  24  44  70 101 141 191 234 292 369 424
#     4  10  23  41  68  96 139 184 236 288 350 430
#
# _framework density 23.291989000000001
#
# number of rings (size 3 to 8) (size 9 to 14) (size 15 to 20)
#    0.000    1.000    5.000    1.500    1.750    0.000 
#    2.250    1.250    0.000    0.000    0.000    0.000 
#    0.000    0.000    0.000    0.000    0.000    0.000 
#
# Total GULP energy -89315.257277 kJ/mol
# GULP energy per Si atom -5582.203580 kJ/mol
# Density = 2.323898 g / cm^3
# Si number density = 23.291989 Si / 1000 Ang^3
#
#
#
# Elastic Constant Matrix: (Units=GPa)
#
#
# Indices 1 2 3 4 5 6 
#
# 1 71.2542 17.9416 8.1567 0.0001 5.5806 0.0002
# 2 17.9416 72.7064 37.6950 0.0001 -6.4842 0.0004
# 3 8.1567 37.6950 111.6436 0.0001 13.4883 0.0000
# 4 0.0001 0.0001 0.0001 25.4850 0.0000 -2.7835
# 5 5.5806 -6.4842 13.4883 0.0000 35.4969 0.0000
# 6 0.0002 0.0004 0.0000 -2.7835 0.0000 40.1958
#
#
#
# Elastic Compliance Matrix: (Units=1/GPa)
#
#
# Indices 1 2 3 4 5 6 
#
# 1 0.015362 -0.004546 0.000843 0.000000 -0.003566 0.000000
# 2 -0.004546 0.019082 -0.006936 0.000000 0.006836 0.000000
# 3 0.000843 -0.006936 0.011955 0.000000 -0.005943 0.000000
# 4 0.000000 0.000000 0.000000 0.039538 0.000000 0.002738
# 5 -0.003566 0.006836 -0.005943 0.000000 0.032239 0.000000
# 6 0.000000 0.000000 0.000000 0.002738 0.000000 0.025068
#
#
# Mechanical properties :
#
#
# Convention : Reuss Voigt Hill
#
# Bulk Modulus (GPa) = 39.80803 42.57677 41.19240
# Shear Modulus (GPa) = 28.91928 33.02295 30.97111
#
# Velocity S-wave (km/s) = 3.52745 3.76943 3.65045
# Velocity P-wave (km/s) = 5.80677 6.10443 5.95746
#
# Compressibility (1/GPa) = 0.02512056
#
# Stress axis : x y z
#
# Youngs Moduli (GPa) = 65.09705 52.40623 83.64407
#
# Poissons Ratio (x) = 0.23824 -0.07055
# Poissons Ratio (y) = 0.29594 0.58019
# Poissons Ratio (z) = -0.05491 0.36351
#
# Static dielectric constant tensor:
#      x y z
#    x 1.892120 0.000000 0.017470 
#    y 0.000000 1.940250 0.000000 
#    z 0.017470 0.000000 1.882410 
# 
# From -- ./inp_files/26443.got.cif
#   From: 2010.05.17/outbox.cif.g08.bks.cpg/sg9_14_cif.got.tgz:26443.got - 2010.06.03 20:04:27.
