data_PCOD9138888
_publ_section_title
;
Structure prediction by ZEFSAII (Michael W. Deem and Ramdas Pophale) SiO2 
 PCOD9138888
Probable space group: C C
;
_chemical_formula_sum "Si O2"
_cell_formula_units_Z 28
_cell_length_a 9.211025
_cell_length_b 5.121035
_cell_length_c 30.047961
_cell_angle_alpha 90.000000
_cell_angle_beta 60.673850
_cell_angle_gamma 90.000000
_cell_volume 1235.720936
_symmetry_space_group_name_H-M "C C"
_symmetry_group_IT_number 9
_symmetry_cell_setting 'monoclinic'
loop_
_space_group_symop_operation_xyz
x,y,z
x,-y,1/2+z
1/2+x,1/2+y,z
1/2+x,1/2-y,1/2+z
loop_
_atom_site_type_symbol
_atom_site_label
_atom_site_fract_x
_atom_site_fract_y
_atom_site_fract_z
Si Si1 0.637850 0.609838 0.708910
Si Si2 0.830884 0.745650 0.297246
Si Si3 0.760807 0.589681 0.951979
Si Si4 0.652497 0.912066 0.414267
Si Si5 0.869118 0.240412 0.239486
Si Si6 0.653642 0.779344 0.609629
Si Si7 0.543417 0.717420 0.070984
O O1 0.792469 0.041254 0.764514
O O2 0.821093 0.659089 0.698204
O O3 0.566771 0.320370 0.712858
O O4 0.600619 0.758950 0.669196
O O5 0.741347 0.820753 0.355509
O O6 0.809889 0.453168 0.283871
O O7 0.029733 0.788555 0.267103
O O8 0.690812 0.315137 0.944248
O O9 0.955806 0.563725 0.934390
O O10 0.728473 0.815513 0.920205
O O11 0.660031 0.677604 0.010540
O O12 0.565289 0.542270 0.597148
O O13 0.854131 0.743522 0.582600
O O14 0.609129 0.039324 0.589761
#
# Coordination Sequence:
#
# PCOD9138888 Si02
#       7
#     4   4   4   4   4   4   4
#     4  10  26  40  66  95 135 173 221 266 328 395
#     4  10  26  40  66  95 137 171 220 268 325 399
#     4  12  26  47  71 100 135 174 228 285 336 402
#     4  12  26  43  74 100 135 179 225 272 346 397
#     4  10  24  39  64  88 140 168 217 265 321 382
#     4  12  26  43  74  98 137 177 227 273 344 400
#     4  12  26  48  69 102 133 176 226 287 338 395
#
# _framework density 22.658836999999998
#
# number of rings (size 3 to 8) (size 9 to 14) (size 15 to 20)
#    0.857    0.000    0.000    6.000   10.000    0.000 
#    0.000    0.000    0.000    0.000    0.000    0.000 
#    0.000    0.000    0.000    0.000    0.000    0.000 
#
# Total GULP energy -78241.097440 kJ/mol
# GULP energy per Si atom -5588.649817 kJ/mol
# Density = 2.260726 g / cm^3
# Si number density = 22.658837 Si / 1000 Ang^3
#
#
#
# Elastic Constant Matrix: (Units=GPa)
#
#
# Indices 1 2 3 4 5 6 
#
# 1 114.4113 19.4265 9.5453 0.0000 4.8185 0.0000
# 2 19.4265 88.1193 -22.1625 -0.0001 14.6427 0.0000
# 3 9.5453 -22.1625 60.6355 -0.0001 -7.5580 0.0000
# 4 0.0000 -0.0001 -0.0001 28.7066 0.0000 8.1617
# 5 4.8185 14.6427 -7.5580 0.0000 27.9146 0.0000
# 6 0.0000 0.0000 0.0000 8.1617 0.0000 35.8975
#
#
#
# Elastic Compliance Matrix: (Units=1/GPa)
#
#
# Indices 1 2 3 4 5 6 
#
# 1 0.009427 -0.002555 -0.002539 0.000000 -0.000975 0.000000
# 2 -0.002555 0.014064 0.004841 0.000000 -0.005625 0.000000
# 3 -0.002539 0.004841 0.019042 0.000000 0.003054 0.000000
# 4 0.000000 0.000000 0.000000 0.037243 0.000000 -0.008467
# 5 -0.000975 -0.005625 0.003054 0.000000 0.039770 0.000000
# 6 0.000000 0.000000 0.000000 -0.008467 0.000000 0.029782
#
#
# Mechanical properties :
#
#
# Convention : Reuss Voigt Hill
#
# Bulk Modulus (GPa) = 23.79407 30.75385 27.27396
# Shear Modulus (GPa) = 30.51712 35.59420 33.05566
#
# Velocity S-wave (km/s) = 3.67387 3.96773 3.82362
# Velocity P-wave (km/s) = 5.34043 5.88154 5.61751
#
# Compressibility (1/GPa) = 0.04202729
#
# Stress axis : x y z
#
# Youngs Moduli (GPa) = 106.07684 71.10375 52.51541
#
# Poissons Ratio (x) = 0.18167 0.13336
# Poissons Ratio (y) = 0.27103 -0.25425
# Poissons Ratio (z) = 0.26937 -0.34425
#
# Static dielectric constant tensor:
#      x y z
#    x 1.899340 0.000000 -0.024520 
#    y 0.000000 1.835090 0.000000 
#    z -0.024520 0.000000 1.830340 
# 
# From -- ./inp_files/37114.got.cif
#   From: 2010.05.17/outbox.cif.g08.bks.cpg/sg9_19_cif.got.tgz:37114.got - 2010.06.03 20:04:27.
