data_PCOD9138764
_publ_section_title
;
Structure prediction by ZEFSAII (Michael W. Deem and Ramdas Pophale) SiO2 
 PCOD9138764
Probable space group: C C
;
_chemical_formula_sum "Si O2"
_cell_formula_units_Z 32
_cell_length_a 13.723791
_cell_length_b 9.348681
_cell_length_c 10.547142
_cell_angle_alpha 90.000000
_cell_angle_beta 112.563469
_cell_angle_gamma 90.000000
_cell_volume 1249.611434
_symmetry_space_group_name_H-M "C C"
_symmetry_group_IT_number 9
_symmetry_cell_setting 'monoclinic'
loop_
_space_group_symop_operation_xyz
x,y,z
x,-y,1/2+z
1/2+x,1/2+y,z
1/2+x,1/2-y,1/2+z
loop_
_atom_site_type_symbol
_atom_site_label
_atom_site_fract_x
_atom_site_fract_y
_atom_site_fract_z
Si Si1 0.122730 0.298559 0.119740
Si Si2 0.791141 0.757173 0.386521
Si Si3 0.995659 0.215711 0.452291
Si Si4 0.149179 0.803424 0.247947
Si Si5 0.839325 0.554900 0.998388
Si Si6 0.189570 0.540222 0.432903
Si Si7 0.478550 0.060309 0.741821
Si Si8 0.485457 0.607910 0.868570
O O1 0.182974 0.220753 0.262590
O O2 0.046726 0.413736 0.148523
O O3 0.207320 0.373509 0.069646
O O4 0.062639 0.184155 0.007286
O O5 0.838862 0.616355 0.471459
O O6 0.876037 0.813661 0.330392
O O7 0.756913 0.896968 0.452150
O O8 0.923396 0.322694 0.500110
O O9 0.970976 0.286683 0.302845
O O10 0.110963 0.208784 0.581811
O O11 0.970086 0.052089 0.410734
O O12 0.191383 0.647115 0.314026
O O13 0.042224 0.861047 0.263488
O O14 0.237770 0.898266 0.364881
O O15 0.873862 0.531486 0.164312
O O16 0.062993 0.512644 0.377273
#
# Coordination Sequence:
#
# PCOD9138764 Si02
#       8
#     4   4   4   4   4   4   4   4
#     4  10  23  48  74 108 152 199 265 323 400 471
#     4  11  25  44  77 107 148 200 263 317 395 474
#     4  12  28  46  78 110 166 204 268 331 410 473
#     4  11  27  48  75 113 154 206 265 329 400 478
#     4  12  26  49  76 117 150 204 267 323 396 476
#     4  10  23  46  74 104 150 205 249 322 393 478
#     4  11  24  45  79 109 153 203 254 330 392 480
#     4  11  26  46  73 110 153 207 257 329 390 480
#
# _framework density 25.607959999999999
#
# number of rings (size 3 to 8) (size 9 to 14) (size 15 to 20)
#    0.000    1.000    2.500    2.250    8.750    7.000 
#    0.000    0.000    0.000    0.000    0.000    0.000 
#    0.000    0.000    0.000    0.000    0.000    0.000 
#
# Total GULP energy -89165.683072 kJ/mol
# GULP energy per Si atom -5572.855192 kJ/mol
# Density = 2.554967 g / cm^3
# Si number density = 25.607960 Si / 1000 Ang^3
#
#
#
# Elastic Constant Matrix: (Units=GPa)
#
#
# Indices 1 2 3 4 5 6 
#
# 1 56.2956 33.0253 33.8626 0.0000 15.4705 0.0000
# 2 33.0253 183.6621 46.0385 0.0000 7.4489 0.0000
# 3 33.8626 46.0385 80.2221 0.0000 2.7957 0.0000
# 4 0.0000 0.0000 0.0000 42.0692 0.0000 6.0037
# 5 15.4705 7.4489 2.7957 0.0000 34.9109 0.0000
# 6 0.0000 0.0000 0.0000 6.0037 0.0000 24.0587
#
#
#
# Elastic Compliance Matrix: (Units=1/GPa)
#
#
# Indices 1 2 3 4 5 6 
#
# 1 0.028301 -0.002027 -0.010390 0.000000 -0.011277 0.000000
# 2 -0.002027 0.006545 -0.002891 0.000000 -0.000267 0.000000
# 3 -0.010390 -0.002891 0.018380 0.000000 0.003749 0.000000
# 4 0.000000 0.000000 0.000000 0.024648 0.000000 -0.006151
# 5 -0.011277 -0.000267 0.003749 0.000000 0.033398 0.000000
# 6 0.000000 0.000000 0.000000 -0.006151 0.000000 0.043100
#
#
# Mechanical properties :
#
#
# Convention : Reuss Voigt Hill
#
# Bulk Modulus (GPa) = 44.22933 60.67029 52.44981
# Shear Modulus (GPa) = 25.97071 34.02465 29.99768
#
# Velocity S-wave (km/s) = 3.18805 3.64905 3.42631
# Velocity P-wave (km/s) = 5.55525 6.44186 6.01491
#
# Compressibility (1/GPa) = 0.02260943
#
# Stress axis : x y z
#
# Youngs Moduli (GPa) = 35.33407 152.79302 54.40835
#
# Poissons Ratio (x) = 0.30974 0.56530
# Poissons Ratio (y) = 0.07163 0.15729
# Poissons Ratio (z) = 0.36712 0.44172
#
# Static dielectric constant tensor:
#      x y z
#    x 2.137600 0.000000 0.008990 
#    y 0.000000 2.062590 0.000000 
#    z 0.008990 0.000000 2.010480 
# 
# From -- ./inp_files/17985.got.cif
#   From: 2010.05.17/outbox.cif.g08.bks.cpg/sg9_9_cif.got.tgz:17985.got - 2010.06.03 20:04:27.
