data_PCOD9138699
_publ_section_title
;
Structure prediction by ZEFSAII (Michael W. Deem and Ramdas Pophale) SiO2 
 PCOD9138699
Probable space group: C C
;
_chemical_formula_sum "Si O2"
_cell_formula_units_Z 32
_cell_length_a 24.828110
_cell_length_b 9.123663
_cell_length_c 8.755576
_cell_angle_alpha 90.000000
_cell_angle_beta 137.955958
_cell_angle_gamma 90.000000
_cell_volume 1328.247435
_symmetry_space_group_name_H-M "C C"
_symmetry_group_IT_number 9
_symmetry_cell_setting 'monoclinic'
loop_
_space_group_symop_operation_xyz
x,y,z
x,-y,1/2+z
1/2+x,1/2+y,z
1/2+x,1/2-y,1/2+z
loop_
_atom_site_type_symbol
_atom_site_label
_atom_site_fract_x
_atom_site_fract_y
_atom_site_fract_z
Si Si1 0.487930 0.923490 0.416960
Si Si2 0.743912 0.524291 0.644652
Si Si3 0.812973 0.812596 0.908330
Si Si4 0.593467 0.947906 0.909694
Si Si5 0.364038 0.226613 0.452761
Si Si6 0.473367 0.722076 0.911713
Si Si7 0.142311 0.151745 0.160636
Si Si8 0.754421 0.037942 0.588489
O O1 0.523272 0.879259 0.654888
O O2 0.555530 0.918571 0.425103
O O3 0.480117 0.100654 0.409896
O O4 0.408834 0.838422 0.195226
O O5 0.779246 0.649673 0.827868
O O6 0.817571 0.411095 0.777110
O O7 0.709066 0.603679 0.422854
O O8 0.670375 0.437820 0.570477
O O9 0.800487 0.888702 0.719469
O O10 0.904845 0.822654 0.149195
O O11 0.765123 0.893728 0.944796
O O12 0.633542 0.821177 0.094596
O O13 0.663104 0.993535 0.940807
O O14 0.434116 0.294404 0.495192
O O15 0.295470 0.349843 0.297571
O O16 0.554080 0.632560 0.049277
#
# Coordination Sequence:
#
# PCOD9138699 Si02
#       8
#     4   4   4   4   4   4   4   4
#     4  11  22  42  72 100 145 189 245 293 371 440
#     4  12  26  49  78 106 151 198 258 302 370 458
#     4  11  26  45  72 103 152 195 245 311 368 450
#     4  11  24  43  68 106 141 188 244 307 364 445
#     4  11  23  46  77 108 141 196 252 308 364 453
#     4  10  23  46  66 108 145 191 246 299 374 433
#     4  11  27  46  72 109 142 194 247 313 368 434
#     4  11  25  45  67 106 145 189 247 301 381 425
#
# _framework density 24.091895999999998
#
# number of rings (size 3 to 8) (size 9 to 14) (size 15 to 20)
#    0.000    1.000    3.750    2.250    5.250    3.000 
#    6.750    0.000    0.000    0.000    0.000    0.000 
#    0.000    0.000    0.000    0.000    0.000    0.000 
#
# Total GULP energy -89415.653293 kJ/mol
# GULP energy per Si atom -5588.478331 kJ/mol
# Density = 2.403706 g / cm^3
# Si number density = 24.091896 Si / 1000 Ang^3
#
#
#
# Elastic Constant Matrix: (Units=GPa)
#
#
# Indices 1 2 3 4 5 6 
#
# 1 75.2131 7.5988 21.2672 0.0000 7.1473 0.0000
# 2 7.5988 69.3048 18.9367 0.0000 -5.0950 0.0000
# 3 21.2672 18.9367 100.4729 0.0000 -2.5878 0.0000
# 4 0.0000 0.0000 0.0000 43.2975 0.0000 -3.1962
# 5 7.1473 -5.0950 -2.5878 0.0000 31.7032 0.0000
# 6 0.0000 0.0000 0.0000 -3.1962 0.0000 30.5290
#
#
#
# Elastic Compliance Matrix: (Units=1/GPa)
#
#
# Indices 1 2 3 4 5 6 
#
# 1 0.014599 -0.001057 -0.002986 0.000000 -0.003705 0.000000
# 2 -0.001057 0.015446 -0.002623 0.000000 0.002507 0.000000
# 3 -0.002986 -0.002623 0.011109 0.000000 0.001159 0.000000
# 4 0.000000 0.000000 0.000000 0.023276 0.000000 0.002437
# 5 -0.003705 0.002507 0.001159 0.000000 0.032875 0.000000
# 6 0.000000 0.000000 0.000000 0.002437 0.000000 0.033011
#
#
# Mechanical properties :
#
#
# Convention : Reuss Voigt Hill
#
# Bulk Modulus (GPa) = 35.94357 37.84405 36.89381
# Shear Modulus (GPa) = 32.69636 34.25181 33.47409
#
# Velocity S-wave (km/s) = 3.68795 3.77465 3.73155
# Velocity P-wave (km/s) = 5.75208 5.89404 5.82349
#
# Compressibility (1/GPa) = 0.02782139
#
# Stress axis : x y z
#
# Youngs Moduli (GPa) = 68.49865 64.74229 90.01511
#
# Poissons Ratio (x) = 0.06844 0.26882
# Poissons Ratio (y) = 0.07241 0.23610
# Poissons Ratio (z) = 0.20456 0.16981
#
# Static dielectric constant tensor:
#      x y z
#    x 2.020910 0.000000 -0.016440 
#    y 0.000000 1.926820 0.000000 
#    z -0.016440 0.000000 1.928730 
# 
# From -- ./inp_files/12457.got.cif
#   From: 2010.05.17/outbox.cif.g08.bks.cpg/sg9_7_cif.got.tgz:12457.got - 2010.06.03 20:04:27.
