data_PCOD9138351
_publ_section_title
;
Structure prediction by ZEFSAII (Michael W. Deem and Ramdas Pophale) SiO2 
 PCOD9138351
Probable space group: C C
;
_chemical_formula_sum "Si O2"
_cell_formula_units_Z 28
_cell_length_a 8.081558
_cell_length_b 21.707080
_cell_length_c 7.340298
_cell_angle_alpha 90.000000
_cell_angle_beta 72.587334
_cell_angle_gamma 90.000000
_cell_volume 1228.677375
_symmetry_space_group_name_H-M "C C"
_symmetry_group_IT_number 9
_symmetry_cell_setting 'monoclinic'
loop_
_space_group_symop_operation_xyz
x,y,z
x,-y,1/2+z
1/2+x,1/2+y,z
1/2+x,1/2-y,1/2+z
loop_
_atom_site_type_symbol
_atom_site_label
_atom_site_fract_x
_atom_site_fract_y
_atom_site_fract_z
Si Si1 0.035840 0.661213 0.575960
Si Si2 0.397423 0.363931 0.898215
Si Si3 0.302095 0.740611 0.673487
Si Si4 0.194452 0.091348 0.809070
Si Si5 0.200190 0.952280 0.721395
Si Si6 0.974737 0.637829 0.189654
Si Si7 0.345525 0.657663 0.987220
O O1 0.204625 0.615981 0.528460
O O2 0.115771 0.720676 0.651069
O O3 0.857097 0.633955 0.704982
O O4 0.016601 0.670112 0.367372
O O5 0.534778 0.418476 0.865164
O O6 0.384411 0.341991 0.691181
O O7 0.430218 0.304291 0.014286
O O8 0.354579 0.811096 0.631874
O O9 0.314667 0.719115 0.879277
O O10 0.194798 0.025194 0.712913
O O11 0.209679 0.073204 0.014586
O O12 0.009688 0.123987 0.845060
O O13 0.370086 0.924229 0.759935
O O14 0.157011 0.625439 0.032246
#
# Coordination Sequence:
#
# PCOD9138351 Si02
#       7
#     4   4   4   4   4   4   4
#     4   9  22  42  67 100 137 180 225 278 340 408
#     4   8  22  44  62 100 134 171 231 267 339 401
#     4  10  23  42  72  92 141 177 221 281 338 401
#     4  11  24  44  69  98 139 178 235 280 341 405
#     4  11  24  41  68 101 135 182 228 289 333 404
#     4  11  24  43  68 104 138 176 230 278 343 406
#     4  10  23  44  66  99 132 186 218 279 340 399
#
# _framework density 22.788732
#
# number of rings (size 3 to 8) (size 9 to 14) (size 15 to 20)
#    0.857    1.143    0.000    1.714    6.000    3.429 
#    2.571    4.286    0.000    0.000    0.000    0.000 
#    0.000    0.000    0.000    0.000    0.000    0.000 
#
# Total GULP energy -78113.868798 kJ/mol
# GULP energy per Si atom -5579.562057 kJ/mol
# Density = 2.273686 g / cm^3
# Si number density = 22.788732 Si / 1000 Ang^3
#
#
#
# Elastic Constant Matrix: (Units=GPa)
#
#
# Indices 1 2 3 4 5 6 
#
# 1 139.4491 64.3112 40.3361 0.0000 -47.3343 0.0000
# 2 64.3112 77.1348 24.5022 0.0000 -21.9955 0.0000
# 3 40.3361 24.5022 71.6690 0.0000 -16.7056 0.0000
# 4 0.0000 0.0000 0.0000 18.9849 0.0000 5.6311
# 5 -47.3343 -21.9955 -16.7056 0.0000 52.6427 0.0000
# 6 0.0000 0.0000 0.0000 5.6311 0.0000 14.8119
#
#
#
# Elastic Compliance Matrix: (Units=1/GPa)
#
#
# Indices 1 2 3 4 5 6 
#
# 1 0.015478 -0.009253 -0.003461 0.000000 0.008953 0.000000
# 2 -0.009253 0.021324 -0.002101 0.000000 -0.000076 0.000000
# 3 -0.003461 -0.002101 0.016942 0.000000 0.001387 0.000000
# 4 0.000000 0.000000 0.000000 0.059368 0.000000 -0.022570
# 5 0.008953 -0.000076 0.001387 0.000000 0.027455 0.000000
# 6 0.000000 0.000000 0.000000 -0.022570 0.000000 0.076094
#
#
# Mechanical properties :
#
#
# Convention : Reuss Voigt Hill
#
# Bulk Modulus (GPa) = 41.46612 60.72801 51.09707
# Shear Modulus (GPa) = 19.65956 27.89479 23.77718
#
# Velocity S-wave (km/s) = 2.94034 3.50245 3.23363
# Velocity P-wave (km/s) = 5.45554 6.56219 6.03429
#
# Compressibility (1/GPa) = 0.02411607
#
# Stress axis : x y z
#
# Youngs Moduli (GPa) = 64.60596 46.89514 59.02349
#
# Poissons Ratio (x) = 0.43390 0.20429
# Poissons Ratio (y) = 0.59777 0.12399
# Poissons Ratio (z) = 0.22361 0.09851
#
# Static dielectric constant tensor:
#      x y z
#    x 1.908950 0.000000 0.016350 
#    y 0.000000 1.792880 0.000000 
#    z 0.016350 0.000000 1.914620 
# 
# From -- ./inp_files/5574.got.cif
#   From: 2010.05.17/outbox.cif.g08.bks.cpg/sg9_3_cif.got.tgz:5574.got - 2010.06.03 20:04:27.
