data_PCOD9138209
_publ_section_title
;
Structure prediction by ZEFSAII (Michael W. Deem and Ramdas Pophale) SiO2 
 PCOD9138209
Probable space group: C C
;
_chemical_formula_sum "Si O2"
_cell_formula_units_Z 32
_cell_length_a 8.026311
_cell_length_b 16.078020
_cell_length_c 9.655154
_cell_angle_alpha 90.000000
_cell_angle_beta 89.025059
_cell_angle_gamma 90.000000
_cell_volume 1245.790105
_symmetry_space_group_name_H-M "C C"
_symmetry_group_IT_number 9
_symmetry_cell_setting 'monoclinic'
loop_
_space_group_symop_operation_xyz
x,y,z
x,-y,1/2+z
1/2+x,1/2+y,z
1/2+x,1/2-y,1/2+z
loop_
_atom_site_type_symbol
_atom_site_label
_atom_site_fract_x
_atom_site_fract_y
_atom_site_fract_z
Si Si1 0.056810 0.985513 0.423280
Si Si2 0.670865 0.732559 0.851426
Si Si3 0.536828 0.984104 0.030330
Si Si4 0.690196 0.422243 0.156711
Si Si5 0.526987 0.828707 0.638125
Si Si6 0.556796 0.234508 0.864791
Si Si7 0.207193 0.440484 0.284844
Si Si8 0.145575 0.831013 0.621697
O O1 0.175709 0.988343 0.285993
O O2 0.119452 0.914711 0.532949
O O3 0.879711 0.961876 0.358980
O O4 0.071186 0.062945 0.526509
O O5 0.629862 0.658260 0.744988
O O6 0.630830 0.816771 0.774690
O O7 0.862338 0.712697 0.876698
O O8 0.585336 0.732524 0.002425
O O9 0.521109 0.079907 0.077270
O O10 0.375067 0.932618 0.085928
O O11 0.692728 0.955371 0.121654
O O12 0.576021 0.999020 0.868181
O O13 0.610335 0.767725 0.522941
O O14 0.333771 0.809564 0.663589
O O15 0.656092 0.155831 0.802611
O O16 0.554981 0.314326 0.766301
#
# Coordination Sequence:
#
# PCOD9138209 Si02
#       8
#     4   4   4   4   4   4   4   4
#     4  11  24  42  67  98 135 175 226 280 334 403
#     4  10  23  43  64  95 130 169 223 276 323 404
#     4  11  22  44  68  93 134 176 225 278 340 400
#     4  11  22  44  68  93 134 176 225 278 340 400
#     4  10  23  43  64  95 130 169 223 276 323 404
#     4  10  23  41  65  93 132 174 215 269 340 391
#     4  11  24  42  67  98 135 175 226 280 334 403
#     4  10  23  41  65  93 132 174 215 269 340 391
#
# _framework density 25.686509999999998
#
# number of rings (size 3 to 8) (size 9 to 14) (size 15 to 20)
#    0.000    1.500    2.500    1.500    7.000    2.000 
#    9.000    0.000    0.000    0.000    0.000    0.000 
#    0.000    0.000    0.000    0.000    0.000    0.000 
#
# Total GULP energy -89257.400548 kJ/mol
# GULP energy per Si atom -5578.587534 kJ/mol
# Density = 2.562805 g / cm^3
# Si number density = 25.686510 Si / 1000 Ang^3
#
#
#
# Elastic Constant Matrix: (Units=GPa)
#
#
# Indices 1 2 3 4 5 6 
#
# 1 87.9707 1.9321 6.3349 0.0000 11.2060 0.0000
# 2 1.9321 43.8777 18.5870 0.0000 -0.5633 0.0000
# 3 6.3349 18.5870 89.2416 0.0000 9.0057 0.0000
# 4 0.0000 0.0000 0.0000 49.2095 0.0000 13.8175
# 5 11.2060 -0.5633 9.0057 0.0000 33.7666 0.0000
# 6 0.0000 0.0000 0.0000 13.8175 0.0000 7.5831
#
#
#
# Elastic Compliance Matrix: (Units=1/GPa)
#
#
# Indices 1 2 3 4 5 6 
#
# 1 0.011894 -0.000417 -0.000368 0.000000 -0.003856 0.000000
# 2 -0.000417 0.025124 -0.005405 0.000000 0.001999 0.000000
# 3 -0.000368 -0.005405 0.012696 0.000000 -0.003354 0.000000
# 4 0.000000 0.000000 0.000000 0.041612 0.000000 -0.075823
# 5 -0.003856 0.001999 -0.003354 0.000000 0.031823 0.000000
# 6 0.000000 0.000000 0.000000 -0.075823 0.000000 0.270034
#
#
# Mechanical properties :
#
#
# Convention : Reuss Voigt Hill
#
# Bulk Modulus (GPa) = 26.78561 30.53312 28.65936
# Shear Modulus (GPa) = 11.96150 31.06090 21.51120
#
# Velocity S-wave (km/s) = 2.16029 3.48117 2.89701
# Velocity P-wave (km/s) = 4.08326 5.29818 4.72989
#
# Compressibility (1/GPa) = 0.03733348
#
# Stress axis : x y z
#
# Youngs Moduli (GPa) = 84.07385 39.80217 78.76579
#
# Poissons Ratio (x) = 0.01661 0.02901
# Poissons Ratio (y) = 0.03508 0.42572
# Poissons Ratio (z) = 0.03096 0.21513
#
# Static dielectric constant tensor:
#      x y z
#    x 2.035230 0.000000 -0.045270 
#    y 0.000000 2.241830 0.000000 
#    z -0.045270 0.000000 2.008260 
# 
# From -- ./inp_files/5791.got.cif
#   From: 2010.05.17/outbox.cif.g08.bks.cpg/sg9_3_cif.got.tgz:5791.got - 2010.06.03 20:04:27.
