data_PCOD9138284
_publ_section_title
;
Structure prediction by ZEFSAII (Michael W. Deem and Ramdas Pophale) SiO2 
 PCOD9138284
Probable space group: C C
;
_chemical_formula_sum "Si O2"
_cell_formula_units_Z 24
_cell_length_a 5.213231
_cell_length_b 22.908153
_cell_length_c 10.097254
_cell_angle_alpha 90.000000
_cell_angle_beta 59.616759
_cell_angle_gamma 90.000000
_cell_volume 1040.257404
_symmetry_space_group_name_H-M "C C"
_symmetry_group_IT_number 9
_symmetry_cell_setting 'monoclinic'
loop_
_space_group_symop_operation_xyz
x,y,z
x,-y,1/2+z
1/2+x,1/2+y,z
1/2+x,1/2-y,1/2+z
loop_
_atom_site_type_symbol
_atom_site_label
_atom_site_fract_x
_atom_site_fract_y
_atom_site_fract_z
Si Si1 0.203160 0.648504 0.492900
Si Si2 0.660566 0.228323 0.266041
Si Si3 0.378745 0.233746 0.056781
Si Si4 0.254952 0.524400 0.350351
Si Si5 0.308184 0.155646 0.845391
Si Si6 0.107636 0.033226 0.989743
O O1 0.062295 0.683898 0.406153
O O2 0.413748 0.698839 0.501299
O O3 0.304498 0.588535 0.400944
O O4 0.995300 0.632760 0.671555
O O5 0.519083 0.219734 0.160569
O O6 0.606537 0.293757 0.333571
O O7 0.020454 0.224062 0.159796
O O8 0.484853 0.192332 0.910280
O O9 0.390645 0.522359 0.168992
O O10 0.442895 0.483524 0.397909
O O11 0.912561 0.503154 0.432403
O O12 0.173137 0.101682 0.957817
#
# Coordination Sequence:
#
# PCOD9138284 Si02
#       6
#     4   4   4   4   4   4
#     4  10  23  42  68  99 135 175 224 278 335 398
#     4  10  23  42  66  97 134 177 221 271 332 399
#     4  10  23  42  66  97 134 177 221 271 332 399
#     4  12  27  48  72 100 136 180 230 282 340 405
#     4  10  23  42  68  99 135 175 224 278 335 398
#     4  12  27  48  72 100 136 180 230 282 340 405
#
# _framework density 23.071210000000001
#
# number of rings (size 3 to 8) (size 9 to 14) (size 15 to 20)
#    0.000    1.333    0.000    4.000    0.000   25.333 
#    0.000    0.000    0.000    0.000    0.000    0.000 
#    0.000    0.000    0.000    0.000    0.000    0.000 
#
# Total GULP energy -67112.520655 kJ/mol
# GULP energy per Si atom -5592.710055 kJ/mol
# Density = 2.301870 g / cm^3
# Si number density = 23.071210 Si / 1000 Ang^3
#
#
#
# Elastic Constant Matrix: (Units=GPa)
#
#
# Indices 1 2 3 4 5 6 
#
# 1 117.5221 -15.2960 38.4331 0.0000 13.5718 0.0000
# 2 -15.2960 61.8622 7.4747 0.0000 -7.5002 0.0000
# 3 38.4331 7.4747 117.5071 0.0000 12.4766 0.0000
# 4 0.0000 0.0000 0.0000 48.2410 0.0000 7.3750
# 5 13.5718 -7.5002 12.4766 0.0000 47.3264 0.0000
# 6 0.0000 0.0000 0.0000 7.3750 0.0000 -13.5838
#
#
#
# Elastic Compliance Matrix: (Units=1/GPa)
#
#
# Indices 1 2 3 4 5 6 
#
# 1 0.010131 0.002712 -0.003316 0.000000 -0.001601 0.000000
# 2 0.002712 0.017423 -0.002269 0.000000 0.002582 0.000000
# 3 -0.003316 -0.002269 0.009955 0.000000 -0.002033 0.000000
# 4 0.000000 0.000000 0.000000 0.019141 0.000000 0.010392
# 5 -0.001601 0.002582 -0.002033 0.000000 0.022534 0.000000
# 6 0.000000 0.000000 0.000000 0.010392 0.000000 -0.067975
#
#
# Mechanical properties :
#
#
# Convention : Reuss Voigt Hill
#
# Bulk Modulus (GPa) = 31.48480 39.79056 35.63768
# Shear Modulus (GPa) = 181.53153 34.14870 107.84011
#
# Velocity S-wave (km/s) = 8.87997 3.85144 6.84425
# Velocity P-wave (km/s) = 10.90023 6.08789 8.82829
#
# Compressibility (1/GPa) = 0.03176136
#
# Stress axis : x y z
#
# Youngs Moduli (GPa) = 98.70334 57.39664 100.45262
#
# Poissons Ratio (x) = -0.15564 0.33311
# Poissons Ratio (y) = -0.26764 0.22795
# Poissons Ratio (z) = 0.32731 0.13025
#
# Static dielectric constant tensor:
#      x y z
#    x 1.905820 0.000000 -0.077100 
#    y 0.000000 1.861580 0.000000 
#    z -0.077100 0.000000 1.879910 
# 
# From -- ./inp_files/4067.got.cif
#   From: 2010.05.17/outbox.cif.g08.bks.cpg/sg9_3_cif.got.tgz:4067.got - 2010.06.03 20:04:27.
