data_PCOD9138050
_publ_section_title
;
Structure prediction by ZEFSAII (Michael W. Deem and Ramdas Pophale) SiO2 
 PCOD9138050
Probable space group: C C
;
_chemical_formula_sum "Si O2"
_cell_formula_units_Z 32
_cell_length_a 11.941735
_cell_length_b 7.034877
_cell_length_c 15.945199
_cell_angle_alpha 90.000000
_cell_angle_beta 59.423532
_cell_angle_gamma 90.000000
_cell_volume 1153.273541
_symmetry_space_group_name_H-M "C C"
_symmetry_group_IT_number 9
_symmetry_cell_setting 'monoclinic'
loop_
_space_group_symop_operation_xyz
x,y,z
x,-y,1/2+z
1/2+x,1/2+y,z
1/2+x,1/2-y,1/2+z
loop_
_atom_site_type_symbol
_atom_site_label
_atom_site_fract_x
_atom_site_fract_y
_atom_site_fract_z
Si Si1 0.903250 0.897014 0.250000
Si Si2 0.587836 0.143751 0.688406
Si Si3 0.545054 0.977480 0.524320
Si Si4 0.228311 0.268381 0.863717
Si Si5 0.197023 0.088049 0.267760
Si Si6 0.177429 0.250444 0.655813
Si Si7 0.816150 0.777185 0.455056
Si Si8 0.821885 0.660936 0.001531
O O1 0.805813 0.743096 0.247570
O O2 0.911869 0.844703 0.346581
O O3 0.049486 0.854757 0.162090
O O4 0.828265 0.100183 0.270183
O O5 0.516512 0.069604 0.627909
O O6 0.577637 0.290029 0.772085
O O7 0.705014 0.253080 0.599275
O O8 0.615636 0.939190 0.719281
O O9 0.590576 0.136353 0.439605
O O10 0.675846 0.852914 0.479058
O O11 0.441585 0.844716 0.518744
O O12 0.307115 0.270745 0.920721
O O13 0.192986 0.055068 0.848651
O O14 0.231058 0.920678 0.189349
O O15 0.299849 0.339662 0.558047
O O16 0.813129 0.553889 0.471280
#
# Coordination Sequence:
#
# PCOD9138050 Si02
#       8
#     4   4   4   4   4   4   4   4
#     4  11  26  47  74 108 149 195 251 315 380 452
#     4  10  24  45  70 111 147 189 260 307 366 467
#     4   9  23  44  75 100 148 199 249 309 376 448
#     4  10  24  45  69 111 144 194 259 307 375 469
#     4  12  24  44  72 104 158 188 248 321 370 453
#     4  11  26  46  74 108 147 198 247 310 382 449
#     4  10  22  47  70 107 142 185 257 297 367 463
#     4  11  21  48  76 103 149 198 245 318 378 439
#
# _framework density 27.747102999999999
#
# number of rings (size 3 to 8) (size 9 to 14) (size 15 to 20)
#    0.000    1.500    2.500    1.500    5.250    3.000 
#    0.000    6.250    0.000    0.000    0.000    0.000 
#    0.000    0.000    0.000    0.000    0.000    0.000 
#
# Total GULP energy -89147.685424 kJ/mol
# GULP energy per Si atom -5571.730339 kJ/mol
# Density = 2.768395 g / cm^3
# Si number density = 27.747103 Si / 1000 Ang^3
#
#
#
# Elastic Constant Matrix: (Units=GPa)
#
#
# Indices 1 2 3 4 5 6 
#
# 1 111.4152 19.5115 25.9178 0.0000 6.2993 0.0000
# 2 19.5115 149.2246 11.6739 0.0000 -2.5658 0.0000
# 3 25.9178 11.6739 87.6277 0.0000 7.2821 0.0000
# 4 0.0000 0.0000 0.0000 46.7156 0.0000 9.5933
# 5 6.2993 -2.5658 7.2821 0.0000 40.4377 0.0000
# 6 0.0000 0.0000 0.0000 9.5933 0.0000 48.3977
#
#
#
# Elastic Compliance Matrix: (Units=1/GPa)
#
#
# Indices 1 2 3 4 5 6 
#
# 1 0.009853 -0.001098 -0.002675 0.000000 -0.001123 0.000000
# 2 -0.001098 0.006909 -0.000656 0.000000 0.000728 0.000000
# 3 -0.002675 -0.000656 0.012445 0.000000 -0.001866 0.000000
# 4 0.000000 0.000000 0.000000 0.022314 0.000000 -0.004423
# 5 -0.001123 0.000728 -0.001866 0.000000 0.025287 0.000000
# 6 0.000000 0.000000 0.000000 -0.004423 0.000000 0.021539
#
#
# Mechanical properties :
#
#
# Convention : Reuss Voigt Hill
#
# Bulk Modulus (GPa) = 49.14132 51.38600 50.26366
# Shear Modulus (GPa) = 43.86385 46.52114 45.19249
#
# Velocity S-wave (km/s) = 3.98030 4.09909 4.04013
# Velocity P-wave (km/s) = 6.23479 6.40023 6.31805
#
# Compressibility (1/GPa) = 0.02034947
#
# Stress axis : x y z
#
# Youngs Moduli (GPa) = 101.48685 144.74377 80.35038
#
# Poissons Ratio (x) = 0.15899 0.21492
# Poissons Ratio (y) = 0.11148 0.05271
# Poissons Ratio (z) = 0.27145 0.09495
#
# Static dielectric constant tensor:
#      x y z
#    x 2.209660 0.000000 0.065120 
#    y 0.000000 2.177360 0.000000 
#    z 0.065120 0.000000 2.517070 
# 
# From -- ./inp_files/29793.got.cif
#   From: 2010.05.17/outbox.cif.g08.bks.cpg/sg9_15_cif.got.tgz:29793.got - 2010.06.03 20:04:27.
