data_PCOD9138119
_publ_section_title
;
Structure prediction by ZEFSAII (Michael W. Deem and Ramdas Pophale) SiO2 
 PCOD9138119
Probable space group: C C
;
_chemical_formula_sum "Si O2"
_cell_formula_units_Z 28
_cell_length_a 8.610079
_cell_length_b 11.846909
_cell_length_c 12.326344
_cell_angle_alpha 90.000000
_cell_angle_beta 67.487271
_cell_angle_gamma 90.000000
_cell_volume 1161.507025
_symmetry_space_group_name_H-M "C C"
_symmetry_group_IT_number 9
_symmetry_cell_setting 'monoclinic'
loop_
_space_group_symop_operation_xyz
x,y,z
x,-y,1/2+z
1/2+x,1/2+y,z
1/2+x,1/2-y,1/2+z
loop_
_atom_site_type_symbol
_atom_site_label
_atom_site_fract_x
_atom_site_fract_y
_atom_site_fract_z
Si Si1 0.179080 0.229087 0.809350
Si Si2 0.465496 0.081629 0.295691
Si Si3 0.394893 0.428383 0.304418
Si Si4 0.258806 0.063079 0.964029
Si Si5 0.678247 0.874667 0.173409
Si Si6 0.989827 0.848411 0.685379
Si Si7 0.579736 0.944837 0.534866
O O1 0.266203 0.179119 0.892855
O O2 0.327087 0.276577 0.693684
O O3 0.048205 0.331143 0.855420
O O4 0.067485 0.128403 0.793362
O O5 0.514386 0.119267 0.161387
O O6 0.279682 0.044640 0.378558
O O7 0.558181 0.959846 0.274154
O O8 0.347254 0.386682 0.196203
O O9 0.420271 0.562811 0.290812
O O10 0.239437 0.397031 0.425980
O O11 0.081730 0.076951 0.070840
O O12 0.408563 0.047521 0.011153
O O13 0.620288 0.746461 0.187440
O O14 0.651765 0.936238 0.064892
#
# Coordination Sequence:
#
# PCOD9138119 Si02
#       7
#     4   4   4   4   4   4   4
#     4  12  27  47  76 111 160 197 262 326 388 466
#     4  10  24  49  72 109 155 195 256 329 371 459
#     4  12  27  48  76 114 153 201 263 323 395 461
#     4  12  27  46  78 113 151 211 254 320 399 455
#     4  10  24  45  75 109 150 202 255 318 383 459
#     4  12  27  46  76 110 155 205 257 318 386 472
#     4  10  22  51  75 108 156 199 265 318 384 466
#
# _framework density 24.106612999999999
#
# number of rings (size 3 to 8) (size 9 to 14) (size 15 to 20)
#    0.857    0.000    4.286    0.000   14.000    0.000 
#    0.000    0.000    0.000    0.000    0.000    0.000 
#    0.000    0.000    0.000    0.000    0.000    0.000 
#
# Total GULP energy -78049.712120 kJ/mol
# GULP energy per Si atom -5574.979437 kJ/mol
# Density = 2.405175 g / cm^3
# Si number density = 24.106613 Si / 1000 Ang^3
#
#
#
# Elastic Constant Matrix: (Units=GPa)
#
#
# Indices 1 2 3 4 5 6 
#
# 1 123.2118 44.9817 60.6736 0.0000 -0.0111 0.0000
# 2 44.9817 110.8406 27.4310 0.0000 0.0320 0.0000
# 3 60.6736 27.4310 90.7699 0.0000 -3.6183 0.0000
# 4 0.0000 0.0000 0.0000 10.3822 0.0000 -21.2797
# 5 -0.0111 0.0320 -3.6183 0.0000 30.0878 0.0000
# 6 0.0000 0.0000 0.0000 -21.2797 0.0000 50.6257
#
#
#
# Elastic Compliance Matrix: (Units=1/GPa)
#
#
# Indices 1 2 3 4 5 6 
#
# 1 0.013231 -0.003427 -0.007845 0.000000 -0.000935 0.000000
# 2 -0.003427 0.010643 -0.000930 0.000000 -0.000124 0.000000
# 3 -0.007845 -0.000930 0.016622 0.000000 0.001997 0.000000
# 4 0.000000 0.000000 0.000000 0.695609 0.000000 0.292388
# 5 -0.000935 -0.000124 0.001997 0.000000 0.033476 0.000000
# 6 0.000000 0.000000 0.000000 0.292388 0.000000 0.142653
#
#
# Mechanical properties :
#
#
# Convention : Reuss Voigt Hill
#
# Bulk Modulus (GPa) = 62.15297 65.66610 63.90954
# Shear Modulus (GPa) = 5.30784 31.00153 18.15469
#
# Velocity S-wave (km/s) = 1.48546 3.59000 2.74724
# Velocity P-wave (km/s) = 5.36476 6.66957 6.05243
#
# Compressibility (1/GPa) = 0.01608933
#
# Stress axis : x y z
#
# Youngs Moduli (GPa) = 75.58266 93.95680 60.16258
#
# Poissons Ratio (x) = 0.32203 0.47199
# Poissons Ratio (y) = 0.25906 0.05597
# Poissons Ratio (z) = 0.59296 0.08741
#
# Static dielectric constant tensor:
#      x y z
#    x 1.982890 0.000000 -0.014120 
#    y 0.000000 1.922540 0.000000 
#    z -0.014120 0.000000 2.063150 
# 
# From -- ./inp_files/22664.got.cif
#   From: 2010.05.17/outbox.cif.g08.bks.cpg/sg9_12_cif.got.tgz:22664.got - 2010.06.03 20:04:27.
