data_PCOD9138891
_publ_section_title
;
Structure prediction by ZEFSAII (Michael W. Deem and Ramdas Pophale) SiO2 
 PCOD9138891
Probable space group: C C
;
_chemical_formula_sum "Si O2"
_cell_formula_units_Z 28
_cell_length_a 5.253359
_cell_length_b 9.024871
_cell_length_c 26.990140
_cell_angle_alpha 90.000000
_cell_angle_beta 101.560281
_cell_angle_gamma 90.000000
_cell_volume 1253.668503
_symmetry_space_group_name_H-M "C C"
_symmetry_group_IT_number 9
_symmetry_cell_setting 'monoclinic'
loop_
_space_group_symop_operation_xyz
x,y,z
x,-y,1/2+z
1/2+x,1/2+y,z
1/2+x,1/2-y,1/2+z
loop_
_atom_site_type_symbol
_atom_site_label
_atom_site_fract_x
_atom_site_fract_y
_atom_site_fract_z
Si Si1 0.809760 0.317403 0.437850
Si Si2 0.429711 0.242351 0.132685
Si Si3 0.599168 0.254947 0.320660
Si Si4 0.388515 0.424051 0.594492
Si Si5 0.845506 0.016462 0.975984
Si Si6 0.329745 0.747374 0.232376
Si Si7 0.707001 0.468356 0.765365
O O1 0.708043 0.282394 0.378716
O O2 0.590491 0.411602 0.457547
O O3 0.078493 0.408302 0.446522
O O4 0.845207 0.159297 0.466079
O O5 0.379928 0.414444 0.119174
O O6 0.163610 0.154280 0.115461
O O7 0.567437 0.231710 0.191617
O O8 0.650433 0.175901 0.104743
O O9 0.808041 0.197339 0.288865
O O10 0.543690 0.410862 0.290686
O O11 0.371482 0.136442 0.307804
O O12 0.363126 0.449064 0.534736
O O13 0.545749 0.636022 0.222505
O O14 0.386864 0.921424 0.239305
#
# Coordination Sequence:
#
# PCOD9138891 Si02
#       7
#     4   4   4   4   4   4   4
#     4  12  27  44  76 101 139 182 229 278 353 404
#     4  12  27  44  76 101 139 182 229 278 353 404
#     4  10  26  41  68  98 139 173 224 271 335 406
#     4  12  26  48  69 102 135 180 232 290 340 404
#     4  12  26  47  71 100 137 178 234 289 340 404
#     4  10  26  41  68  98 139 173 224 271 335 406
#     4  10  24  39  66  90 142 170 224 265 334 384
#
# _framework density 22.33445
#
# number of rings (size 3 to 8) (size 9 to 14) (size 15 to 20)
#    0.857    0.000    0.000    6.000   10.000    0.000 
#    0.000    0.000    0.000    0.000    0.000    0.000 
#    0.000    0.000    0.000    0.000    0.000    0.000 
#
# Total GULP energy -78234.786986 kJ/mol
# GULP energy per Si atom -5588.199070 kJ/mol
# Density = 2.228362 g / cm^3
# Si number density = 22.334450 Si / 1000 Ang^3
#
#
#
# Elastic Constant Matrix: (Units=GPa)
#
#
# Indices 1 2 3 4 5 6 
#
# 1 23.4246 33.2839 35.1995 0.0000 -0.4823 0.0000
# 2 33.2839 119.5923 -0.5276 0.0000 27.2586 0.0000
# 3 35.1995 -0.5276 54.9619 0.0000 7.1664 0.0000
# 4 0.0000 0.0000 0.0000 21.5611 0.0000 11.0552
# 5 -0.4823 27.2586 7.1664 0.0000 33.7666 0.0000
# 6 0.0000 0.0000 0.0000 11.0552 0.0000 30.7155
#
#
#
# Elastic Compliance Matrix: (Units=1/GPa)
#
#
# Indices 1 2 3 4 5 6 
#
# 1 -0.068073 0.026601 0.048110 0.000000 -0.032657 0.000000
# 2 0.026601 -0.000069 -0.017580 0.000000 0.004167 0.000000
# 3 0.048110 -0.017580 -0.015145 0.000000 0.018093 0.000000
# 4 0.000000 0.000000 0.000000 0.056876 0.000000 -0.020471
# 5 -0.032657 0.004167 0.018093 0.000000 0.021945 0.000000
# 6 0.000000 0.000000 0.000000 -0.020471 0.000000 0.039925
#
#
# Mechanical properties :
#
#
# Convention : Reuss Voigt Hill
#
# Bulk Modulus (GPa) = 32.28438 37.09894 34.69166
# Shear Modulus (GPa) = -73.01700 25.87684 -23.57008
#
# Velocity S-wave (km/s) = -5.72394 3.40752 -3.25210
# Velocity P-wave (km/s) = 5.40355 5.66818 1.21037
#
# Compressibility (1/GPa) = 0.03097474
#
# Stress axis : x y z
#
# Youngs Moduli (GPa) = -14.69012 -14501.10759 -66.02975
#
# Poissons Ratio (x) = 385.74704 3.17668
# Poissons Ratio (y) = 0.39077 -1.16082
# Poissons Ratio (z) = 0.70674 -254.93392
#
# Static dielectric constant tensor:
#      x y z
#    x 1.886430 0.000000 -0.036780 
#    y 0.000000 1.836510 0.000000 
#    z -0.036780 0.000000 1.824070 
# 
# From -- ./inp_files/36237.got.cif
#   From: 2010.05.17/outbox.cif.g08.bks.cpg/sg9_19_cif.got.tgz:36237.got - 2010.06.03 20:04:27.
