data_PCOD9138858
_publ_section_title
;
Structure prediction by ZEFSAII (Michael W. Deem and Ramdas Pophale) SiO2 
 PCOD9138858
Probable space group: C C
;
_chemical_formula_sum "Si O2"
_cell_formula_units_Z 20
_cell_length_a 4.880748
_cell_length_b 13.389042
_cell_length_c 12.011559
_cell_angle_alpha 90.000000
_cell_angle_beta 62.360258
_cell_angle_gamma 90.000000
_cell_volume 695.362315
_symmetry_space_group_name_H-M "C C"
_symmetry_group_IT_number 9
_symmetry_cell_setting 'monoclinic'
loop_
_space_group_symop_operation_xyz
x,y,z
x,-y,1/2+z
1/2+x,1/2+y,z
1/2+x,1/2-y,1/2+z
loop_
_atom_site_type_symbol
_atom_site_label
_atom_site_fract_x
_atom_site_fract_y
_atom_site_fract_z
Si Si1 0.003110 0.520151 0.407760
Si Si2 0.597590 0.232557 0.502268
Si Si3 0.020120 0.013451 0.157382
Si Si4 0.459530 0.650310 0.835902
Si Si5 0.892093 0.705402 0.166741
O O1 0.086639 0.624320 0.449212
O O2 0.191479 0.426104 0.423499
O O3 0.648948 0.501421 0.509049
O O4 0.156177 0.523873 0.255734
O O5 0.263816 0.283975 0.592370
O O6 0.689235 0.308860 0.385191
O O7 0.782594 0.229125 0.581494
O O8 0.199222 0.105344 0.180394
O O9 0.115852 0.915111 0.209592
O O10 0.319828 0.747093 0.800539
#
# Coordination Sequence:
#
# PCOD9138858 Si02
#       5
#     4   4   4   4   4
#     4  10  23  49  79 118 164 219 276 344 417 498
#     4  12  27  50  79 115 161 217 273 338 414 494
#     4  10  23  49  79 118 164 219 276 344 417 498
#     4  10  26  50  78 120 166 212 280 342 414 494
#     4  12  27  50  79 115 161 217 273 338 414 494
#
# _framework density 28.761983000000001
#
# number of rings (size 3 to 8) (size 9 to 14) (size 15 to 20)
#    1.200    0.000    4.000    0.000    5.600    1.600 
#    7.200    0.000    0.000    0.000    0.000    0.000 
#    0.000    0.000    0.000    0.000    0.000    0.000 
#
# Total GULP energy -55961.884379 kJ/mol
# GULP energy per Si atom -5596.188438 kJ/mol
# Density = 2.869652 g / cm^3
# Si number density = 28.761983 Si / 1000 Ang^3
#
#
#
# Elastic Constant Matrix: (Units=GPa)
#
#
# Indices 1 2 3 4 5 6 
#
# 1 134.4707 -1.4988 74.5804 0.0000 5.7165 0.0000
# 2 -1.4988 118.8276 20.2080 0.0000 7.7037 0.0000
# 3 74.5804 20.2080 143.8411 0.0000 -39.1829 0.0000
# 4 0.0000 0.0000 0.0000 55.0019 0.0000 -0.3019
# 5 5.7165 7.7037 -39.1829 0.0000 71.4092 0.0000
# 6 0.0000 0.0000 0.0000 -0.3019 0.0000 22.5551
#
#
#
# Elastic Compliance Matrix: (Units=1/GPa)
#
#
# Indices 1 2 3 4 5 6 
#
# 1 0.012211 0.001904 -0.008137 0.000000 -0.005648 0.000000
# 2 0.001904 0.009137 -0.003035 0.000000 -0.002803 0.000000
# 3 -0.008137 -0.003035 0.013949 0.000000 0.008633 0.000000
# 4 0.000000 0.000000 0.000000 0.018183 0.000000 0.000243
# 5 -0.005648 -0.002803 0.008633 0.000000 0.019495 0.000000
# 6 0.000000 0.000000 0.000000 0.000243 0.000000 0.044339
#
#
# Mechanical properties :
#
#
# Convention : Reuss Voigt Hill
#
# Bulk Modulus (GPa) = 59.65908 64.85762 62.25835
# Shear Modulus (GPa) = 35.35132 50.04992 42.70062
#
# Velocity S-wave (km/s) = 3.50965 4.17603 3.85726
# Velocity P-wave (km/s) = 6.10008 6.77134 6.44445
#
# Compressibility (1/GPa) = 0.01676191
#
# Stress axis : x y z
#
# Youngs Moduli (GPa) = 81.89309 109.44076 71.68872
#
# Poissons Ratio (x) = -0.20838 0.58336
# Poissons Ratio (y) = -0.15593 0.21754
# Poissons Ratio (z) = 0.66639 0.33210
#
# Static dielectric constant tensor:
#      x y z
#    x 2.137530 0.000000 -0.159650 
#    y 0.000000 2.280620 0.000000 
#    z -0.159650 0.000000 2.354290 
# 
# From -- ./inp_files/12866.got.cif
#   From: 2010.05.17/outbox.cif.g08.bks.cpg/sg9_7_cif.got.tgz:12866.got - 2010.06.03 20:04:27.
