data_PCOD9138511
_publ_section_title
;
Structure prediction by ZEFSAII (Michael W. Deem and Ramdas Pophale) SiO2 
 PCOD9138511
Probable space group: C C
;
_chemical_formula_sum "Si O2"
_cell_formula_units_Z 32
_cell_length_a 17.752553
_cell_length_b 8.828118
_cell_length_c 29.121384
_cell_angle_alpha 90.000000
_cell_angle_beta 18.915448
_cell_angle_gamma 90.000000
_cell_volume 1479.507303
_symmetry_space_group_name_H-M "C C"
_symmetry_group_IT_number 9
_symmetry_cell_setting 'monoclinic'
loop_
_space_group_symop_operation_xyz
x,y,z
x,-y,1/2+z
1/2+x,1/2+y,z
1/2+x,1/2-y,1/2+z
loop_
_atom_site_type_symbol
_atom_site_label
_atom_site_fract_x
_atom_site_fract_y
_atom_site_fract_z
Si Si1 0.290850 0.083223 0.687750
Si Si2 0.015306 0.206482 0.932456
Si Si3 0.133880 0.694851 0.877279
Si Si4 0.221588 0.969399 0.127641
Si Si5 0.443549 0.579272 0.207992
Si Si6 0.183848 0.748913 0.746022
Si Si7 0.223352 0.799248 0.460921
Si Si8 0.050151 0.031204 0.489093
O O1 0.109575 0.133947 0.831329
O O2 0.180377 0.104037 0.700983
O O3 0.529143 0.176395 0.557164
O O4 0.328134 0.903382 0.669324
O O5 0.234070 0.301343 0.826210
O O6 0.950267 0.081668 0.007743
O O7 0.817767 0.332415 0.040621
O O8 0.352930 0.585978 0.746675
O O9 0.070228 0.732032 0.861720
O O10 0.169282 0.836096 0.890430
O O11 0.929100 0.589688 0.014692
O O12 0.029528 0.057629 0.210011
O O13 0.627767 0.632386 0.064114
O O14 0.348210 0.610932 0.635541
O O15 0.977777 0.761716 0.827381
O O16 0.212262 0.932129 0.429176
#
# Coordination Sequence:
#
# PCOD9138511 Si02
#       8
#     4   4   4   4   4   4   4   4
#     4  11  24  45  67 100 135 179 235 282 334 414
#     4  10  24  42  69  98 142 172 227 288 330 412
#     4  11  23  43  65 100 139 174 227 288 331 409
#     4  11  22  43  69  96 134 185 226 276 350 400
#     4  10  23  44  68  97 136 182 225 277 348 405
#     4  12  25  45  71  98 142 181 225 285 344 405
#     4  11  25  46  72  99 137 188 225 279 352 401
#     4  12  24  44  67 102 139 177 230 281 341 406
#
# _framework density 21.628823000000001
#
# number of rings (size 3 to 8) (size 9 to 14) (size 15 to 20)
#    0.000    1.000    6.250    0.000    1.750    1.000 
#    4.500    0.000    0.000    0.000    0.000    0.000 
#    0.000    0.000    0.000    0.000    0.000    0.000 
#
# Total GULP energy -89355.182713 kJ/mol
# GULP energy per Si atom -5584.698920 kJ/mol
# Density = 2.157959 g / cm^3
# Si number density = 21.628823 Si / 1000 Ang^3
#
#
#
# Elastic Constant Matrix: (Units=GPa)
#
#
# Indices 1 2 3 4 5 6 
#
# 1 158.2380 47.7737 40.7490 -0.1313 14.2892 0.1486
# 2 47.7737 120.7586 24.3729 -0.0682 6.5342 0.0536
# 3 40.7490 24.3729 32.9286 -0.1375 11.4526 0.1934
# 4 -0.1313 -0.0682 -0.1375 15.7601 0.1475 12.1313
# 5 14.2892 6.5342 11.4526 0.1475 34.1425 -0.0744
# 6 0.1486 0.0536 0.1934 12.1313 -0.0744 41.9739
#
#
#
# Elastic Compliance Matrix: (Units=1/GPa)
#
#
# Indices 1 2 3 4 5 6 
#
# 1 0.009543 -0.001639 -0.010548 -0.000040 -0.000142 0.000028
# 2 -0.001639 0.010029 -0.005622 -0.000053 0.000653 0.000035
# 3 -0.010548 -0.005622 0.051714 0.000791 -0.011861 -0.000443
# 4 -0.000040 -0.000053 0.000791 0.081627 -0.000643 -0.023596
# 5 -0.000142 0.000653 -0.011861 -0.000643 0.033206 0.000299
# 6 0.000028 0.000035 -0.000443 -0.023596 0.000299 0.030647
#
#
# Mechanical properties :
#
#
# Convention : Reuss Voigt Hill
#
# Bulk Modulus (GPa) = 28.03610 59.74627 43.89119
# Shear Modulus (GPa) = 18.91984 31.64393 25.28189
#
# Velocity S-wave (km/s) = 2.96083 3.82913 3.42262
# Velocity P-wave (km/s) = 4.96782 6.87263 5.99634
#
# Compressibility (1/GPa) = 0.03566829
#
# Stress axis : x y z
#
# Youngs Moduli (GPa) = 104.78433 99.71312 19.33709
#
# Poissons Ratio (x) = 0.16343 0.20396
# Poissons Ratio (y) = 0.17174 0.10872
# Poissons Ratio (z) = 1.10523 0.56062
#
# Static dielectric constant tensor:
#      x y z
#    x 1.872760 0.000010 0.062200 
#    y 0.000010 1.791700 0.000040 
#    z 0.062200 0.000040 1.803230 
# 
# From -- ./inp_files/17894.got.cif
#   From: 2010.05.17/outbox.cif.g08.bks.cpg/sg9_9_cif.got.tgz:17894.got - 2010.06.03 20:04:27.
