data_PCOD9138783
_publ_section_title
;
Structure prediction by ZEFSAII (Michael W. Deem and Ramdas Pophale) SiO2 
 PCOD9138783
Probable space group: C C
;
_chemical_formula_sum "Si O2"
_cell_formula_units_Z 28
_cell_length_a 12.920147
_cell_length_b 11.877369
_cell_length_c 8.872986
_cell_angle_alpha 90.000000
_cell_angle_beta 55.740149
_cell_angle_gamma 90.000000
_cell_volume 1125.373451
_symmetry_space_group_name_H-M "C C"
_symmetry_group_IT_number 9
_symmetry_cell_setting 'monoclinic'
loop_
_space_group_symop_operation_xyz
x,y,z
x,-y,1/2+z
1/2+x,1/2+y,z
1/2+x,1/2-y,1/2+z
loop_
_atom_site_type_symbol
_atom_site_label
_atom_site_fract_x
_atom_site_fract_y
_atom_site_fract_z
Si Si1 0.543180 0.479040 0.899970
Si Si2 0.156494 0.430116 0.520983
Si Si3 0.107690 0.638304 0.767598
Si Si4 0.707879 0.294641 0.905188
Si Si5 0.808131 0.459377 0.036231
Si Si6 0.372125 0.591263 0.266467
Si Si7 0.382939 0.834526 0.270009
O O1 0.590728 0.377035 0.968041
O O2 0.667577 0.526199 0.717960
O O3 0.444276 0.433168 0.862015
O O4 0.472763 0.573671 0.052899
O O5 0.127280 0.519265 0.670796
O O6 0.055525 0.397753 0.475400
O O7 0.194024 0.305081 0.539554
O O8 0.268723 0.493362 0.340691
O O9 0.215732 0.722672 0.742558
O O10 0.019684 0.699925 0.721095
O O11 0.810533 0.375755 0.890429
O O12 0.881771 0.400634 0.112970
O O13 0.839036 0.579255 0.935775
O O14 0.313513 0.715434 0.312882
#
# Coordination Sequence:
#
# PCOD9138783 Si02
#       7
#     4   4   4   4   4   4   4
#     4  12  24  48  68 104 141 188 237 294 356 429
#     4  10  24  43  72 102 144 182 232 298 354 421
#     4  10  23  47  66 104 146 185 234 290 362 418
#     4  10  24  47  69 100 146 186 230 305 351 428
#     4  12  26  48  71 107 143 188 243 296 364 418
#     4  12  26  43  74 108 138 188 244 289 363 425
#     4  12  27  44  74 109 142 193 240 298 356 439
#
# _framework density 24.880628999999999
#
# number of rings (size 3 to 8) (size 9 to 14) (size 15 to 20)
#    0.857    0.000    4.286    1.714    6.000    1.143 
#    5.143    0.000    0.000    0.000    0.000    0.000 
#    0.000    0.000    0.000    0.000    0.000    0.000 
#
# Total GULP energy -78065.201926 kJ/mol
# GULP energy per Si atom -5576.085852 kJ/mol
# Density = 2.482400 g / cm^3
# Si number density = 24.880629 Si / 1000 Ang^3
#
#
#
# Elastic Constant Matrix: (Units=GPa)
#
#
# Indices 1 2 3 4 5 6 
#
# 1 79.9672 32.0961 31.9756 0.0000 40.6859 0.0000
# 2 32.0961 156.4221 40.8691 0.0000 16.1732 0.0000
# 3 31.9756 40.8691 90.0036 0.0000 11.7044 0.0000
# 4 0.0000 0.0000 0.0000 46.7230 0.0000 13.1041
# 5 40.6859 16.1732 11.7044 0.0000 37.3815 0.0000
# 6 0.0000 0.0000 0.0000 13.1041 0.0000 37.5305
#
#
#
# Elastic Compliance Matrix: (Units=1/GPa)
#
#
# Indices 1 2 3 4 5 6 
#
# 1 0.032172 -0.001558 -0.006522 0.000000 -0.032300 0.000000
# 2 -0.001558 0.007506 -0.002766 0.000000 -0.000686 0.000000
# 3 -0.006522 -0.002766 0.014182 0.000000 0.003855 0.000000
# 4 0.000000 0.000000 0.000000 0.023726 0.000000 -0.008284
# 5 -0.032300 -0.000686 0.003855 0.000000 0.060996 0.000000
# 6 0.000000 0.000000 0.000000 -0.008284 0.000000 0.029537
#
#
# Mechanical properties :
#
#
# Convention : Reuss Voigt Hill
#
# Bulk Modulus (GPa) = 31.08548 59.58606 45.33577
# Shear Modulus (GPa) = 24.93344 39.09047 32.01196
#
# Velocity S-wave (km/s) = 3.16907 3.96804 3.59084
# Velocity P-wave (km/s) = 5.09034 6.70780 5.95425
#
# Compressibility (1/GPa) = 0.03216936
#
# Stress axis : x y z
#
# Youngs Moduli (GPa) = 31.08323 133.22398 70.51004
#
# Poissons Ratio (x) = 0.20752 0.45987
# Poissons Ratio (y) = 0.04842 0.19502
# Poissons Ratio (z) = 0.20272 0.36847
#
# Static dielectric constant tensor:
#      x y z
#    x 2.070860 0.000000 -0.043160 
#    y 0.000000 2.037650 0.000000 
#    z -0.043160 0.000000 2.007530 
# 
# From -- ./inp_files/9042.got.cif
#   From: 2010.05.17/outbox.cif.g08.bks.cpg/sg9_5_cif.got.tgz:9042.got - 2010.06.03 20:04:27.
