data_PCOD9138272
_publ_section_title
;
Structure prediction by ZEFSAII (Michael W. Deem and Ramdas Pophale) SiO2 
 PCOD9138272
Probable space group: C C
;
_chemical_formula_sum "Si O2"
_cell_formula_units_Z 32
_cell_length_a 10.408875
_cell_length_b 7.605230
_cell_length_c 18.178047
_cell_angle_alpha 90.000000
_cell_angle_beta 75.227860
_cell_angle_gamma 90.000000
_cell_volume 1391.445677
_symmetry_space_group_name_H-M "C C"
_symmetry_group_IT_number 9
_symmetry_cell_setting 'monoclinic'
loop_
_space_group_symop_operation_xyz
x,y,z
x,-y,1/2+z
1/2+x,1/2+y,z
1/2+x,1/2-y,1/2+z
loop_
_atom_site_type_symbol
_atom_site_label
_atom_site_fract_x
_atom_site_fract_y
_atom_site_fract_z
Si Si1 0.330040 0.678767 0.321780
Si Si2 0.871915 0.564972 0.332200
Si Si3 0.819822 0.835150 0.563988
Si Si4 0.304088 0.070745 0.098768
Si Si5 0.537931 0.942975 0.671976
Si Si6 0.008903 0.136393 0.161491
Si Si7 0.433450 0.183267 0.947292
Si Si8 0.221941 0.379778 0.419191
O O1 0.403833 0.597816 0.241372
O O2 0.429776 0.688356 0.377778
O O3 0.216877 0.558462 0.372792
O O4 0.300613 0.885620 0.311601
O O5 0.997558 0.597929 0.261633
O O6 0.911534 0.500004 0.407355
O O7 0.782263 0.733864 0.356036
O O8 0.838296 0.625359 0.567072
O O9 0.941367 0.912597 0.593825
O O10 0.806194 0.892461 0.481689
O O11 0.680924 0.879029 0.625095
O O12 0.155037 0.060501 0.149766
O O13 0.413888 0.127163 0.141932
O O14 0.319722 0.196291 0.025211
O O15 0.532637 0.153602 0.663138
O O16 0.575606 0.180232 0.963943
#
# Coordination Sequence:
#
# PCOD9138272 Si02
#       8
#     4   4   4   4   4   4   4   4
#     4   9  24  44  63 100 126 171 220 266 327 394
#     4   9  23  45  60  98 131 165 215 280 315 391
#     4  11  24  41  64 100 125 174 219 260 335 389
#     4  11  23  43  64  94 136 168 217 274 319 393
#     4  10  23  42  65  93 134 167 212 271 329 385
#     4  10  25  43  64  95 134 170 216 269 325 394
#     4  10  23  44  62  97 132 166 223 275 314 399
#     4  12  23  44  70  93 132 175 220 269 338 381
#
# _framework density 22.997665000000001
#
# number of rings (size 3 to 8) (size 9 to 14) (size 15 to 20)
#    0.750    1.000    2.500    0.000    7.000    2.000 
#    2.250    0.000    0.000    0.000    0.000    0.000 
#    0.000    0.000    0.000    0.000    0.000    0.000 
#
# Total GULP energy -89267.716323 kJ/mol
# GULP energy per Si atom -5579.232270 kJ/mol
# Density = 2.294532 g / cm^3
# Si number density = 22.997665 Si / 1000 Ang^3
#
#
#
# Elastic Constant Matrix: (Units=GPa)
#
#
# Indices 1 2 3 4 5 6 
#
# 1 58.0067 -8.2016 -3.7627 0.0000 2.1919 0.0000
# 2 -8.2016 46.1851 5.7321 0.0000 -7.1543 0.0000
# 3 -3.7627 5.7321 81.8652 0.0000 -7.6415 0.0000
# 4 0.0000 0.0000 0.0000 26.1554 0.0000 -10.6115
# 5 2.1919 -7.1543 -7.6415 0.0000 34.6136 0.0000
# 6 0.0000 0.0000 0.0000 -10.6115 0.0000 17.2997
#
#
#
# Elastic Compliance Matrix: (Units=1/GPa)
#
#
# Indices 1 2 3 4 5 6 
#
# 1 0.017717 0.003018 0.000568 0.000000 -0.000373 0.000000
# 2 0.003018 0.022990 -0.001067 0.000000 0.004325 0.000000
# 3 0.000568 -0.001067 0.012551 0.000000 0.002514 0.000000
# 4 0.000000 0.000000 0.000000 0.050900 0.000000 0.031222
# 5 -0.000373 0.004325 0.002514 0.000000 0.030363 0.000000
# 6 0.000000 0.000000 0.000000 0.031222 0.000000 0.076956
#
#
# Mechanical properties :
#
#
# Convention : Reuss Voigt Hill
#
# Bulk Modulus (GPa) = 17.15388 19.28807 18.22097
# Shear Modulus (GPa) = 22.13654 28.43303 25.28478
#
# Velocity S-wave (km/s) = 3.10587 3.51998 3.31939
# Velocity P-wave (km/s) = 4.50967 4.99255 4.75724
#
# Compressibility (1/GPa) = 0.05829584
#
# Stress axis : x y z
#
# Youngs Moduli (GPa) = 56.44285 43.49643 79.67663
#
# Poissons Ratio (x) = -0.13127 -0.04527
# Poissons Ratio (y) = -0.17034 0.08504
# Poissons Ratio (z) = -0.03207 0.04642
#
# Static dielectric constant tensor:
#      x y z
#    x 1.824420 0.000000 0.013860 
#    y 0.000000 1.899810 0.000000 
#    z 0.013860 0.000000 1.842070 
# 
# From -- ./inp_files/29831.got.cif
#   From: 2010.05.17/outbox.cif.g08.bks.cpg/sg9_15_cif.got.tgz:29831.got - 2010.06.03 20:04:27.
