data_PCOD9138206
_publ_section_title
;
Structure prediction by ZEFSAII (Michael W. Deem and Ramdas Pophale) SiO2 
 PCOD9138206
Probable space group: C C
;
_chemical_formula_sum "Si O2"
_cell_formula_units_Z 32
_cell_length_a 7.089402
_cell_length_b 21.941690
_cell_length_c 10.715873
_cell_angle_alpha 90.000000
_cell_angle_beta 52.984013
_cell_angle_gamma 90.000000
_cell_volume 1330.958490
_symmetry_space_group_name_H-M "C C"
_symmetry_group_IT_number 9
_symmetry_cell_setting 'monoclinic'
loop_
_space_group_symop_operation_xyz
x,y,z
x,-y,1/2+z
1/2+x,1/2+y,z
1/2+x,1/2-y,1/2+z
loop_
_atom_site_type_symbol
_atom_site_label
_atom_site_fract_x
_atom_site_fract_y
_atom_site_fract_z
Si Si1 0.582710 0.983381 0.201820
Si Si2 0.839207 0.607153 0.651642
Si Si3 0.507599 0.424656 0.770514
Si Si4 0.989211 0.612745 0.948488
Si Si5 0.395858 0.449423 0.421858
Si Si6 0.741766 0.296091 0.379066
Si Si7 0.254027 0.324985 0.718468
Si Si8 0.797127 0.395257 0.879235
O O1 0.525403 0.947444 0.094839
O O2 0.577357 0.929499 0.300830
O O3 0.403399 0.037291 0.308738
O O4 0.823243 0.018295 0.077800
O O5 0.640900 0.583398 0.826959
O O6 0.865981 0.671877 0.706934
O O7 0.753287 0.610934 0.544470
O O8 0.756512 0.417076 0.600247
O O9 0.437485 0.494751 0.810988
O O10 0.321926 0.384666 0.770563
O O11 0.568506 0.394352 0.881579
O O12 0.908791 0.678258 0.925726
O O13 0.200308 0.599925 0.960903
O O14 0.472522 0.311208 0.536257
O O15 0.736215 0.227566 0.330224
O O16 0.994004 0.343162 0.769143
#
# Coordination Sequence:
#
# PCOD9138206 Si02
#       8
#     4   4   4   4   4   4   4   4
#     4  11  21  37  63  93 135 174 217 271 327 403
#     4  11  24  40  62  98 134 174 223 267 334 403
#     4  11  24  43  66 102 135 177 224 272 341 404
#     4  10  23  41  64  96 134 176 223 274 335 406
#     4  12  21  38  61 100 137 170 216 273 333 390
#     4  10  24  47  70  94 127 176 229 278 344 394
#     4  11  24  47  73  92 133 175 221 293 334 393
#     4  12  23  43  65  99 137 176 225 270 332 407
#
# _framework density 24.042824
#
# number of rings (size 3 to 8) (size 9 to 14) (size 15 to 20)
#    0.000    1.000    2.500    4.500    1.750    3.000 
#    2.250    1.250    0.000    0.000    0.000    0.000 
#    0.000    0.000    0.000    0.000    0.000    0.000 
#
# Total GULP energy -89323.934925 kJ/mol
# GULP energy per Si atom -5582.745933 kJ/mol
# Density = 2.398810 g / cm^3
# Si number density = 24.042824 Si / 1000 Ang^3
#
#
#
# Elastic Constant Matrix: (Units=GPa)
#
#
# Indices 1 2 3 4 5 6 
#
# 1 75.0844 21.0633 13.6820 0.0000 -1.2915 0.0000
# 2 21.0633 111.7290 12.9791 0.0000 2.8458 0.0000
# 3 13.6820 12.9791 92.1798 0.0000 19.3939 0.0000
# 4 0.0000 0.0000 0.0000 40.0305 0.0000 3.3224
# 5 -1.2915 2.8458 19.3939 0.0000 35.6164 0.0000
# 6 0.0000 0.0000 0.0000 3.3224 0.0000 23.1662
#
#
#
# Elastic Compliance Matrix: (Units=1/GPa)
#
#
# Indices 1 2 3 4 5 6 
#
# 1 0.014458 -0.002520 -0.002195 0.000000 0.001921 0.000000
# 2 -0.002520 0.009538 -0.000892 0.000000 -0.000368 0.000000
# 3 -0.002195 -0.000892 0.012764 0.000000 -0.006959 0.000000
# 4 0.000000 0.000000 0.000000 0.025282 0.000000 -0.003626
# 5 0.001921 -0.000368 -0.006959 0.000000 0.031965 0.000000
# 6 0.000000 0.000000 0.000000 -0.003626 0.000000 0.043686
#
#
# Mechanical properties :
#
#
# Convention : Reuss Voigt Hill
#
# Bulk Modulus (GPa) = 39.14350 41.60465 40.37407
# Shear Modulus (GPa) = 31.76170 35.18054 33.47112
#
# Velocity S-wave (km/s) = 3.63856 3.82939 3.73519
# Velocity P-wave (km/s) = 5.82823 6.07406 5.95242
#
# Compressibility (1/GPa) = 0.02554703
#
# Stress axis : x y z
#
# Youngs Moduli (GPa) = 69.16462 104.84188 78.34668
#
# Poissons Ratio (x) = 0.26416 0.17200
# Poissons Ratio (y) = 0.17427 0.06985
# Poissons Ratio (z) = 0.15184 0.09348
#
# Static dielectric constant tensor:
#      x y z
#    x 2.022740 0.000000 0.003370 
#    y 0.000000 1.960610 0.000000 
#    z 0.003370 0.000000 2.033690 
# 
# From -- ./inp_files/15403.got.cif
#   From: 2010.05.17/outbox.cif.g08.bks.cpg/sg9_8_cif.got.tgz:15403.got - 2010.06.03 20:04:27.
