data_PCOD9138943
_publ_section_title
;
Structure prediction by ZEFSAII (Michael W. Deem and Ramdas Pophale) SiO2 
 PCOD9138943
Probable space group: C C
;
_chemical_formula_sum "Si O2"
_cell_formula_units_Z 32
_cell_length_a 16.703504
_cell_length_b 10.677644
_cell_length_c 14.214308
_cell_angle_alpha 90.000000
_cell_angle_beta 145.551143
_cell_angle_gamma 90.000000
_cell_volume 1434.076062
_symmetry_space_group_name_H-M "C C"
_symmetry_group_IT_number 9
_symmetry_cell_setting 'monoclinic'
loop_
_space_group_symop_operation_xyz
x,y,z
x,-y,1/2+z
1/2+x,1/2+y,z
1/2+x,1/2-y,1/2+z
loop_
_atom_site_type_symbol
_atom_site_label
_atom_site_fract_x
_atom_site_fract_y
_atom_site_fract_z
Si Si1 0.717140 0.873832 0.645610
Si Si2 0.189752 0.109199 0.679464
Si Si3 0.737805 0.440776 0.560145
Si Si4 0.926188 0.389772 0.567353
Si Si5 0.419637 0.490360 0.218002
Si Si6 0.922172 0.110336 0.521790
Si Si7 0.821865 0.773361 0.264740
Si Si8 0.065638 0.591141 0.578191
O O1 0.645857 0.738796 0.586198
O O2 0.801874 0.881535 0.826709
O O3 0.832927 0.892588 0.676061
O O4 0.607614 0.988668 0.538451
O O5 0.296969 0.120345 0.868810
O O6 0.051100 0.046681 0.590014
O O7 0.268128 0.032009 0.675689
O O8 0.859869 0.424540 0.602573
O O9 0.589922 0.492072 0.376090
O O10 0.726331 0.306335 0.599177
O O11 0.982784 0.246750 0.615888
O O12 0.022253 0.502033 0.622435
O O13 0.388570 0.382249 0.265145
O O14 0.370090 0.455374 0.065629
O O15 0.940196 0.684606 0.425920
O O16 0.710954 0.831467 0.230997
#
# Coordination Sequence:
#
# PCOD9138943 Si02
#       8
#     4   4   4   4   4   4   4   4
#     4  10  24  42  65  95 135 175 220 281 333 390
#     4  11  22  40  65  93 133 174 215 267 335 397
#     4  12  22  39  65  98 131 173 219 272 331 399
#     4  11  23  39  65  96 131 178 223 270 324 401
#     4  11  22  40  67 101 130 169 227 277 327 400
#     4  11  21  40  68  96 129 172 227 266 328 400
#     4  11  23  40  69  95 137 174 222 279 337 388
#     4  11  23  44  66  98 134 179 223 278 337 397
#
# _framework density 22.314019999999999
#
# number of rings (size 3 to 8) (size 9 to 14) (size 15 to 20)
#    0.000    1.000    7.500    0.000    0.000    0.000 
#    4.500    5.000    0.000    0.000    0.000    0.000 
#    0.000    0.000    0.000    0.000    0.000    0.000 
#
# Total GULP energy -89316.025037 kJ/mol
# GULP energy per Si atom -5582.251565 kJ/mol
# Density = 2.226323 g / cm^3
# Si number density = 22.314020 Si / 1000 Ang^3
#
#
#
# Elastic Constant Matrix: (Units=GPa)
#
#
# Indices 1 2 3 4 5 6 
#
# 1 149.1997 49.2153 24.4078 0.0000 3.7107 0.0000
# 2 49.2153 50.7456 3.5063 0.0000 6.5913 0.0000
# 3 24.4078 3.5063 43.9403 0.0000 7.5815 0.0000
# 4 0.0000 0.0000 0.0000 26.7302 0.0000 8.9698
# 5 3.7107 6.5913 7.5815 0.0000 34.3771 0.0000
# 6 0.0000 0.0000 0.0000 8.9698 0.0000 29.1737
#
#
#
# Elastic Compliance Matrix: (Units=1/GPa)
#
#
# Indices 1 2 3 4 5 6 
#
# 1 0.011084 -0.010630 -0.005670 0.000000 0.002092 0.000000
# 2 -0.010630 0.030445 0.004454 0.000000 -0.005672 0.000000
# 3 -0.005670 0.004454 0.026606 0.000000 -0.006110 0.000000
# 4 0.000000 0.000000 0.000000 0.041715 0.000000 -0.012826
# 5 0.002092 -0.005672 -0.006110 0.000000 0.031298 0.000000
# 6 0.000000 0.000000 0.000000 -0.012826 0.000000 0.038221
#
#
# Mechanical properties :
#
#
# Convention : Reuss Voigt Hill
#
# Bulk Modulus (GPa) = 22.50038 44.23827 33.36933
# Shear Modulus (GPa) = 22.94885 29.17326 26.06106
#
# Velocity S-wave (km/s) = 3.21042 3.61972 3.42120
# Velocity P-wave (km/s) = 4.88343 6.11050 5.53109
#
# Compressibility (1/GPa) = 0.04444369
#
# Stress axis : x y z
#
# Youngs Moduli (GPa) = 90.21677 32.84643 37.58493
#
# Poissons Ratio (x) = 0.34916 0.21310
# Poissons Ratio (y) = 0.95902 -0.16741
# Poissons Ratio (z) = 0.51152 -0.14630
#
# Static dielectric constant tensor:
#      x y z
#    x 1.812410 0.000000 0.032600 
#    y 0.000000 1.898450 0.000000 
#    z 0.032600 0.000000 1.852170 
# 
# From -- ./inp_files/9108.got.cif
#   From: 2010.05.17/outbox.cif.g08.bks.cpg/sg9_5_cif.got.tgz:9108.got - 2010.06.03 20:04:27.
