data_PCOD9138613
_publ_section_title
;
Structure prediction by ZEFSAII (Michael W. Deem and Ramdas Pophale) SiO2 
 PCOD9138613
Probable space group: C C
;
_chemical_formula_sum "Si O2"
_cell_formula_units_Z 28
_cell_length_a 10.134045
_cell_length_b 9.876090
_cell_length_c 15.599554
_cell_angle_alpha 90.000000
_cell_angle_beta 46.025870
_cell_angle_gamma 90.000000
_cell_volume 1123.578491
_symmetry_space_group_name_H-M "C C"
_symmetry_group_IT_number 9
_symmetry_cell_setting 'monoclinic'
loop_
_space_group_symop_operation_xyz
x,y,z
x,-y,1/2+z
1/2+x,1/2+y,z
1/2+x,1/2-y,1/2+z
loop_
_atom_site_type_symbol
_atom_site_label
_atom_site_fract_x
_atom_site_fract_y
_atom_site_fract_z
Si Si1 0.277650 0.214803 0.663420
Si Si2 0.488472 0.503644 0.857076
Si Si3 0.287939 0.113663 0.323732
Si Si4 0.270012 0.394050 0.232799
Si Si5 0.660375 0.988285 0.615600
Si Si6 0.547994 0.620725 0.153620
Si Si7 0.395280 0.977779 0.959250
O O1 0.217272 0.350175 0.640088
O O2 0.427119 0.263444 0.665158
O O3 0.367397 0.114081 0.554528
O O4 0.097866 0.139623 0.781799
O O5 0.591755 0.452224 0.895048
O O6 0.452811 0.518781 0.663019
O O7 0.524172 0.395257 0.766068
O O8 0.292412 0.256604 0.274485
O O9 0.442946 0.024114 0.206108
O O10 0.334812 0.105186 0.402168
O O11 0.216218 0.392032 0.156427
O O12 0.101345 0.474671 0.351824
O O13 0.776504 0.986874 0.476649
O O14 0.758546 0.606223 0.030666
#
# Coordination Sequence:
#
# PCOD9138613 Si02
#       7
#     4   4   4   4   4   4   4
#     4  10  23  45  72  99 138 184 235 285 354 419
#     4  11  25  44  67 106 139 184 232 290 358 412
#     4  11  23  45  71 102 144 179 232 293 350 422
#     4  10  23  45  67 104 134 182 235 282 353 423
#     4  10  24  44  70  97 139 186 232 287 352 420
#     4  10  23  46  66 104 140 176 236 288 349 425
#     4  10  23  45  73 104 140 183 230 289 354 417
#
# _framework density 24.920377999999999
#
# number of rings (size 3 to 8) (size 9 to 14) (size 15 to 20)
#    0.000    1.714    0.000    3.429    8.000    4.571 
#   15.429    0.000    0.000    0.000    0.000    0.000 
#    0.000    0.000    0.000    0.000    0.000    0.000 
#
# Total GULP energy -78468.408183 kJ/mol
# GULP energy per Si atom -5604.886299 kJ/mol
# Density = 2.486366 g / cm^3
# Si number density = 24.920378 Si / 1000 Ang^3
#
#
#
# Elastic Constant Matrix: (Units=GPa)
#
#
# Indices 1 2 3 4 5 6 
#
# 1 89.9250 20.4697 26.6854 0.0000 13.5400 0.0000
# 2 20.4697 108.8693 27.8238 0.0000 21.1349 0.0000
# 3 26.6854 27.8238 151.8957 0.0000 -4.2858 0.0000
# 4 0.0000 0.0000 0.0000 19.5501 0.0000 1.1293
# 5 13.5400 21.1349 -4.2858 0.0000 45.0533 0.0000
# 6 0.0000 0.0000 0.0000 1.1293 0.0000 36.7522
#
#
#
# Elastic Compliance Matrix: (Units=1/GPa)
#
#
# Indices 1 2 3 4 5 6 
#
# 1 0.012517 -0.001158 -0.002083 0.000000 -0.003417 0.000000
# 2 -0.001158 0.010851 -0.001923 0.000000 -0.004925 0.000000
# 3 -0.002083 -0.001923 0.007365 0.000000 0.002229 0.000000
# 4 0.000000 0.000000 0.000000 0.051242 0.000000 -0.001575
# 5 -0.003417 -0.004925 0.002229 0.000000 0.025745 0.000000
# 6 0.000000 0.000000 0.000000 -0.001575 0.000000 0.027258
#
#
# Mechanical properties :
#
#
# Convention : Reuss Voigt Hill
#
# Bulk Modulus (GPa) = 49.01095 55.62752 52.31924
# Shear Modulus (GPa) = 32.87188 38.65187 35.76187
#
# Velocity S-wave (km/s) = 3.63585 3.94256 3.79231
# Velocity P-wave (km/s) = 6.11028 6.56473 6.34158
#
# Compressibility (1/GPa) = 0.02040360
#
# Stress axis : x y z
#
# Youngs Moduli (GPa) = 79.89406 92.16057 135.78416
#
# Poissons Ratio (x) = 0.10669 0.28288
# Poissons Ratio (y) = 0.09249 0.26114
# Poissons Ratio (z) = 0.16644 0.17724
#
# Static dielectric constant tensor:
#      x y z
#    x 1.980310 0.000000 0.027950 
#    y 0.000000 1.986160 0.000000 
#    z 0.027950 0.000000 1.898240 
# 
# From -- ./inp_files/22605.got.cif
#   From: 2010.05.17/outbox.cif.g08.bks.cpg/sg9_12_cif.got.tgz:22605.got - 2010.06.03 20:04:27.
