data_PCOD9138470
_publ_section_title
;
Structure prediction by ZEFSAII (Michael W. Deem and Ramdas Pophale) SiO2 
 PCOD9138470
Probable space group: C C
;
_chemical_formula_sum "Si O2"
_cell_formula_units_Z 28
_cell_length_a 12.068611
_cell_length_b 12.017718
_cell_length_c 9.595534
_cell_angle_alpha 90.000000
_cell_angle_beta 50.835598
_cell_angle_gamma 90.000000
_cell_volume 1079.043536
_symmetry_space_group_name_H-M "C C"
_symmetry_group_IT_number 9
_symmetry_cell_setting 'monoclinic'
loop_
_space_group_symop_operation_xyz
x,y,z
x,-y,1/2+z
1/2+x,1/2+y,z
1/2+x,1/2-y,1/2+z
loop_
_atom_site_type_symbol
_atom_site_label
_atom_site_fract_x
_atom_site_fract_y
_atom_site_fract_z
Si Si1 0.123290 0.480558 0.231240
Si Si2 0.766338 0.192331 0.447153
Si Si3 0.814718 0.558180 0.978655
Si Si4 0.779004 0.102359 0.857899
Si Si5 0.816185 0.670509 0.408880
Si Si6 0.590421 0.715840 0.829696
Si Si7 0.009444 0.993915 0.826174
O O1 0.142150 0.362073 0.139240
O O2 0.180846 0.713464 0.369375
O O3 0.966210 0.477773 0.423037
O O4 0.181876 0.568257 0.069408
O O5 0.822339 0.315735 0.427415
O O6 0.730744 0.024747 0.773124
O O7 0.897252 0.108741 0.391949
O O8 0.666896 0.550562 0.178031
O O9 0.811457 0.457462 0.866371
O O10 0.772686 0.233651 0.834937
O O11 0.942440 0.073189 0.759302
O O12 0.704127 0.681570 0.622728
O O13 0.964037 0.711189 0.362318
O O14 0.524474 0.594701 0.931051
#
# Coordination Sequence:
#
# PCOD9138470 Si02
#       7
#     4   4   4   4   4   4   4
#     4  11  26  46  76 107 148 197 252 312 377 463
#     4  11  25  45  72 102 152 195 249 306 382 454
#     4  11  24  43  68 113 144 193 245 319 375 452
#     4  10  24  48  75 108 149 202 247 313 393 452
#     4  10  23  44  71 105 144 193 250 307 382 457
#     4  10  23  43  75 105 141 199 248 307 376 458
#     4   9  23  45  71 108 148 195 253 312 375 456
#
# _framework density 25.948906000000001
#
# number of rings (size 3 to 8) (size 9 to 14) (size 15 to 20)
#    0.000    1.714    0.000    1.714   12.000    3.429 
#   18.000    0.000    0.000    0.000    0.000    0.000 
#    0.000    0.000    0.000    0.000    0.000    0.000 
#
# Total GULP energy -77957.118809 kJ/mol
# GULP energy per Si atom -5568.365629 kJ/mol
# Density = 2.588985 g / cm^3
# Si number density = 25.948906 Si / 1000 Ang^3
#
#
#
# Elastic Constant Matrix: (Units=GPa)
#
#
# Indices 1 2 3 4 5 6 
#
# 1 89.4010 32.2059 45.5053 0.0000 -19.2712 0.0000
# 2 32.2059 248.6341 11.2929 0.0000 -7.0441 0.0000
# 3 45.5053 11.2929 94.2711 0.0000 -36.4859 0.0000
# 4 0.0000 0.0000 0.0000 24.5033 0.0000 -13.9334
# 5 -19.2712 -7.0441 -36.4859 0.0000 41.8238 0.0000
# 6 0.0000 0.0000 0.0000 -13.9334 0.0000 31.8547
#
#
#
# Elastic Compliance Matrix: (Units=1/GPa)
#
#
# Indices 1 2 3 4 5 6 
#
# 1 0.015510 -0.001670 -0.006990 0.000000 0.000768 0.000000
# 2 -0.001670 0.004228 0.000419 0.000000 0.000308 0.000000
# 3 -0.006990 0.000419 0.019192 0.000000 0.013593 0.000000
# 4 0.000000 0.000000 0.000000 0.054322 0.000000 0.023761
# 5 0.000768 0.000308 0.013593 0.000000 0.036173 0.000000
# 6 0.000000 0.000000 0.000000 0.023761 0.000000 0.041786
#
#
# Mechanical properties :
#
#
# Convention : Reuss Voigt Hill
#
# Bulk Modulus (GPa) = 44.54527 67.81271 56.17899
# Shear Modulus (GPa) = 25.61780 42.52315 34.07047
#
# Velocity S-wave (km/s) = 3.14545 4.05251 3.62744
# Velocity P-wave (km/s) = 5.51322 6.93448 6.26429
#
# Compressibility (1/GPa) = 0.02244907
#
# Stress axis : x y z
#
# Youngs Moduli (GPa) = 64.47272 236.51968 52.10402
#
# Poissons Ratio (x) = 0.39495 0.36420
# Poissons Ratio (y) = 0.10766 -0.02182
# Poissons Ratio (z) = 0.45065 -0.09905
#
# Static dielectric constant tensor:
#      x y z
#    x 2.102020 0.000000 0.011210 
#    y 0.000000 2.177430 0.000000 
#    z 0.011210 0.000000 2.119630 
# 
# From -- ./inp_files/19260.got.cif
#   From: 2010.05.17/outbox.cif.g08.bks.cpg/sg9_10_cif.got.tgz:19260.got - 2010.06.03 20:04:27.
