data_PCOD9138595
_publ_section_title
;
Structure prediction by ZEFSAII (Michael W. Deem and Ramdas Pophale) SiO2 
 PCOD9138595
Probable space group: C C
;
_chemical_formula_sum "Si O2"
_cell_formula_units_Z 24
_cell_length_a 6.664546
_cell_length_b 17.955870
_cell_length_c 14.698427
_cell_angle_alpha 90.000000
_cell_angle_beta 40.615034
_cell_angle_gamma 90.000000
_cell_volume 1145.014904
_symmetry_space_group_name_H-M "C C"
_symmetry_group_IT_number 9
_symmetry_cell_setting 'monoclinic'
loop_
_space_group_symop_operation_xyz
x,y,z
x,-y,1/2+z
1/2+x,1/2+y,z
1/2+x,1/2-y,1/2+z
loop_
_atom_site_type_symbol
_atom_site_label
_atom_site_fract_x
_atom_site_fract_y
_atom_site_fract_z
Si Si1 0.229490 0.605710 0.167010
Si Si2 0.930096 0.513413 0.121373
Si Si3 0.838305 0.743301 0.233742
Si Si4 0.735078 0.943872 0.857011
Si Si5 0.237297 0.783726 0.556291
Si Si6 0.367294 0.847845 0.109066
O O1 0.146897 0.556613 0.282905
O O2 0.554820 0.644402 0.080248
O O3 0.183917 0.552300 0.096572
O O4 0.995909 0.674161 0.232033
O O5 0.600474 0.551981 0.242944
O O6 0.854382 0.426223 0.166263
O O7 0.066543 0.508103 0.972594
O O8 0.524235 0.765106 0.392447
O O9 0.821361 0.717489 0.134145
O O10 0.060907 0.815121 0.169257
O O11 0.606923 0.867987 0.945912
O O12 0.001531 0.715327 0.626376
#
# Coordination Sequence:
#
# PCOD9138595 Si02
#       6
#     4   4   4   4   4   4
#     4  11  23  42  69  98 141 182 230 293 351 413
#     4  10  24  41  68  97 140 178 229 277 356 407
#     4  11  24  43  72 100 137 185 239 290 352 419
#     4  10  23  45  64  98 137 187 225 289 341 430
#     4  11  23  41  70 102 138 184 238 290 348 419
#     4   9  23  42  65  99 137 180 231 285 348 416
#
# _framework density 20.960425000000001
#
# number of rings (size 3 to 8) (size 9 to 14) (size 15 to 20)
#    1.000    0.667    0.000    4.000    0.000   10.667 
#    0.000    0.000    0.000    0.000    0.000    0.000 
#    0.000    0.000    0.000    0.000    0.000    0.000 
#
# Total GULP energy -66905.995895 kJ/mol
# GULP energy per Si atom -5575.499658 kJ/mol
# Density = 2.091272 g / cm^3
# Si number density = 20.960425 Si / 1000 Ang^3
#
#
#
# Elastic Constant Matrix: (Units=GPa)
#
#
# Indices 1 2 3 4 5 6 
#
# 1 123.6648 52.7403 60.7286 -0.0001 1.7327 0.0001
# 2 52.7403 103.2017 28.6073 0.0000 -5.3419 0.0000
# 3 60.7286 28.6073 102.3898 -0.0002 0.8040 0.0002
# 4 -0.0001 0.0000 -0.0002 30.6343 0.0002 5.8674
# 5 1.7327 -5.3419 0.8040 0.0002 29.2113 0.0000
# 6 0.0001 0.0000 0.0002 5.8674 0.0000 36.2204
#
#
#
# Elastic Compliance Matrix: (Units=1/GPa)
#
#
# Indices 1 2 3 4 5 6 
#
# 1 0.013547 -0.005182 -0.006575 0.000000 -0.001570 0.000000
# 2 -0.005182 0.012604 -0.000469 0.000000 0.002625 0.000000
# 3 -0.006575 -0.000469 0.013798 0.000000 -0.000075 0.000000
# 4 0.000000 0.000000 0.000000 0.033688 0.000000 -0.005457
# 5 -0.001570 0.002625 -0.000075 0.000000 0.034809 0.000000
# 6 0.000000 0.000000 0.000000 -0.005457 0.000000 0.028493
#
#
# Mechanical properties :
#
#
# Convention : Reuss Voigt Hill
#
# Bulk Modulus (GPa) = 64.52483 68.15653 66.34068
# Shear Modulus (GPa) = 30.02020 31.69189 30.85604
#
# Velocity S-wave (km/s) = 3.78859 3.89265 3.84097
# Velocity P-wave (km/s) = 7.07028 7.26574 7.16867
#
# Compressibility (1/GPa) = 0.01549791
#
# Stress axis : x y z
#
# Youngs Moduli (GPa) = 73.81690 79.34193 72.47585
#
# Poissons Ratio (x) = 0.41114 0.47651
# Poissons Ratio (y) = 0.38251 0.03396
# Poissons Ratio (z) = 0.48533 0.03718
#
# Static dielectric constant tensor:
#      x y z
#    x 1.749520 0.000000 0.000190 
#    y 0.000000 1.785290 0.000000 
#    z 0.000190 0.000000 1.754970 
# 
# From -- ./inp_files/3870.got.cif
#   From: 2010.05.17/outbox.cif.g08.bks.cpg/sg9_2_cif.got.tgz:3870.got - 2010.06.03 20:04:27.
