data_PCOD9138475
_publ_section_title
;
Structure prediction by ZEFSAII (Michael W. Deem and Ramdas Pophale) SiO2 
 PCOD9138475
Probable space group: C C
;
_chemical_formula_sum "Si O2"
_cell_formula_units_Z 28
_cell_length_a 18.553488
_cell_length_b 9.159319
_cell_length_c 7.525823
_cell_angle_alpha 90.000000
_cell_angle_beta 57.992926
_cell_angle_gamma 90.000000
_cell_volume 1084.500423
_symmetry_space_group_name_H-M "C C"
_symmetry_group_IT_number 9
_symmetry_cell_setting 'monoclinic'
loop_
_space_group_symop_operation_xyz
x,y,z
x,-y,1/2+z
1/2+x,1/2+y,z
1/2+x,1/2-y,1/2+z
loop_
_atom_site_type_symbol
_atom_site_label
_atom_site_fract_x
_atom_site_fract_y
_atom_site_fract_z
Si Si1 0.227740 0.258986 0.792820
Si Si2 0.818527 0.269555 0.756042
Si Si3 0.085404 0.789523 0.890929
Si Si4 0.218272 0.436964 0.169068
Si Si5 0.650090 0.424920 0.134871
Si Si6 0.951169 0.351640 0.314328
Si Si7 0.912112 0.337650 0.972196
O O1 0.224307 0.390902 0.652670
O O2 0.152389 0.157857 0.821047
O O3 0.313821 0.164260 0.676079
O O4 0.223243 0.352472 0.976808
O O5 0.791145 0.117909 0.705662
O O6 0.859620 0.346335 0.530715
O O7 0.739200 0.369681 0.927884
O O8 0.887529 0.252766 0.822858
O O9 0.132955 0.635109 0.859455
O O10 0.008610 0.749025 0.863240
O O11 0.140812 0.908064 0.705895
O O12 0.078498 0.865372 0.093320
O O13 0.956649 0.304260 0.102369
O O14 0.964434 0.525053 0.323274
#
# Coordination Sequence:
#
# PCOD9138475 Si02
#       7
#     4   4   4   4   4   4   4
#     4  11  23  41  75 105 138 183 247 302 352 424
#     4  10  23  43  77 100 140 179 252 296 350 427
#     4  11  26  46  69 106 145 190 239 298 371 434
#     4  11  23  44  71 108 143 181 242 306 356 422
#     4  10  24  45  74 102 137 194 243 303 354 436
#     4  12  25  44  69 105 146 190 240 297 360 444
#     4  11  24  43  73 104 137 193 241 294 359 429
#
# _framework density 25.818341
#
# number of rings (size 3 to 8) (size 9 to 14) (size 15 to 20)
#    0.000    1.143    2.857    3.429   10.000    2.286 
#    7.714    0.000    0.000    0.000    0.000    0.000 
#    0.000    0.000    0.000    0.000    0.000    0.000 
#
# Total GULP energy -78056.172508 kJ/mol
# GULP energy per Si atom -5575.440893 kJ/mol
# Density = 2.575958 g / cm^3
# Si number density = 25.818341 Si / 1000 Ang^3
#
#
#
# Elastic Constant Matrix: (Units=GPa)
#
#
# Indices 1 2 3 4 5 6 
#
# 1 125.2885 45.9434 48.5221 0.0000 46.5862 0.0000
# 2 45.9434 133.1770 15.6381 0.0000 -0.7545 0.0000
# 3 48.5221 15.6381 107.4408 0.0000 41.9868 0.0000
# 4 0.0000 0.0000 0.0000 29.4620 0.0000 5.8574
# 5 46.5862 -0.7545 41.9868 0.0000 54.2330 0.0000
# 6 0.0000 0.0000 0.0000 5.8574 0.0000 33.3094
#
#
#
# Elastic Compliance Matrix: (Units=1/GPa)
#
#
# Indices 1 2 3 4 5 6 
#
# 1 0.014633 -0.004954 -0.001360 0.000000 -0.011586 0.000000
# 2 -0.004954 0.009390 -0.001209 0.000000 0.005322 0.000000
# 3 -0.001360 -0.001209 0.013833 0.000000 -0.009558 0.000000
# 4 0.000000 0.000000 0.000000 0.035172 0.000000 -0.006185
# 5 -0.011586 0.005322 -0.009558 0.000000 0.035865 0.000000
# 6 0.000000 0.000000 0.000000 -0.006185 0.000000 0.031109
#
#
# Mechanical properties :
#
#
# Convention : Reuss Voigt Hill
#
# Bulk Modulus (GPa) = 43.84170 65.12371 54.48271
# Shear Modulus (GPa) = 30.74074 40.45439 35.59757
#
# Velocity S-wave (km/s) = 3.45433 3.96269 3.71721
# Velocity P-wave (km/s) = 5.73825 6.79822 6.29060
#
# Compressibility (1/GPa) = 0.02280933
#
# Stress axis : x y z
#
# Youngs Moduli (GPa) = 68.33965 106.49634 72.29232
#
# Poissons Ratio (x) = 0.52758 0.09830
# Poissons Ratio (y) = 0.33855 0.08743
# Poissons Ratio (z) = 0.09292 0.12879
#
# Static dielectric constant tensor:
#      x y z
#    x 2.082990 0.000000 -0.048340 
#    y 0.000000 2.059670 0.000000 
#    z -0.048340 0.000000 2.226820 
# 
# From -- ./inp_files/11210.got.cif
#   From: 2010.05.17/outbox.cif.g08.bks.cpg/sg9_6_cif.got.tgz:11210.got - 2010.06.03 20:04:27.
