data_PCOD9138683
_publ_section_title
;
Structure prediction by ZEFSAII (Michael W. Deem and Ramdas Pophale) SiO2 
 PCOD9138683
Probable space group: C C
;
_chemical_formula_sum "Si O2"
_cell_formula_units_Z 32
_cell_length_a 17.285623
_cell_length_b 6.848751
_cell_length_c 21.373370
_cell_angle_alpha 90.000000
_cell_angle_beta 30.014707
_cell_angle_gamma 90.000000
_cell_volume 1265.704863
_symmetry_space_group_name_H-M "C C"
_symmetry_group_IT_number 9
_symmetry_cell_setting 'monoclinic'
loop_
_space_group_symop_operation_xyz
x,y,z
x,-y,1/2+z
1/2+x,1/2+y,z
1/2+x,1/2-y,1/2+z
loop_
_atom_site_type_symbol
_atom_site_label
_atom_site_fract_x
_atom_site_fract_y
_atom_site_fract_z
Si Si1 0.540250 0.394276 0.732130
Si Si2 0.512713 0.896767 0.355781
Si Si3 0.695956 0.920488 0.485364
Si Si4 0.588216 0.329076 0.553103
Si Si5 0.830370 0.869557 0.196794
Si Si6 0.232583 0.085290 0.360439
Si Si7 0.767789 0.712338 0.560629
Si Si8 0.933394 0.071993 0.497918
O O1 0.558551 0.188908 0.755909
O O2 0.368136 0.484467 0.857202
O O3 0.594438 0.372473 0.622301
O O4 0.655201 0.564456 0.675632
O O5 0.424340 0.706065 0.444080
O O6 0.651818 0.924367 0.308418
O O7 0.405224 0.084775 0.433075
O O8 0.581913 0.098667 0.552413
O O9 0.677432 0.753017 0.447208
O O10 0.685029 0.825435 0.561579
O O11 0.436793 0.443356 0.635567
O O12 0.732948 0.405663 0.409025
O O13 0.851762 0.710088 0.235738
O O14 0.877212 0.798542 0.095330
O O15 0.108814 0.022693 0.394305
O O16 0.837924 0.876016 0.556433
#
# Coordination Sequence:
#
# PCOD9138683 Si02
#       8
#     4   4   4   4   4   4   4   4
#     4  12  25  46  78 111 150 210 247 320 395 453
#     4  11  25  47  72 110 157 195 258 320 380 468
#     4  12  26  46  75 114 153 199 258 322 383 471
#     4  11  25  49  73 111 154 200 264 315 387 463
#     4  10  23  45  77 104 149 205 249 317 392 440
#     4  10  23  49  72 110 150 193 259 319 374 463
#     4  12  27  47  74 110 156 201 258 316 392 468
#     4  10  24  45  69 108 153 193 259 313 377 462
#
# _framework density 25.282354000000002
#
# number of rings (size 3 to 8) (size 9 to 14) (size 15 to 20)
#    0.000    1.000    3.750    1.500    3.500    4.000 
#    4.500    5.000    0.000    0.000    0.000    0.000 
#    0.000    0.000    0.000    0.000    0.000    0.000 
#
# Total GULP energy -89474.758588 kJ/mol
# GULP energy per Si atom -5592.172412 kJ/mol
# Density = 2.522481 g / cm^3
# Si number density = 25.282354 Si / 1000 Ang^3
#
#
#
# Elastic Constant Matrix: (Units=GPa)
#
#
# Indices 1 2 3 4 5 6 
#
# 1 106.9170 46.1187 22.5148 0.0000 0.5777 0.0000
# 2 46.1187 141.3422 23.3322 -0.0003 -9.6989 0.0004
# 3 22.5148 23.3322 52.9977 0.0001 5.5182 0.0001
# 4 0.0000 -0.0003 0.0001 39.4816 -0.0002 -9.9740
# 5 0.5777 -9.6989 5.5182 -0.0002 50.9393 0.0000
# 6 0.0000 0.0004 0.0001 -9.9740 0.0000 44.1052
#
#
#
# Elastic Compliance Matrix: (Units=1/GPa)
#
#
# Indices 1 2 3 4 5 6 
#
# 1 0.011455 -0.003198 -0.003420 0.000000 -0.000368 0.000000
# 2 -0.003198 0.008696 -0.002676 0.000000 0.001982 0.000000
# 3 -0.003420 -0.002676 0.021795 0.000000 -0.002832 0.000000
# 4 0.000000 0.000000 0.000000 0.026863 0.000000 0.006075
# 5 -0.000368 0.001982 -0.002832 0.000000 0.020320 0.000000
# 6 0.000000 0.000000 0.000000 0.006075 0.000000 0.024047
#
#
# Mechanical properties :
#
#
# Convention : Reuss Voigt Hill
#
# Bulk Modulus (GPa) = 42.81371 53.90979 48.36175
# Shear Modulus (GPa) = 35.82953 40.85795 38.34374
#
# Velocity S-wave (km/s) = 3.76862 4.02439 3.89861
# Velocity P-wave (km/s) = 5.99230 6.55467 6.27978
#
# Compressibility (1/GPa) = 0.02335700
#
# Stress axis : x y z
#
# Youngs Moduli (GPa) = 87.29951 114.99013 45.88282
#
# Poissons Ratio (x) = 0.36778 0.15691
# Poissons Ratio (y) = 0.27921 0.12279
# Poissons Ratio (z) = 0.29855 0.30774
#
# Static dielectric constant tensor:
#      x y z
#    x 1.992930 0.000000 -0.066090 
#    y 0.000000 1.946970 0.000000 
#    z -0.066090 0.000000 2.175680 
# 
# From -- ./inp_files/35947.got.cif
#   From: 2010.05.17/outbox.cif.g08.bks.cpg/sg9_18_cif.got.tgz:35947.got - 2010.06.03 20:04:27.
