data_PCOD9138488
_publ_section_title
;
Structure prediction by ZEFSAII (Michael W. Deem and Ramdas Pophale) SiO2 
 PCOD9138488
Probable space group: C C
;
_chemical_formula_sum "Si O2"
_cell_formula_units_Z 32
_cell_length_a 23.780379
_cell_length_b 8.430932
_cell_length_c 18.203731
_cell_angle_alpha 90.000000
_cell_angle_beta 20.676541
_cell_angle_gamma 90.000000
_cell_volume 1288.672054
_symmetry_space_group_name_H-M "C C"
_symmetry_group_IT_number 9
_symmetry_cell_setting 'monoclinic'
loop_
_space_group_symop_operation_xyz
x,y,z
x,-y,1/2+z
1/2+x,1/2+y,z
1/2+x,1/2-y,1/2+z
loop_
_atom_site_type_symbol
_atom_site_label
_atom_site_fract_x
_atom_site_fract_y
_atom_site_fract_z
Si Si1 0.611030 0.091536 0.252720
Si Si2 0.156297 0.446307 0.979070
Si Si3 0.167179 0.797045 0.906830
Si Si4 0.393556 0.517122 0.808463
Si Si5 0.563340 0.433923 0.362181
Si Si6 0.666355 0.623286 0.906043
Si Si7 0.284377 0.633424 0.632714
Si Si8 0.383542 0.090388 0.917316
O O1 0.534757 0.259594 0.362976
O O2 0.652274 0.994880 0.274701
O O3 0.498061 0.988727 0.338853
O O4 0.788842 0.098775 0.999170
O O5 0.974245 0.435900 0.229630
O O6 0.194757 0.626050 0.908430
O O7 0.266177 0.423832 0.915745
O O8 0.209824 0.306646 0.858778
O O9 0.194889 0.766520 0.788011
O O10 0.266524 0.961236 0.798737
O O11 0.988794 0.844118 0.148712
O O12 0.543044 0.397459 0.625449
O O13 0.594052 0.407300 0.412385
O O14 0.424435 0.553914 0.508235
O O15 0.718680 0.498566 0.129450
O O16 0.350915 0.726679 0.480232
#
# Coordination Sequence:
#
# PCOD9138488 Si02
#       8
#     4   4   4   4   4   4   4   4
#     4  11  24  42  70 101 137 184 227 292 346 419
#     4  11  22  44  69  96 137 182 227 292 347 417
#     4  10  23  44  65  94 137 176 232 284 343 408
#     4   9  22  44  64 100 134 172 242 280 342 425
#     4  12  24  44  66 103 137 181 235 288 346 425
#     4  10  23  44  64  99 134 175 232 285 344 414
#     4  12  24  44  70  94 142 184 228 289 352 413
#     4  11  24  42  68 103 138 178 235 280 358 413
#
# _framework density 24.831764
#
# number of rings (size 3 to 8) (size 9 to 14) (size 15 to 20)
#    0.750    0.500    1.250    4.500    0.000    3.000 
#    2.250    0.000    0.000    0.000    0.000    0.000 
#    0.000    0.000    0.000    0.000    0.000    0.000 
#
# Total GULP energy -89197.642144 kJ/mol
# GULP energy per Si atom -5574.852634 kJ/mol
# Density = 2.477525 g / cm^3
# Si number density = 24.831764 Si / 1000 Ang^3
#
#
#
# Elastic Constant Matrix: (Units=GPa)
#
#
# Indices 1 2 3 4 5 6 
#
# 1 24.2370 30.4768 -11.0289 0.0000 0.6008 0.0000
# 2 30.4768 160.3523 7.1431 0.0000 -9.2176 0.0000
# 3 -11.0289 7.1431 81.4192 0.0000 4.0766 0.0000
# 4 0.0000 0.0000 0.0000 33.0182 0.0000 5.8374
# 5 0.6008 -9.2176 4.0766 0.0000 28.9365 0.0000
# 6 0.0000 0.0000 0.0000 5.8374 0.0000 24.1961
#
#
#
# Elastic Compliance Matrix: (Units=1/GPa)
#
#
# Indices 1 2 3 4 5 6 
#
# 1 0.061633 -0.012532 0.009781 0.000000 -0.006650 0.000000
# 2 -0.012532 0.008937 -0.002656 0.000000 0.003481 0.000000
# 3 0.009781 -0.002656 0.013991 0.000000 -0.003020 0.000000
# 4 0.000000 0.000000 0.000000 0.031636 0.000000 -0.007632
# 5 -0.006650 0.003481 -0.003020 0.000000 0.036231 0.000000
# 6 0.000000 0.000000 0.000000 -0.007632 0.000000 0.043170
#
#
# Mechanical properties :
#
#
# Convention : Reuss Voigt Hill
#
# Bulk Modulus (GPa) = 13.55974 35.46559 24.51267
# Shear Modulus (GPa) = 21.64554 33.19132 27.41843
#
# Velocity S-wave (km/s) = 2.95564 3.65999 3.32651
# Velocity P-wave (km/s) = 4.13766 5.67221 4.96459
#
# Compressibility (1/GPa) = 0.07374770
#
# Stress axis : x y z
#
# Youngs Moduli (GPa) = 16.22494 111.89993 71.47303
#
# Poissons Ratio (x) = 1.40234 -0.69909
# Poissons Ratio (y) = 0.20333 0.18983
# Poissons Ratio (z) = -0.15870 0.29719
#
# Static dielectric constant tensor:
#      x y z
#    x 2.005490 0.000000 0.059820 
#    y 0.000000 2.032460 0.000000 
#    z 0.059820 0.000000 1.996110 
# 
# From -- ./inp_files/34613.got.cif
#   From: 2010.05.17/outbox.cif.g08.bks.cpg/sg9_18_cif.got.tgz:34613.got - 2010.06.03 20:04:27.
