data_PCOD9138821
_publ_section_title
;
Structure prediction by ZEFSAII (Michael W. Deem and Ramdas Pophale) SiO2 
 PCOD9138821
Probable space group: C C
;
_chemical_formula_sum "Si O2"
_cell_formula_units_Z 28
_cell_length_a 24.195451
_cell_length_b 10.518403
_cell_length_c 9.850061
_cell_angle_alpha 90.000000
_cell_angle_beta 152.875043
_cell_angle_gamma 90.000000
_cell_volume 1142.939172
_symmetry_space_group_name_H-M "C C"
_symmetry_group_IT_number 9
_symmetry_cell_setting 'monoclinic'
loop_
_space_group_symop_operation_xyz
x,y,z
x,-y,1/2+z
1/2+x,1/2+y,z
1/2+x,1/2-y,1/2+z
loop_
_atom_site_type_symbol
_atom_site_label
_atom_site_fract_x
_atom_site_fract_y
_atom_site_fract_z
Si Si1 0.620680 0.848276 0.679570
Si Si2 0.359867 0.159072 0.680576
Si Si3 0.171367 0.468441 0.523188
Si Si4 0.915490 0.817597 0.048460
Si Si5 0.619839 0.495263 0.408273
Si Si6 0.749826 0.595290 0.948285
Si Si7 0.602092 0.260111 0.680893
O O1 0.482968 0.794706 0.378436
O O2 0.624314 0.957708 0.573179
O O3 0.723547 0.743768 0.868521
O O4 0.650013 0.903916 0.892354
O O5 0.227175 0.222454 0.365272
O O6 0.355637 0.006655 0.651029
O O7 0.371425 0.197950 0.864475
O O8 0.109799 0.360811 0.294522
O O9 0.309438 0.419983 0.835831
O O10 0.985604 0.767052 0.331859
O O11 0.012186 0.896132 0.172712
O O12 0.649639 0.535700 0.626150
O O13 0.726014 0.427371 0.555635
O O14 0.594718 0.620177 0.266050
#
# Coordination Sequence:
#
# PCOD9138821 Si02
#       7
#     4   4   4   4   4   4   4
#     4  12  27  50  72 117 160 208 265 332 400 476
#     4  10  24  46  79 109 153 202 261 326 400 463
#     4  11  29  47  72 108 160 201 266 326 402 466
#     4  11  23  46  76 113 150 204 259 330 394 479
#     4  11  20  42  75 109 147 201 258 312 395 474
#     4  11  24  46  75 112 152 203 264 320 399 477
#     4  10  23  47  77 108 150 201 261 332 386 477
#
# _framework density 24.498242999999999
#
# number of rings (size 3 to 8) (size 9 to 14) (size 15 to 20)
#    0.000    1.143    5.714    0.000    4.000    3.429 
#    0.000    1.429    0.000    0.000    0.000    0.000 
#    0.000    0.000    0.000    0.000    0.000    0.000 
#
# Total GULP energy -78177.035781 kJ/mol
# GULP energy per Si atom -5584.073984 kJ/mol
# Density = 2.444248 g / cm^3
# Si number density = 24.498243 Si / 1000 Ang^3
#
#
#
# Elastic Constant Matrix: (Units=GPa)
#
#
# Indices 1 2 3 4 5 6 
#
# 1 72.4070 -2.6445 19.9935 0.0000 1.1629 0.0000
# 2 -2.6445 82.5446 16.0341 0.0000 -7.5807 0.0000
# 3 19.9935 16.0341 109.1383 0.0000 6.1007 0.0000
# 4 0.0000 0.0000 0.0000 40.2720 0.0000 -7.4231
# 5 1.1629 -7.5807 6.1007 0.0000 26.9469 0.0000
# 6 0.0000 0.0000 0.0000 -7.4231 0.0000 31.5850
#
#
#
# Elastic Compliance Matrix: (Units=1/GPa)
#
#
# Indices 1 2 3 4 5 6 
#
# 1 0.014632 0.001051 -0.002852 0.000000 0.000310 0.000000
# 2 0.001051 0.012981 -0.002331 0.000000 0.004134 0.000000
# 3 -0.002852 -0.002331 0.010186 0.000000 -0.002839 0.000000
# 4 0.000000 0.000000 0.000000 0.025955 0.000000 0.006100
# 5 0.000310 0.004134 -0.002839 0.000000 0.038902 0.000000
# 6 0.000000 0.000000 0.000000 0.006100 0.000000 0.033094
#
#
# Mechanical properties :
#
#
# Convention : Reuss Voigt Hill
#
# Bulk Modulus (GPa) = 33.85763 36.76179 35.30971
# Shear Modulus (GPa) = 32.49718 35.14124 33.81921
#
# Velocity S-wave (km/s) = 3.64608 3.79151 3.71951
# Velocity P-wave (km/s) = 5.61922 5.84858 5.73505
#
# Compressibility (1/GPa) = 0.02953544
#
# Stress axis : x y z
#
# Youngs Moduli (GPa) = 68.34418 77.03715 98.17104
#
# Poissons Ratio (x) = -0.08099 0.28001
# Poissons Ratio (y) = -0.07185 0.22881
# Poissons Ratio (z) = 0.19493 0.17955
#
# Static dielectric constant tensor:
#      x y z
#    x 1.957360 0.000000 0.046430 
#    y 0.000000 1.947110 0.000000 
#    z 0.046430 0.000000 1.932170 
# 
# From -- ./inp_files/12181.got.cif
#   From: 2010.05.17/outbox.cif.g08.bks.cpg/sg9_7_cif.got.tgz:12181.got - 2010.06.03 20:04:27.
