data_PCOD9138529
_publ_section_title
;
Structure prediction by ZEFSAII (Michael W. Deem and Ramdas Pophale) SiO2 
 PCOD9138529
Probable space group: C C
;
_chemical_formula_sum "Si O2"
_cell_formula_units_Z 24
_cell_length_a 7.221786
_cell_length_b 12.403550
_cell_length_c 10.157200
_cell_angle_alpha 90.000000
_cell_angle_beta 99.126646
_cell_angle_gamma 90.000000
_cell_volume 898.320721
_symmetry_space_group_name_H-M "C C"
_symmetry_group_IT_number 9
_symmetry_cell_setting 'monoclinic'
loop_
_space_group_symop_operation_xyz
x,y,z
x,-y,1/2+z
1/2+x,1/2+y,z
1/2+x,1/2-y,1/2+z
loop_
_atom_site_type_symbol
_atom_site_label
_atom_site_fract_x
_atom_site_fract_y
_atom_site_fract_z
Si Si1 0.302050 0.022495 0.527580
Si Si2 0.354122 0.734798 0.106716
Si Si3 0.275765 0.190902 0.164342
Si Si4 0.029874 0.895541 0.822664
Si Si5 0.838186 0.076258 0.664888
Si Si6 0.632840 0.057282 0.924271
O O1 0.347173 0.137290 0.597517
O O2 0.086630 0.043844 0.460175
O O3 0.350894 0.920749 0.622720
O O4 0.417420 0.978861 0.412315
O O5 0.566354 0.707799 0.078725
O O6 0.366667 0.686922 0.259297
O O7 0.200875 0.665103 0.010411
O O8 0.390917 0.298844 0.157305
O O9 0.216465 0.172712 0.308726
O O10 0.000883 0.992833 0.717127
O O11 0.725205 0.036650 0.525321
O O12 0.711835 0.064973 0.785191
#
# Coordination Sequence:
#
# PCOD9138529 Si02
#       6
#     4   4   4   4   4   4
#     4  12  23  42  74 105 135 193 242 289 365 430
#     4   9  22  44  66 102 144 184 229 303 348 428
#     4  10  23  44  69  97 142 189 232 298 349 428
#     4   9  23  42  69  96 141 188 230 300 354 416
#     4  11  23  48  69 104 143 191 238 297 361 424
#     4  11  24  44  75 100 145 185 237 299 361 426
#
# _framework density 26.716515999999999
#
# number of rings (size 3 to 8) (size 9 to 14) (size 15 to 20)
#    1.000    0.667    1.667    2.000    2.333    1.333 
#    3.000    1.667    0.000    0.000    0.000    0.000 
#    0.000    0.000    0.000    0.000    0.000    0.000 
#
# Total GULP energy -66912.145149 kJ/mol
# GULP energy per Si atom -5576.012096 kJ/mol
# Density = 2.665571 g / cm^3
# Si number density = 26.716516 Si / 1000 Ang^3
#
#
#
# Elastic Constant Matrix: (Units=GPa)
#
#
# Indices 1 2 3 4 5 6 
#
# 1 53.9588 24.7814 21.2623 0.0000 -0.4464 0.0000
# 2 24.7814 242.6770 42.0386 0.0000 4.0712 0.0000
# 3 21.2623 42.0386 102.3817 0.0000 4.6555 0.0000
# 4 0.0000 0.0000 0.0000 38.3830 0.0000 -0.4973
# 5 -0.4464 4.0712 4.6555 0.0000 33.8663 0.0000
# 6 0.0000 0.0000 0.0000 -0.4973 0.0000 35.8252
#
#
#
# Elastic Compliance Matrix: (Units=1/GPa)
#
#
# Indices 1 2 3 4 5 6 
#
# 1 0.020692 -0.001483 -0.003732 0.000000 0.000964 0.000000
# 2 -0.001483 0.004545 -0.001542 0.000000 -0.000354 0.000000
# 3 -0.003732 -0.001542 0.011240 0.000000 -0.001409 0.000000
# 4 0.000000 0.000000 0.000000 0.026058 0.000000 0.000362
# 5 0.000964 -0.000354 -0.001409 0.000000 0.029777 0.000000
# 6 0.000000 0.000000 0.000000 0.000362 0.000000 0.027918
#
#
# Mechanical properties :
#
#
# Convention : Reuss Voigt Hill
#
# Bulk Modulus (GPa) = 43.54881 63.90913 53.72897
# Shear Modulus (GPa) = 35.36088 42.34392 38.85240
#
# Velocity S-wave (km/s) = 3.64202 3.98544 3.81760
# Velocity P-wave (km/s) = 5.83279 6.71948 6.29178
#
# Compressibility (1/GPa) = 0.02296274
#
# Stress axis : x y z
#
# Youngs Moduli (GPa) = 48.32718 220.01169 88.96927
#
# Poissons Ratio (x) = 0.32620 0.33207
# Poissons Ratio (y) = 0.07165 0.13722
# Poissons Ratio (z) = 0.18037 0.33932
#
# Static dielectric constant tensor:
#      x y z
#    x 2.180780 0.000000 -0.093430 
#    y 0.000000 2.043990 0.000000 
#    z -0.093430 0.000000 2.202240 
# 
# From -- ./inp_files/14189.got.cif
#   From: 2010.05.17/outbox.cif.g08.bks.cpg/sg9_8_cif.got.tgz:14189.got - 2010.06.03 20:04:27.
