data_PCOD9138257
_publ_section_title
;
Structure prediction by ZEFSAII (Michael W. Deem and Ramdas Pophale) SiO2 
 PCOD9138257
Probable space group: C C
;
_chemical_formula_sum "Si O2"
_cell_formula_units_Z 24
_cell_length_a 9.517188
_cell_length_b 21.778088
_cell_length_c 7.923056
_cell_angle_alpha 90.000000
_cell_angle_beta 146.439286
_cell_angle_gamma 90.000000
_cell_volume 907.831217
_symmetry_space_group_name_H-M "C C"
_symmetry_group_IT_number 9
_symmetry_cell_setting 'monoclinic'
loop_
_space_group_symop_operation_xyz
x,y,z
x,-y,1/2+z
1/2+x,1/2+y,z
1/2+x,1/2-y,1/2+z
loop_
_atom_site_type_symbol
_atom_site_label
_atom_site_fract_x
_atom_site_fract_y
_atom_site_fract_z
Si Si1 0.868770 0.137504 0.853690
Si Si2 0.996298 0.427759 0.800193
Si Si3 0.321119 0.951857 0.266713
Si Si4 0.057129 0.792504 0.235203
Si Si5 0.393196 0.288113 0.720289
Si Si6 0.809827 0.959365 0.555179
O O1 0.594720 0.133355 0.486919
O O2 0.040964 0.161681 0.876121
O O3 0.916409 0.178715 0.064768
O O4 0.873304 0.069888 0.939108
O O5 0.838592 0.424908 0.470473
O O6 0.876216 0.474315 0.816412
O O7 0.236729 0.469054 0.971971
O O8 0.557032 0.928791 0.385949
O O9 0.054084 0.946740 0.910463
O O10 0.324206 0.756910 0.510446
O O11 0.987383 0.822587 0.983774
O O12 0.099851 0.267186 0.432927
#
# Coordination Sequence:
#
# PCOD9138257 Si02
#       6
#     4   4   4   4   4   4
#     4  12  24  45  77 107 133 198 232 279 356 422
#     4  10  23  43  64  98 139 186 234 283 326 417
#     4  10  23  42  61  89 146 183 222 291 331 381
#     4  10  24  48  73 107 139 172 231 300 353 420
#     4  10  24  49  73 104 143 172 227 304 355 414
#     4  10  24  43  62  97 140 179 232 281 335 402
#
# _framework density 26.436631999999999
#
# number of rings (size 3 to 8) (size 9 to 14) (size 15 to 20)
#    1.000    0.667    1.667    1.000    7.000    2.667 
#   12.000    0.000    0.000    0.000    0.000    0.000 
#    0.000    0.000    0.000    0.000    0.000    0.000 
#
# Total GULP energy -67081.559266 kJ/mol
# GULP energy per Si atom -5590.129939 kJ/mol
# Density = 2.637646 g / cm^3
# Si number density = 26.436632 Si / 1000 Ang^3
#
#
#
# Elastic Constant Matrix: (Units=GPa)
#
#
# Indices 1 2 3 4 5 6 
#
# 1 144.1376 40.7808 75.3014 0.0000 -21.8799 0.0000
# 2 40.7808 46.1792 42.0028 0.0000 -5.5599 0.0000
# 3 75.3014 42.0028 211.5635 0.0000 -8.4230 0.0000
# 4 0.0000 0.0000 0.0000 26.9231 0.0000 -16.6858
# 5 -21.8799 -5.5599 -8.4230 0.0000 69.6730 0.0000
# 6 0.0000 0.0000 0.0000 -16.6858 0.0000 39.6465
#
#
#
# Elastic Compliance Matrix: (Units=1/GPa)
#
#
# Indices 1 2 3 4 5 6 
#
# 1 0.010429 -0.006867 -0.002251 0.000000 0.002455 0.000000
# 2 -0.006867 0.031102 -0.003736 0.000000 -0.000126 0.000000
# 3 -0.002251 -0.003736 0.006260 0.000000 -0.000248 0.000000
# 4 0.000000 0.000000 0.000000 0.050250 0.000000 0.021148
# 5 0.002455 -0.000126 -0.000248 0.000000 0.015084 0.000000
# 6 0.000000 0.000000 0.000000 0.021148 0.000000 0.034124
#
#
# Mechanical properties :
#
#
# Convention : Reuss Voigt Hill
#
# Bulk Modulus (GPa) = 45.28318 79.78337 62.53327
# Shear Modulus (GPa) = 27.72906 43.50155 35.61530
#
# Velocity S-wave (km/s) = 3.24217 4.06088 3.67440
# Velocity P-wave (km/s) = 5.58405 7.22719 6.45809
#
# Compressibility (1/GPa) = 0.02208326
#
# Stress axis : x y z
#
# Youngs Moduli (GPa) = 95.88273 32.15255 159.75301
#
# Poissons Ratio (x) = 0.22080 0.35960
# Poissons Ratio (y) = 0.65845 0.59677
# Poissons Ratio (z) = 0.21583 0.12011
#
# Static dielectric constant tensor:
#      x y z
#    x 2.083210 0.000000 0.020520 
#    y 0.000000 2.126260 0.000000 
#    z 0.020520 0.000000 2.082290 
# 
# From -- ./inp_files/8547.got.cif
#   From: 2010.05.17/outbox.cif.g08.bks.cpg/sg9_5_cif.got.tgz:8547.got - 2010.06.03 20:04:27.
