data_PCOD9138298
_publ_section_title
;
Structure prediction by ZEFSAII (Michael W. Deem and Ramdas Pophale) SiO2 
 PCOD9138298
Probable space group: C C
;
_chemical_formula_sum "Si O2"
_cell_formula_units_Z 24
_cell_length_a 5.349473
_cell_length_b 18.578049
_cell_length_c 9.700940
_cell_angle_alpha 90.000000
_cell_angle_beta 72.680233
_cell_angle_gamma 90.000000
_cell_volume 920.391939
_symmetry_space_group_name_H-M "C C"
_symmetry_group_IT_number 9
_symmetry_cell_setting 'monoclinic'
loop_
_space_group_symop_operation_xyz
x,y,z
x,-y,1/2+z
1/2+x,1/2+y,z
1/2+x,1/2-y,1/2+z
loop_
_atom_site_type_symbol
_atom_site_label
_atom_site_fract_x
_atom_site_fract_y
_atom_site_fract_z
Si Si1 0.790910 0.295683 0.864160
Si Si2 0.935893 0.384782 0.578716
Si Si3 0.772331 0.623055 0.628990
Si Si4 0.174335 0.570472 0.769111
Si Si5 0.807566 0.244574 0.316361
Si Si6 0.360905 0.579609 0.211003
O O1 0.871838 0.317297 0.693810
O O2 0.517767 0.255171 0.901834
O O3 0.004462 0.243535 0.896433
O O4 0.778092 0.365176 0.963471
O O5 0.670299 0.430588 0.644763
O O6 0.987845 0.388830 0.407991
O O7 0.207042 0.415219 0.593101
O O8 0.467723 0.603677 0.708985
O O9 0.851546 0.700082 0.685887
O O10 0.000250 0.573965 0.657464
O O11 0.228490 0.488311 0.804685
O O12 0.819536 0.158905 0.280422
#
# Coordination Sequence:
#
# PCOD9138298 Si02
#       6
#     4   4   4   4   4   4
#     4  10  23  44  70 100 141 188 232 290 362 425
#     4  10  23  44  70 100 141 188 232 290 362 425
#     4  12  26  44  71 107 139 179 241 302 351 417
#     4  12  26  44  71 107 139 179 241 302 351 417
#     4  10  23  42  67  97 139 187 229 280 353 426
#     4  10  23  42  67  97 139 187 229 280 353 426
#
# _framework density 26.075848000000001
#
# number of rings (size 3 to 8) (size 9 to 14) (size 15 to 20)
#    0.000    1.333    0.000    4.000    0.000   16.000 
#    0.000    0.000    0.000    0.000    0.000    0.000 
#    0.000    0.000    0.000    0.000    0.000    0.000 
#
# Total GULP energy -66955.207727 kJ/mol
# GULP energy per Si atom -5579.600644 kJ/mol
# Density = 2.601650 g / cm^3
# Si number density = 26.075848 Si / 1000 Ang^3
#
#
#
# Elastic Constant Matrix: (Units=GPa)
#
#
# Indices 1 2 3 4 5 6 
#
# 1 215.8185 15.5151 10.4182 0.0000 6.1327 0.0000
# 2 15.5151 124.4318 21.9780 0.0000 -6.4234 0.0000
# 3 10.4182 21.9780 102.1881 0.0000 2.7507 0.0000
# 4 0.0000 0.0000 0.0000 20.5717 0.0000 -1.4218
# 5 6.1327 -6.4234 2.7507 0.0000 24.2501 0.0000
# 6 0.0000 0.0000 0.0000 -1.4218 0.0000 -6.2468
#
#
#
# Elastic Compliance Matrix: (Units=1/GPa)
#
#
# Indices 1 2 3 4 5 6 
#
# 1 0.004730 -0.000602 -0.000317 0.000000 -0.001320 0.000000
# 2 -0.000602 0.008575 -0.001854 0.000000 0.002634 0.000000
# 3 -0.000317 -0.001854 0.010259 0.000000 -0.001575 0.000000
# 4 0.000000 0.000000 0.000000 0.047858 0.000000 -0.010893
# 5 -0.001320 0.002634 -0.001575 0.000000 0.042447 0.000000
# 6 0.000000 0.000000 0.000000 -0.010893 0.000000 -0.157603
#
#
# Mechanical properties :
#
#
# Convention : Reuss Voigt Hill
#
# Bulk Modulus (GPa) = 55.49948 59.80679 57.65314
# Shear Modulus (GPa) = -155.36116 34.01680 -60.67218
#
# Velocity S-wave (km/s) = -7.72721 3.61575 -4.82888
# Velocity P-wave (km/s) = 7.63433 6.35744 2.98881
#
# Compressibility (1/GPa) = 0.01801819
#
# Stress axis : x y z
#
# Youngs Moduli (GPa) = 211.43455 116.61853 97.47249
#
# Poissons Ratio (x) = 0.07018 0.03092
# Poissons Ratio (y) = 0.12724 0.18069
# Poissons Ratio (z) = 0.06708 0.21619
#
# Static dielectric constant tensor:
#      x y z
#    x 2.171910 0.000000 0.025460 
#    y 0.000000 2.112850 0.000000 
#    z 0.025460 0.000000 2.054410 
# 
# From -- ./inp_files/3822.got.cif
#   From: 2010.05.17/outbox.cif.g08.bks.cpg/sg9_2_cif.got.tgz:3822.got - 2010.06.03 20:04:27.
