data_PCOD9138212
_publ_section_title
;
Structure prediction by ZEFSAII (Michael W. Deem and Ramdas Pophale) SiO2 
 PCOD9138212
Probable space group: C C
;
_chemical_formula_sum "Si O2"
_cell_formula_units_Z 32
_cell_length_a 8.966221
_cell_length_b 5.271290
_cell_length_c 27.281912
_cell_angle_alpha 90.000000
_cell_angle_beta 104.675667
_cell_angle_gamma 90.000000
_cell_volume 1247.372620
_symmetry_space_group_name_H-M "C C"
_symmetry_group_IT_number 9
_symmetry_cell_setting 'monoclinic'
loop_
_space_group_symop_operation_xyz
x,y,z
x,-y,1/2+z
1/2+x,1/2+y,z
1/2+x,1/2-y,1/2+z
loop_
_atom_site_type_symbol
_atom_site_label
_atom_site_fract_x
_atom_site_fract_y
_atom_site_fract_z
Si Si1 0.873540 0.690824 0.429150
Si Si2 0.551703 0.043178 0.204928
Si Si3 0.594639 0.808945 0.453317
Si Si4 0.990309 0.369681 0.334138
Si Si5 0.022683 0.496004 0.086161
Si Si6 0.741827 0.545274 0.242954
Si Si7 0.159133 0.994639 0.048634
Si Si8 0.591079 0.624034 0.859646
O O1 0.770155 0.876541 0.453706
O O2 0.998173 0.532308 0.469849
O O3 0.098981 0.068680 0.488613
O O4 0.959796 0.808109 0.389623
O O5 0.657010 0.815176 0.235057
O O6 0.384245 0.043543 0.216308
O O7 0.538613 0.992912 0.146186
O O8 0.628797 0.315945 0.220267
O O9 0.737856 0.496185 0.399345
O O10 0.509458 0.808171 0.393537
O O11 0.831349 0.474640 0.300711
O O12 0.026874 0.089660 0.317459
O O13 0.111386 0.599798 0.336678
O O14 0.841806 0.535002 0.060306
O O15 0.082696 0.229242 0.069892
O O16 0.120909 0.733211 0.073938
#
# Coordination Sequence:
#
# PCOD9138212 Si02
#       8
#     4   4   4   4   4   4   4   4
#     4  10  23  41  65  94 136 190 234 275 332 394
#     4  12  26  49  74 104 139 180 235 301 354 410
#     4  10  24  43  68 102 146 185 228 280 338 416
#     4  10  24  43  68 102 146 185 228 280 338 416
#     4  12  26  49  74 104 139 180 235 301 354 410
#     4  12  27  45  75 108 139 185 235 282 356 424
#     4  12  27  45  75 108 139 185 235 282 356 424
#     4  10  23  41  65  94 136 192 234 275 332 394
#
# _framework density 25.653922999999999
#
# number of rings (size 3 to 8) (size 9 to 14) (size 15 to 20)
#    0.000    1.000    0.000    5.250    0.000   25.000 
#    0.000    0.000    0.000    0.000    0.000    0.000 
#    0.000    0.000    0.000    0.000    0.000    0.000 
#
# Total GULP energy -89571.333037 kJ/mol
# GULP energy per Si atom -5598.208315 kJ/mol
# Density = 2.559553 g / cm^3
# Si number density = 25.653923 Si / 1000 Ang^3
#
#
#
# Elastic Constant Matrix: (Units=GPa)
#
#
# Indices 1 2 3 4 5 6 
#
# 1 164.7204 43.9161 3.7432 0.0000 -9.2324 0.0000
# 2 43.9161 173.4096 3.6289 0.0000 0.2508 0.0000
# 3 3.7432 3.6289 107.7055 0.0000 -17.6279 0.0000
# 4 0.0000 0.0000 0.0000 41.6531 0.0000 0.5814
# 5 -9.2324 0.2508 -17.6279 0.0000 37.4914 0.0000
# 6 0.0000 0.0000 0.0000 0.5814 0.0000 50.9761
#
#
#
# Elastic Compliance Matrix: (Units=1/GPa)
#
#
# Indices 1 2 3 4 5 6 
#
# 1 0.006611 -0.001679 0.000103 0.000000 0.001688 0.000000
# 2 -0.001679 0.006198 -0.000244 0.000000 -0.000569 0.000000
# 3 0.000103 -0.000244 0.010068 0.000000 0.004761 0.000000
# 4 0.000000 0.000000 0.000000 0.024012 0.000000 -0.000274
# 5 0.001688 -0.000569 0.004761 0.000000 0.029331 0.000000
# 6 0.000000 0.000000 0.000000 -0.000274 0.000000 0.019620
#
#
# Mechanical properties :
#
#
# Convention : Reuss Voigt Hill
#
# Bulk Modulus (GPa) = 51.98027 60.93466 56.45747
# Shear Modulus (GPa) = 47.21835 52.32726 49.77280
#
# Velocity S-wave (km/s) = 4.29486 4.52124 4.40951
# Velocity P-wave (km/s) = 6.70079 7.14560 6.92677
#
# Compressibility (1/GPa) = 0.01923807
#
# Stress axis : x y z
#
# Youngs Moduli (GPa) = 151.26955 161.34844 99.32025
#
# Poissons Ratio (x) = 0.27087 -0.01023
# Poissons Ratio (y) = 0.25395 0.02420
# Poissons Ratio (z) = -0.01558 0.03932
#
# Static dielectric constant tensor:
#      x y z
#    x 2.115810 0.000000 -0.096780 
#    y 0.000000 2.207640 0.000000 
#    z -0.096780 0.000000 2.085180 
# 
# From -- ./inp_files/37124.got.cif
#   From: 2010.05.17/outbox.cif.g08.bks.cpg/sg9_19_cif.got.tgz:37124.got - 2010.06.03 20:04:27.
