data_PCOD9138787
_publ_section_title
;
Structure prediction by ZEFSAII (Michael W. Deem and Ramdas Pophale) SiO2 
 PCOD9138787
Probable space group: C C
;
_chemical_formula_sum "Si O2"
_cell_formula_units_Z 28
_cell_length_a 20.273545
_cell_length_b 8.561354
_cell_length_c 14.195822
_cell_angle_alpha 90.000000
_cell_angle_beta 32.386066
_cell_angle_gamma 90.000000
_cell_volume 1319.746901
_symmetry_space_group_name_H-M "C C"
_symmetry_group_IT_number 9
_symmetry_cell_setting 'monoclinic'
loop_
_space_group_symop_operation_xyz
x,y,z
x,-y,1/2+z
1/2+x,1/2+y,z
1/2+x,1/2-y,1/2+z
loop_
_atom_site_type_symbol
_atom_site_label
_atom_site_fract_x
_atom_site_fract_y
_atom_site_fract_z
Si Si1 0.568900 0.294353 0.878140
Si Si2 0.445318 0.053749 0.169634
Si Si3 0.170808 0.676962 0.412787
Si Si4 0.541485 0.226293 0.221308
Si Si5 0.211633 0.432668 0.066659
Si Si6 0.882314 0.048019 0.021129
Si Si7 0.677304 0.533609 0.415731
O O1 0.632652 0.197458 0.717977
O O2 0.668075 0.378171 0.826781
O O3 0.501673 0.171628 0.026062
O O4 0.466228 0.417613 0.969285
O O5 0.442853 0.141255 0.272708
O O6 0.313114 0.010431 0.292077
O O7 0.543783 0.917286 0.060842
O O8 0.234550 0.636267 0.435817
O O9 0.265504 0.611055 0.220699
O O10 0.133782 0.857534 0.452148
O O11 0.472085 0.308993 0.389556
O O12 0.635935 0.093727 0.141677
O O13 0.606173 0.358513 0.077817
O O14 0.328773 0.475667 0.988791
#
# Coordination Sequence:
#
# PCOD9138787 Si02
#       7
#     4   4   4   4   4   4   4
#     4  11  25  42  71 103 139 188 230 284 356 420
#     4  10  23  47  68  99 139 181 231 294 344 419
#     4  11  27  44  73 105 138 189 238 291 358 417
#     4  10  25  44  71 102 136 184 236 286 360 418
#     4  11  25  48  68 103 146 185 236 285 360 419
#     4  12  26  44  72 105 143 178 238 296 349 426
#     4  11  25  45  73 101 143 185 239 290 355 417
#
# _framework density 21.216190000000001
#
# number of rings (size 3 to 8) (size 9 to 14) (size 15 to 20)
#    0.000    1.143    1.429    2.571   14.000    2.286 
#    2.571    0.000    0.000    0.000    0.000    0.000 
#    0.000    0.000    0.000    0.000    0.000    0.000 
#
# Total GULP energy -78304.677250 kJ/mol
# GULP energy per Si atom -5593.191232 kJ/mol
# Density = 2.116790 g / cm^3
# Si number density = 21.216190 Si / 1000 Ang^3
#
#
#
# Elastic Constant Matrix: (Units=GPa)
#
#
# Indices 1 2 3 4 5 6 
#
# 1 94.4986 27.0069 12.1964 0.0000 -6.9523 0.0000
# 2 27.0069 133.4237 25.8508 0.0000 -1.1303 0.0000
# 3 12.1964 25.8508 31.5566 0.0000 -0.8679 0.0000
# 4 0.0000 0.0000 0.0000 21.3251 0.0000 6.1721
# 5 -6.9523 -1.1303 -0.8679 0.0000 27.7767 0.0000
# 6 0.0000 0.0000 0.0000 6.1721 0.0000 20.2792
#
#
#
# Elastic Compliance Matrix: (Units=1/GPa)
#
#
# Indices 1 2 3 4 5 6 
#
# 1 0.011674 -0.001759 -0.002995 0.000000 0.002757 0.000000
# 2 -0.001759 0.009175 -0.006843 0.000000 -0.000281 0.000000
# 3 -0.002995 -0.006843 0.038457 0.000000 0.000173 0.000000
# 4 0.000000 0.000000 0.000000 0.051423 0.000000 -0.015651
# 5 0.002757 -0.000281 0.000173 0.000000 0.036685 0.000000
# 6 0.000000 0.000000 0.000000 -0.015651 0.000000 0.054075
#
#
# Mechanical properties :
#
#
# Convention : Reuss Voigt Hill
#
# Bulk Modulus (GPa) = 27.69254 43.28745 35.49000
# Shear Modulus (GPa) = 21.12179 26.83785 23.97982
#
# Velocity S-wave (km/s) = 3.15866 3.56050 3.36558
# Velocity P-wave (km/s) = 5.13651 6.11148 5.64508
#
# Compressibility (1/GPa) = 0.03611081
#
# Stress axis : x y z
#
# Youngs Moduli (GPa) = 85.65778 108.99665 26.00274
#
# Poissons Ratio (x) = 0.19177 0.07788
# Poissons Ratio (y) = 0.15071 0.17795
# Poissons Ratio (z) = 0.25654 0.74591
#
# Static dielectric constant tensor:
#      x y z
#    x 1.769760 0.000000 0.008590 
#    y 0.000000 1.819560 0.000000 
#    z 0.008590 0.000000 1.739180 
# 
# From -- ./inp_files/19981.got.cif
#   From: 2010.05.17/outbox.cif.g08.bks.cpg/sg9_10_cif.got.tgz:19981.got - 2010.06.03 20:04:27.
