data_PCOD9138861
_publ_section_title
;
Structure prediction by ZEFSAII (Michael W. Deem and Ramdas Pophale) SiO2 
 PCOD9138861
Probable space group: C C
;
_chemical_formula_sum "Si O2"
_cell_formula_units_Z 20
_cell_length_a 13.766646
_cell_length_b 7.258505
_cell_length_c 8.421374
_cell_angle_alpha 90.000000
_cell_angle_beta 73.124453
_cell_angle_gamma 90.000000
_cell_volume 805.270674
_symmetry_space_group_name_H-M "C C"
_symmetry_group_IT_number 9
_symmetry_cell_setting 'monoclinic'
loop_
_space_group_symop_operation_xyz
x,y,z
x,-y,1/2+z
1/2+x,1/2+y,z
1/2+x,1/2-y,1/2+z
loop_
_atom_site_type_symbol
_atom_site_label
_atom_site_fract_x
_atom_site_fract_y
_atom_site_fract_z
Si Si1 0.163940 0.752094 0.805900
Si Si2 0.016480 0.616437 0.126085
Si Si3 0.680253 0.624953 0.644232
Si Si4 0.888486 0.740417 0.703101
Si Si5 0.360809 0.390013 0.069277
O O1 0.244312 0.622853 0.680030
O O2 0.137144 0.922632 0.704255
O O3 0.074168 0.638174 0.929684
O O4 0.207535 0.849969 0.945434
O O5 0.094431 0.718384 0.208040
O O6 0.919566 0.747453 0.153259
O O7 0.975575 0.587644 0.666167
O O8 0.782879 0.653540 0.692497
O O9 0.907616 0.910310 0.575862
O O10 0.870583 0.825593 0.884837
#
# Coordination Sequence:
#
# PCOD9138861 Si02
#       5
#     4   4   4   4   4
#     4  10  23  49  80 127 167 225 281 349 434 504
#     4  10  28  50  82 126 167 226 287 346 438 516
#     4  10  23  49  83 117 175 219 286 346 430 517
#     4  12  27  53  82 121 176 224 293 348 436 513
#     4  12  27  49  85 119 169 232 281 359 428 514
#
# _framework density 24.836368
#
# number of rings (size 3 to 8) (size 9 to 14) (size 15 to 20)
#    1.200    0.000    2.000    2.400    2.800    3.200 
#    3.600    0.000    8.800    0.000    0.000    0.000 
#    0.000    0.000    0.000    0.000    0.000    0.000 
#
# Total GULP energy -55969.478705 kJ/mol
# GULP energy per Si atom -5596.947871 kJ/mol
# Density = 2.477984 g / cm^3
# Si number density = 24.836368 Si / 1000 Ang^3
#
#
#
# Elastic Constant Matrix: (Units=GPa)
#
#
# Indices 1 2 3 4 5 6 
#
# 1 93.3244 57.5699 46.5010 0.0000 -5.9890 0.0000
# 2 57.5699 158.1200 34.0415 0.0000 -5.4926 0.0000
# 3 46.5010 34.0415 81.8835 0.0000 -2.7636 0.0000
# 4 0.0000 0.0000 0.0000 39.3083 0.0000 -2.4156
# 5 -5.9890 -5.4926 -2.7636 0.0000 35.6234 0.0000
# 6 0.0000 0.0000 0.0000 -2.4156 0.0000 52.3888
#
#
#
# Elastic Compliance Matrix: (Units=1/GPa)
#
#
# Indices 1 2 3 4 5 6 
#
# 1 0.017712 -0.004655 -0.008068 0.000000 0.001634 0.000000
# 2 -0.004655 0.008195 -0.000749 0.000000 0.000423 0.000000
# 3 -0.008068 -0.000749 0.017101 0.000000 -0.000145 0.000000
# 4 0.000000 0.000000 0.000000 0.025512 0.000000 0.001176
# 5 0.001634 0.000423 -0.000145 0.000000 0.028400 0.000000
# 6 0.000000 0.000000 0.000000 0.001176 0.000000 0.019142
#
#
# Mechanical properties :
#
#
# Convention : Reuss Voigt Hill
#
# Bulk Modulus (GPa) = 62.25342 67.72808 64.99075
# Shear Modulus (GPa) = 33.70156 38.47848 36.09002
#
# Velocity S-wave (km/s) = 3.68767 3.94036 3.81611
# Velocity P-wave (km/s) = 6.57660 6.93043 6.75583
#
# Compressibility (1/GPa) = 0.01606337
#
# Stress axis : x y z
#
# Youngs Moduli (GPa) = 56.45951 122.02387 58.47688
#
# Poissons Ratio (x) = 0.56802 0.47179
# Poissons Ratio (y) = 0.26282 0.04381
# Poissons Ratio (z) = 0.45552 0.09142
#
# Static dielectric constant tensor:
#      x y z
#    x 1.977610 0.000000 0.013360 
#    y 0.000000 1.970790 0.000000 
#    z 0.013360 0.000000 1.938210 
# 
# From -- ./inp_files/6715.got.cif
#   From: 2010.05.17/outbox.cif.g08.bks.cpg/sg9_4_cif.got.tgz:6715.got - 2010.06.03 20:04:27.
