data_PCOD9138523
_publ_section_title
;
Structure prediction by ZEFSAII (Michael W. Deem and Ramdas Pophale) SiO2 
 PCOD9138523
Probable space group: C C
;
_chemical_formula_sum "Si O2"
_cell_formula_units_Z 28
_cell_length_a 13.386443
_cell_length_b 9.276227
_cell_length_c 15.947500
_cell_angle_alpha 90.000000
_cell_angle_beta 147.803330
_cell_angle_gamma 90.000000
_cell_volume 1055.153084
_symmetry_space_group_name_H-M "C C"
_symmetry_group_IT_number 9
_symmetry_cell_setting 'monoclinic'
loop_
_space_group_symop_operation_xyz
x,y,z
x,-y,1/2+z
1/2+x,1/2+y,z
1/2+x,1/2-y,1/2+z
loop_
_atom_site_type_symbol
_atom_site_label
_atom_site_fract_x
_atom_site_fract_y
_atom_site_fract_z
Si Si1 0.222310 0.906814 0.178230
Si Si2 0.859922 0.172243 0.598652
Si Si3 0.590295 0.869063 0.670884
Si Si4 0.405315 0.488392 0.342479
Si Si5 0.968237 0.390927 0.181201
Si Si6 0.947159 0.329229 0.836521
Si Si7 0.111503 0.918918 0.818271
O O1 0.221007 0.766360 0.235097
O O2 0.353396 0.891519 0.187272
O O3 0.310419 0.052406 0.277968
O O4 0.014310 0.933534 0.995339
O O5 0.888548 0.268852 0.702897
O O6 0.655371 0.111762 0.469747
O O7 0.893877 0.287038 0.548040
O O8 0.018152 0.050286 0.701052
O O9 0.683464 0.983965 0.674007
O O10 0.606364 0.973305 0.764295
O O11 0.447640 0.320559 0.386356
O O12 0.502040 0.550154 0.328210
O O13 0.061815 0.235444 0.245060
O O14 0.824588 0.413489 0.001608
#
# Coordination Sequence:
#
# PCOD9138523 Si02
#       7
#     4   4   4   4   4   4   4
#     4  11  24  44  75 106 147 195 242 317 373 448
#     4  11  24  42  75 108 139 198 242 307 375 459
#     4  12  25  43  75 108 143 190 258 309 371 458
#     4  10  23  44  69 106 145 193 248 306 379 451
#     4  11  24  48  69 109 146 195 246 311 380 460
#     4  11  22  48  70 104 153 195 245 309 387 447
#     4  10  24  45  71  99 147 194 241 303 391 439
#
# _framework density 26.536432999999999
#
# number of rings (size 3 to 8) (size 9 to 14) (size 15 to 20)
#    0.000    1.143    4.286    1.714    6.000    1.143 
#    2.571    0.000    0.000    0.000    0.000    0.000 
#    0.000    0.000    0.000    0.000    0.000    0.000 
#
# Total GULP energy -78100.165682 kJ/mol
# GULP energy per Si atom -5578.583263 kJ/mol
# Density = 2.647603 g / cm^3
# Si number density = 26.536433 Si / 1000 Ang^3
#
#
#
# Elastic Constant Matrix: (Units=GPa)
#
#
# Indices 1 2 3 4 5 6 
#
# 1 67.9176 43.1997 37.4966 0.0002 16.4041 0.0000
# 2 43.1997 200.0122 50.9822 0.0007 5.0010 0.0001
# 3 37.4966 50.9822 104.3512 0.0014 12.6567 0.0002
# 4 0.0002 0.0007 0.0014 38.2558 0.0003 11.2215
# 5 16.4041 5.0010 12.6567 0.0003 40.6026 -0.0001
# 6 0.0000 0.0001 0.0002 11.2215 -0.0001 66.1067
#
#
#
# Elastic Compliance Matrix: (Units=1/GPa)
#
#
# Indices 1 2 3 4 5 6 
#
# 1 0.021183 -0.003054 -0.005329 0.000000 -0.006521 0.000000
# 2 -0.003054 0.006152 -0.002043 0.000000 0.001113 0.000000
# 3 -0.005329 -0.002043 0.012684 0.000000 -0.001549 0.000000
# 4 0.000000 0.000000 0.000000 0.027510 0.000000 -0.004670
# 5 -0.006521 0.001113 -0.001549 0.000000 0.027609 0.000000
# 6 0.000000 0.000000 0.000000 -0.004670 0.000000 0.015920
#
#
# Mechanical properties :
#
#
# Convention : Reuss Voigt Hill
#
# Bulk Modulus (GPa) = 52.17219 70.62645 61.39932
# Shear Modulus (GPa) = 36.15333 45.03318 40.59326
#
# Velocity S-wave (km/s) = 3.69508 4.12397 3.91540
# Velocity P-wave (km/s) = 6.15695 7.02488 6.60519
#
# Compressibility (1/GPa) = 0.01916730
#
# Stress axis : x y z
#
# Youngs Moduli (GPa) = 47.20715 162.53998 78.83893
#
# Poissons Ratio (x) = 0.49638 0.42012
# Poissons Ratio (y) = 0.14417 0.16110
# Poissons Ratio (z) = 0.25156 0.33214
#
# Static dielectric constant tensor:
#      x y z
#    x 2.199440 0.000000 -0.026890 
#    y 0.000000 2.071380 0.000000 
#    z -0.026890 0.000000 2.086400 
# 
# From -- ./inp_files/33677.got.cif
#   From: 2010.05.17/outbox.cif.g08.bks.cpg/sg9_17_cif.got.tgz:33677.got - 2010.06.03 20:04:27.
