data_PCOD9138633
_publ_section_title
;
Structure prediction by ZEFSAII (Michael W. Deem and Ramdas Pophale) SiO2 
 PCOD9138633
Probable space group: C C
;
_chemical_formula_sum "Si O2"
_cell_formula_units_Z 28
_cell_length_a 6.159198
_cell_length_b 20.938625
_cell_length_c 8.682288
_cell_angle_alpha 90.000000
_cell_angle_beta 86.608578
_cell_angle_gamma 90.000000
_cell_volume 1117.751506
_symmetry_space_group_name_H-M "C C"
_symmetry_group_IT_number 9
_symmetry_cell_setting 'monoclinic'
loop_
_space_group_symop_operation_xyz
x,y,z
x,-y,1/2+z
1/2+x,1/2+y,z
1/2+x,1/2-y,1/2+z
loop_
_atom_site_type_symbol
_atom_site_label
_atom_site_fract_x
_atom_site_fract_y
_atom_site_fract_z
Si Si1 0.151610 0.763687 0.085090
Si Si2 0.120079 0.960070 0.724718
Si Si3 0.786374 0.713016 0.907933
Si Si4 0.428912 0.000628 0.478580
Si Si5 0.442045 0.353735 0.580091
Si Si6 0.996074 0.634912 0.644845
Si Si7 0.324847 0.571192 0.789649
O O1 0.124057 0.768254 0.273503
O O2 0.237981 0.691321 0.072523
O O3 0.351759 0.814782 0.052361
O O4 0.961471 0.763837 0.965207
O O5 0.963133 0.899610 0.724222
O O6 0.976187 0.022094 0.692661
O O7 0.318754 0.950295 0.598179
O O8 0.239563 0.976709 0.874455
O O9 0.903694 0.653404 0.818275
O O10 0.648226 0.692535 0.060291
O O11 0.472687 0.064191 0.577050
O O12 0.630671 0.970974 0.376735
O O13 0.445182 0.398507 0.430012
O O14 0.250102 0.628909 0.680520
#
# Coordination Sequence:
#
# PCOD9138633 Si02
#       7
#     4   4   4   4   4   4   4
#     4  10  25  45  70 105 138 201 245 305 382 444
#     4  12  27  42  75 108 146 197 258 304 392 453
#     4  10  24  47  70 101 148 191 250 310 372 449
#     4  12  25  46  69 109 151 196 252 316 380 456
#     4  12  24  44  71 103 143 192 247 311 375 450
#     4  10  23  45  70 101 148 189 249 304 379 444
#     4  12  24  47  75 107 150 200 243 322 380 450
#
# _framework density 25.050291999999999
#
# number of rings (size 3 to 8) (size 9 to 14) (size 15 to 20)
#    0.857    0.000    4.286    2.571    2.000    2.286 
#    2.571    0.000    0.000    0.000    0.000    0.000 
#    0.000    0.000    0.000    0.000    0.000    0.000 
#
# Total GULP energy -78005.922993 kJ/mol
# GULP energy per Si atom -5571.851642 kJ/mol
# Density = 2.499328 g / cm^3
# Si number density = 25.050292 Si / 1000 Ang^3
#
#
#
# Elastic Constant Matrix: (Units=GPa)
#
#
# Indices 1 2 3 4 5 6 
#
# 1 60.7841 24.2424 24.4770 0.0000 15.0459 0.0000
# 2 24.2424 78.0385 23.0123 0.0000 5.7447 0.0000
# 3 24.4770 23.0123 64.5739 0.0000 7.2394 0.0000
# 4 0.0000 0.0000 0.0000 46.4193 0.0000 5.7882
# 5 15.0459 5.7447 7.2394 0.0000 40.8165 0.0000
# 6 0.0000 0.0000 0.0000 5.7882 0.0000 44.1430
#
#
#
# Elastic Compliance Matrix: (Units=1/GPa)
#
#
# Indices 1 2 3 4 5 6 
#
# 1 0.022380 -0.004678 -0.006086 0.000000 -0.006512 0.000000
# 2 -0.004678 0.015348 -0.003722 0.000000 0.000224 0.000000
# 3 -0.006086 -0.003722 0.019191 0.000000 -0.000636 0.000000
# 4 0.000000 0.000000 0.000000 0.021901 0.000000 -0.002872
# 5 -0.006512 0.000224 -0.000636 0.000000 0.026982 0.000000
# 6 0.000000 0.000000 0.000000 -0.002872 0.000000 0.023030
#
#
# Mechanical properties :
#
#
# Convention : Reuss Voigt Hill
#
# Bulk Modulus (GPa) = 35.78138 38.53999 37.16068
# Shear Modulus (GPa) = 29.91869 35.05341 32.48605
#
# Velocity S-wave (km/s) = 3.45968 3.74481 3.60506
# Velocity P-wave (km/s) = 5.50218 5.84094 5.67409
#
# Compressibility (1/GPa) = 0.02794750
#
# Stress axis : x y z
#
# Youngs Moduli (GPa) = 44.68234 65.15343 52.10856
#
# Poissons Ratio (x) = 0.30481 0.31714
# Poissons Ratio (y) = 0.20904 0.19393
# Poissons Ratio (z) = 0.27194 0.24247
#
# Static dielectric constant tensor:
#      x y z
#    x 2.061200 0.000000 0.038880 
#    y 0.000000 1.999920 0.000000 
#    z 0.038880 0.000000 1.972790 
# 
# From -- ./inp_files/4153.got.cif
#   From: 2010.05.17/outbox.cif.g08.bks.cpg/sg9_3_cif.got.tgz:4153.got - 2010.06.03 20:04:27.
