data_PCOD9138929
_publ_section_title
;
Structure prediction by ZEFSAII (Michael W. Deem and Ramdas Pophale) SiO2 
 PCOD9138929
Probable space group: C C
;
_chemical_formula_sum "Si O2"
_cell_formula_units_Z 32
_cell_length_a 5.821886
_cell_length_b 18.931448
_cell_length_c 11.463642
_cell_angle_alpha 90.000000
_cell_angle_beta 95.309765
_cell_angle_gamma 90.000000
_cell_volume 1258.063469
_symmetry_space_group_name_H-M "C C"
_symmetry_group_IT_number 9
_symmetry_cell_setting 'monoclinic'
loop_
_space_group_symop_operation_xyz
x,y,z
x,-y,1/2+z
1/2+x,1/2+y,z
1/2+x,1/2-y,1/2+z
loop_
_atom_site_type_symbol
_atom_site_label
_atom_site_fract_x
_atom_site_fract_y
_atom_site_fract_z
Si Si1 0.556840 0.078974 0.291060
Si Si2 0.048100 0.002227 0.561274
Si Si3 0.148398 0.393724 0.541213
Si Si4 0.290259 0.144122 0.502848
Si Si5 0.781919 0.321889 0.370645
Si Si6 0.960873 0.184156 0.315519
Si Si7 0.229681 0.033939 0.811641
Si Si8 0.534031 0.275301 0.592561
O O1 0.501223 0.095127 0.152517
O O2 0.415594 0.112830 0.392775
O O3 0.813470 0.112417 0.317154
O O4 0.488876 0.996620 0.302433
O O5 0.145566 0.082007 0.554944
O O6 0.099850 0.990206 0.702472
O O7 0.170152 0.974850 0.446811
O O8 0.795558 0.966407 0.534454
O O9 0.321615 0.330309 0.580501
O O10 0.011266 0.363603 0.424294
O O11 0.466911 0.192943 0.581213
O O12 0.095990 0.195356 0.441433
O O13 0.795389 0.251354 0.296608
O O14 0.662938 0.384285 0.294582
O O15 0.669753 0.296640 0.484802
O O16 0.140183 0.200182 0.220017
#
# Coordination Sequence:
#
# PCOD9138929 Si02
#       8
#     4   4   4   4   4   4   4   4
#     4  10  24  41  71  94 144 186 248 289 374 434
#     4  11  26  45  74 103 152 189 248 306 372 440
#     4  11  24  43  71 104 139 203 241 305 377 444
#     4  11  23  46  68 105 144 186 240 314 362 444
#     4  12  23  44  70 104 144 185 246 306 367 444
#     4  11  24  41  70 102 138 190 244 299 373 446
#     4  11  25  46  72 105 144 196 242 313 367 442
#     4  11  23  44  68 101 145 187 245 306 370 442
#
# _framework density 25.435917
#
# number of rings (size 3 to 8) (size 9 to 14) (size 15 to 20)
#    0.000    1.000    3.750    2.250    8.750    0.000 
#    0.000    1.250    0.000    0.000    0.000    0.000 
#    0.000    0.000    0.000    0.000    0.000    0.000 
#
# Total GULP energy -89077.176127 kJ/mol
# GULP energy per Si atom -5567.323508 kJ/mol
# Density = 2.537802 g / cm^3
# Si number density = 25.435917 Si / 1000 Ang^3
#
#
#
# Elastic Constant Matrix: (Units=GPa)
#
#
# Indices 1 2 3 4 5 6 
#
# 1 41.3063 45.0597 28.9422 0.0000 -16.0078 0.0000
# 2 45.0597 128.2677 24.2373 0.0000 -30.2406 0.0000
# 3 28.9422 24.2373 124.6738 0.0000 -19.6933 0.0000
# 4 0.0000 0.0000 0.0000 30.2524 0.0000 -11.8831
# 5 -16.0078 -30.2406 -19.6933 0.0000 37.4781 0.0000
# 6 0.0000 0.0000 0.0000 -11.8831 0.0000 38.9801
#
#
#
# Elastic Compliance Matrix: (Units=1/GPa)
#
#
# Indices 1 2 3 4 5 6 
#
# 1 0.046109 -0.013684 -0.007281 0.000000 0.004827 0.000000
# 2 -0.013684 0.013746 0.001454 0.000000 0.006010 0.000000
# 3 -0.007281 0.001454 0.009948 0.000000 0.003291 0.000000
# 4 0.000000 0.000000 0.000000 0.037552 0.000000 0.011448
# 5 0.004827 0.006010 0.003291 0.000000 0.035323 0.000000
# 6 0.000000 0.000000 0.000000 0.011448 0.000000 0.029144
#
#
# Mechanical properties :
#
#
# Convention : Reuss Voigt Hill
#
# Bulk Modulus (GPa) = 32.48837 54.52514 43.50676
# Shear Modulus (GPa) = 22.61368 34.40936 28.51152
#
# Velocity S-wave (km/s) = 2.98492 3.68201 3.35164
# Velocity P-wave (km/s) = 4.96790 6.28960 5.66741
#
# Compressibility (1/GPa) = 0.03078024
#
# Stress axis : x y z
#
# Youngs Moduli (GPa) = 21.68754 72.75039 100.51894
#
# Poissons Ratio (x) = 0.99553 0.73191
# Poissons Ratio (y) = 0.29678 -0.14614
# Poissons Ratio (z) = 0.15791 -0.10577
#
# Static dielectric constant tensor:
#      x y z
#    x 2.056850 0.000000 0.025180 
#    y 0.000000 2.046030 0.000000 
#    z 0.025180 0.000000 2.154300 
# 
# From -- ./inp_files/13375.got.cif
#   From: 2010.05.17/outbox.cif.g08.bks.cpg/sg9_7_cif.got.tgz:13375.got - 2010.06.03 20:04:27.
