data_PCOD9138373
_publ_section_title
;
Structure prediction by ZEFSAII (Michael W. Deem and Ramdas Pophale) SiO2 
 PCOD9138373
Probable space group: C C
;
_chemical_formula_sum "Si O2"
_cell_formula_units_Z 32
_cell_length_a 24.517580
_cell_length_b 10.400265
_cell_length_c 13.696645
_cell_angle_alpha 90.000000
_cell_angle_beta 154.758086
_cell_angle_gamma 90.000000
_cell_volume 1489.344799
_symmetry_space_group_name_H-M "C C"
_symmetry_group_IT_number 9
_symmetry_cell_setting 'monoclinic'
loop_
_space_group_symop_operation_xyz
x,y,z
x,-y,1/2+z
1/2+x,1/2+y,z
1/2+x,1/2-y,1/2+z
loop_
_atom_site_type_symbol
_atom_site_label
_atom_site_fract_x
_atom_site_fract_y
_atom_site_fract_z
Si Si1 0.556190 0.155363 0.285030
Si Si2 0.143517 0.152247 0.771261
Si Si3 0.933690 0.191288 0.082663
Si Si4 0.431830 0.788404 0.785994
Si Si5 0.418068 0.705996 0.281574
Si Si6 0.201754 0.906256 0.972287
Si Si7 0.840416 0.949222 0.253385
Si Si8 0.879292 0.550333 0.389150
O O1 0.570159 0.284506 0.244431
O O2 0.524663 0.186192 0.346276
O O3 0.693836 0.088624 0.501009
O O4 0.455087 0.061056 0.068460
O O5 0.066213 0.206626 0.554058
O O6 0.289887 0.195639 0.011328
O O7 0.153927 0.000001 0.808180
O O8 0.907490 0.169479 0.152401
O O9 0.086399 0.188520 0.311378
O O10 0.875394 0.080559 0.921178
O O11 0.873842 0.325695 0.949834
O O12 0.427173 0.648719 0.829071
O O13 0.444279 0.891527 0.894958
O O14 0.332411 0.831953 0.158584
O O15 0.362425 0.593584 0.258316
O O16 0.243834 0.996415 0.131424
#
# Coordination Sequence:
#
# PCOD9138373 Si02
#       8
#     4   4   4   4   4   4   4   4
#     4  11  22  42  74  93 138 191 224 288 361 416
#     4  10  23  43  67 104 138 174 242 283 341 430
#     4  11  26  43  69 103 138 190 230 292 360 402
#     4   9  23  42  68  98 137 190 219 296 362 403
#     4  12  25  43  73 102 137 190 234 294 351 420
#     4  11  24  46  69 101 147 177 231 298 339 426
#     4  10  24  46  61 104 142 173 246 289 340 439
#     4  10  23  43  65 105 141 171 242 286 338 430
#
# _framework density 21.485958
#
# number of rings (size 3 to 8) (size 9 to 14) (size 15 to 20)
#    0.000    1.500    2.500    1.500    7.000    3.000 
#    0.000    2.500    0.000    0.000    0.000    0.000 
#    0.000    0.000    0.000    0.000    0.000    0.000 
#
# Total GULP energy -89387.170603 kJ/mol
# GULP energy per Si atom -5586.698163 kJ/mol
# Density = 2.143705 g / cm^3
# Si number density = 21.485958 Si / 1000 Ang^3
#
#
#
# Elastic Constant Matrix: (Units=GPa)
#
#
# Indices 1 2 3 4 5 6 
#
# 1 50.9984 8.4994 11.6911 0.0000 -26.1456 0.0000
# 2 8.4994 73.3220 20.0742 0.0000 -8.9335 0.0000
# 3 11.6911 20.0742 91.8993 0.0000 -23.9055 0.0000
# 4 0.0000 0.0000 0.0000 41.4457 0.0000 -9.3661
# 5 -26.1456 -8.9335 -23.9055 0.0000 29.9048 0.0000
# 6 0.0000 0.0000 0.0000 -9.3661 0.0000 7.9793
#
#
#
# Elastic Compliance Matrix: (Units=1/GPa)
#
#
# Indices 1 2 3 4 5 6 
#
# 1 0.037181 -0.001265 0.004929 0.000000 0.036070 0.000000
# 2 -0.001265 0.014672 -0.002767 0.000000 0.001066 0.000000
# 3 0.004929 -0.002767 0.014853 0.000000 0.015356 0.000000
# 4 0.000000 0.000000 0.000000 0.032839 0.000000 0.038546
# 5 0.036070 0.001066 0.015356 0.000000 0.077569 0.000000
# 6 0.000000 0.000000 0.000000 0.038546 0.000000 0.170570
#
#
# Mechanical properties :
#
#
# Convention : Reuss Voigt Hill
#
# Bulk Modulus (GPa) = 14.59816 32.97212 23.78514
# Shear Modulus (GPa) = 13.56025 27.59629 20.57827
#
# Velocity S-wave (km/s) = 2.51494 3.58772 3.09812
# Velocity P-wave (km/s) = 3.90413 5.70452 4.88793
#
# Compressibility (1/GPa) = 0.06850178
#
# Stress axis : x y z
#
# Youngs Moduli (GPa) = 26.89518 68.15497 67.32439
#
# Poissons Ratio (x) = 0.08620 -0.33184
# Poissons Ratio (y) = 0.03402 0.18628
# Poissons Ratio (z) = -0.13256 0.18858
#
# Static dielectric constant tensor:
#      x y z
#    x 1.755490 0.000000 -0.003910 
#    y 0.000000 1.799080 0.000000 
#    z -0.003910 0.000000 1.816060 
# 
# From -- ./inp_files/20270.got.cif
#   From: 2010.05.17/outbox.cif.g08.bks.cpg/sg9_11_cif.got.tgz:20270.got - 2010.06.03 20:04:27.
