data_PCOD9138036
_publ_section_title
;
Structure prediction by ZEFSAII (Michael W. Deem and Ramdas Pophale) SiO2 
 PCOD9138036
Probable space group: C C
;
_chemical_formula_sum "Si O2"
_cell_formula_units_Z 28
_cell_length_a 9.452671
_cell_length_b 11.061927
_cell_length_c 14.931691
_cell_angle_alpha 90.000000
_cell_angle_beta 119.291597
_cell_angle_gamma 90.000000
_cell_volume 1361.698773
_symmetry_space_group_name_H-M "C C"
_symmetry_group_IT_number 9
_symmetry_cell_setting 'monoclinic'
loop_
_space_group_symop_operation_xyz
x,y,z
x,-y,1/2+z
1/2+x,1/2+y,z
1/2+x,1/2-y,1/2+z
loop_
_atom_site_type_symbol
_atom_site_label
_atom_site_fract_x
_atom_site_fract_y
_atom_site_fract_z
Si Si1 0.739890 0.233886 0.529990
Si Si2 0.885665 0.296913 0.918100
Si Si3 0.927660 0.041053 0.278373
Si Si4 0.981620 0.780730 0.960208
Si Si5 0.354802 0.276207 0.598957
Si Si6 0.764223 0.561119 0.917367
Si Si7 0.678439 0.158871 0.713708
O O1 0.565899 0.198286 0.435233
O O2 0.882102 0.173659 0.516252
O O3 0.754968 0.376882 0.512675
O O4 0.730668 0.198725 0.629828
O O5 0.839116 0.428827 0.938896
O O6 0.757009 0.251870 0.807289
O O7 0.886032 0.205280 0.002513
O O8 0.971345 0.131926 0.372534
O O9 0.896334 0.113461 0.177211
O O10 0.765125 0.968814 0.253763
O O11 0.083159 0.951777 0.321559
O O12 0.884130 0.656582 0.906233
O O13 0.165951 0.756277 0.045423
O O14 0.485305 0.171275 0.662849
#
# Coordination Sequence:
#
# PCOD9138036 Si02
#       7
#     4   4   4   4   4   4   4
#     4   9  24  43  67  99 134 180 231 279 346 410
#     4  11  21  46  68  99 141 182 230 286 338 408
#     4  12  24  45  71 101 144 181 231 288 341 416
#     4  10  24  46  67 100 141 180 227 290 342 405
#     4  11  24  40  71 105 133 179 234 279 346 406
#     4  10  22  47  66  97 144 173 230 292 330 413
#     4  11  23  43  70 103 135 185 235 276 349 412
#
# _framework density 20.562550999999999
#
# number of rings (size 3 to 8) (size 9 to 14) (size 15 to 20)
#    0.857    0.571    4.286    0.000    4.000    3.429 
#    5.143    0.000    0.000    0.000    0.000    0.000 
#    0.000    0.000    0.000    0.000    0.000    0.000 
#
# Total GULP energy -78047.990233 kJ/mol
# GULP energy per Si atom -5574.856445 kJ/mol
# Density = 2.051575 g / cm^3
# Si number density = 20.562551 Si / 1000 Ang^3
#
#
#
# Elastic Constant Matrix: (Units=GPa)
#
#
# Indices 1 2 3 4 5 6 
#
# 1 121.1314 19.5373 37.6998 0.0000 35.0136 0.0000
# 2 19.5373 78.7468 31.5029 0.0000 8.3069 0.0000
# 3 37.6998 31.5029 102.0799 0.0000 26.0198 0.0000
# 4 0.0000 0.0000 0.0000 30.4058 0.0000 3.7435
# 5 35.0136 8.3069 26.0198 0.0000 35.5701 0.0000
# 6 0.0000 0.0000 0.0000 3.7435 0.0000 21.2998
#
#
#
# Elastic Compliance Matrix: (Units=1/GPa)
#
#
# Indices 1 2 3 4 5 6 
#
# 1 0.011897 -0.001320 -0.001327 0.000000 -0.010431 0.000000
# 2 -0.001320 0.014635 -0.004289 0.000000 0.001019 0.000000
# 3 -0.001327 -0.004289 0.013548 0.000000 -0.007602 0.000000
# 4 0.000000 0.000000 0.000000 0.033616 0.000000 -0.005908
# 5 -0.010431 0.001019 -0.007602 0.000000 0.043705 0.000000
# 6 0.000000 0.000000 0.000000 -0.005908 0.000000 0.047987
#
#
# Mechanical properties :
#
#
# Convention : Reuss Voigt Hill
#
# Bulk Modulus (GPa) = 38.15786 53.27092 45.71439
# Shear Modulus (GPa) = 26.59650 31.66968 29.13309
#
# Velocity S-wave (km/s) = 3.60035 3.92875 3.76813
# Velocity P-wave (km/s) = 5.99004 6.82225 6.41965
#
# Compressibility (1/GPa) = 0.02620692
#
# Stress axis : x y z
#
# Youngs Moduli (GPa) = 84.05645 68.33106 73.81326
#
# Poissons Ratio (x) = 0.09021 0.09797
# Poissons Ratio (y) = 0.11097 0.31655
# Poissons Ratio (z) = 0.11157 0.29304
#
# Static dielectric constant tensor:
#      x y z
#    x 1.772000 0.000000 0.013340 
#    y 0.000000 1.736590 0.000000 
#    z 0.013340 0.000000 1.718080 
# 
# From -- ./inp_files/29989.got.cif
#   From: 2010.05.17/outbox.cif.g08.bks.cpg/sg9_15_cif.got.tgz:29989.got - 2010.06.03 20:04:27.
