data_PCOD9138968
_publ_section_title
;
Structure prediction by ZEFSAII (Michael W. Deem and Ramdas Pophale) SiO2 
 PCOD9138968
Probable space group: C C
;
_chemical_formula_sum "Si O2"
_cell_formula_units_Z 28
_cell_length_a 14.711398
_cell_length_b 16.830397
_cell_length_c 7.936491
_cell_angle_alpha 90.000000
_cell_angle_beta 142.701492
_cell_angle_gamma 90.000000
_cell_volume 1190.765652
_symmetry_space_group_name_H-M "C C"
_symmetry_group_IT_number 9
_symmetry_cell_setting 'monoclinic'
loop_
_space_group_symop_operation_xyz
x,y,z
x,-y,1/2+z
1/2+x,1/2+y,z
1/2+x,1/2-y,1/2+z
loop_
_atom_site_type_symbol
_atom_site_label
_atom_site_fract_x
_atom_site_fract_y
_atom_site_fract_z
Si Si1 0.877470 0.384810 0.925400
Si Si2 0.410366 0.406478 0.948623
Si Si3 0.020957 0.746794 0.206528
Si Si4 0.990951 0.918460 0.693751
Si Si5 0.811929 0.523872 0.644629
Si Si6 0.336079 0.718540 0.759292
Si Si7 0.073501 0.631299 0.008562
O O1 0.845518 0.430579 0.706657
O O2 0.818769 0.296232 0.849726
O O3 0.796153 0.448019 0.927660
O O4 0.037249 0.375539 0.254601
O O5 0.405700 0.402008 0.741066
O O6 0.249383 0.381215 0.785977
O O7 0.530706 0.341828 0.191779
O O8 0.446526 0.495847 0.054120
O O9 0.163721 0.696089 0.479190
O O10 0.004486 0.709707 0.995183
O O11 0.901356 0.745131 0.181114
O O12 0.943351 0.848999 0.493328
O O13 0.165490 0.931840 0.000300
O O14 0.968922 0.563032 0.934593
#
# Coordination Sequence:
#
# PCOD9138968 Si02
#       7
#     4   4   4   4   4   4   4
#     4  10  24  42  74 103 143 185 253 287 375 432
#     4  12  27  47  73 109 149 196 246 312 369 448
#     4  12  26  47  71 104 149 190 251 299 376 434
#     4  12  27  47  76 107 153 187 252 307 386 434
#     4  10  24  45  72 101 143 191 242 297 370 449
#     4  12  27  44  75 106 145 194 243 312 370 450
#     4  10  27  44  71 104 146 191 247 302 372 433
#
# _framework density 23.514282999999999
#
# number of rings (size 3 to 8) (size 9 to 14) (size 15 to 20)
#    0.857    0.000    1.429    4.286    8.000    1.143 
#    0.000    0.000    0.000    0.000    0.000    0.000 
#    0.000    0.000    0.000    0.000    0.000    0.000 
#
# Total GULP energy -77942.084880 kJ/mol
# GULP energy per Si atom -5567.291777 kJ/mol
# Density = 2.346076 g / cm^3
# Si number density = 23.514283 Si / 1000 Ang^3
#
#
#
# Elastic Constant Matrix: (Units=GPa)
#
#
# Indices 1 2 3 4 5 6 
#
# 1 77.8098 14.4511 29.0777 0.0000 14.3012 0.0000
# 2 14.4511 129.9608 32.1665 0.0000 -14.9077 0.0000
# 3 29.0777 32.1665 75.3163 0.0000 15.1266 0.0000
# 4 0.0000 0.0000 0.0000 39.1595 0.0000 -12.4919
# 5 14.3012 -14.9077 15.1266 0.0000 29.3977 0.0000
# 6 0.0000 0.0000 0.0000 -12.4919 0.0000 31.8455
#
#
#
# Elastic Compliance Matrix: (Units=1/GPa)
#
#
# Indices 1 2 3 4 5 6 
#
# 1 0.015856 -0.001425 -0.004258 0.000000 -0.006245 0.000000
# 2 -0.001425 0.010239 -0.005582 0.000000 0.008758 0.000000
# 3 -0.004258 -0.005582 0.019470 0.000000 -0.010777 0.000000
# 4 0.000000 0.000000 0.000000 0.029189 0.000000 0.011450
# 5 -0.006245 0.008758 -0.010777 0.000000 0.047041 0.000000
# 6 0.000000 0.000000 0.000000 0.011450 0.000000 0.035893
#
#
# Mechanical properties :
#
#
# Convention : Reuss Voigt Hill
#
# Bulk Modulus (GPa) = 43.41471 48.27529 45.84500
# Shear Modulus (GPa) = 26.61036 33.90664 30.25850
#
# Velocity S-wave (km/s) = 3.36768 3.80143 3.59111
# Velocity P-wave (km/s) = 5.79870 6.31210 6.06084
#
# Compressibility (1/GPa) = 0.02303367
#
# Stress axis : x y z
#
# Youngs Moduli (GPa) = 63.06830 97.66351 51.36173
#
# Poissons Ratio (x) = 0.13921 0.21872
# Poissons Ratio (y) = 0.08990 0.28668
# Poissons Ratio (z) = 0.26858 0.54512
#
# Static dielectric constant tensor:
#      x y z
#    x 2.049380 0.000000 -0.075450 
#    y 0.000000 2.093860 0.000000 
#    z -0.075450 0.000000 2.006850 
# 
# From -- ./inp_files/9762.got.cif
#   From: 2010.05.17/outbox.cif.g08.bks.cpg/sg9_5_cif.got.tgz:9762.got - 2010.06.03 20:04:27.
