data_PCOD9138954
_publ_section_title
;
Structure prediction by ZEFSAII (Michael W. Deem and Ramdas Pophale) SiO2 
 PCOD9138954
Probable space group: C C
;
_chemical_formula_sum "Si O2"
_cell_formula_units_Z 28
_cell_length_a 9.249831
_cell_length_b 21.451890
_cell_length_c 7.838424
_cell_angle_alpha 90.000000
_cell_angle_beta 130.844281
_cell_angle_gamma 90.000000
_cell_volume 1176.606403
_symmetry_space_group_name_H-M "C C"
_symmetry_group_IT_number 9
_symmetry_cell_setting 'monoclinic'
loop_
_space_group_symop_operation_xyz
x,y,z
x,-y,1/2+z
1/2+x,1/2+y,z
1/2+x,1/2-y,1/2+z
loop_
_atom_site_type_symbol
_atom_site_label
_atom_site_fract_x
_atom_site_fract_y
_atom_site_fract_z
Si Si1 0.932430 0.804450 0.023820
Si Si2 0.446902 0.649558 0.988747
Si Si3 0.197418 0.410603 0.674779
Si Si4 0.635729 0.216733 0.600364
Si Si5 0.192218 0.452642 0.278599
Si Si6 0.353890 0.830003 0.347972
Si Si7 0.332033 0.122291 0.443723
O O1 0.785803 0.793818 0.064694
O O2 0.138735 0.824948 0.250104
O O3 0.848012 0.857421 0.837584
O O4 0.947527 0.738284 0.939939
O O5 0.570472 0.712718 0.057943
O O6 0.614371 0.612850 0.220401
O O7 0.243323 0.688669 0.851153
O O8 0.349262 0.591804 0.807597
O O9 0.210536 0.429202 0.486966
O O10 0.227729 0.474522 0.797065
O O11 0.989905 0.379850 0.543303
O O12 0.450748 0.173905 0.428799
O O13 0.977039 0.436502 0.051565
O O14 0.330835 0.850381 0.134373
#
# Coordination Sequence:
#
# PCOD9138954 Si02
#       7
#     4   4   4   4   4   4   4
#     4  12  25  44  71 108 144 183 237 305 370 422
#     4  11  22  40  69 103 144 181 239 292 362 426
#     4  11  26  49  72 101 152 185 250 295 369 433
#     4  11  24  38  67 111 140 182 233 302 360 417
#     4  10  26  47  70 104 139 203 237 304 354 443
#     4  11  25  42  72 105 139 190 230 299 367 428
#     4  10  24  42  69 100 142 188 240 287 360 429
#
# _framework density 23.797250999999999
#
# number of rings (size 3 to 8) (size 9 to 14) (size 15 to 20)
#    0.000    1.143    2.857    1.714    8.000    2.286 
#    0.000    0.000    0.000    0.000    0.000    0.000 
#    0.000    0.000    0.000    0.000    0.000    0.000 
#
# Total GULP energy -78108.825827 kJ/mol
# GULP energy per Si atom -5579.201845 kJ/mol
# Density = 2.374309 g / cm^3
# Si number density = 23.797251 Si / 1000 Ang^3
#
#
#
# Elastic Constant Matrix: (Units=GPa)
#
#
# Indices 1 2 3 4 5 6 
#
# 1 67.2018 18.3780 20.6095 0.0000 31.5781 0.0000
# 2 18.3780 166.2428 46.4969 0.0000 11.9824 0.0000
# 3 20.6095 46.4969 125.5088 0.0000 42.6929 0.0000
# 4 0.0000 0.0000 0.0000 35.4010 0.0000 2.0194
# 5 31.5781 11.9824 42.6929 0.0000 46.9028 0.0000
# 6 0.0000 0.0000 0.0000 2.0194 0.0000 26.2708
#
#
#
# Elastic Compliance Matrix: (Units=1/GPa)
#
#
# Indices 1 2 3 4 5 6 
#
# 1 0.022767 -0.002092 0.002997 0.000000 -0.017521 0.000000
# 2 -0.002092 0.006923 -0.003040 0.000000 0.002407 0.000000
# 3 0.002997 -0.003040 0.013071 0.000000 -0.013139 0.000000
# 4 0.000000 0.000000 0.000000 0.028372 0.000000 -0.002181
# 5 -0.017521 0.002407 -0.013139 0.000000 0.044462 0.000000
# 6 0.000000 0.000000 0.000000 -0.002181 0.000000 0.038233
#
#
# Mechanical properties :
#
#
# Convention : Reuss Voigt Hill
#
# Bulk Modulus (GPa) = 25.98072 58.88026 42.43049
# Shear Modulus (GPa) = 29.25188 39.94617 34.59902
#
# Velocity S-wave (km/s) = 3.50982 4.10152 3.81715
# Velocity P-wave (km/s) = 5.23128 6.87213 6.10706
#
# Compressibility (1/GPa) = 0.03849008
#
# Stress axis : x y z
#
# Youngs Moduli (GPa) = 43.92330 144.43803 76.50530
#
# Poissons Ratio (x) = 0.30218 -0.22925
# Poissons Ratio (y) = 0.09189 0.23259
# Poissons Ratio (z) = -0.13162 0.43911
#
# Static dielectric constant tensor:
#      x y z
#    x 2.081730 0.000000 -0.107710 
#    y 0.000000 1.924460 0.000000 
#    z -0.107710 0.000000 2.007000 
# 
# From -- ./inp_files/5850.got.cif
#   From: 2010.05.17/outbox.cif.g08.bks.cpg/sg9_3_cif.got.tgz:5850.got - 2010.06.03 20:04:27.
