data_PCOD9138126
_publ_section_title
;
Structure prediction by ZEFSAII (Michael W. Deem and Ramdas Pophale) SiO2 
 PCOD9138126
Probable space group: C C
;
_chemical_formula_sum "Si O2"
_cell_formula_units_Z 28
_cell_length_a 9.612521
_cell_length_b 24.042136
_cell_length_c 9.776953
_cell_angle_alpha 90.000000
_cell_angle_beta 135.132327
_cell_angle_gamma 90.000000
_cell_volume 1594.019168
_symmetry_space_group_name_H-M "C C"
_symmetry_group_IT_number 9
_symmetry_cell_setting 'monoclinic'
loop_
_space_group_symop_operation_xyz
x,y,z
x,-y,1/2+z
1/2+x,1/2+y,z
1/2+x,1/2-y,1/2+z
loop_
_atom_site_type_symbol
_atom_site_label
_atom_site_fract_x
_atom_site_fract_y
_atom_site_fract_z
Si Si1 0.509840 0.914277 0.108510
Si Si2 0.573394 0.407109 0.907267
Si Si3 0.142554 0.624445 0.415738
Si Si4 0.192637 0.375041 0.507080
Si Si5 0.470840 0.199480 0.059964
Si Si6 0.202074 0.465437 0.727414
Si Si7 0.051061 0.171867 0.653913
O O1 0.616173 0.878954 0.301376
O O2 0.622508 0.972997 0.176627
O O3 0.284000 0.922677 0.995853
O O4 0.527662 0.885014 0.974816
O O5 0.427640 0.379650 0.692781
O O6 0.438068 0.458038 0.869224
O O7 0.591406 0.363435 0.044305
O O8 0.147693 0.568926 0.325684
O O9 0.369432 0.641333 0.601164
O O10 0.051765 0.671925 0.255120
O O11 0.117293 0.429604 0.540238
O O12 0.108191 0.323490 0.533162
O O13 0.481656 0.265738 0.070807
O O14 0.251125 0.177865 0.877853
#
# Coordination Sequence:
#
# PCOD9138126 Si02
#       7
#     4   4   4   4   4   4   4
#     4  12  20  39  59  83 127 153 182 263 297 318
#     4   9  21  39  59  87 112 154 208 234 281 359
#     4  10  23  37  57  94 118 144 207 244 286 357
#     4   9  20  38  57  89 112 151 207 235 276 366
#     4  11  19  38  68  84 114 160 201 234 290 361
#     4   8  20  42  54  82 117 156 206 228 275 369
#     4  11  19  39  68  83 114 162 197 240 289 352
#
# _framework density 17.565662
#
# number of rings (size 3 to 8) (size 9 to 14) (size 15 to 20)
#    0.857    1.143    4.286    0.857    0.000    1.143 
#   10.286    1.429    0.000    0.000    0.000    0.000 
#    0.000    0.000    0.000    0.000    0.000    0.000 
#
# Total GULP energy -78003.457277 kJ/mol
# GULP energy per Si atom -5571.675520 kJ/mol
# Density = 1.752568 g / cm^3
# Si number density = 17.565662 Si / 1000 Ang^3
#
#
#
# Elastic Constant Matrix: (Units=GPa)
#
#
# Indices 1 2 3 4 5 6 
#
# 1 114.4112 34.0620 47.4811 0.0000 0.4228 0.0000
# 2 34.0620 69.9034 5.5516 0.0000 0.0222 0.0000
# 3 47.4811 5.5516 81.7264 0.0000 9.7882 0.0000
# 4 0.0000 0.0000 0.0000 14.3699 0.0000 9.3556
# 5 0.4228 0.0222 9.7882 0.0000 36.6594 0.0000
# 6 0.0000 0.0000 0.0000 9.3556 0.0000 10.2075
#
#
#
# Elastic Compliance Matrix: (Units=1/GPa)
#
#
# Indices 1 2 3 4 5 6 
#
# 1 0.013803 -0.006104 -0.007836 0.000000 0.001937 0.000000
# 2 -0.006104 0.017085 0.002457 0.000000 -0.000596 0.000000
# 3 -0.007836 0.002457 0.017160 0.000000 -0.004493 0.000000
# 4 0.000000 0.000000 0.000000 0.172561 0.000000 -0.158161
# 5 0.001937 -0.000596 -0.004493 0.000000 0.028456 0.000000
# 6 0.000000 0.000000 0.000000 -0.158161 0.000000 0.242930
#
#
# Mechanical properties :
#
#
# Convention : Reuss Voigt Hill
#
# Bulk Modulus (GPa) = 39.87100 48.91449 44.39274
# Shear Modulus (GPa) = 9.55437 24.17712 16.86574
#
# Velocity S-wave (km/s) = 2.33475 3.71399 3.10200
# Velocity P-wave (km/s) = 5.47865 6.80432 6.17715
#
# Compressibility (1/GPa) = 0.02508088
#
# Stress axis : x y z
#
# Youngs Moduli (GPa) = 72.45041 58.53173 58.27566
#
# Poissons Ratio (x) = 0.35727 0.45666
# Poissons Ratio (y) = 0.44223 -0.14319
# Poissons Ratio (z) = 0.56774 -0.14381
#
# Static dielectric constant tensor:
#      x y z
#    x 1.583410 0.000000 0.012000 
#    y 0.000000 1.578380 0.000000 
#    z 0.012000 0.000000 1.610390 
# 
# From -- ./inp_files/6125.got.cif
#   From: 2010.05.17/outbox.cif.g08.bks.cpg/sg9_4_cif.got.tgz:6125.got - 2010.06.03 20:04:27.
