data_PCOD9138534
_publ_section_title
;
Structure prediction by ZEFSAII (Michael W. Deem and Ramdas Pophale) SiO2 
 PCOD9138534
Probable space group: C C
;
_chemical_formula_sum "Si O2"
_cell_formula_units_Z 24
_cell_length_a 16.001660
_cell_length_b 5.045195
_cell_length_c 15.530230
_cell_angle_alpha 90.000000
_cell_angle_beta 49.151790
_cell_angle_gamma 90.000000
_cell_volume 948.414599
_symmetry_space_group_name_H-M "C C"
_symmetry_group_IT_number 9
_symmetry_cell_setting 'monoclinic'
loop_
_space_group_symop_operation_xyz
x,y,z
x,-y,1/2+z
1/2+x,1/2+y,z
1/2+x,1/2-y,1/2+z
loop_
_atom_site_type_symbol
_atom_site_label
_atom_site_fract_x
_atom_site_fract_y
_atom_site_fract_z
Si Si1 0.618040 0.254155 0.025280
Si Si2 0.798813 0.536833 0.506577
Si Si3 0.152010 0.254528 0.757174
Si Si4 0.013689 0.235144 0.406067
Si Si5 0.917725 0.610465 0.267037
Si Si6 0.792682 0.092037 0.320298
O O1 0.539982 0.162566 0.154861
O O2 0.694682 0.492686 0.009773
O O3 0.549502 0.294903 0.982990
O O4 0.701451 0.017843 0.946778
O O5 0.739471 0.697500 0.622219
O O6 0.880951 0.693749 0.387213
O O7 0.883003 0.310663 0.485347
O O8 0.085453 0.528666 0.813676
O O9 0.229338 0.255699 0.788908
O O10 0.063878 0.019771 0.825771
O O11 0.886179 0.300962 0.285006
O O12 0.848098 0.813608 0.254243
#
# Coordination Sequence:
#
# PCOD9138534 Si02
#       6
#     4   4   4   4   4   4
#     4  10  24  46  70 103 145 187 243 303 361 437
#     4  11  25  44  71 103 141 185 236 298 362 432
#     4  11  24  45  68 102 140 181 239 297 356 431
#     4  11  26  45  71 101 138 188 238 294 362 429
#     4  11  24  42  69 104 141 188 239 296 368 434
#     4  10  23  44  69  99 141 191 239 296 365 433
#
# _framework density 25.305389000000002
#
# number of rings (size 3 to 8) (size 9 to 14) (size 15 to 20)
#    0.000    1.333    0.000    5.000    0.000   16.000 
#    0.000    0.000    0.000    0.000    0.000    0.000 
#    0.000    0.000    0.000    0.000    0.000    0.000 
#
# Total GULP energy -66949.688920 kJ/mol
# GULP energy per Si atom -5579.140743 kJ/mol
# Density = 2.524779 g / cm^3
# Si number density = 25.305389 Si / 1000 Ang^3
#
#
#
# Elastic Constant Matrix: (Units=GPa)
#
#
# Indices 1 2 3 4 5 6 
#
# 1 142.2204 29.0211 22.9338 0.0001 2.1950 0.0001
# 2 29.0211 110.8177 6.2425 -0.0009 2.7555 0.0192
# 3 22.9338 6.2425 124.5906 0.0007 3.7540 -0.0028
# 4 0.0001 -0.0009 0.0007 10.9227 -0.0008 -13.9078
# 5 2.1950 2.7555 3.7540 -0.0008 28.7734 0.0015
# 6 0.0001 0.0192 -0.0028 -13.9078 0.0015 36.4061
#
#
#
# Elastic Compliance Matrix: (Units=1/GPa)
#
#
# Indices 1 2 3 4 5 6 
#
# 1 0.007637 -0.001921 -0.001303 0.000002 -0.000229 0.000002
# 2 -0.001921 0.009551 -0.000102 -0.000011 -0.000755 -0.000009
# 3 -0.001303 -0.000102 0.008301 0.000001 -0.000974 0.000001
# 4 0.000002 -0.000011 0.000001 0.178266 0.000003 0.068101
# 5 -0.000229 -0.000755 -0.000974 0.000003 0.034971 0.000000
# 6 0.000002 -0.000009 0.000001 0.068101 0.000000 0.053484
#
#
# Mechanical properties :
#
#
# Convention : Reuss Voigt Hill
#
# Bulk Modulus (GPa) = 53.08608 54.89152 53.98880
# Shear Modulus (GPa) = 16.38590 36.51585 26.45088
#
# Velocity S-wave (km/s) = 2.54741 3.80281 3.23657
# Velocity P-wave (km/s) = 5.44758 6.40473 5.94545
#
# Compressibility (1/GPa) = 0.01883733
#
# Stress axis : x y z
#
# Youngs Moduli (GPa) = 130.94322 104.69664 120.47425
#
# Poissons Ratio (x) = 0.20111 0.15693
# Poissons Ratio (y) = 0.25153 0.01232
# Poissons Ratio (z) = 0.17057 0.01070
#
# Static dielectric constant tensor:
#      x y z
#    x 2.132570 -0.000010 0.044180 
#    y -0.000010 1.949430 0.000000 
#    z 0.044180 0.000000 1.986210 
# 
# From -- ./inp_files/26232.got.cif
#   From: 2010.05.17/outbox.cif.g08.bks.cpg/sg9_14_cif.got.tgz:26232.got - 2010.06.03 20:04:27.
