data_PCOD9138912
_publ_section_title
;
Structure prediction by ZEFSAII (Michael W. Deem and Ramdas Pophale) SiO2 
 PCOD9138912
Probable space group: C C
;
_chemical_formula_sum "Si O2"
_cell_formula_units_Z 20
_cell_length_a 19.653421
_cell_length_b 7.428238
_cell_length_c 5.624791
_cell_angle_alpha 90.000000
_cell_angle_beta 118.444672
_cell_angle_gamma 90.000000
_cell_volume 722.031766
_symmetry_space_group_name_H-M "C C"
_symmetry_group_IT_number 9
_symmetry_cell_setting 'monoclinic'
loop_
_space_group_symop_operation_xyz
x,y,z
x,-y,1/2+z
1/2+x,1/2+y,z
1/2+x,1/2-y,1/2+z
loop_
_atom_site_type_symbol
_atom_site_label
_atom_site_fract_x
_atom_site_fract_y
_atom_site_fract_z
Si Si1 0.757910 0.199628 0.007310
Si Si2 0.150343 0.639322 0.452590
Si Si3 0.659294 0.415784 0.129717
Si Si4 0.436406 0.323281 0.780289
Si Si5 0.491545 0.263004 0.372704
O O1 0.745505 0.342863 0.198531
O O2 0.844578 0.139549 0.115572
O O3 0.716524 0.266418 0.693504
O O4 0.702899 0.029148 0.968697
O O5 0.122898 0.725993 0.156946
O O6 0.074273 0.664495 0.484084
O O7 0.634453 0.520195 0.328460
O O8 0.457629 0.218847 0.574740
O O9 0.481923 0.515462 0.857153
O O10 0.449902 0.223585 0.052423
#
# Coordination Sequence:
#
# PCOD9138912 Si02
#       5
#     4   4   4   4   4
#     4  12  26  49  87 117 156 212 285 323 390 487
#     4  12  26  44  82 121 157 201 275 338 385 472
#     4  12  28  45  74 115 164 201 264 329 403 453
#     4  10  24  46  75 108 154 218 258 307 402 503
#     4  10  24  40  70 109 155 194 262 315 392 461
#
# _framework density 27.699612999999999
#
# number of rings (size 3 to 8) (size 9 to 14) (size 15 to 20)
#    0.000    0.800    4.000    2.400   11.200    0.000 
#    0.000    0.000   13.200    0.000    0.000    0.000 
#    0.000    0.000    0.000    0.000    0.000    0.000 
#
# Total GULP energy -55716.205382 kJ/mol
# GULP energy per Si atom -5571.620538 kJ/mol
# Density = 2.763657 g / cm^3
# Si number density = 27.699613 Si / 1000 Ang^3
#
#
#
# Elastic Constant Matrix: (Units=GPa)
#
#
# Indices 1 2 3 4 5 6 
#
# 1 225.8568 73.9946 104.3878 0.0000 -2.1286 0.0000
# 2 73.9946 95.5024 48.7932 0.0000 -14.6349 0.0000
# 3 104.3878 48.7932 219.5130 0.0000 -34.2970 0.0000
# 4 0.0000 0.0000 0.0000 34.5101 0.0000 -9.7373
# 5 -2.1286 -14.6349 -34.2970 0.0000 63.3778 0.0000
# 6 0.0000 0.0000 0.0000 -9.7373 0.0000 39.9492
#
#
#
# Elastic Compliance Matrix: (Units=1/GPa)
#
#
# Indices 1 2 3 4 5 6 
#
# 1 0.007150 -0.004479 -0.002762 0.000000 -0.002289 0.000000
# 2 -0.004479 0.014738 -0.000696 0.000000 0.002876 0.000000
# 3 -0.002762 -0.000696 0.006537 0.000000 0.003284 0.000000
# 4 0.000000 0.000000 0.000000 0.031117 0.000000 0.007585
# 5 -0.002289 0.002876 0.003284 0.000000 0.018143 0.000000
# 6 0.000000 0.000000 0.000000 0.007585 0.000000 0.026880
#
#
# Mechanical properties :
#
#
# Convention : Reuss Voigt Hill
#
# Bulk Modulus (GPa) = 79.68703 110.58039 95.13371
# Shear Modulus (GPa) = 40.12043 48.48053 44.30048
#
# Velocity S-wave (km/s) = 3.80993 4.18811 4.00349
# Velocity P-wave (km/s) = 6.94153 7.96209 7.46926
#
# Compressibility (1/GPa) = 0.01254909
#
# Stress axis : x y z
#
# Youngs Moduli (GPa) = 139.85628 67.85115 152.97644
#
# Poissons Ratio (x) = 0.30394 0.42255
# Poissons Ratio (y) = 0.62648 0.10654
# Poissons Ratio (z) = 0.38631 0.04726
#
# Static dielectric constant tensor:
#      x y z
#    x 2.074910 0.000000 -0.055450 
#    y 0.000000 3.286030 0.000000 
#    z -0.055450 0.000000 2.325550 
# 
# From -- ./inp_files/3103.got.cif
#   From: 2010.05.17/outbox.cif.g08.bks.cpg/sg9_2_cif.got.tgz:3103.got - 2010.06.03 20:04:27.
