data_PCOD9138531
_publ_section_title
;
Structure prediction by ZEFSAII (Michael W. Deem and Ramdas Pophale) SiO2 
 PCOD9138531
Probable space group: C C
;
_chemical_formula_sum "Si O2"
_cell_formula_units_Z 28
_cell_length_a 9.025883
_cell_length_b 26.483928
_cell_length_c 5.146280
_cell_angle_alpha 90.000000
_cell_angle_beta 99.016051
_cell_angle_gamma 90.000000
_cell_volume 1214.971665
_symmetry_space_group_name_H-M "C C"
_symmetry_group_IT_number 9
_symmetry_cell_setting 'monoclinic'
loop_
_space_group_symop_operation_xyz
x,y,z
x,-y,1/2+z
1/2+x,1/2+y,z
1/2+x,1/2-y,1/2+z
loop_
_atom_site_type_symbol
_atom_site_label
_atom_site_fract_x
_atom_site_fract_y
_atom_site_fract_z
Si Si1 0.401100 0.470960 0.807330
Si Si2 0.249759 0.858208 0.810055
Si Si3 0.262768 0.973774 0.899393
Si Si4 0.265777 0.688194 0.865843
Si Si5 0.191058 0.776386 0.455484
Si Si6 0.929694 0.852936 0.900802
Si Si7 0.493377 0.198926 0.095231
O O1 0.340645 0.498150 0.535470
O O2 0.581845 0.478855 0.859441
O O3 0.385461 0.410654 0.817390
O O4 0.287074 0.916649 0.821485
O O5 0.164466 0.833540 0.538454
O O6 0.410095 0.830860 0.806036
O O7 0.112037 0.850534 0.974616
O O8 0.321019 0.012117 0.698370
O O9 0.219565 0.742579 0.726353
O O10 0.341939 0.661156 0.640433
O O11 0.372479 0.682249 0.146826
O O12 0.109877 0.668978 0.950321
O O13 0.357023 0.781392 0.381705
O O14 0.077960 0.746065 0.248587
#
# Coordination Sequence:
#
# PCOD9138531 Si02
#       7
#     4   4   4   4   4   4   4
#     4   9  17  33  61  95 132 169 223 287 347 399
#     4   9  23  42  70 107 133 189 230 290 348 413
#     4   9  18  38  62  99 134 171 226 293 340 399
#     4  12  24  43  65  97 140 184 226 283 340 419
#     4  10  23  44  69  98 140 185 235 281 344 415
#     4  11  23  42  67 103 137 179 234 289 346 413
#     4  10  24  46  68  97 142 185 234 283 341 424
#
# _framework density 23.045807
#
# number of rings (size 3 to 8) (size 9 to 14) (size 15 to 20)
#    0.857    1.143    1.429    1.714    2.000    4.571 
#    7.714    0.000    0.000    5.143    0.000    0.000 
#    0.000    0.000    0.000    0.000    0.000    0.000 
#
# Total GULP energy -77953.798328 kJ/mol
# GULP energy per Si atom -5568.128452 kJ/mol
# Density = 2.299335 g / cm^3
# Si number density = 23.045807 Si / 1000 Ang^3
#
#
#
# Elastic Constant Matrix: (Units=GPa)
#
#
# Indices 1 2 3 4 5 6 
#
# 1 146.9613 100.0952 67.5552 0.0000 -16.5238 0.0000
# 2 100.0952 315.9054 169.1821 0.0000 -13.1831 0.0000
# 3 67.5552 169.1821 184.0462 0.0000 -25.2328 0.0000
# 4 0.0000 0.0000 0.0000 25.2995 0.0000 -12.7686
# 5 -16.5238 -13.1831 -25.2328 0.0000 25.1769 0.0000
# 6 0.0000 0.0000 0.0000 -12.7686 0.0000 22.0893
#
#
#
# Elastic Compliance Matrix: (Units=1/GPa)
#
#
# Indices 1 2 3 4 5 6 
#
# 1 0.009194 -0.002440 -0.000556 0.000000 0.004199 0.000000
# 2 -0.002440 0.007067 -0.006159 0.000000 -0.004074 0.000000
# 3 -0.000556 -0.006159 0.012529 0.000000 0.008967 0.000000
# 4 0.000000 0.000000 0.000000 0.055808 0.000000 0.032259
# 5 0.004199 -0.004074 0.008967 0.000000 0.049328 0.000000
# 6 0.000000 0.000000 0.000000 0.032259 0.000000 0.063918
#
#
# Mechanical properties :
#
#
# Convention : Reuss Voigt Hill
#
# Bulk Modulus (GPa) = 95.42695 146.73090 121.07893
# Shear Modulus (GPa) = 22.76364 35.18515 28.97440
#
# Velocity S-wave (km/s) = 3.14627 3.91160 3.54962
# Velocity P-wave (km/s) = 7.39568 9.17651 8.33380
#
# Compressibility (1/GPa) = 0.01047922
#
# Stress axis : x y z
#
# Youngs Moduli (GPa) = 108.76338 141.49584 79.81656
#
# Poissons Ratio (x) = 0.34529 0.04437
# Poissons Ratio (y) = 0.26541 0.49162
# Poissons Ratio (z) = 0.06046 0.87153
#
# Static dielectric constant tensor:
#      x y z
#    x 1.856180 0.000000 -0.125660 
#    y 0.000000 1.873840 0.000000 
#    z -0.125660 0.000000 1.849220 
# 
# From -- ./inp_files/974.got.cif
#   From: 2010.05.17/outbox.cif.g08.bks.cpg/sg9_1_cif.got.tgz:974.got - 2010.06.03 20:04:27.
