data_PCOD9138402
_publ_section_title
;
Structure prediction by ZEFSAII (Michael W. Deem and Ramdas Pophale) SiO2 
 PCOD9138402
Probable space group: C C
;
_chemical_formula_sum "Si O2"
_cell_formula_units_Z 32
_cell_length_a 6.296689
_cell_length_b 28.223446
_cell_length_c 8.696215
_cell_angle_alpha 90.000000
_cell_angle_beta 69.805220
_cell_angle_gamma 90.000000
_cell_volume 1450.434611
_symmetry_space_group_name_H-M "C C"
_symmetry_group_IT_number 9
_symmetry_cell_setting 'monoclinic'
loop_
_space_group_symop_operation_xyz
x,y,z
x,-y,1/2+z
1/2+x,1/2+y,z
1/2+x,1/2-y,1/2+z
loop_
_atom_site_type_symbol
_atom_site_label
_atom_site_fract_x
_atom_site_fract_y
_atom_site_fract_z
Si Si1 0.154890 0.436218 0.331280
Si Si2 0.738428 0.011087 0.538459
Si Si3 0.834265 0.192264 0.561989
Si Si4 0.253302 0.208645 0.234801
Si Si5 0.275095 0.131495 0.982802
Si Si6 0.019160 0.642468 0.403757
Si Si7 0.409673 0.431935 0.730559
Si Si8 0.097786 0.113731 0.687734
O O1 0.095373 0.479403 0.457410
O O2 0.092140 0.453018 0.176790
O O3 0.426590 0.429726 0.259881
O O4 0.027614 0.389196 0.412394
O O5 0.910057 0.042626 0.395678
O O6 0.850336 0.972644 0.622892
O O7 0.797884 0.237240 0.680194
O O8 0.619763 0.171897 0.523078
O O9 0.017605 0.204532 0.384400
O O10 0.939557 0.151394 0.640327
O O11 0.253318 0.181009 0.073228
O O12 0.430090 0.180162 0.299709
O O13 0.132692 0.094916 0.122809
O O14 0.177248 0.130914 0.835471
O O15 0.811643 0.611188 0.520709
O O16 0.211341 0.607685 0.289427
#
# Coordination Sequence:
#
# PCOD9138402 Si02
#       8
#     4   4   4   4   4   4   4   4
#     4  11  24  45  66 101 137 183 231 285 346 410
#     4  10  23  43  67  98 137 176 239 283 338 416
#     4  11  26  46  69 104 141 179 237 283 342 418
#     4  11  28  42  73 103 135 187 226 290 340 418
#     4  12  25  43  72 100 141 184 226 286 352 414
#     4  11  25  49  70  99 144 187 229 286 351 414
#     4  11  22  45  66 101 136 181 228 287 346 409
#     4  11  25  45  71 100 137 191 224 284 345 413
#
# _framework density 22.062352000000001
#
# number of rings (size 3 to 8) (size 9 to 14) (size 15 to 20)
#    0.000    1.000    2.500    3.000    7.000    2.000 
#    9.000    0.000    0.000    0.000    0.000    0.000 
#    0.000    0.000    0.000    0.000    0.000    0.000 
#
# Total GULP energy -89467.184948 kJ/mol
# GULP energy per Si atom -5591.699059 kJ/mol
# Density = 2.201214 g / cm^3
# Si number density = 22.062352 Si / 1000 Ang^3
#
#
#
# Elastic Constant Matrix: (Units=GPa)
#
#
# Indices 1 2 3 4 5 6 
#
# 1 67.7192 15.0402 23.4148 0.0000 -7.3871 0.0000
# 2 15.0402 63.6168 13.7228 0.0000 -9.7050 0.0000
# 3 23.4148 13.7228 98.9661 0.0000 -5.7865 0.0000
# 4 0.0000 0.0000 0.0000 59.8822 0.0000 4.9396
# 5 -7.3871 -9.7050 -5.7865 0.0000 44.0287 0.0000
# 6 0.0000 0.0000 0.0000 4.9396 0.0000 17.1589
#
#
#
# Elastic Compliance Matrix: (Units=1/GPa)
#
#
# Indices 1 2 3 4 5 6 
#
# 1 0.016811 -0.002966 -0.003466 0.000000 0.001711 0.000000
# 2 -0.002966 0.017218 -0.001505 0.000000 0.003100 0.000000
# 3 -0.003466 -0.001505 0.011166 0.000000 0.000554 0.000000
# 4 0.000000 0.000000 0.000000 0.017106 0.000000 -0.004924
# 5 0.001711 0.003100 0.000554 0.000000 0.023756 0.000000
# 6 0.000000 0.000000 0.000000 -0.004924 0.000000 0.059696
#
#
# Mechanical properties :
#
#
# Convention : Reuss Voigt Hill
#
# Bulk Modulus (GPa) = 34.10468 37.18418 35.64443
# Shear Modulus (GPa) = 29.17191 36.08891 32.63041
#
# Velocity S-wave (km/s) = 3.64022 4.04885 3.84996
# Velocity P-wave (km/s) = 5.75848 6.22482 5.99618
#
# Compressibility (1/GPa) = 0.02932149
#
# Stress axis : x y z
#
# Youngs Moduli (GPa) = 59.48626 58.07984 89.56131
#
# Poissons Ratio (x) = 0.17224 0.31042
# Poissons Ratio (y) = 0.17641 0.13475
# Poissons Ratio (z) = 0.20618 0.08738
#
# Static dielectric constant tensor:
#      x y z
#    x 1.795020 0.000000 0.006280 
#    y 0.000000 1.771860 0.000000 
#    z 0.006280 0.000000 1.818750 
# 
# From -- ./inp_files/4330.got.cif
#   From: 2010.05.17/outbox.cif.g08.bks.cpg/sg9_3_cif.got.tgz:4330.got - 2010.06.03 20:04:27.
