data_PCOD9138352
_publ_section_title
;
Structure prediction by ZEFSAII (Michael W. Deem and Ramdas Pophale) SiO2 
 PCOD9138352
Probable space group: C C
;
_chemical_formula_sum "Si O2"
_cell_formula_units_Z 32
_cell_length_a 5.102702
_cell_length_b 18.796701
_cell_length_c 14.406014
_cell_angle_alpha 90.000000
_cell_angle_beta 64.202056
_cell_angle_gamma 90.000000
_cell_volume 1244.026152
_symmetry_space_group_name_H-M "C C"
_symmetry_group_IT_number 9
_symmetry_cell_setting 'monoclinic'
loop_
_space_group_symop_operation_xyz
x,y,z
x,-y,1/2+z
1/2+x,1/2+y,z
1/2+x,1/2-y,1/2+z
loop_
_atom_site_type_symbol
_atom_site_label
_atom_site_fract_x
_atom_site_fract_y
_atom_site_fract_z
Si Si1 0.269110 0.415697 0.838610
Si Si2 0.699358 0.382922 0.511122
Si Si3 0.363752 0.856564 0.183148
Si Si4 0.081138 0.097076 0.475381
Si Si5 0.644995 0.511373 0.650424
Si Si6 0.114473 0.787009 0.689886
Si Si7 0.354880 0.645101 0.895628
Si Si8 0.696356 0.265790 0.042591
O O1 0.374113 0.429767 0.926553
O O2 0.396553 0.479621 0.755721
O O3 0.438839 0.343037 0.780191
O O4 0.919401 0.410197 0.890316
O O5 0.759276 0.442686 0.578697
O O6 0.565186 0.318727 0.593152
O O7 0.495465 0.403237 0.456088
O O8 0.018752 0.365041 0.426132
O O9 0.389175 0.941491 0.165659
O O10 0.522769 0.795147 0.217527
O O11 0.360733 0.820061 0.083365
O O12 0.040833 0.857053 0.275570
O O13 0.038175 0.058837 0.580541
O O14 0.015459 0.179846 0.505289
O O15 0.467175 0.782724 0.635830
O O16 0.382180 0.721046 0.942039
#
# Coordination Sequence:
#
# PCOD9138352 Si02
#       8
#     4   4   4   4   4   4   4   4
#     4  11  27  48  75 108 144 208 240 303 377 461
#     4  10  24  46  66  97 138 192 225 295 356 432
#     4  11  24  43  68 107 137 183 236 307 345 439
#     4  11  27  46  76 103 154 188 252 302 379 437
#     4  10  27  48  72 106 147 192 250 307 363 437
#     4  10  23  42  72  98 148 180 244 291 376 421
#     4  11  24  42  74  96 142 178 241 281 367 429
#     4  10  24  43  67 109 138 187 230 314 359 436
#
# _framework density 25.722933999999999
#
# number of rings (size 3 to 8) (size 9 to 14) (size 15 to 20)
#    0.000    1.500    1.250    0.750   12.250    5.000 
#    4.500    0.000    0.000    0.000    0.000    0.000 
#    0.000    0.000    0.000    0.000    0.000    0.000 
#
# Total GULP energy -89389.516588 kJ/mol
# GULP energy per Si atom -5586.844787 kJ/mol
# Density = 2.566439 g / cm^3
# Si number density = 25.722934 Si / 1000 Ang^3
#
#
#
# Elastic Constant Matrix: (Units=GPa)
#
#
# Indices 1 2 3 4 5 6 
#
# 1 108.5495 13.7371 31.0224 0.0000 -24.0851 0.0000
# 2 13.7371 127.9867 35.3666 0.0000 -10.3324 0.0000
# 3 31.0224 35.3666 107.7805 0.0000 -18.0958 0.0000
# 4 0.0000 0.0000 0.0000 37.9713 0.0000 -0.5857
# 5 -24.0851 -10.3324 -18.0958 0.0000 38.1193 0.0000
# 6 0.0000 0.0000 0.0000 -0.5857 0.0000 13.4274
#
#
#
# Elastic Compliance Matrix: (Units=1/GPa)
#
#
# Indices 1 2 3 4 5 6 
#
# 1 0.011179 -0.000115 -0.002172 0.000000 0.006001 0.000000
# 2 -0.000115 0.008634 -0.002629 0.000000 0.001020 0.000000
# 3 -0.002172 -0.002629 0.011318 0.000000 0.003288 0.000000
# 4 0.000000 0.000000 0.000000 0.026353 0.000000 0.001150
# 5 0.006001 0.001020 0.003288 0.000000 0.031862 0.000000
# 6 0.000000 0.000000 0.000000 0.001150 0.000000 0.074524
#
#
# Mechanical properties :
#
#
# Convention : Reuss Voigt Hill
#
# Bulk Modulus (GPa) = 46.95095 56.06323 51.50709
# Shear Modulus (GPa) = 27.65419 35.51632 31.58525
#
# Velocity S-wave (km/s) = 3.28240 3.71984 3.50795
# Velocity P-wave (km/s) = 5.71469 6.34760 6.03944
#
# Compressibility (1/GPa) = 0.02129882
#
# Stress axis : x y z
#
# Youngs Moduli (GPa) = 89.45080 115.81531 88.35467
#
# Poissons Ratio (x) = 0.01333 0.19194
# Poissons Ratio (y) = 0.01030 0.23228
# Poissons Ratio (z) = 0.19432 0.30447
#
# Static dielectric constant tensor:
#      x y z
#    x 2.092660 0.000000 0.009270 
#    y 0.000000 2.216420 0.000000 
#    z 0.009270 0.000000 1.969010 
# 
# From -- ./inp_files/22042.got.cif
#   From: 2010.05.17/outbox.cif.g08.bks.cpg/sg9_12_cif.got.tgz:22042.got - 2010.06.03 20:04:27.
