data_PCOD9138866
_publ_section_title
;
Structure prediction by ZEFSAII (Michael W. Deem and Ramdas Pophale) SiO2 
 PCOD9138866
Probable space group: C C
;
_chemical_formula_sum "Si O2"
_cell_formula_units_Z 28
_cell_length_a 10.401754
_cell_length_b 9.285474
_cell_length_c 10.476500
_cell_angle_alpha 90.000000
_cell_angle_beta 98.250025
_cell_angle_gamma 90.000000
_cell_volume 1001.403452
_symmetry_space_group_name_H-M "C C"
_symmetry_group_IT_number 9
_symmetry_cell_setting 'monoclinic'
loop_
_space_group_symop_operation_xyz
x,y,z
x,-y,1/2+z
1/2+x,1/2+y,z
1/2+x,1/2-y,1/2+z
loop_
_atom_site_type_symbol
_atom_site_label
_atom_site_fract_x
_atom_site_fract_y
_atom_site_fract_z
Si Si1 0.384300 0.237618 0.195060
Si Si2 0.594517 0.756767 0.947025
Si Si3 0.639989 0.934609 0.390036
Si Si4 0.988687 0.467601 0.102207
Si Si5 0.855418 0.043606 0.255796
Si Si6 0.617781 0.421205 0.691676
Si Si7 0.225492 0.199240 0.583554
O O1 0.342361 0.400549 0.163394
O O2 0.484819 0.251977 0.327091
O O3 0.461881 0.135732 0.109519
O O4 0.259571 0.148434 0.229023
O O5 0.728990 0.701736 0.928255
O O6 0.580709 0.940081 0.984213
O O7 0.556760 0.683039 0.073806
O O8 0.556432 0.932788 0.248019
O O9 0.779124 0.992899 0.369415
O O10 0.658437 0.784893 0.459138
O O11 0.855968 0.385844 0.062859
O O12 0.007748 0.074524 0.283795
O O13 0.774397 0.169599 0.178790
O O14 0.637374 0.579910 0.637646
#
# Coordination Sequence:
#
# PCOD9138866 Si02
#       7
#     4   4   4   4   4   4   4
#     4  11  25  48  77 116 152 204 256 317 387 460
#     4  10  23  50  77 112 152 201 259 311 389 463
#     4  10  24  41  77 104 148 197 245 317 378 448
#     4   9  22  46  72 104 157 196 247 321 373 452
#     4  12  25  44  74 110 149 200 254 313 387 457
#     4  11  26  50  77 106 161 201 254 326 382 455
#     4  11  23  47  74 106 155 199 253 319 378 457
#
# _framework density 27.960757000000001
#
# number of rings (size 3 to 8) (size 9 to 14) (size 15 to 20)
#    0.857    0.571    1.429    2.571    4.000    0.000 
#    7.714    7.143    0.000    0.000    0.000    0.000 
#    0.000    0.000    0.000    0.000    0.000    0.000 
#
# Total GULP energy -78190.694759 kJ/mol
# GULP energy per Si atom -5585.049626 kJ/mol
# Density = 2.789712 g / cm^3
# Si number density = 27.960757 Si / 1000 Ang^3
#
#
#
# Elastic Constant Matrix: (Units=GPa)
#
#
# Indices 1 2 3 4 5 6 
#
# 1 184.6150 64.7349 87.3404 0.0000 -14.4623 0.0000
# 2 64.7349 198.6612 75.7949 0.0000 -6.3207 0.0000
# 3 87.3404 75.7949 128.5192 0.0000 -11.6426 0.0000
# 4 0.0000 0.0000 0.0000 39.0239 0.0000 3.7131
# 5 -14.4623 -6.3207 -11.6426 0.0000 35.8169 0.0000
# 6 0.0000 0.0000 0.0000 3.7131 0.0000 50.5471
#
#
#
# Elastic Compliance Matrix: (Units=1/GPa)
#
#
# Indices 1 2 3 4 5 6 
#
# 1 0.008139 -0.000705 -0.004975 0.000000 0.001545 0.000000
# 2 -0.000705 0.006557 -0.003409 0.000000 -0.000236 0.000000
# 3 -0.004975 -0.003409 0.013329 0.000000 0.001722 0.000000
# 4 0.000000 0.000000 0.000000 0.025806 0.000000 -0.001896
# 5 0.001545 -0.000236 0.001722 0.000000 0.029062 0.000000
# 6 0.000000 0.000000 0.000000 -0.001896 0.000000 0.019923
#
#
# Mechanical properties :
#
#
# Convention : Reuss Voigt Hill
#
# Bulk Modulus (GPa) = 101.57080 107.50398 104.53739
# Shear Modulus (GPa) = 40.23350 44.00591 42.11971
#
# Velocity S-wave (km/s) = 3.79744 3.97148 3.88543
# Velocity P-wave (km/s) = 7.45871 7.71763 7.58928
#
# Compressibility (1/GPa) = 0.00984535
#
# Stress axis : x y z
#
# Youngs Moduli (GPa) = 122.87119 152.51987 75.02524
#
# Poissons Ratio (x) = 0.10746 0.37329
# Poissons Ratio (y) = 0.08657 0.25578
# Poissons Ratio (z) = 0.61134 0.51998
#
# Static dielectric constant tensor:
#      x y z
#    x 2.221870 0.000000 -0.093310 
#    y 0.000000 2.575860 0.000000 
#    z -0.093310 0.000000 2.926210 
# 
# From -- ./inp_files/24282.got.cif
#   From: 2010.05.17/outbox.cif.g08.bks.cpg/sg9_13_cif.got.tgz:24282.got - 2010.06.03 20:04:27.
