data_PCOD9138763
_publ_section_title
;
Structure prediction by ZEFSAII (Michael W. Deem and Ramdas Pophale) SiO2 
 PCOD9138763
Probable space group: C C
;
_chemical_formula_sum "Si O2"
_cell_formula_units_Z 28
_cell_length_a 12.063160
_cell_length_b 7.246384
_cell_length_c 27.244134
_cell_angle_alpha 90.000000
_cell_angle_beta 31.192382
_cell_angle_gamma 90.000000
_cell_volume 1233.424254
_symmetry_space_group_name_H-M "C C"
_symmetry_group_IT_number 9
_symmetry_cell_setting 'monoclinic'
loop_
_space_group_symop_operation_xyz
x,y,z
x,-y,1/2+z
1/2+x,1/2+y,z
1/2+x,1/2-y,1/2+z
loop_
_atom_site_type_symbol
_atom_site_label
_atom_site_fract_x
_atom_site_fract_y
_atom_site_fract_z
Si Si1 0.725090 0.419159 0.223170
Si Si2 0.398182 0.327374 0.578602
Si Si3 0.541202 0.603620 0.196223
Si Si4 0.203930 0.110278 0.416071
Si Si5 0.930005 0.534154 0.234374
Si Si6 0.090242 0.413824 0.833082
Si Si7 0.990035 0.488159 0.481035
O O1 0.881376 0.266995 0.138385
O O2 0.590921 0.514421 0.230753
O O3 0.600954 0.300082 0.311276
O O4 0.858746 0.560208 0.205189
O O5 0.516806 0.514186 0.518535
O O6 0.146557 0.352369 0.661657
O O7 0.517858 0.175486 0.500582
O O8 0.334028 0.518645 0.247404
O O9 0.489883 0.819688 0.220261
O O10 0.753812 0.579958 0.084320
O O11 0.240248 0.077732 0.344380
O O12 0.421363 0.022009 0.356507
O O13 0.152421 0.328503 0.436346
O O14 0.999041 0.457552 0.920908
#
# Coordination Sequence:
#
# PCOD9138763 Si02
#       7
#     4   4   4   4   4   4   4
#     4  10  23  46  74 104 149 192 243 296 366 427
#     4  11  24  47  71 107 148 187 246 302 362 441
#     4  10  23  48  72 105 149 192 237 304 367 422
#     4  12  26  45  73 111 145 192 250 294 369 438
#     4  11  24  46  73 109 145 193 241 303 365 443
#     4  11  24  41  74 106 145 191 244 295 359 440
#     4  11  26  45  73 104 151 189 243 302 366 429
#
# _framework density 22.701028999999998
#
# number of rings (size 3 to 8) (size 9 to 14) (size 15 to 20)
#    0.000    1.143    2.857    2.571    6.000    3.429 
#    0.000    4.286    0.000    0.000    0.000    0.000 
#    0.000    0.000    0.000    0.000    0.000    0.000 
#
# Total GULP energy -78077.931801 kJ/mol
# GULP energy per Si atom -5576.995129 kJ/mol
# Density = 2.264936 g / cm^3
# Si number density = 22.701029 Si / 1000 Ang^3
#
#
#
# Elastic Constant Matrix: (Units=GPa)
#
#
# Indices 1 2 3 4 5 6 
#
# 1 144.5400 20.1690 49.3219 -0.0001 8.5312 0.0001
# 2 20.1690 84.6925 14.4150 -0.0001 17.1513 0.0005
# 3 49.3219 14.4150 88.1621 -0.0001 -1.6710 -0.0001
# 4 -0.0001 -0.0001 -0.0001 33.5524 -0.0001 4.1779
# 5 8.5312 17.1513 -1.6710 -0.0001 28.1482 0.0000
# 6 0.0001 0.0005 -0.0001 4.1779 0.0000 30.1048
#
#
#
# Elastic Compliance Matrix: (Units=1/GPa)
#
#
# Indices 1 2 3 4 5 6 
#
# 1 0.008833 -0.000770 -0.004863 0.000000 -0.002496 0.000000
# 2 -0.000770 0.014046 -0.002026 0.000000 -0.008445 0.000000
# 3 -0.004863 -0.002026 0.014462 0.000000 0.003567 0.000000
# 4 0.000000 0.000000 0.000000 0.030328 0.000000 -0.004209
# 5 -0.002496 -0.008445 0.003567 0.000000 0.041640 0.000000
# 6 0.000000 0.000000 0.000000 -0.004209 0.000000 0.033801
#
#
# Mechanical properties :
#
#
# Convention : Reuss Voigt Hill
#
# Bulk Modulus (GPa) = 45.40689 53.91182 49.65935
# Shear Modulus (GPa) = 30.16241 33.92700 32.04471
#
# Velocity S-wave (km/s) = 3.64906 3.87009 3.76120
# Velocity P-wave (km/s) = 6.14815 6.61591 6.38632
#
# Compressibility (1/GPa) = 0.02202309
#
# Stress axis : x y z
#
# Youngs Moduli (GPa) = 113.21615 71.19507 69.14665
#
# Poissons Ratio (x) = 0.05484 0.33624
# Poissons Ratio (y) = 0.08720 0.14007
# Poissons Ratio (z) = 0.55054 0.14422
#
# Static dielectric constant tensor:
#      x y z
#    x 1.922090 0.000000 -0.044880 
#    y 0.000000 1.887430 0.000000 
#    z -0.044880 0.000000 1.869600 
# 
# From -- ./inp_files/36495.got.cif
#   From: 2010.05.17/outbox.cif.g08.bks.cpg/sg9_19_cif.got.tgz:36495.got - 2010.06.03 20:04:27.
