data_PCOD9138447
_publ_section_title
;
Structure prediction by ZEFSAII (Michael W. Deem and Ramdas Pophale) SiO2 
 PCOD9138447
Probable space group: C C
;
_chemical_formula_sum "Si O2"
_cell_formula_units_Z 28
_cell_length_a 9.176067
_cell_length_b 11.518019
_cell_length_c 11.614408
_cell_angle_alpha 90.000000
_cell_angle_beta 94.589260
_cell_angle_gamma 90.000000
_cell_volume 1223.592521
_symmetry_space_group_name_H-M "C C"
_symmetry_group_IT_number 9
_symmetry_cell_setting 'monoclinic'
loop_
_space_group_symop_operation_xyz
x,y,z
x,-y,1/2+z
1/2+x,1/2+y,z
1/2+x,1/2-y,1/2+z
loop_
_atom_site_type_symbol
_atom_site_label
_atom_site_fract_x
_atom_site_fract_y
_atom_site_fract_z
Si Si1 0.320200 0.337411 0.716850
Si Si2 0.905873 0.659664 0.527223
Si Si3 0.361132 0.557909 0.441824
Si Si4 0.119078 0.446553 0.526855
Si Si5 0.371282 0.778915 0.583611
Si Si6 0.547028 0.286564 0.318333
Si Si7 0.660513 0.527397 0.988158
O O1 0.387205 0.239240 0.638642
O O2 0.414906 0.398726 0.820463
O O3 0.241675 0.428940 0.630070
O O4 0.184555 0.284545 0.779509
O O5 0.756552 0.589611 0.488276
O O6 0.019927 0.555734 0.550340
O O7 0.965505 0.735694 0.425295
O O8 0.220756 0.473378 0.422977
O O9 0.312900 0.670910 0.508737
O O10 0.498837 0.505360 0.517963
O O11 0.010497 0.336678 0.524577
O O12 0.430441 0.729216 0.707764
O O13 0.249329 0.880485 0.573007
O O14 0.623618 0.405520 0.366373
#
# Coordination Sequence:
#
# PCOD9138447 Si02
#       7
#     4   4   4   4   4   4   4
#     4  11  24  44  71 106 143 184 241 298 342 430
#     4  11  24  47  68 103 143 186 235 288 361 422
#     4  12  24  45  70 104 142 185 241 299 344 432
#     4  10  23  43  71  96 139 188 229 282 365 413
#     4  10  24  45  69 103 142 181 236 302 350 428
#     4  11  23  47  73 101 144 184 237 297 351 427
#     4  11  24  43  72 105 137 188 241 284 365 420
#
# _framework density 22.883433
#
# number of rings (size 3 to 8) (size 9 to 14) (size 15 to 20)
#    0.000    1.143    2.857    2.571    2.000    5.714 
#    7.714    0.000    0.000    0.000    0.000    0.000 
#    0.000    0.000    0.000    0.000    0.000    0.000 
#
# Total GULP energy -78137.287439 kJ/mol
# GULP energy per Si atom -5581.234817 kJ/mol
# Density = 2.283135 g / cm^3
# Si number density = 22.883433 Si / 1000 Ang^3
#
#
#
# Elastic Constant Matrix: (Units=GPa)
#
#
# Indices 1 2 3 4 5 6 
#
# 1 114.5446 33.2266 10.2001 0.0000 -8.4741 0.0000
# 2 33.2266 62.9511 21.0850 0.0000 -2.4075 0.0000
# 3 10.2001 21.0850 58.7288 0.0000 -6.1922 0.0000
# 4 0.0000 0.0000 0.0000 32.7165 0.0000 8.0710
# 5 -8.4741 -2.4075 -6.1922 0.0000 32.2904 0.0000
# 6 0.0000 0.0000 0.0000 8.0710 0.0000 39.4681
#
#
#
# Elastic Compliance Matrix: (Units=1/GPa)
#
#
# Indices 1 2 3 4 5 6 
#
# 1 0.010493 -0.005593 0.000441 0.000000 0.002421 0.000000
# 2 -0.005593 0.021039 -0.006707 0.000000 -0.001185 0.000000
# 3 0.000441 -0.006707 0.019717 0.000000 0.003397 0.000000
# 4 0.000000 0.000000 0.000000 0.032190 0.000000 -0.006583
# 5 0.002421 -0.001185 0.003397 0.000000 0.032167 0.000000
# 6 0.000000 0.000000 0.000000 -0.006583 0.000000 0.026683
#
#
# Mechanical properties :
#
#
# Convention : Reuss Voigt Hill
#
# Bulk Modulus (GPa) = 36.32424 40.58311 38.45368
# Shear Modulus (GPa) = 28.54161 32.34253 30.44207
#
# Velocity S-wave (km/s) = 3.53549 3.76355 3.65130
# Velocity P-wave (km/s) = 5.70739 6.05466 5.88359
#
# Compressibility (1/GPa) = 0.02752982
#
# Stress axis : x y z
#
# Youngs Moduli (GPa) = 95.30588 47.53154 50.71786
#
# Poissons Ratio (x) = 0.26586 -0.02237
# Poissons Ratio (y) = 0.53307 0.34016
# Poissons Ratio (z) = -0.04203 0.31879
#
# Static dielectric constant tensor:
#      x y z
#    x 1.913900 0.000000 -0.021020 
#    y 0.000000 1.913950 0.000000 
#    z -0.021020 0.000000 1.891230 
# 
# From -- ./inp_files/14219.got.cif
#   From: 2010.05.17/outbox.cif.g08.bks.cpg/sg9_8_cif.got.tgz:14219.got - 2010.06.03 20:04:27.
