data_PCOD9138120
_publ_section_title
;
Structure prediction by ZEFSAII (Michael W. Deem and Ramdas Pophale) SiO2 
 PCOD9138120
Probable space group: C C
;
_chemical_formula_sum "Si O2"
_cell_formula_units_Z 28
_cell_length_a 7.509583
_cell_length_b 12.958541
_cell_length_c 10.693353
_cell_angle_alpha 90.000000
_cell_angle_beta 75.585160
_cell_angle_gamma 90.000000
_cell_volume 1007.845243
_symmetry_space_group_name_H-M "C C"
_symmetry_group_IT_number 9
_symmetry_cell_setting 'monoclinic'
loop_
_space_group_symop_operation_xyz
x,y,z
x,-y,1/2+z
1/2+x,1/2+y,z
1/2+x,1/2-y,1/2+z
loop_
_atom_site_type_symbol
_atom_site_label
_atom_site_fract_x
_atom_site_fract_y
_atom_site_fract_z
Si Si1 0.886820 0.223450 0.670040
Si Si2 0.280373 0.357744 0.579631
Si Si3 0.042436 0.576032 0.359022
Si Si4 0.235215 0.070889 0.239458
Si Si5 0.881794 0.930340 0.950075
Si Si6 0.766949 0.673111 0.728514
Si Si7 0.034823 0.338413 0.391926
O O1 0.810050 0.337615 0.639226
O O2 0.702064 0.180707 0.766505
O O3 0.134979 0.313096 0.505002
O O4 0.054635 0.208574 0.742232
O O5 0.165262 0.413103 0.711135
O O6 0.388992 0.450560 0.495261
O O7 0.370897 0.254410 0.619040
O O8 0.179526 0.605786 0.444578
O O9 0.007589 0.459432 0.402129
O O10 0.841287 0.608187 0.348287
O O11 0.281982 0.950796 0.201508
O O12 0.021691 0.076560 0.309557
O O13 0.935465 0.856143 0.052122
O O14 0.852569 0.696833 0.849405
#
# Coordination Sequence:
#
# PCOD9138120 Si02
#       7
#     4   4   4   4   4   4   4
#     4  12  26  48  80 120 163 218 276 337 420 507
#     4  11  23  50  86 113 162 216 278 343 421 495
#     4  10  22  51  76 116 160 210 272 341 413 493
#     4  11  27  50  79 118 167 209 281 334 414 508
#     4  11  27  50  84 115 164 220 268 351 416 485
#     4  11  26  49  78 116 163 209 278 341 415 494
#     4  10  25  48  77 114 161 212 269 349 411 486
#
# _framework density 27.782042000000001
#
# number of rings (size 3 to 8) (size 9 to 14) (size 15 to 20)
#    0.000    1.143    2.857    1.714    4.000    1.143 
#    7.714    5.714    0.000    0.000    0.000    0.000 
#    0.000    0.000    0.000    0.000    0.000    0.000 
#
# Total GULP energy -78207.611626 kJ/mol
# GULP energy per Si atom -5586.257973 kJ/mol
# Density = 2.771881 g / cm^3
# Si number density = 27.782042 Si / 1000 Ang^3
#
#
#
# Elastic Constant Matrix: (Units=GPa)
#
#
# Indices 1 2 3 4 5 6 
#
# 1 145.6010 55.0705 27.7594 0.0000 33.4668 0.0000
# 2 55.0705 183.7912 40.7907 0.0000 6.0495 0.0000
# 3 27.7594 40.7907 80.2024 0.0000 23.8795 0.0000
# 4 0.0000 0.0000 0.0000 23.8016 0.0000 6.8215
# 5 33.4668 6.0495 23.8795 0.0000 54.9023 0.0000
# 6 0.0000 0.0000 0.0000 6.8215 0.0000 47.5253
#
#
#
# Elastic Compliance Matrix: (Units=1/GPa)
#
#
# Indices 1 2 3 4 5 6 
#
# 1 0.009035 -0.002459 -0.000365 0.000000 -0.005078 0.000000
# 2 -0.002459 0.006832 -0.003269 0.000000 0.002168 0.000000
# 3 -0.000365 -0.003269 0.016179 0.000000 -0.006455 0.000000
# 4 0.000000 0.000000 0.000000 0.043816 0.000000 -0.006289
# 5 -0.005078 0.002168 -0.006455 0.000000 0.023878 0.000000
# 6 0.000000 0.000000 0.000000 -0.006289 0.000000 0.021944
#
#
# Mechanical properties :
#
#
# Convention : Reuss Voigt Hill
#
# Bulk Modulus (GPa) = 50.35151 72.98178 61.66664
# Shear Modulus (GPa) = 35.58967 44.31078 39.95022
#
# Velocity S-wave (km/s) = 3.58303 3.99801 3.79619
# Velocity P-wave (km/s) = 5.93975 6.90207 6.43891
#
# Compressibility (1/GPa) = 0.01986038
#
# Stress axis : x y z
#
# Youngs Moduli (GPa) = 110.68240 146.37031 61.80824
#
# Poissons Ratio (x) = 0.35994 0.02253
# Poissons Ratio (y) = 0.27218 0.20206
# Poissons Ratio (z) = 0.04035 0.47850
#
# Static dielectric constant tensor:
#      x y z
#    x 2.163180 0.000000 0.025830 
#    y 0.000000 2.222190 0.000000 
#    z 0.025830 0.000000 2.600670 
# 
# From -- ./inp_files/22987.got.cif
#   From: 2010.05.17/outbox.cif.g08.bks.cpg/sg9_12_cif.got.tgz:22987.got - 2010.06.03 20:04:27.
