data_PCOD9138463
_publ_section_title
;
Structure prediction by ZEFSAII (Michael W. Deem and Ramdas Pophale) SiO2 
 PCOD9138463
Probable space group: C C
;
_chemical_formula_sum "Si O2"
_cell_formula_units_Z 32
_cell_length_a 7.831542
_cell_length_b 17.509378
_cell_length_c 12.889998
_cell_angle_alpha 90.000000
_cell_angle_beta 43.632756
_cell_angle_gamma 90.000000
_cell_volume 1219.666198
_symmetry_space_group_name_H-M "C C"
_symmetry_group_IT_number 9
_symmetry_cell_setting 'monoclinic'
loop_
_space_group_symop_operation_xyz
x,y,z
x,-y,1/2+z
1/2+x,1/2+y,z
1/2+x,1/2-y,1/2+z
loop_
_atom_site_type_symbol
_atom_site_label
_atom_site_fract_x
_atom_site_fract_y
_atom_site_fract_z
Si Si1 0.846840 0.190260 0.521330
Si Si2 0.096892 0.735988 0.300106
Si Si3 0.054242 0.023751 0.969385
Si Si4 0.692516 0.409099 0.753109
Si Si5 0.083536 0.474679 0.310954
Si Si6 0.315527 0.827649 0.376045
Si Si7 0.088406 0.297656 0.568243
Si Si8 0.697951 0.101252 0.401839
O O1 0.807897 0.262353 0.463550
O O2 0.682287 0.125312 0.529923
O O3 0.108423 0.147561 0.383751
O O4 0.893863 0.234171 0.609220
O O5 0.848521 0.785539 0.399059
O O6 0.306824 0.782303 0.271248
O O7 0.154931 0.714689 0.158347
O O8 0.060045 0.660778 0.388186
O O9 0.089778 0.113755 0.964751
O O10 0.111828 0.992240 0.828547
O O11 0.539656 0.115314 0.809033
O O12 0.803327 0.999100 0.136022
O O13 0.807596 0.493270 0.910818
O O14 0.962510 0.380378 0.607924
O O15 0.139956 0.515165 0.395105
O O16 0.994947 0.889694 0.750630
#
# Coordination Sequence:
#
# PCOD9138463 Si02
#       8
#     4   4   4   4   4   4   4   4
#     4   9  22  46  72 106 145 194 255 315 387 451
#     4  11  24  43  71 109 149 194 257 317 377 460
#     4  10  24  45  69 108 146 200 247 312 373 469
#     4  10  23  43  72  99 151 193 246 311 380 445
#     4  10  23  44  74 102 154 191 251 307 390 448
#     4   9  24  44  70 111 143 194 252 318 368 469
#     4  12  24  43  72 110 148 198 255 312 386 454
#     4   9  22  46  72 101 142 206 237 312 381 458
#
# _framework density 26.236684
#
# number of rings (size 3 to 8) (size 9 to 14) (size 15 to 20)
#    1.500    0.500    1.250    0.750    5.250    3.000 
#    2.250    1.250    0.000    0.000    0.000    0.000 
#    0.000    0.000    0.000    0.000    0.000    0.000 
#
# Total GULP energy -89153.087945 kJ/mol
# GULP energy per Si atom -5572.067997 kJ/mol
# Density = 2.617697 g / cm^3
# Si number density = 26.236684 Si / 1000 Ang^3
#
#
#
# Elastic Constant Matrix: (Units=GPa)
#
#
# Indices 1 2 3 4 5 6 
#
# 1 126.9998 65.8050 38.1426 0.0000 21.0555 -0.0001
# 2 65.8050 118.6979 35.1406 -0.0001 -2.2655 0.0001
# 3 38.1426 35.1406 74.9093 0.0001 -9.9883 -0.0003
# 4 0.0000 -0.0001 0.0001 28.9715 -0.0001 7.3137
# 5 21.0555 -2.2655 -9.9883 -0.0001 42.2873 0.0002
# 6 -0.0001 0.0001 -0.0003 7.3137 0.0002 34.6886
#
#
#
# Elastic Compliance Matrix: (Units=1/GPa)
#
#
# Indices 1 2 3 4 5 6 
#
# 1 0.014321 -0.006505 -0.005408 0.000000 -0.008756 0.000000
# 2 -0.006505 0.012752 -0.002217 0.000000 0.003399 0.000000
# 3 -0.005408 -0.002217 0.018055 0.000000 0.006838 0.000000
# 4 0.000000 0.000000 0.000000 0.036457 0.000000 -0.007687
# 5 -0.008756 0.003399 0.006838 0.000000 0.029805 0.000000
# 6 0.000000 0.000000 0.000000 -0.007687 0.000000 0.030449
#
#
# Mechanical properties :
#
#
# Convention : Reuss Voigt Hill
#
# Bulk Modulus (GPa) = 59.28284 66.53149 62.90716
# Shear Modulus (GPa) = 28.45429 33.29073 30.87251
#
# Velocity S-wave (km/s) = 3.29678 3.56597 3.43402
# Velocity P-wave (km/s) = 6.09394 6.50908 6.30493
#
# Compressibility (1/GPa) = 0.01686829
#
# Stress axis : x y z
#
# Youngs Moduli (GPa) = 69.82934 78.41664 55.38754
#
# Poissons Ratio (x) = 0.51013 0.29952
# Poissons Ratio (y) = 0.45427 0.12277
# Poissons Ratio (z) = 0.37761 0.17382
#
# Static dielectric constant tensor:
#      x y z
#    x 2.141140 0.000000 -0.056890 
#    y 0.000000 2.068420 0.000000 
#    z -0.056890 0.000000 2.187300 
# 
# From -- ./inp_files/15405.got.cif
#   From: 2010.05.17/outbox.cif.g08.bks.cpg/sg9_8_cif.got.tgz:15405.got - 2010.06.03 20:04:27.
