data_PCOD9138316
_publ_section_title
;
Structure prediction by ZEFSAII (Michael W. Deem and Ramdas Pophale) SiO2 
 PCOD9138316
Probable space group: C C
;
_chemical_formula_sum "Si O2"
_cell_formula_units_Z 28
_cell_length_a 5.199978
_cell_length_b 21.566403
_cell_length_c 9.561133
_cell_angle_alpha 90.000000
_cell_angle_beta 73.184946
_cell_angle_gamma 90.000000
_cell_volume 1026.386707
_symmetry_space_group_name_H-M "C C"
_symmetry_group_IT_number 9
_symmetry_cell_setting 'monoclinic'
loop_
_space_group_symop_operation_xyz
x,y,z
x,-y,1/2+z
1/2+x,1/2+y,z
1/2+x,1/2-y,1/2+z
loop_
_atom_site_type_symbol
_atom_site_label
_atom_site_fract_x
_atom_site_fract_y
_atom_site_fract_z
Si Si1 0.688290 0.605304 0.286370
Si Si2 0.059529 0.449044 0.518651
Si Si3 0.309034 0.243537 0.185125
Si Si4 0.211403 0.445248 0.193368
Si Si5 0.576074 0.871163 0.957070
Si Si6 0.968378 0.860350 0.348187
Si Si7 0.283706 0.239479 0.892320
O O1 0.809080 0.672429 0.227757
O O2 0.368864 0.607513 0.352565
O O3 0.791047 0.559738 0.149757
O O4 0.080249 0.702805 0.431900
O O5 0.034455 0.463610 0.357395
O O6 0.229158 0.499521 0.579967
O O7 0.837066 0.404075 0.911328
O O8 0.234942 0.386134 0.484211
O O9 0.415132 0.297313 0.269073
O O10 0.985845 0.253486 0.232701
O O11 0.439755 0.251589 0.013475
O O12 0.468899 0.415194 0.232699
O O13 0.084876 0.390377 0.118509
O O14 0.194494 0.832022 0.411395
#
# Coordination Sequence:
#
# PCOD9138316 Si02
#       7
#     4   4   4   4   4   4   4
#     4  11  25  44  76 111 154 195 256 318 398 461
#     4  10  23  47  74 105 158 207 267 319 382 463
#     4  11  23  41  68 111 150 193 250 317 408 466
#     4  10  23  47  75 108 155 208 272 318 391 462
#     4  11  24  46  74 114 149 198 252 322 392 467
#     4  10  23  42  69 104 151 195 261 318 393 456
#     4  11  23  39  68 105 153 194 248 324 388 471
#
# _framework density 27.280165
#
# number of rings (size 3 to 8) (size 9 to 14) (size 15 to 20)
#    0.857    0.571    2.857    1.714    4.000    2.286 
#    0.000    8.571    0.000    0.000    0.000    0.000 
#    0.000    0.000    0.000    0.000    0.000    0.000 
#
# Total GULP energy -78202.493954 kJ/mol
# GULP energy per Si atom -5585.892425 kJ/mol
# Density = 2.721807 g / cm^3
# Si number density = 27.280165 Si / 1000 Ang^3
#
#
#
# Elastic Constant Matrix: (Units=GPa)
#
#
# Indices 1 2 3 4 5 6 
#
# 1 59.0365 18.9281 38.4559 0.0000 4.4444 0.0000
# 2 18.9281 122.6861 45.5727 0.0000 0.1230 0.0000
# 3 38.4559 45.5727 171.0255 0.0000 -5.4554 0.0000
# 4 0.0000 0.0000 0.0000 57.4271 0.0000 16.5649
# 5 4.4444 0.1230 -5.4554 0.0000 27.9483 0.0000
# 6 0.0000 0.0000 0.0000 16.5649 0.0000 36.7407
#
#
#
# Elastic Compliance Matrix: (Units=1/GPa)
#
#
# Indices 1 2 3 4 5 6 
#
# 1 0.020577 -0.001557 -0.004343 0.000000 -0.004113 0.000000
# 2 -0.001557 0.009171 -0.002100 0.000000 -0.000203 0.000000
# 3 -0.004343 -0.002100 0.007452 0.000000 0.002154 0.000000
# 4 0.000000 0.000000 0.000000 0.020017 0.000000 -0.009025
# 5 -0.004113 -0.000203 0.002154 0.000000 0.036856 0.000000
# 6 0.000000 0.000000 0.000000 -0.009025 0.000000 0.031287
#
#
# Mechanical properties :
#
#
# Convention : Reuss Voigt Hill
#
# Bulk Modulus (GPa) = 47.17162 62.07352 54.62257
# Shear Modulus (GPa) = 33.68674 41.07596 37.38135
#
# Velocity S-wave (km/s) = 3.51785 3.88456 3.70574
# Velocity P-wave (km/s) = 5.81631 6.55158 6.19486
#
# Compressibility (1/GPa) = 0.02119919
#
# Stress axis : x y z
#
# Youngs Moduli (GPa) = 48.59898 109.03373 134.19241
#
# Poissons Ratio (x) = 0.16979 0.58280
# Poissons Ratio (y) = 0.07568 0.28183
# Poissons Ratio (z) = 0.21107 0.22899
#
# Static dielectric constant tensor:
#      x y z
#    x 2.247720 0.000000 0.076800 
#    y 0.000000 2.109060 0.000000 
#    z 0.076800 0.000000 2.087750 
# 
# From -- ./inp_files/4134.got.cif
#   From: 2010.05.17/outbox.cif.g08.bks.cpg/sg9_3_cif.got.tgz:4134.got - 2010.06.03 20:04:27.
