data_PCOD9138873
_publ_section_title
;
Structure prediction by ZEFSAII (Michael W. Deem and Ramdas Pophale) SiO2 
 PCOD9138873
Probable space group: C C
;
_chemical_formula_sum "Si O2"
_cell_formula_units_Z 32
_cell_length_a 7.191003
_cell_length_b 23.264338
_cell_length_c 10.895272
_cell_angle_alpha 90.000000
_cell_angle_beta 136.967515
_cell_angle_gamma 90.000000
_cell_volume 1243.842746
_symmetry_space_group_name_H-M "C C"
_symmetry_group_IT_number 9
_symmetry_cell_setting 'monoclinic'
loop_
_space_group_symop_operation_xyz
x,y,z
x,-y,1/2+z
1/2+x,1/2+y,z
1/2+x,1/2-y,1/2+z
loop_
_atom_site_type_symbol
_atom_site_label
_atom_site_fract_x
_atom_site_fract_y
_atom_site_fract_z
Si Si1 0.176870 0.996467 0.844900
Si Si2 0.308468 0.832183 0.593524
Si Si3 0.523059 0.288597 0.671233
Si Si4 0.422258 0.595131 0.067482
Si Si5 0.031383 0.496552 0.264457
Si Si6 0.335348 0.383109 0.910029
Si Si7 0.906711 0.121322 0.723240
Si Si8 0.861173 0.667784 0.564173
O O1 0.996058 0.940494 0.725127
O O2 0.361400 0.991277 0.055724
O O3 0.348003 0.000434 0.799981
O O4 0.000931 0.054648 0.771290
O O5 0.191185 0.781805 0.623477
O O6 0.628490 0.840534 0.740286
O O7 0.189649 0.887074 0.616565
O O8 0.155214 0.840060 0.392295
O O9 0.314721 0.341119 0.546052
O O10 0.403176 0.228368 0.652173
O O11 0.727203 0.313613 0.870253
O O12 0.231525 0.555191 0.896198
O O13 0.224220 0.552415 0.344779
O O14 0.645985 0.372946 0.025287
O O15 0.317431 0.366524 0.043103
O O16 0.647753 0.138218 0.679008
#
# Coordination Sequence:
#
# PCOD9138873 Si02
#       8
#     4   4   4   4   4   4   4   4
#     4  12  26  47  81 129 169 220 280 342 434 514
#     4  10  23  51  82 115 162 217 276 338 418 495
#     4  10  25  54  79 119 157 227 272 360 410 496
#     4  10  24  45  81 114 166 215 268 339 429 497
#     4  12  27  46  82 126 175 220 271 358 422 520
#     4  12  26  52  81 127 165 221 284 341 428 511
#     4  12  25  51  84 122 166 221 274 351 421 504
#     4  12  28  54  88 116 174 219 293 351 426 495
#
# _framework density 25.726721999999999
#
# number of rings (size 3 to 8) (size 9 to 14) (size 15 to 20)
#    0.750    0.000    5.000    0.750    3.500    3.000 
#    6.750    0.000    2.750    0.000    0.000    0.000 
#    0.000    0.000    0.000    0.000    0.000    0.000 
#
# Total GULP energy -89649.295014 kJ/mol
# GULP energy per Si atom -5603.080938 kJ/mol
# Density = 2.566817 g / cm^3
# Si number density = 25.726722 Si / 1000 Ang^3
#
#
#
# Elastic Constant Matrix: (Units=GPa)
#
#
# Indices 1 2 3 4 5 6 
#
# 1 98.8824 42.0571 28.5437 0.0000 5.1730 0.0000
# 2 42.0571 102.4280 32.3392 0.0000 5.2645 0.0000
# 3 28.5437 32.3392 151.7267 0.0000 -12.7660 0.0000
# 4 0.0000 0.0000 0.0000 42.1557 0.0000 4.1246
# 5 5.1730 5.2645 -12.7660 0.0000 44.4251 0.0000
# 6 0.0000 0.0000 0.0000 4.1246 0.0000 31.7128
#
#
#
# Elastic Compliance Matrix: (Units=1/GPa)
#
#
# Indices 1 2 3 4 5 6 
#
# 1 0.012582 -0.004625 -0.001494 0.000000 -0.001346 0.000000
# 2 -0.004625 0.012331 -0.001881 0.000000 -0.001463 0.000000
# 3 -0.001494 -0.001881 0.007487 0.000000 0.002549 0.000000
# 4 0.000000 0.000000 0.000000 0.024027 0.000000 -0.003125
# 5 -0.001346 -0.001463 0.002549 0.000000 0.023572 0.000000
# 6 0.000000 0.000000 0.000000 -0.003125 0.000000 0.031939
#
#
# Mechanical properties :
#
#
# Convention : Reuss Voigt Hill
#
# Bulk Modulus (GPa) = 60.98022 62.10190 61.54106
# Shear Modulus (GPa) = 37.47906 40.33188 38.90547
#
# Velocity S-wave (km/s) = 3.82096 3.96372 3.89300
# Velocity P-wave (km/s) = 6.57426 6.71860 6.64682
#
# Compressibility (1/GPa) = 0.01639876
#
# Stress axis : x y z
#
# Youngs Moduli (GPa) = 79.47826 81.09490 133.55849
#
# Poissons Ratio (x) = 0.37508 0.19960
# Poissons Ratio (y) = 0.36760 0.25126
# Poissons Ratio (z) = 0.11878 0.15256
#
# Static dielectric constant tensor:
#      x y z
#    x 2.075050 0.000000 -0.018700 
#    y 0.000000 2.060740 0.000000 
#    z -0.018700 0.000000 2.012460 
# 
# From -- ./inp_files/25125.got.cif
#   From: 2010.05.17/outbox.cif.g08.bks.cpg/sg9_13_cif.got.tgz:25125.got - 2010.06.03 20:04:27.
