data_PCOD9138795
_publ_section_title
;
Structure prediction by ZEFSAII (Michael W. Deem and Ramdas Pophale) SiO2 
 PCOD9138795
Probable space group: C C
;
_chemical_formula_sum "Si O2"
_cell_formula_units_Z 32
_cell_length_a 10.918106
_cell_length_b 8.844872
_cell_length_c 14.602205
_cell_angle_alpha 90.000000
_cell_angle_beta 102.655205
_cell_angle_gamma 90.000000
_cell_volume 1375.866612
_symmetry_space_group_name_H-M "C C"
_symmetry_group_IT_number 9
_symmetry_cell_setting 'monoclinic'
loop_
_space_group_symop_operation_xyz
x,y,z
x,-y,1/2+z
1/2+x,1/2+y,z
1/2+x,1/2-y,1/2+z
loop_
_atom_site_type_symbol
_atom_site_label
_atom_site_fract_x
_atom_site_fract_y
_atom_site_fract_z
Si Si1 0.439500 0.563080 0.685480
Si Si2 0.765370 0.698514 0.937975
Si Si3 0.533423 0.875897 0.993974
Si Si4 0.118318 0.416060 0.363614
Si Si5 0.219341 0.370099 0.740575
Si Si6 0.900674 0.930329 0.479748
Si Si7 0.994497 0.343171 0.604198
Si Si8 0.594935 0.559350 0.365481
O O1 0.328587 0.471862 0.716791
O O2 0.439992 0.496793 0.583658
O O3 0.430175 0.746090 0.677028
O O4 0.560795 0.517460 0.763329
O O5 0.759904 0.766980 0.833799
O O6 0.717077 0.526069 0.923806
O O7 0.663057 0.785451 0.987484
O O8 0.900243 0.707816 0.007669
O O9 0.432932 0.745367 0.981357
O O10 0.519038 0.981574 0.080724
O O11 0.519871 0.994409 0.909103
O O12 0.125177 0.508523 0.271325
O O13 0.253948 0.441803 0.433954
O O14 0.099541 0.238298 0.354748
O O15 0.139263 0.290598 0.646370
O O16 0.983657 0.010297 0.415733
#
# Coordination Sequence:
#
# PCOD9138795 Si02
#       8
#     4   4   4   4   4   4   4   4
#     4  12  25  44  72 102 140 185 228 285 349 417
#     4  10  23  47  71 102 143 183 228 294 345 408
#     4  10  24  42  72 102 129 185 232 272 360 404
#     4  11  23  43  71  98 142 182 223 288 341 404
#     4  11  24  43  70 107 139 186 236 275 356 414
#     4  11  24  47  70  99 140 180 226 288 343 408
#     4  12  23  43  72 100 141 181 229 291 336 416
#     4  11  24  47  72 102 140 182 232 285 350 409
#
# _framework density 23.25807
#
# number of rings (size 3 to 8) (size 9 to 14) (size 15 to 20)
#    0.000    1.000    2.500    4.500    3.500    0.000 
#    0.000    1.250    0.000    0.000    0.000    0.000 
#    0.000    0.000    0.000    0.000    0.000    0.000 
#
# Total GULP energy -89216.552693 kJ/mol
# GULP energy per Si atom -5576.034543 kJ/mol
# Density = 2.320513 g / cm^3
# Si number density = 23.258070 Si / 1000 Ang^3
#
#
#
# Elastic Constant Matrix: (Units=GPa)
#
#
# Indices 1 2 3 4 5 6 
#
# 1 53.4700 21.7517 30.7220 0.0000 8.0340 0.0000
# 2 21.7517 119.2405 30.7095 0.0000 -13.2679 0.0000
# 3 30.7220 30.7095 117.9662 0.0000 17.6165 0.0000
# 4 0.0000 0.0000 0.0000 31.1178 0.0000 -0.5494
# 5 8.0340 -13.2679 17.6165 0.0000 31.4653 0.0000
# 6 0.0000 0.0000 0.0000 -0.5494 0.0000 43.5615
#
#
#
# Elastic Compliance Matrix: (Units=1/GPa)
#
#
# Indices 1 2 3 4 5 6 
#
# 1 0.023508 -0.003728 -0.004388 0.000000 -0.005118 0.000000
# 2 -0.003728 0.010572 -0.002825 0.000000 0.006992 0.000000
# 3 -0.004388 -0.002825 0.011312 0.000000 -0.006404 0.000000
# 4 0.000000 0.000000 0.000000 0.032143 0.000000 0.000405
# 5 -0.005118 0.006992 -0.006404 0.000000 0.039621 0.000000
# 6 0.000000 0.000000 0.000000 0.000405 0.000000 0.022961
#
#
# Mechanical properties :
#
#
# Convention : Reuss Voigt Hill
#
# Bulk Modulus (GPa) = 42.53441 50.78255 46.65848
# Shear Modulus (GPa) = 29.44014 35.06183 32.25099
#
# Velocity S-wave (km/s) = 3.56167 3.88688 3.72783
# Velocity P-wave (km/s) = 5.93648 6.48271 6.21560
#
# Compressibility (1/GPa) = 0.02351037
#
# Stress axis : x y z
#
# Youngs Moduli (GPa) = 42.53784 94.58906 88.40529
#
# Poissons Ratio (x) = 0.35261 0.38789
# Poissons Ratio (y) = 0.15857 0.24978
# Poissons Ratio (z) = 0.18664 0.26725
#
# Static dielectric constant tensor:
#      x y z
#    x 1.909040 0.000000 0.027450 
#    y 0.000000 1.919560 0.000000 
#    z 0.027450 0.000000 1.913230 
# 
# From -- ./inp_files/24291.got.cif
#   From: 2010.05.17/outbox.cif.g08.bks.cpg/sg9_13_cif.got.tgz:24291.got - 2010.06.03 20:04:27.
