data_PCOD9138158
_publ_section_title
;
Structure prediction by ZEFSAII (Michael W. Deem and Ramdas Pophale) SiO2 
 PCOD9138158
Probable space group: C C
;
_chemical_formula_sum "Si O2"
_cell_formula_units_Z 28
_cell_length_a 10.571257
_cell_length_b 19.910636
_cell_length_c 12.978925
_cell_angle_alpha 90.000000
_cell_angle_beta 156.938240
_cell_angle_gamma 90.000000
_cell_volume 1070.113148
_symmetry_space_group_name_H-M "C C"
_symmetry_group_IT_number 9
_symmetry_cell_setting 'monoclinic'
loop_
_space_group_symop_operation_xyz
x,y,z
x,-y,1/2+z
1/2+x,1/2+y,z
1/2+x,1/2-y,1/2+z
loop_
_atom_site_type_symbol
_atom_site_label
_atom_site_fract_x
_atom_site_fract_y
_atom_site_fract_z
Si Si1 0.301170 0.580490 0.953770
Si Si2 0.642772 0.905613 0.657143
Si Si3 0.275581 0.021206 0.704449
Si Si4 0.303607 0.309359 0.171545
Si Si5 0.446302 0.839705 0.722428
Si Si6 0.887511 0.769170 0.811062
Si Si7 0.293131 0.827244 0.948175
O O1 0.085377 0.527340 0.860017
O O2 0.038218 0.623822 0.693402
O O3 0.566762 0.543281 0.081955
O O4 0.511983 0.627802 0.186756
O O5 0.410276 0.950545 0.414328
O O6 0.523283 0.881154 0.678802
O O7 0.677685 0.834841 0.625845
O O8 0.996788 0.935719 0.938931
O O9 0.472622 0.242757 0.250135
O O10 0.561897 0.344085 0.438128
O O11 0.989761 0.292686 0.002873
O O12 0.179021 0.358988 0.989599
O O13 0.591196 0.718489 0.568287
O O14 0.158362 0.772250 0.926466
#
# Coordination Sequence:
#
# PCOD9138158 Si02
#       7
#     4   4   4   4   4   4   4
#     4  12  26  49  76 107 141 189 248 310 370 429
#     4  12  25  47  71 104 146 187 239 298 355 432
#     4  12  26  49  76 107 141 189 248 310 370 429
#     4  10  23  40  63  97 142 186 228 281 347 421
#     4  10  23  40  63  97 142 186 228 281 347 421
#     4  12  26  40  74 104 140 192 238 276 364 432
#     4  12  25  47  71 104 146 187 239 298 355 432
#
# _framework density 26.165458000000001
#
# number of rings (size 3 to 8) (size 9 to 14) (size 15 to 20)
#    0.000    0.571    2.857    4.286    8.000    3.429 
#    0.000    0.000    0.000    0.000    0.000    0.000 
#    0.000    0.000    0.000    0.000    0.000    0.000 
#
# Total GULP energy -78170.355394 kJ/mol
# GULP energy per Si atom -5583.596814 kJ/mol
# Density = 2.610590 g / cm^3
# Si number density = 26.165458 Si / 1000 Ang^3
#
#
#
# Elastic Constant Matrix: (Units=GPa)
#
#
# Indices 1 2 3 4 5 6 
#
# 1 94.5700 85.6756 44.5740 0.0217 -1.1876 0.0099
# 2 85.6756 203.0188 132.2610 0.0274 -28.9404 0.0052
# 3 44.5740 132.2610 235.3353 0.0258 -36.9304 0.0151
# 4 0.0217 0.0274 0.0258 42.1181 0.0044 3.0090
# 5 -1.1876 -28.9404 -36.9304 0.0044 48.0323 0.0017
# 6 0.0099 0.0052 0.0151 3.0090 0.0017 29.2529
#
#
#
# Elastic Compliance Matrix: (Units=1/GPa)
#
#
# Indices 1 2 3 4 5 6 
#
# 1 0.018074 -0.008781 0.000855 -0.000003 -0.004187 -0.000004
# 2 -0.008781 0.012134 -0.004598 -0.000001 0.003559 0.000003
# 3 0.000855 -0.004598 0.007096 -0.000002 0.002707 -0.000003
# 4 -0.000003 -0.000001 -0.000002 0.023919 -0.000004 -0.002460
# 5 -0.004187 0.003559 0.002707 -0.000004 0.024941 -0.000002
# 6 -0.000004 0.000003 -0.000003 -0.002460 -0.000002 0.034438
#
#
# Mechanical properties :
#
#
# Convention : Reuss Voigt Hill
#
# Bulk Modulus (GPa) = 81.59354 117.54945 99.57149
# Shear Modulus (GPa) = 33.39243 41.90824 37.65033
#
# Velocity S-wave (km/s) = 3.57627 4.00642 3.79744
# Velocity P-wave (km/s) = 6.95013 8.15014 7.57394
#
# Compressibility (1/GPa) = 0.01225587
#
# Stress axis : x y z
#
# Youngs Moduli (GPa) = 55.32867 82.41402 140.92165
#
# Poissons Ratio (x) = 0.72367 -0.12044
# Poissons Ratio (y) = 0.48584 0.64792
# Poissons Ratio (z) = -0.04729 0.37892
#
# Static dielectric constant tensor:
#      x y z
#    x 1.966680 -0.000090 0.161710 
#    y -0.000090 2.152230 0.000090 
#    z 0.161710 0.000090 1.880270 
# 
# From -- ./inp_files/25096.got.cif
#   From: 2010.05.17/outbox.cif.g08.bks.cpg/sg9_13_cif.got.tgz:25096.got - 2010.06.03 20:04:27.
