data_PCOD9138910
_publ_section_title
;
Structure prediction by ZEFSAII (Michael W. Deem and Ramdas Pophale) SiO2 
 PCOD9138910
Probable space group: C C
;
_chemical_formula_sum "Si O2"
_cell_formula_units_Z 28
_cell_length_a 5.023977
_cell_length_b 18.576322
_cell_length_c 12.944417
_cell_angle_alpha 90.000000
_cell_angle_beta 72.192919
_cell_angle_gamma 90.000000
_cell_volume 1150.187396
_symmetry_space_group_name_H-M "C C"
_symmetry_group_IT_number 9
_symmetry_cell_setting 'monoclinic'
loop_
_space_group_symop_operation_xyz
x,y,z
x,-y,1/2+z
1/2+x,1/2+y,z
1/2+x,1/2-y,1/2+z
loop_
_atom_site_type_symbol
_atom_site_label
_atom_site_fract_x
_atom_site_fract_y
_atom_site_fract_z
Si Si1 0.596710 0.974329 0.572250
Si Si2 0.217784 0.075258 0.280729
Si Si3 0.388829 0.773827 0.671265
Si Si4 0.129818 0.947484 0.022258
Si Si5 0.477675 0.575617 0.757327
Si Si6 0.331371 0.198047 0.765816
Si Si7 0.533303 0.838334 0.450440
O O1 0.504359 0.958749 0.700334
O O2 0.457050 0.909690 0.523436
O O3 0.428849 0.038945 0.539643
O O4 0.926653 0.983794 0.522245
O O5 0.226334 0.153591 0.228033
O O6 0.186465 0.087094 0.405824
O O7 0.004430 0.009864 0.276558
O O8 0.595125 0.745509 0.736483
O O9 0.566863 0.785720 0.545043
O O10 0.127903 0.721677 0.686275
O O11 0.954915 0.913427 0.136989
O O12 0.766505 0.614494 0.753640
O O13 0.267258 0.623493 0.850301
O O14 0.340620 0.201763 0.889757
#
# Coordination Sequence:
#
# PCOD9138910 Si02
#       7
#     4   4   4   4   4   4   4
#     4  10  24  40  69 107 145 194 237 308 386 448
#     4  10  24  47  72 110 149 191 249 315 380 451
#     4  11  29  48  75 112 155 202 256 322 397 460
#     4  11  24  39  69 108 148 181 249 317 369 436
#     4  11  25  46  79 110 146 203 263 308 393 464
#     4  12  27  50  73 112 147 209 259 314 386 476
#     4  11  25  48  81 103 160 204 259 312 401 469
#
# _framework density 24.343861
#
# number of rings (size 3 to 8) (size 9 to 14) (size 15 to 20)
#    0.000    1.143    2.857    0.857    8.000    9.143 
#    0.000    0.000    0.000    0.000    0.000    0.000 
#    0.000    0.000    0.000    0.000    0.000    0.000 
#
# Total GULP energy -77936.693060 kJ/mol
# GULP energy per Si atom -5566.906647 kJ/mol
# Density = 2.428845 g / cm^3
# Si number density = 24.343861 Si / 1000 Ang^3
#
#
#
# Elastic Constant Matrix: (Units=GPa)
#
#
# Indices 1 2 3 4 5 6 
#
# 1 118.7866 36.9276 35.9748 0.0000 8.8445 0.0000
# 2 36.9276 83.1748 36.0408 0.0000 12.1317 0.0000
# 3 35.9748 36.0408 196.7429 0.0000 20.5547 0.0000
# 4 0.0000 0.0000 0.0000 31.0841 0.0000 2.8918
# 5 8.8445 12.1317 20.5547 0.0000 25.2688 0.0000
# 6 0.0000 0.0000 0.0000 2.8918 0.0000 11.7276
#
#
#
# Elastic Compliance Matrix: (Units=1/GPa)
#
#
# Indices 1 2 3 4 5 6 
#
# 1 0.009995 -0.003873 -0.001035 0.000000 -0.000797 0.000000
# 2 -0.003873 0.015098 -0.001576 0.000000 -0.004611 0.000000
# 3 -0.001035 -0.001576 0.005949 0.000000 -0.003721 0.000000
# 4 0.000000 0.000000 0.000000 0.032926 0.000000 -0.008119
# 5 -0.000797 -0.004611 -0.003721 0.000000 0.045094 0.000000
# 6 0.000000 0.000000 0.000000 -0.008119 0.000000 0.087271
#
#
# Mechanical properties :
#
#
# Convention : Reuss Voigt Hill
#
# Bulk Modulus (GPa) = 55.32456 68.51006 61.91731
# Shear Modulus (GPa) = 23.22062 32.93350 28.07706
#
# Velocity S-wave (km/s) = 3.09181 3.68210 3.39979
# Velocity P-wave (km/s) = 5.95998 6.80300 6.39540
#
# Compressibility (1/GPa) = 0.01807515
#
# Stress axis : x y z
#
# Youngs Moduli (GPa) = 100.04782 66.23518 168.08440
#
# Poissons Ratio (x) = 0.25652 0.17395
# Poissons Ratio (y) = 0.38748 0.26487
# Poissons Ratio (z) = 0.10354 0.10437
#
# Static dielectric constant tensor:
#      x y z
#    x 2.024370 0.000000 0.003210 
#    y 0.000000 2.062910 0.000000 
#    z 0.003210 0.000000 1.985880 
# 
# From -- ./inp_files/13298.got.cif
#   From: 2010.05.17/outbox.cif.g08.bks.cpg/sg9_7_cif.got.tgz:13298.got - 2010.06.03 20:04:27.
