data_PCOD9138269
_publ_section_title
;
Structure prediction by ZEFSAII (Michael W. Deem and Ramdas Pophale) SiO2 
 PCOD9138269
Probable space group: C C
;
_chemical_formula_sum "Si O2"
_cell_formula_units_Z 32
_cell_length_a 5.918768
_cell_length_b 29.097262
_cell_length_c 9.454670
_cell_angle_alpha 90.000000
_cell_angle_beta 53.741918
_cell_angle_gamma 90.000000
_cell_volume 1312.983996
_symmetry_space_group_name_H-M "C C"
_symmetry_group_IT_number 9
_symmetry_cell_setting 'monoclinic'
loop_
_space_group_symop_operation_xyz
x,y,z
x,-y,1/2+z
1/2+x,1/2+y,z
1/2+x,1/2-y,1/2+z
loop_
_atom_site_type_symbol
_atom_site_label
_atom_site_fract_x
_atom_site_fract_y
_atom_site_fract_z
Si Si1 0.152120 0.938899 0.284510
Si Si2 0.656098 0.777394 0.641319
Si Si3 0.224117 0.597092 0.447088
Si Si4 0.095692 0.258857 0.357772
Si Si5 0.327173 0.063423 0.245303
Si Si6 0.713096 0.497740 0.025127
Si Si7 0.824890 0.124799 0.091587
Si Si8 0.079343 0.299160 0.069069
O O1 0.038612 0.891468 0.390966
O O2 0.091386 0.971548 0.442409
O O3 0.472881 0.933003 0.110632
O O4 0.023945 0.963975 0.193617
O O5 0.344461 0.774758 0.816798
O O6 0.564403 0.786091 0.512839
O O7 0.840882 0.820967 0.610708
O O8 0.802594 0.729470 0.630397
O O9 0.517044 0.580263 0.403190
O O10 0.328738 0.600922 0.244133
O O11 0.107712 0.648375 0.517682
O O12 0.832118 0.229562 0.406799
O O13 0.152108 0.292499 0.207762
O O14 0.415633 0.033467 0.350804
O O15 0.522761 0.107105 0.149862
O O16 0.330888 0.032003 0.102924
#
# Coordination Sequence:
#
# PCOD9138269 Si02
#       8
#     4   4   4   4   4   4   4   4
#     4  11  26  44  75 104 140 186 236 295 360 443
#     4  11  24  43  70  99 147 191 242 302 360 434
#     4  12  26  46  70 110 145 188 248 299 362 427
#     4  10  23  42  65 102 130 204 234 291 368 425
#     4  11  25  46  74 104 146 188 236 310 358 450
#     4  10  24  48  74 106 138 190 236 288 386 440
#     4  12  26  46  70 110 145 188 248 299 362 427
#     4  11  24  43  70  99 147 191 242 302 360 434
#
# _framework density 24.371963999999998
#
# number of rings (size 3 to 8) (size 9 to 14) (size 15 to 20)
#    0.000    1.000    2.500    3.000    3.500   11.000 
#    0.000    0.000    0.000    0.000    0.000    0.000 
#    0.000    0.000    0.000    0.000    0.000    0.000 
#
# Total GULP energy -89113.872785 kJ/mol
# GULP energy per Si atom -5569.617049 kJ/mol
# Density = 2.431649 g / cm^3
# Si number density = 24.371964 Si / 1000 Ang^3
#
#
#
# Elastic Constant Matrix: (Units=GPa)
#
#
# Indices 1 2 3 4 5 6 
#
# 1 43.3272 -1.5453 40.9279 0.0000 2.9809 0.0000
# 2 -1.5453 66.5531 34.3288 0.0000 14.3378 0.0000
# 3 40.9279 34.3288 115.6113 0.0000 22.9093 0.0000
# 4 0.0000 0.0000 0.0000 26.3120 0.0000 1.6529
# 5 2.9809 14.3378 22.9093 0.0000 55.9113 0.0000
# 6 0.0000 0.0000 0.0000 1.6529 0.0000 20.0303
#
#
#
# Elastic Compliance Matrix: (Units=1/GPa)
#
#
# Indices 1 2 3 4 5 6 
#
# 1 0.039537 0.009263 -0.017260 0.000000 0.002589 0.000000
# 2 0.009263 0.020268 -0.008892 0.000000 -0.002048 0.000000
# 3 -0.017260 -0.008892 0.018248 0.000000 -0.004276 0.000000
# 4 0.000000 0.000000 0.000000 0.038203 0.000000 -0.003152
# 5 0.002589 -0.002048 -0.004276 0.000000 0.020025 0.000000
# 6 0.000000 0.000000 0.000000 -0.003152 0.000000 0.050185
#
#
# Mechanical properties :
#
#
# Convention : Reuss Voigt Hill
#
# Bulk Modulus (GPa) = 22.58592 41.43493 32.01042
# Shear Modulus (GPa) = 21.27647 30.56940 25.92293
#
# Velocity S-wave (km/s) = 2.95784 3.54543 3.26488
# Velocity P-wave (km/s) = 4.57738 5.81361 5.23214
#
# Compressibility (1/GPa) = 0.04427538
#
# Stress axis : x y z
#
# Youngs Moduli (GPa) = 25.29295 49.33797 54.80162
#
# Poissons Ratio (x) = -0.45703 0.94588
# Poissons Ratio (y) = -0.23429 0.48728
# Poissons Ratio (z) = 0.43656 0.43870
#
# Static dielectric constant tensor:
#      x y z
#    x 2.017470 0.000000 -0.017080 
#    y 0.000000 2.039110 0.000000 
#    z -0.017080 0.000000 2.309360 
# 
# From -- ./inp_files/4465.got.cif
#   From: 2010.05.17/outbox.cif.g08.bks.cpg/sg9_3_cif.got.tgz:4465.got - 2010.06.03 20:04:27.
