data_PCOD9138429
_publ_section_title
;
Structure prediction by ZEFSAII (Michael W. Deem and Ramdas Pophale) SiO2 
 PCOD9138429
Probable space group: C C
;
_chemical_formula_sum "Si O2"
_cell_formula_units_Z 28
_cell_length_a 11.252585
_cell_length_b 18.673619
_cell_length_c 11.250111
_cell_angle_alpha 90.000000
_cell_angle_beta 27.298500
_cell_angle_gamma 90.000000
_cell_volume 1084.167913
_symmetry_space_group_name_H-M "C C"
_symmetry_group_IT_number 9
_symmetry_cell_setting 'monoclinic'
loop_
_space_group_symop_operation_xyz
x,y,z
x,-y,1/2+z
1/2+x,1/2+y,z
1/2+x,1/2-y,1/2+z
loop_
_atom_site_type_symbol
_atom_site_label
_atom_site_fract_x
_atom_site_fract_y
_atom_site_fract_z
Si Si1 0.305240 0.876832 0.602660
Si Si2 0.423094 0.519811 0.508775
Si Si3 0.462208 0.709586 0.243211
Si Si4 0.529286 0.036387 0.679722
Si Si5 0.163934 0.123900 0.843444
Si Si6 0.700429 0.902102 0.419672
Si Si7 0.614956 0.294024 0.152089
O O1 0.108478 0.818154 0.730326
O O2 0.381635 0.927482 0.423354
O O3 0.544058 0.849486 0.468968
O O4 0.167240 0.930822 0.813542
O O5 0.316252 0.548105 0.477441
O O6 0.491565 0.438121 0.439909
O O7 0.261686 0.534079 0.770850
O O8 0.159503 0.725048 0.532850
O O9 0.511524 0.656949 0.090067
O O10 0.412351 0.080997 0.674590
O O11 0.540295 0.949378 0.658926
O O12 0.195632 0.183569 0.714893
O O13 0.953322 0.860594 0.240416
O O14 0.388142 0.232762 0.354558
#
# Coordination Sequence:
#
# PCOD9138429 Si02
#       7
#     4   4   4   4   4   4   4
#     4  10  25  43  72 106 143 187 248 307 377 433
#     4  11  24  43  72 112 138 184 245 321 386 430
#     4  11  27  46  71 101 143 198 247 296 357 438
#     4  10  23  43  69 108 142 187 239 320 380 430
#     4  11  24  45  76 105 147 188 250 317 371 450
#     4  11  25  44  73 108 146 193 247 302 382 443
#     4  12  30  50  73 108 155 209 248 297 369 464
#
# _framework density 25.826256999999998
#
# number of rings (size 3 to 8) (size 9 to 14) (size 15 to 20)
#    0.000    1.143    2.857    0.857   12.000    3.429 
#    0.000    0.000    0.000    0.000    0.000    0.000 
#    0.000    0.000    0.000    0.000    0.000    0.000 
#
# Total GULP energy -78080.967720 kJ/mol
# GULP energy per Si atom -5577.211980 kJ/mol
# Density = 2.576748 g / cm^3
# Si number density = 25.826257 Si / 1000 Ang^3
#
#
#
# Elastic Constant Matrix: (Units=GPa)
#
#
# Indices 1 2 3 4 5 6 
#
# 1 130.3101 28.8848 14.8126 0.0162 -14.2670 0.0023
# 2 28.8848 78.9664 11.7397 -0.0152 -3.0279 0.0028
# 3 14.8126 11.7397 41.1056 0.0082 -10.4800 -0.0024
# 4 0.0162 -0.0152 0.0082 35.2996 -0.0260 -9.2555
# 5 -14.2670 -3.0279 -10.4800 -0.0260 24.4579 -0.0070
# 6 0.0023 0.0028 -0.0024 -9.2555 -0.0070 52.3298
#
#
#
# Elastic Compliance Matrix: (Units=1/GPa)
#
#
# Indices 1 2 3 4 5 6 
#
# 1 0.008937 -0.002912 -0.001293 -0.000002 0.004299 0.000000
# 2 -0.002912 0.014174 -0.003350 0.000007 -0.001380 0.000000
# 3 -0.001293 -0.003350 0.028574 0.000002 0.011075 0.000003
# 4 -0.000002 0.000007 0.000002 0.029707 0.000034 0.005254
# 5 0.004299 -0.001380 0.011075 0.000034 0.047969 0.000013
# 6 0.000000 0.000000 0.000003 0.005254 0.000013 0.020039
#
#
# Mechanical properties :
#
#
# Convention : Reuss Voigt Hill
#
# Bulk Modulus (GPa) = 27.34155 40.13957 33.74056
# Shear Modulus (GPa) = 28.29631 35.41379 31.85505
#
# Velocity S-wave (km/s) = 3.31364 3.70703 3.51584
# Velocity P-wave (km/s) = 5.02493 5.82226 5.43823
#
# Compressibility (1/GPa) = 0.03657437
#
# Stress axis : x y z
#
# Youngs Moduli (GPa) = 111.89311 70.55173 34.99694
#
# Poissons Ratio (x) = 0.20545 0.04525
# Poissons Ratio (y) = 0.32584 0.11725
# Poissons Ratio (z) = 0.14466 0.23638
#
# Static dielectric constant tensor:
#      x y z
#    x 2.028050 -0.000030 -0.032610 
#    y -0.000030 2.091570 -0.000020 
#    z -0.032610 -0.000020 2.103400 
# 
# From -- ./inp_files/1738.got.cif
#   From: 2010.05.17/outbox.cif.g08.bks.cpg/sg9_1_cif.got.tgz:1738.got - 2010.06.03 20:04:27.
