data_PCOD9138553
_publ_section_title
;
Structure prediction by ZEFSAII (Michael W. Deem and Ramdas Pophale) SiO2 
 PCOD9138553
Probable space group: C C
;
_chemical_formula_sum "Si O2"
_cell_formula_units_Z 28
_cell_length_a 8.601570
_cell_length_b 13.425385
_cell_length_c 20.404402
_cell_angle_alpha 90.000000
_cell_angle_beta 147.902117
_cell_angle_gamma 90.000000
_cell_volume 1252.054276
_symmetry_space_group_name_H-M "C C"
_symmetry_group_IT_number 9
_symmetry_cell_setting 'monoclinic'
loop_
_space_group_symop_operation_xyz
x,y,z
x,-y,1/2+z
1/2+x,1/2+y,z
1/2+x,1/2-y,1/2+z
loop_
_atom_site_type_symbol
_atom_site_label
_atom_site_fract_x
_atom_site_fract_y
_atom_site_fract_z
Si Si1 0.884690 0.918391 0.563370
Si Si2 0.266898 0.751074 0.265342
Si Si3 0.837438 0.572648 0.112473
Si Si4 0.555970 0.740427 0.497924
Si Si5 0.602489 0.598452 0.892062
Si Si6 0.999806 0.372792 0.229619
Si Si7 0.204211 0.961353 0.292669
O O1 0.821279 0.813709 0.575200
O O2 0.560582 0.963546 0.429306
O O3 0.061641 0.902474 0.559945
O O4 0.070273 0.977314 0.684774
O O5 0.443264 0.704279 0.388231
O O6 0.472419 0.804877 0.284916
O O7 0.115844 0.848310 0.242722
O O8 0.035439 0.667732 0.165083
O O9 0.003532 0.492150 0.217886
O O10 0.721247 0.542149 0.999023
O O11 0.324689 0.813253 0.450047
O O12 0.683229 0.652981 0.586101
O O13 0.578504 0.524559 0.820920
O O14 0.299728 0.652785 0.800870
#
# Coordination Sequence:
#
# PCOD9138553 Si02
#       7
#     4   4   4   4   4   4   4
#     4  10  23  44  72 102 143 197 243 304 377 446
#     4  10  23  47  68 103 145 186 248 300 364 447
#     4  12  25  43  77 101 144 194 247 307 369 450
#     4  10  25  47  67 102 149 180 248 304 371 449
#     4  10  24  43  70 103 140 187 244 307 367 445
#     4  12  25  45  72 106 141 192 242 301 377 439
#     4  10  23  47  70 105 152 186 254 311 371 456
#
# _framework density 22.363247999999999
#
# number of rings (size 3 to 8) (size 9 to 14) (size 15 to 20)
#    0.000    1.714    2.857    1.714   10.000    0.000 
#    2.571    0.000    0.000    0.000    0.000    0.000 
#    0.000    0.000    0.000    0.000    0.000    0.000 
#
# Total GULP energy -77949.255346 kJ/mol
# GULP energy per Si atom -5567.803953 kJ/mol
# Density = 2.231235 g / cm^3
# Si number density = 22.363248 Si / 1000 Ang^3
#
#
#
# Elastic Constant Matrix: (Units=GPa)
#
#
# Indices 1 2 3 4 5 6 
#
# 1 165.7954 22.0517 40.1831 0.0018 3.0013 0.0015
# 2 22.0517 48.6274 24.4029 0.0000 7.9414 0.0011
# 3 40.1831 24.4029 102.7507 0.0046 -13.7524 0.0060
# 4 0.0018 0.0000 0.0046 35.1918 0.0023 -4.2192
# 5 3.0013 7.9414 -13.7524 0.0023 40.4329 0.0022
# 6 0.0015 0.0011 0.0060 -4.2192 0.0022 8.9754
#
#
#
# Elastic Compliance Matrix: (Units=1/GPa)
#
#
# Indices 1 2 3 4 5 6 
#
# 1 0.006864 -0.001747 -0.002401 0.000000 -0.000983 0.000001
# 2 -0.001747 0.025712 -0.006372 0.000002 -0.007088 0.000004
# 3 -0.002401 -0.006372 0.012966 -0.000003 0.005840 -0.000010
# 4 0.000000 0.000002 -0.000003 0.030113 -0.000004 0.014156
# 5 -0.000983 -0.007088 0.005840 -0.000004 0.028184 -0.000012
# 6 0.000001 0.000004 -0.000010 0.014156 -0.000012 0.118071
#
#
# Mechanical properties :
#
#
# Convention : Reuss Voigt Hill
#
# Bulk Modulus (GPa) = 40.81302 54.49434 47.65368
# Shear Modulus (GPa) = 19.91115 32.28905 26.10010
#
# Velocity S-wave (km/s) = 2.98711 3.80392 3.41999
# Velocity P-wave (km/s) = 5.49425 6.61164 6.07867
#
# Compressibility (1/GPa) = 0.02450198
#
# Stress axis : x y z
#
# Youngs Moduli (GPa) = 145.69669 38.89244 77.12436
#
# Poissons Ratio (x) = 0.06795 0.18516
# Poissons Ratio (y) = 0.25456 0.49142
# Poissons Ratio (z) = 0.34978 0.24782
#
# Static dielectric constant tensor:
#      x y z
#    x 1.848310 0.000000 -0.021520 
#    y 0.000000 1.859950 0.000000 
#    z -0.021520 0.000000 1.909160 
# 
# From -- ./inp_files/32761.got.cif
#   From: 2010.05.17/outbox.cif.g08.bks.cpg/sg9_17_cif.got.tgz:32761.got - 2010.06.03 20:04:27.
