data_PCOD9138597
_publ_section_title
;
Structure prediction by ZEFSAII (Michael W. Deem and Ramdas Pophale) SiO2 
 PCOD9138597
Probable space group: C C
;
_chemical_formula_sum "Si O2"
_cell_formula_units_Z 24
_cell_length_a 7.175742
_cell_length_b 11.545082
_cell_length_c 14.176706
_cell_angle_alpha 90.000000
_cell_angle_beta 76.498529
_cell_angle_gamma 90.000000
_cell_volume 1142.005010
_symmetry_space_group_name_H-M "C C"
_symmetry_group_IT_number 9
_symmetry_cell_setting 'monoclinic'
loop_
_space_group_symop_operation_xyz
x,y,z
x,-y,1/2+z
1/2+x,1/2+y,z
1/2+x,1/2-y,1/2+z
loop_
_atom_site_type_symbol
_atom_site_label
_atom_site_fract_x
_atom_site_fract_y
_atom_site_fract_z
Si Si1 0.192660 0.829342 0.035660
Si Si2 0.861723 0.067596 0.307840
Si Si3 0.878491 0.686704 0.720906
Si Si4 0.283133 0.406521 0.146051
Si Si5 0.193994 0.007393 0.884115
Si Si6 0.284423 0.573746 0.985314
O O1 0.284947 0.832135 0.128993
O O2 0.965969 0.852501 0.073057
O O3 0.214435 0.703530 0.987045
O O4 0.276923 0.927957 0.956875
O O5 0.810752 0.189490 0.268801
O O6 0.856789 0.964805 0.232888
O O7 0.735910 0.016822 0.408233
O O8 0.074632 0.075468 0.326962
O O9 0.822831 0.589347 0.804655
O O10 0.107392 0.679303 0.681418
O O11 0.217004 0.514336 0.089250
O O12 0.017934 0.079457 0.952325
#
# Coordination Sequence:
#
# PCOD9138597 Si02
#       6
#     4   4   4   4   4   4
#     4  11  22  49  68  98 141 174 227 279 328 403
#     4  10  23  45  65 101 138 166 234 277 322 411
#     4  12  25  43  74  97 136 186 214 281 343 388
#     4  11  24  42  68 104 132 177 228 272 336 401
#     4   9  24  43  67 101 135 177 224 279 326 405
#     4   9  22  44  68  95 136 178 217 286 327 396
#
# _framework density 21.015671000000001
#
# number of rings (size 3 to 8) (size 9 to 14) (size 15 to 20)
#    1.000    0.667    3.333    0.000    2.333    5.333 
#    0.000    0.000    0.000    0.000    0.000    0.000 
#    0.000    0.000    0.000    0.000    0.000    0.000 
#
# Total GULP energy -66916.794255 kJ/mol
# GULP energy per Si atom -5576.399521 kJ/mol
# Density = 2.096784 g / cm^3
# Si number density = 21.015671 Si / 1000 Ang^3
#
#
#
# Elastic Constant Matrix: (Units=GPa)
#
#
# Indices 1 2 3 4 5 6 
#
# 1 57.2840 44.0610 29.1234 0.0000 -6.5904 0.0000
# 2 44.0610 95.0757 38.2001 0.0000 13.8051 0.0000
# 3 29.1234 38.2001 82.4655 0.0000 14.1753 0.0000
# 4 0.0000 0.0000 0.0000 42.0342 0.0000 0.3862
# 5 -6.5904 13.8051 14.1753 0.0000 18.9018 0.0000
# 6 0.0000 0.0000 0.0000 0.3862 0.0000 22.4465
#
#
#
# Elastic Compliance Matrix: (Units=1/GPa)
#
#
# Indices 1 2 3 4 5 6 
#
# 1 0.046116 -0.022169 -0.013275 0.000000 0.042226 0.000000
# 2 -0.022169 0.024135 0.001157 0.000000 -0.026224 0.000000
# 3 -0.013275 0.001157 0.019768 0.000000 -0.020299 0.000000
# 4 0.000000 0.000000 0.000000 0.023794 0.000000 -0.000409
# 5 0.042226 -0.026224 -0.020299 0.000000 0.102004 0.000000
# 6 0.000000 0.000000 0.000000 -0.000409 0.000000 0.044557
#
#
# Mechanical properties :
#
#
# Convention : Reuss Voigt Hill
#
# Bulk Modulus (GPa) = 46.63332 50.84380 48.73856
# Shear Modulus (GPa) = 14.87673 24.90588 19.89131
#
# Velocity S-wave (km/s) = 2.66350 3.44628 3.07986
# Velocity P-wave (km/s) = 5.63000 6.33100 5.99076
#
# Compressibility (1/GPa) = 0.02144390
#
# Stress axis : x y z
#
# Youngs Moduli (GPa) = 21.68458 41.43441 50.58748
#
# Poissons Ratio (x) = 0.91855 0.67157
# Poissons Ratio (y) = 0.48072 -0.05854
# Poissons Ratio (z) = 0.28787 -0.04795
#
# Static dielectric constant tensor:
#      x y z
#    x 1.795490 0.000000 0.022640 
#    y 0.000000 1.720890 0.000000 
#    z 0.022640 0.000000 1.776300 
# 
# From -- ./inp_files/22447.got.cif
#   From: 2010.05.17/outbox.cif.g08.bks.cpg/sg9_12_cif.got.tgz:22447.got - 2010.06.03 20:04:27.
