data_PCOD9138842
_publ_section_title
;
Structure prediction by ZEFSAII (Michael W. Deem and Ramdas Pophale) SiO2 
 PCOD9138842
Probable space group: C C
;
_chemical_formula_sum "Si O2"
_cell_formula_units_Z 24
_cell_length_a 14.211618
_cell_length_b 9.042980
_cell_length_c 10.536720
_cell_angle_alpha 90.000000
_cell_angle_beta 52.007808
_cell_angle_gamma 90.000000
_cell_volume 1067.183034
_symmetry_space_group_name_H-M "C C"
_symmetry_group_IT_number 9
_symmetry_cell_setting 'monoclinic'
loop_
_space_group_symop_operation_xyz
x,y,z
x,-y,1/2+z
1/2+x,1/2+y,z
1/2+x,1/2-y,1/2+z
loop_
_atom_site_type_symbol
_atom_site_label
_atom_site_fract_x
_atom_site_fract_y
_atom_site_fract_z
Si Si1 0.930730 0.510692 0.750000
Si Si2 0.551078 0.864115 0.892462
Si Si3 0.264430 0.516270 0.343835
Si Si4 0.716281 0.686974 0.337647
Si Si5 0.532623 0.565513 0.036797
Si Si6 0.241094 0.778595 0.522402
O O1 0.825829 0.393778 0.813307
O O2 0.008527 0.441121 0.798894
O O3 0.990439 0.556343 0.566616
O O4 0.858904 0.653819 0.859785
O O5 0.691371 0.890339 0.799056
O O6 0.524039 0.688831 0.931527
O O7 0.211199 0.353008 0.391713
O O8 0.403481 0.523415 0.195968
O O9 0.240778 0.393860 0.991552
O O10 0.599536 0.586293 0.447592
O O11 0.745331 0.694047 0.165910
O O12 0.622453 0.646376 0.061794
#
# Coordination Sequence:
#
# PCOD9138842 Si02
#       6
#     4   4   4   4   4   4
#     4  11  23  47  75 107 150 196 249 309 378 456
#     4  11  25  46  74 108 150 200 250 308 384 452
#     4  11  26  44  72 107 147 202 246 309 381 442
#     4  11  26  45  74 110 148 201 253 312 374 448
#     4  10  25  48  72 106 151 197 248 312 377 456
#     4  10  23  48  75 102 150 196 248 318 378 440
#
# _framework density 22.489114000000001
#
# number of rings (size 3 to 8) (size 9 to 14) (size 15 to 20)
#    0.000    1.333    3.333    0.000    7.000    4.000 
#    3.000    0.000    0.000    0.000    0.000    0.000 
#    0.000    0.000    0.000    0.000    0.000    0.000 
#
# Total GULP energy -67143.847620 kJ/mol
# GULP energy per Si atom -5595.320635 kJ/mol
# Density = 2.243793 g / cm^3
# Si number density = 22.489114 Si / 1000 Ang^3
#
#
#
# Elastic Constant Matrix: (Units=GPa)
#
#
# Indices 1 2 3 4 5 6 
#
# 1 82.7923 11.3920 53.7481 0.0000 -5.2886 0.0000
# 2 11.3920 149.0563 46.1166 0.0000 -9.9057 0.0000
# 3 53.7481 46.1166 107.0772 0.0000 -9.7932 0.0000
# 4 0.0000 0.0000 0.0000 25.0726 0.0000 -11.5512
# 5 -5.2886 -9.9057 -9.7932 0.0000 36.8176 0.0000
# 6 0.0000 0.0000 0.0000 -11.5512 0.0000 17.1645
#
#
#
# Elastic Compliance Matrix: (Units=1/GPa)
#
#
# Indices 1 2 3 4 5 6 
#
# 1 0.018275 0.001683 -0.009856 0.000000 0.000456 0.000000
# 2 0.001683 0.007950 -0.004152 0.000000 0.001276 0.000000
# 3 -0.009856 -0.004152 0.016238 0.000000 0.001786 0.000000
# 4 0.000000 0.000000 0.000000 0.057807 0.000000 0.038902
# 5 0.000456 0.001276 0.001786 0.000000 0.028045 0.000000
# 6 0.000000 0.000000 0.000000 0.038902 0.000000 0.084440
#
#
# Mechanical properties :
#
#
# Convention : Reuss Voigt Hill
#
# Bulk Modulus (GPa) = 56.14162 62.38214 59.26188
# Shear Modulus (GPa) = 20.54729 30.98887 25.76808
#
# Velocity S-wave (km/s) = 3.02595 3.71610 3.38864
# Velocity P-wave (km/s) = 6.10136 6.79791 6.45903
#
# Compressibility (1/GPa) = 0.01781210
#
# Stress axis : x y z
#
# Youngs Moduli (GPa) = 54.72100 125.79244 61.58416
#
# Poissons Ratio (x) = -0.21171 0.60698
# Poissons Ratio (y) = -0.09210 0.25569
# Poissons Ratio (z) = 0.53934 0.52227
#
# Static dielectric constant tensor:
#      x y z
#    x 1.814610 0.000000 -0.014720 
#    y 0.000000 1.863370 0.000000 
#    z -0.014720 0.000000 1.818740 
# 
# From -- ./inp_files/17525.got.cif
#   From: 2010.05.17/outbox.cif.g08.bks.cpg/sg9_9_cif.got.tgz:17525.got - 2010.06.03 20:04:27.
