data_PCOD9138835
_publ_section_title
;
Structure prediction by ZEFSAII (Michael W. Deem and Ramdas Pophale) SiO2 
 PCOD9138835
Probable space group: C C
;
_chemical_formula_sum "Si O2"
_cell_formula_units_Z 32
_cell_length_a 8.313449
_cell_length_b 18.138331
_cell_length_c 14.978722
_cell_angle_alpha 90.000000
_cell_angle_beta 32.712794
_cell_angle_gamma 90.000000
_cell_volume 1220.650503
_symmetry_space_group_name_H-M "C C"
_symmetry_group_IT_number 9
_symmetry_cell_setting 'monoclinic'
loop_
_space_group_symop_operation_xyz
x,y,z
x,-y,1/2+z
1/2+x,1/2+y,z
1/2+x,1/2-y,1/2+z
loop_
_atom_site_type_symbol
_atom_site_label
_atom_site_fract_x
_atom_site_fract_y
_atom_site_fract_z
Si Si1 0.599490 0.036582 0.581500
Si Si2 0.761203 0.311291 0.855654
Si Si3 0.763949 0.884748 0.531272
Si Si4 0.678105 0.153672 0.321949
Si Si5 0.082469 0.234682 0.006222
Si Si6 0.623399 0.563133 0.203092
Si Si7 0.634989 0.854220 0.211593
Si Si8 0.205200 0.640012 0.868816
O O1 0.481173 0.093037 0.710955
O O2 0.892304 0.066041 0.393800
O O3 0.725606 0.967591 0.580835
O O4 0.356582 0.001833 0.625663
O O5 0.809796 0.224389 0.824730
O O6 0.929068 0.350728 0.696373
O O7 0.918117 0.345448 0.870624
O O8 0.414044 0.321735 0.029521
O O9 0.862931 0.892345 0.382803
O O10 0.941096 0.825359 0.504506
O O11 0.559727 0.185992 0.471088
O O12 0.865763 0.078796 0.246854
O O13 0.897575 0.218582 0.181457
O O14 0.422139 0.208657 0.851620
O O15 0.861630 0.622320 0.052982
O O16 0.753550 0.891745 0.247695
#
# Coordination Sequence:
#
# PCOD9138835 Si02
#       8
#     4   4   4   4   4   4   4   4
#     4  11  26  50  76 100 155 207 263 314 377 462
#     4  11  24  45  77 113 160 194 248 320 402 461
#     4  10  23  48  73 102 153 207 247 310 382 459
#     4  11  25  46  72 113 151 203 249 320 388 471
#     4  11  24  44  71 108 155 186 258 309 389 459
#     4  11  25  53  74 107 149 209 264 316 380 457
#     4  12  25  41  73 115 146 202 252 314 383 462
#     4  11  22  45  76 114 151 190 255 319 391 457
#
# _framework density 26.215530000000001
#
# number of rings (size 3 to 8) (size 9 to 14) (size 15 to 20)
#    0.000    1.000    2.500    3.750    3.500    1.000 
#   13.500    0.000    0.000    0.000    0.000    0.000 
#    0.000    0.000    0.000    0.000    0.000    0.000 
#
# Total GULP energy -89246.538252 kJ/mol
# GULP energy per Si atom -5577.908641 kJ/mol
# Density = 2.615586 g / cm^3
# Si number density = 26.215530 Si / 1000 Ang^3
#
#
#
# Elastic Constant Matrix: (Units=GPa)
#
#
# Indices 1 2 3 4 5 6 
#
# 1 94.1985 25.0946 4.4700 -0.0081 -3.3791 0.0120
# 2 25.0946 64.8064 25.6082 -0.0078 2.7552 0.0076
# 3 4.4700 25.6082 123.9093 -0.0616 5.8841 0.0345
# 4 -0.0081 -0.0078 -0.0616 33.2957 0.0164 -0.7518
# 5 -3.3791 2.7552 5.8841 0.0164 42.0360 -0.0090
# 6 0.0120 0.0076 0.0345 -0.7518 -0.0090 35.7085
#
#
#
# Elastic Compliance Matrix: (Units=1/GPa)
#
#
# Indices 1 2 3 4 5 6 
#
# 1 0.011934 -0.004878 0.000520 0.000002 0.001206 -0.000003
# 2 -0.004878 0.018813 -0.003659 -0.000003 -0.001113 0.000001
# 3 0.000520 -0.003659 0.008853 0.000016 -0.000958 -0.000008
# 4 0.000002 -0.000003 0.000016 0.030048 -0.000013 0.000633
# 5 0.001206 -0.001113 -0.000958 -0.000013 0.024093 0.000007
# 6 -0.000003 0.000001 -0.000008 0.000633 0.000007 0.028018
#
#
# Mechanical properties :
#
#
# Convention : Reuss Voigt Hill
#
# Bulk Modulus (GPa) = 42.43342 43.69554 43.06448
# Shear Modulus (GPa) = 34.32927 37.39081 35.86004
#
# Velocity S-wave (km/s) = 3.62263 3.78072 3.70252
# Velocity P-wave (km/s) = 5.80684 5.98017 5.89414
#
# Compressibility (1/GPa) = 0.02356633
#
# Stress axis : x y z
#
# Youngs Moduli (GPa) = 83.79445 53.15561 112.95130
#
# Poissons Ratio (x) = 0.25929 -0.05877
# Poissons Ratio (y) = 0.40875 0.41331
# Poissons Ratio (z) = -0.04360 0.19451
#
# Static dielectric constant tensor:
#      x y z
#    x 2.190940 0.000000 -0.028220 
#    y 0.000000 2.058020 0.000020 
#    z -0.028220 0.000020 2.048080 
# 
# From -- ./inp_files/23787.got.cif
#   From: 2010.05.17/outbox.cif.g08.bks.cpg/sg9_12_cif.got.tgz:23787.got - 2010.06.03 20:04:27.
