data_PCOD9138905
_publ_section_title
;
Structure prediction by ZEFSAII (Michael W. Deem and Ramdas Pophale) SiO2 
 PCOD9138905
Probable space group: C C
;
_chemical_formula_sum "Si O2"
_cell_formula_units_Z 24
_cell_length_a 18.050871
_cell_length_b 4.771182
_cell_length_c 18.569457
_cell_angle_alpha 90.000000
_cell_angle_beta 34.238157
_cell_angle_gamma 90.000000
_cell_volume 899.807005
_symmetry_space_group_name_H-M "C C"
_symmetry_group_IT_number 9
_symmetry_cell_setting 'monoclinic'
loop_
_space_group_symop_operation_xyz
x,y,z
x,-y,1/2+z
1/2+x,1/2+y,z
1/2+x,1/2-y,1/2+z
loop_
_atom_site_type_symbol
_atom_site_label
_atom_site_fract_x
_atom_site_fract_y
_atom_site_fract_z
Si Si1 0.549980 0.525123 0.038670
Si Si2 0.312051 0.222056 0.153705
Si Si3 0.280957 0.369206 0.402657
Si Si4 0.945871 0.647603 0.752359
Si Si5 0.636796 0.780446 0.819963
Si Si6 0.416133 0.444574 0.920721
O O1 0.420156 0.345773 0.121153
O O2 0.536699 0.735090 0.116996
O O3 0.659863 0.296668 0.969562
O O4 0.582920 0.704540 0.941509
O O5 0.179565 0.401375 0.274763
O O6 0.269007 0.903542 0.200246
O O7 0.365296 0.277454 0.030762
O O8 0.311747 0.672767 0.345955
O O9 0.290710 0.411264 0.481136
O O10 0.409298 0.175165 0.282926
O O11 0.977061 0.754471 0.807704
O O12 0.523942 0.669647 0.857642
#
# Coordination Sequence:
#
# PCOD9138905 Si02
#       6
#     4   4   4   4   4   4
#     4  11  24  45  69 100 136 178 226 282 336 404
#     4  11  26  43  69  97 138 179 226 272 341 403
#     4  10  24  42  65  99 133 168 226 272 341 385
#     4  10  24  40  67 100 129 173 220 280 333 392
#     4  11  26  44  69  98 137 180 225 277 335 409
#     4   9  26  42  69  98 133 176 225 275 338 393
#
# _framework density 26.672383
#
# number of rings (size 3 to 8) (size 9 to 14) (size 15 to 20)
#    1.000    0.667    0.000    2.000    7.000    8.000 
#    0.000    0.000    0.000    0.000    0.000    0.000 
#    0.000    0.000    0.000    0.000    0.000    0.000 
#
# Total GULP energy -67318.578843 kJ/mol
# GULP energy per Si atom -5609.881570 kJ/mol
# Density = 2.661168 g / cm^3
# Si number density = 26.672383 Si / 1000 Ang^3
#
#
#
# Elastic Constant Matrix: (Units=GPa)
#
#
# Indices 1 2 3 4 5 6 
#
# 1 142.0368 14.9214 35.5062 -0.0390 25.2117 0.0198
# 2 14.9214 106.0443 4.6533 -0.0655 6.2739 0.0396
# 3 35.5062 4.6533 97.9991 -0.0226 25.8020 0.0148
# 4 -0.0390 -0.0655 -0.0226 43.0998 0.0241 -2.8683
# 5 25.2117 6.2739 25.8020 0.0241 53.2033 -0.0168
# 6 0.0198 0.0396 0.0148 -2.8683 -0.0168 38.5804
#
#
#
# Elastic Compliance Matrix: (Units=1/GPa)
#
#
# Indices 1 2 3 4 5 6 
#
# 1 0.008164 -0.000893 -0.002206 0.000006 -0.002693 -0.000003
# 2 -0.000893 0.009597 0.000062 0.000014 -0.000739 -0.000009
# 3 -0.002206 0.000062 0.012297 0.000007 -0.004926 -0.000005
# 4 0.000006 0.000014 0.000007 0.023317 -0.000018 0.001734
# 5 -0.002693 -0.000739 -0.004926 -0.000018 0.022548 0.000013
# 6 -0.000003 -0.000009 -0.000005 0.001734 0.000013 0.026049
#
#
# Mechanical properties :
#
#
# Convention : Reuss Voigt Hill
#
# Bulk Modulus (GPa) = 41.69334 50.69358 46.19346
# Shear Modulus (GPa) = 43.08847 46.37666 44.73256
#
# Velocity S-wave (km/s) = 4.02365 4.17436 4.09970
# Velocity P-wave (km/s) = 6.10344 6.50238 6.30607
#
# Compressibility (1/GPa) = 0.02398465
#
# Stress axis : x y z
#
# Youngs Moduli (GPa) = 122.49190 104.20353 81.31744
#
# Poissons Ratio (x) = 0.09301 0.17941
# Poissons Ratio (y) = 0.10933 -0.00506
# Poissons Ratio (z) = 0.27026 -0.00649
#
# Static dielectric constant tensor:
#      x y z
#    x 2.082970 -0.000020 -0.037870 
#    y -0.000020 1.987540 0.000010 
#    z -0.037870 0.000010 2.145160 
# 
# From -- ./inp_files/20425.got.cif
#   From: 2010.05.17/outbox.cif.g08.bks.cpg/sg9_11_cif.got.tgz:20425.got - 2010.06.03 20:04:27.
