data_PCOD9138864
_publ_section_title
;
Structure prediction by ZEFSAII (Michael W. Deem and Ramdas Pophale) SiO2 
 PCOD9138864
Probable space group: C C
;
_chemical_formula_sum "Si O2"
_cell_formula_units_Z 28
_cell_length_a 13.194674
_cell_length_b 5.098695
_cell_length_c 14.758642
_cell_angle_alpha 90.000000
_cell_angle_beta 97.132525
_cell_angle_gamma 90.000000
_cell_volume 985.213347
_symmetry_space_group_name_H-M "C C"
_symmetry_group_IT_number 9
_symmetry_cell_setting 'monoclinic'
loop_
_space_group_symop_operation_xyz
x,y,z
x,-y,1/2+z
1/2+x,1/2+y,z
1/2+x,1/2-y,1/2+z
loop_
_atom_site_type_symbol
_atom_site_label
_atom_site_fract_x
_atom_site_fract_y
_atom_site_fract_z
Si Si1 0.310170 0.444337 0.275340
Si Si2 0.139855 0.673835 0.863771
Si Si3 0.439011 0.895798 0.887490
Si Si4 0.380176 0.016892 0.570528
Si Si5 0.578292 0.442782 0.511053
Si Si6 0.743709 0.972082 0.085346
Si Si7 0.016629 0.871845 0.697680
O O1 0.242997 0.490298 0.359106
O O2 0.348272 0.151881 0.308201
O O3 0.228374 0.523012 0.190182
O O4 0.418862 0.555720 0.250868
O O5 0.039709 0.495248 0.851246
O O6 0.113577 0.857616 0.774430
O O7 0.133810 0.847390 0.953682
O O8 0.407479 0.061308 0.970956
O O9 0.477206 0.634563 0.944157
O O10 0.306115 0.272688 0.560459
O O11 0.475082 0.110812 0.641523
O O12 0.323431 0.768711 0.603209
O O13 0.648373 0.178839 0.529138
O O14 0.549719 0.530569 0.609819
#
# Coordination Sequence:
#
# PCOD9138864 Si02
#       7
#     4   4   4   4   4   4   4
#     4  11  24  48  73 110 150 203 266 322 399 464
#     4  12  25  49  76 109 154 208 268 325 403 471
#     4  11  26  44  74 111 146 205 257 328 382 477
#     4  10  25  45  77 108 155 196 260 318 394 460
#     4  11  25  47  73 112 157 202 265 324 395 470
#     4  11  24  47  74 111 149 207 254 321 392 468
#     4  10  23  50  73 111 151 203 256 336 387 472
#
# _framework density 28.420241999999998
#
# number of rings (size 3 to 8) (size 9 to 14) (size 15 to 20)
#    0.000    1.143    2.857    1.714   10.000    0.000 
#   12.857    0.000    0.000    0.000    0.000    0.000 
#    0.000    0.000    0.000    0.000    0.000    0.000 
#
# Total GULP energy -78208.498714 kJ/mol
# GULP energy per Si atom -5586.321337 kJ/mol
# Density = 2.835556 g / cm^3
# Si number density = 28.420242 Si / 1000 Ang^3
#
#
#
# Elastic Constant Matrix: (Units=GPa)
#
#
# Indices 1 2 3 4 5 6 
#
# 1 146.5188 37.9153 61.0615 0.0000 -2.5824 0.0000
# 2 37.9153 102.8767 16.2066 0.0000 -4.8389 0.0000
# 3 61.0615 16.2066 142.1719 0.0000 -12.1892 0.0000
# 4 0.0000 0.0000 0.0000 26.1502 0.0000 -2.3757
# 5 -2.5824 -4.8389 -12.1892 0.0000 68.9607 0.0000
# 6 0.0000 0.0000 0.0000 -2.3757 0.0000 54.4996
#
#
#
# Elastic Compliance Matrix: (Units=1/GPa)
#
#
# Indices 1 2 3 4 5 6 
#
# 1 0.009041 -0.002787 -0.003608 0.000000 -0.000495 0.000000
# 2 -0.002787 0.010774 0.000025 0.000000 0.000656 0.000000
# 3 -0.003608 0.000025 0.008701 0.000000 0.001405 0.000000
# 4 0.000000 0.000000 0.000000 0.038393 0.000000 0.001674
# 5 -0.000495 0.000656 0.001405 0.000000 0.014777 0.000000
# 6 0.000000 0.000000 0.000000 0.001674 0.000000 0.018422
#
#
# Mechanical properties :
#
#
# Convention : Reuss Voigt Hill
#
# Bulk Modulus (GPa) = 63.38406 69.10379 66.24392
# Shear Modulus (GPa) = 42.33485 48.34770 45.34128
#
# Velocity S-wave (km/s) = 3.86372 4.12900 3.99856
# Velocity P-wave (km/s) = 6.50041 6.86289 6.68411
#
# Compressibility (1/GPa) = 0.01577684
#
# Stress axis : x y z
#
# Youngs Moduli (GPa) = 110.60617 92.81217 114.93184
#
# Poissons Ratio (x) = 0.25867 0.41465
# Poissons Ratio (y) = 0.30826 -0.00288
# Poissons Ratio (z) = 0.39904 -0.00232
#
# Static dielectric constant tensor:
#      x y z
#    x 2.231390 0.000000 0.026960 
#    y 0.000000 2.233150 0.000000 
#    z 0.026960 0.000000 2.367840 
# 
# From -- ./inp_files/25239.got.cif
#   From: 2010.05.17/outbox.cif.g08.bks.cpg/sg9_13_cif.got.tgz:25239.got - 2010.06.03 20:04:27.
