data_PCOD9138504
_publ_section_title
;
Structure prediction by ZEFSAII (Michael W. Deem and Ramdas Pophale) SiO2 
 PCOD9138504
Probable space group: C C
;
_chemical_formula_sum "Si O2"
_cell_formula_units_Z 24
_cell_length_a 9.119709
_cell_length_b 17.591621
_cell_length_c 9.800906
_cell_angle_alpha 90.000000
_cell_angle_beta 42.590146
_cell_angle_gamma 90.000000
_cell_volume 1064.096267
_symmetry_space_group_name_H-M "C C"
_symmetry_group_IT_number 9
_symmetry_cell_setting 'monoclinic'
loop_
_space_group_symop_operation_xyz
x,y,z
x,-y,1/2+z
1/2+x,1/2+y,z
1/2+x,1/2-y,1/2+z
loop_
_atom_site_type_symbol
_atom_site_label
_atom_site_fract_x
_atom_site_fract_y
_atom_site_fract_z
Si Si1 0.236700 0.344983 0.723490
Si Si2 0.426571 0.084110 0.049911
Si Si3 0.134363 0.493103 0.663529
Si Si4 0.326613 0.694391 0.734923
Si Si5 0.274370 0.196297 0.507947
Si Si6 0.930121 0.864946 0.877745
O O1 0.284747 0.424967 0.618709
O O2 0.267294 0.272023 0.605942
O O3 0.363202 0.333478 0.776459
O O4 0.976755 0.350111 0.923121
O O5 0.607875 0.150035 0.915413
O O6 0.490314 0.029130 0.881664
O O7 0.479648 0.041208 0.153894
O O8 0.182017 0.113048 0.207675
O O9 0.286684 0.559489 0.500664
O O10 0.541727 0.656558 0.655698
O O11 0.365854 0.691361 0.546173
O O12 0.317069 0.772915 0.824970
#
# Coordination Sequence:
#
# PCOD9138504 Si02
#       6
#     4   4   4   4   4   4
#     4  11  23  46  65 104 132 177 233 271 343 392
#     4  11  24  44  67 102 133 177 222 282 341 401
#     4  11  23  44  67  99 133 175 228 276 346 397
#     4  10  23  44  67  98 131 180 226 265 341 395
#     4  10  23  45  73  91 137 188 221 278 324 416
#     4  11  26  43  69 102 138 173 224 292 333 401
#
# _framework density 22.554349999999999
#
# number of rings (size 3 to 8) (size 9 to 14) (size 15 to 20)
#    0.000    1.333    3.333    1.000    4.667    2.667 
#   12.000    0.000    0.000    0.000    0.000    0.000 
#    0.000    0.000    0.000    0.000    0.000    0.000 
#
# Total GULP energy -67111.397316 kJ/mol
# GULP energy per Si atom -5592.616443 kJ/mol
# Density = 2.250302 g / cm^3
# Si number density = 22.554350 Si / 1000 Ang^3
#
#
#
# Elastic Constant Matrix: (Units=GPa)
#
#
# Indices 1 2 3 4 5 6 
#
# 1 185.1344 41.9086 80.7723 0.0000 11.9136 0.0000
# 2 41.9086 68.7111 33.7376 0.0000 6.4820 0.0000
# 3 80.7723 33.7376 117.7396 0.0000 14.1955 0.0000
# 4 0.0000 0.0000 0.0000 29.4801 0.0000 2.9864
# 5 11.9136 6.4820 14.1955 0.0000 45.8359 0.0000
# 6 0.0000 0.0000 0.0000 2.9864 0.0000 40.0281
#
#
#
# Elastic Compliance Matrix: (Units=1/GPa)
#
#
# Indices 1 2 3 4 5 6 
#
# 1 0.008083 -0.002558 -0.004781 0.000000 -0.000258 0.000000
# 2 -0.002558 0.017784 -0.003239 0.000000 -0.000847 0.000000
# 3 -0.004781 -0.003239 0.012981 0.000000 -0.002320 0.000000
# 4 0.000000 0.000000 0.000000 0.034180 0.000000 -0.002550
# 5 -0.000258 -0.000847 -0.002320 0.000000 0.022722 0.000000
# 6 0.000000 0.000000 0.000000 -0.002550 0.000000 0.025173
#
#
# Mechanical properties :
#
#
# Convention : Reuss Voigt Hill
#
# Bulk Modulus (GPa) = 56.52230 76.04690 66.28460
# Shear Modulus (GPa) = 33.78918 37.41325 35.60122
#
# Velocity S-wave (km/s) = 3.87476 4.07726 3.97730
# Velocity P-wave (km/s) = 6.71813 7.48036 7.10947
#
# Compressibility (1/GPa) = 0.01769213
#
# Stress axis : x y z
#
# Youngs Moduli (GPa) = 123.71458 56.22965 77.03598
#
# Poissons Ratio (x) = 0.14385 0.36831
# Poissons Ratio (y) = 0.31649 0.24951
# Poissons Ratio (z) = 0.59148 0.18212
#
# Static dielectric constant tensor:
#      x y z
#    x 1.803710 0.000000 -0.014350 
#    y 0.000000 1.873930 0.000000 
#    z -0.014350 0.000000 1.872140 
# 
# From -- ./inp_files/5308.got.cif
#   From: 2010.05.17/outbox.cif.g08.bks.cpg/sg9_3_cif.got.tgz:5308.got - 2010.06.03 20:04:27.
