data_PCOD9138691
_publ_section_title
;
Structure prediction by ZEFSAII (Michael W. Deem and Ramdas Pophale) SiO2 
 PCOD9138691
Probable space group: C C
;
_chemical_formula_sum "Si O2"
_cell_formula_units_Z 32
_cell_length_a 15.774334
_cell_length_b 14.537924
_cell_length_c 7.906240
_cell_angle_alpha 90.000000
_cell_angle_beta 138.044896
_cell_angle_gamma 90.000000
_cell_volume 1212.149172
_symmetry_space_group_name_H-M "C C"
_symmetry_group_IT_number 9
_symmetry_cell_setting 'monoclinic'
loop_
_space_group_symop_operation_xyz
x,y,z
x,-y,1/2+z
1/2+x,1/2+y,z
1/2+x,1/2-y,1/2+z
loop_
_atom_site_type_symbol
_atom_site_label
_atom_site_fract_x
_atom_site_fract_y
_atom_site_fract_z
Si Si1 0.510440 0.265894 0.243400
Si Si2 0.582903 0.605218 0.446057
Si Si3 0.929786 0.609746 0.302166
Si Si4 0.933184 0.267707 0.246447
Si Si5 0.047457 0.555523 0.807777
Si Si6 0.663594 0.563723 0.904123
Si Si7 0.316957 0.481245 0.620991
Si Si8 0.766129 0.844330 0.233842
O O1 0.417332 0.216337 0.236253
O O2 0.563016 0.368279 0.338940
O O3 0.638343 0.203519 0.469224
O O4 0.441842 0.258478 0.958464
O O5 0.552453 0.708277 0.351700
O O6 0.684597 0.599618 0.745113
O O7 0.620419 0.540612 0.349663
O O8 0.459081 0.558532 0.352905
O O9 0.031079 0.594977 0.597277
O O10 0.982939 0.543740 0.233571
O O11 0.800068 0.573317 0.187420
O O12 0.965540 0.374321 0.295312
O O13 0.826436 0.233846 0.954246
O O14 0.197904 0.555373 0.056556
O O15 0.286683 0.430255 0.397911
O O16 0.313609 0.591951 0.642300
#
# Coordination Sequence:
#
# PCOD9138691 Si02
#       8
#     4   4   4   4   4   4   4   4
#     4  11  24  46  68 105 151 194 260 309 376 453
#     4  10  23  46  64 101 139 193 250 296 373 446
#     4  12  25  44  71 107 146 195 249 311 386 445
#     4  10  25  44  69 107 150 199 253 308 381 446
#     4  12  23  44  70 108 145 191 247 315 378 449
#     4  11  25  45  67  99 142 195 242 303 375 449
#     4  11  22  42  75 102 148 189 254 308 372 446
#     4  11  23  45  70 113 151 196 253 310 381 452
#
# _framework density 26.399391000000001
#
# number of rings (size 3 to 8) (size 9 to 14) (size 15 to 20)
#    0.000    1.000    2.500    3.750    1.750    3.000 
#   18.000    0.000    0.000    0.000    0.000    0.000 
#    0.000    0.000    0.000    0.000    0.000    0.000 
#
# Total GULP energy -89113.791291 kJ/mol
# GULP energy per Si atom -5569.611956 kJ/mol
# Density = 2.633931 g / cm^3
# Si number density = 26.399391 Si / 1000 Ang^3
#
#
#
# Elastic Constant Matrix: (Units=GPa)
#
#
# Indices 1 2 3 4 5 6 
#
# 1 35.2589 -0.5850 10.8621 0.0000 3.7860 0.0000
# 2 -0.5850 72.1866 12.8454 0.0000 -12.6491 0.0000
# 3 10.8621 12.8454 96.9584 0.0000 -4.6928 0.0000
# 4 0.0000 0.0000 0.0000 42.8263 0.0000 -1.8191
# 5 3.7860 -12.6491 -4.6928 0.0000 29.3716 0.0000
# 6 0.0000 0.0000 0.0000 -1.8191 0.0000 36.8093
#
#
#
# Elastic Compliance Matrix: (Units=1/GPa)
#
#
# Indices 1 2 3 4 5 6 
#
# 1 0.029937 0.000112 -0.003581 0.000000 -0.004383 0.000000
# 2 0.000112 0.015263 -0.001731 0.000000 0.006282 0.000000
# 3 -0.003581 -0.001731 0.011016 0.000000 0.001476 0.000000
# 4 0.000000 0.000000 0.000000 0.023399 0.000000 0.001156
# 5 -0.004383 0.006282 0.001476 0.000000 0.037553 0.000000
# 6 0.000000 0.000000 0.000000 0.001156 0.000000 0.027224
#
#
# Mechanical properties :
#
#
# Convention : Reuss Voigt Hill
#
# Bulk Modulus (GPa) = 21.82620 27.84985 24.83802
# Shear Modulus (GPa) = 29.40090 33.88686 31.64388
#
# Velocity S-wave (km/s) = 3.34083 3.58666 3.46592
# Velocity P-wave (km/s) = 4.81323 5.26540 5.04438
#
# Compressibility (1/GPa) = 0.04581650
#
# Stress axis : x y z
#
# Youngs Moduli (GPa) = 33.40318 65.51948 90.78058
#
# Poissons Ratio (x) = -0.00733 0.32506
# Poissons Ratio (y) = -0.00373 0.15710
# Poissons Ratio (z) = 0.11961 0.11338
#
# Static dielectric constant tensor:
#      x y z
#    x 2.248030 0.000000 0.014040 
#    y 0.000000 2.233130 0.000000 
#    z 0.014040 0.000000 2.040080 
# 
# From -- ./inp_files/10912.got.cif
#   From: 2010.05.17/outbox.cif.g08.bks.cpg/sg9_6_cif.got.tgz:10912.got - 2010.06.03 20:04:27.
