data_PCOD9138069
_publ_section_title
;
Structure prediction by ZEFSAII (Michael W. Deem and Ramdas Pophale) SiO2 
 PCOD9138069
Probable space group: C C
;
_chemical_formula_sum "Si O2"
_cell_formula_units_Z 24
_cell_length_a 22.531797
_cell_length_b 4.911076
_cell_length_c 10.770694
_cell_angle_alpha 90.000000
_cell_angle_beta 131.152730
_cell_angle_gamma 90.000000
_cell_volume 897.401874
_symmetry_space_group_name_H-M "C C"
_symmetry_group_IT_number 9
_symmetry_cell_setting 'monoclinic'
loop_
_space_group_symop_operation_xyz
x,y,z
x,-y,1/2+z
1/2+x,1/2+y,z
1/2+x,1/2-y,1/2+z
loop_
_atom_site_type_symbol
_atom_site_label
_atom_site_fract_x
_atom_site_fract_y
_atom_site_fract_z
Si Si1 0.075230 0.379503 0.122560
Si Si2 0.129448 0.965356 0.506573
Si Si3 0.330936 0.107356 0.951375
Si Si4 0.290973 0.364419 0.238444
Si Si5 0.503954 0.078967 0.267109
Si Si6 0.726644 0.184674 0.957117
O O1 0.093394 0.073616 0.094999
O O2 0.022614 0.403545 0.171201
O O3 0.162043 0.473371 0.286409
O O4 0.036049 0.518613 0.946574
O O5 0.201989 0.751493 0.611296
O O6 0.057513 0.849376 0.326572
O O7 0.173230 0.209354 0.499197
O O8 0.411644 0.127229 0.137492
O O9 0.265455 0.942177 0.941026
O O10 0.341067 0.896280 0.848500
O O11 0.307467 0.395255 0.859323
O O12 0.296098 0.504326 0.111230
#
# Coordination Sequence:
#
# PCOD9138069 Si02
#       6
#     4   4   4   4   4   4
#     4  10  22  47  75 108 155 206 266 320 391 481
#     4  10  24  46  75 113 143 212 255 325 376 481
#     4  12  29  46  78 114 164 203 262 340 404 472
#     4  12  25  47  73 114 151 208 263 324 395 476
#     4  10  25  48  72 117 157 207 260 334 406 468
#     4  12  23  46  81 116 156 210 282 319 402 480
#
# _framework density 26.743873000000001
#
# number of rings (size 3 to 8) (size 9 to 14) (size 15 to 20)
#    1.000    0.000    5.000    0.000    7.000    1.333 
#    3.000    0.000    0.000    0.000    0.000    0.000 
#    0.000    0.000    0.000    0.000    0.000    0.000 
#
# Total GULP energy -66999.766832 kJ/mol
# GULP energy per Si atom -5583.313903 kJ/mol
# Density = 2.668300 g / cm^3
# Si number density = 26.743873 Si / 1000 Ang^3
#
#
#
# Elastic Constant Matrix: (Units=GPa)
#
#
# Indices 1 2 3 4 5 6 
#
# 1 99.8157 32.1672 78.0360 0.0000 -3.6878 0.0000
# 2 32.1672 100.2249 48.9393 0.0000 1.1535 0.0000
# 3 78.0360 48.9393 215.1848 0.0000 7.4928 0.0000
# 4 0.0000 0.0000 0.0000 38.4403 0.0000 -10.0376
# 5 -3.6878 1.1535 7.4928 0.0000 63.6140 0.0000
# 6 0.0000 0.0000 0.0000 -10.0376 0.0000 28.7279
#
#
#
# Elastic Compliance Matrix: (Units=1/GPa)
#
#
# Indices 1 2 3 4 5 6 
#
# 1 0.014587 -0.002352 -0.004806 0.000000 0.001454 0.000000
# 2 -0.002352 0.011604 -0.001781 0.000000 -0.000137 0.000000
# 3 -0.004806 -0.001781 0.006832 0.000000 -0.001051 0.000000
# 4 0.000000 0.000000 0.000000 0.028626 0.000000 0.010002
# 5 0.001454 -0.000137 -0.001051 0.000000 0.015930 0.000000
# 6 0.000000 0.000000 0.000000 0.010002 0.000000 0.038304
#
#
# Mechanical properties :
#
#
# Convention : Reuss Voigt Hill
#
# Bulk Modulus (GPa) = 66.02969 81.50116 73.76542
# Shear Modulus (GPa) = 36.02052 43.22864 39.62458
#
# Velocity S-wave (km/s) = 3.67395 4.02480 3.85337
# Velocity P-wave (km/s) = 6.53762 7.22077 6.88767
#
# Compressibility (1/GPa) = 0.01514470
#
# Stress axis : x y z
#
# Youngs Moduli (GPa) = 68.55285 86.17862 146.37657
#
# Poissons Ratio (x) = 0.20268 0.70345
# Poissons Ratio (y) = 0.16123 0.26075
# Poissons Ratio (z) = 0.32945 0.15352
#
# Static dielectric constant tensor:
#      x y z
#    x 2.144400 0.000000 -0.124390 
#    y 0.000000 2.168050 0.000000 
#    z -0.124390 0.000000 2.117510 
# 
# From -- ./inp_files/21335.got.cif
#   From: 2010.05.17/outbox.cif.g08.bks.cpg/sg9_11_cif.got.tgz:21335.got - 2010.06.03 20:04:27.
