data_PCOD9138845
_publ_section_title
;
Structure prediction by ZEFSAII (Michael W. Deem and Ramdas Pophale) SiO2 
 PCOD9138845
Probable space group: C C
;
_chemical_formula_sum "Si O2"
_cell_formula_units_Z 20
_cell_length_a 8.823814
_cell_length_b 10.985565
_cell_length_c 12.980659
_cell_angle_alpha 90.000000
_cell_angle_beta 36.724113
_cell_angle_gamma 90.000000
_cell_volume 752.401148
_symmetry_space_group_name_H-M "C C"
_symmetry_group_IT_number 9
_symmetry_cell_setting 'monoclinic'
loop_
_space_group_symop_operation_xyz
x,y,z
x,-y,1/2+z
1/2+x,1/2+y,z
1/2+x,1/2-y,1/2+z
loop_
_atom_site_type_symbol
_atom_site_label
_atom_site_fract_x
_atom_site_fract_y
_atom_site_fract_z
Si Si1 0.135500 0.490725 0.304150
Si Si2 0.243747 0.398702 0.455693
Si Si3 0.940353 0.203481 0.046390
Si Si4 0.208260 0.072714 0.175783
Si Si5 0.008564 0.668379 0.698793
O O1 0.154262 0.433647 0.181613
O O2 0.269538 0.620133 0.215730
O O3 0.849323 0.495420 0.503563
O O4 0.252137 0.396481 0.325043
O O5 0.320472 0.298053 0.498221
O O6 0.938477 0.414916 0.632367
O O7 0.463632 0.501102 0.348308
O O8 0.997061 0.324465 0.081509
O O9 0.218432 0.149735 0.886463
O O10 0.121751 0.205233 0.181967
#
# Coordination Sequence:
#
# PCOD9138845 Si02
#       5
#     4   4   4   4   4
#     4  10  24  48  76 111 156 213 258 335 391 477
#     4  10  24  47  73 115 160 212 258 328 401 469
#     4  12  27  43  80 117 155 209 268 328 395 478
#     4  10  23  48  78 111 162 211 266 322 401 476
#     4  12  24  48  77 116 155 211 264 331 396 474
#
# _framework density 26.581565000000001
#
# number of rings (size 3 to 8) (size 9 to 14) (size 15 to 20)
#    1.200    0.000    4.000    0.000    5.600    3.200 
#    0.000    2.000    0.000    0.000    0.000    0.000 
#    0.000    0.000    0.000    0.000    0.000    0.000 
#
# Total GULP energy -55790.960167 kJ/mol
# GULP energy per Si atom -5579.096017 kJ/mol
# Density = 2.652106 g / cm^3
# Si number density = 26.581565 Si / 1000 Ang^3
#
#
#
# Elastic Constant Matrix: (Units=GPa)
#
#
# Indices 1 2 3 4 5 6 
#
# 1 231.7265 59.0866 56.4186 -0.0012 5.8294 0.0001
# 2 59.0866 85.2615 21.8444 -0.0012 -10.3490 0.0004
# 3 56.4186 21.8444 151.0139 -0.0071 -10.7107 0.0021
# 4 -0.0012 -0.0012 -0.0071 26.8078 0.0024 5.8644
# 5 5.8294 -10.3490 -10.7107 0.0024 55.8850 -0.0004
# 6 0.0001 0.0004 0.0021 5.8644 -0.0004 51.6607
#
#
#
# Elastic Compliance Matrix: (Units=1/GPa)
#
#
# Indices 1 2 3 4 5 6 
#
# 1 0.005723 -0.003723 -0.001714 0.000000 -0.001615 0.000000
# 2 -0.003723 0.014814 -0.000537 0.000000 0.003029 0.000000
# 3 -0.001714 -0.000537 0.007447 0.000002 0.001507 0.000000
# 4 0.000000 0.000000 0.000002 0.038253 -0.000001 -0.004342
# 5 -0.001615 0.003029 0.001507 -0.000001 0.018912 0.000000
# 6 0.000000 0.000000 0.000000 -0.004342 0.000000 0.019850
#
#
# Mechanical properties :
#
#
# Convention : Reuss Voigt Hill
#
# Bulk Modulus (GPa) = 62.36233 82.52234 72.44233
# Shear Modulus (GPa) = 40.88631 48.91420 44.90025
#
# Velocity S-wave (km/s) = 3.92617 4.29436 4.11439
# Velocity P-wave (km/s) = 6.63813 7.46331 7.06278
#
# Compressibility (1/GPa) = 0.01603532
#
# Stress axis : x y z
#
# Youngs Moduli (GPa) = 174.74654 67.50517 134.28558
#
# Poissons Ratio (x) = 0.25130 0.23016
# Poissons Ratio (y) = 0.65052 0.07214
# Poissons Ratio (z) = 0.29951 0.03627
#
# Static dielectric constant tensor:
#      x y z
#    x 2.088390 0.000000 0.039150 
#    y 0.000000 2.190340 0.000000 
#    z 0.039150 0.000000 2.025610 
# 
# From -- ./inp_files/4789.got.cif
#   From: 2010.05.17/outbox.cif.g08.bks.cpg/sg9_3_cif.got.tgz:4789.got - 2010.06.03 20:04:27.
