data_PCOD9138869
_publ_section_title
;
Structure prediction by ZEFSAII (Michael W. Deem and Ramdas Pophale) SiO2 
 PCOD9138869
Probable space group: C C
;
_chemical_formula_sum "Si O2"
_cell_formula_units_Z 24
_cell_length_a 5.151462
_cell_length_b 24.423984
_cell_length_c 7.916899
_cell_angle_alpha 90.000000
_cell_angle_beta 75.496519
_cell_angle_gamma 90.000000
_cell_volume 964.354871
_symmetry_space_group_name_H-M "C C"
_symmetry_group_IT_number 9
_symmetry_cell_setting 'monoclinic'
loop_
_space_group_symop_operation_xyz
x,y,z
x,-y,1/2+z
1/2+x,1/2+y,z
1/2+x,1/2-y,1/2+z
loop_
_atom_site_type_symbol
_atom_site_label
_atom_site_fract_x
_atom_site_fract_y
_atom_site_fract_z
Si Si1 0.380120 0.253464 0.953770
Si Si2 0.858510 0.199270 0.079066
Si Si3 0.384471 0.537089 0.701724
Si Si4 0.213122 0.427240 0.591105
Si Si5 0.239184 0.088758 0.377962
Si Si6 0.192207 0.365335 0.024104
O O1 0.357119 0.276819 0.768464
O O2 0.659556 0.235240 0.991862
O O3 0.248927 0.304551 0.082445
O O4 0.171249 0.203726 0.982631
O O5 0.766136 0.137075 0.083416
O O6 0.307248 0.473739 0.707588
O O7 0.644942 0.546656 0.540421
O O8 0.183689 0.583482 0.654612
O O9 0.363311 0.552284 0.899463
O O10 0.893694 0.430987 0.686852
O O11 0.439337 0.129724 0.444247
O O12 0.968595 0.120367 0.382329
#
# Coordination Sequence:
#
# PCOD9138869 Si02
#       6
#     4   4   4   4   4   4
#     4  12  27  50  79 117 160 217 270 346 403 498
#     4  12  30  49  84 116 167 211 281 335 425 488
#     4  10  28  47  81 114 162 211 270 334 419 480
#     4  12  26  54  78 126 156 222 273 342 418 508
#     4  10  24  49  78 114 158 205 265 339 401 491
#     4  10  23  51  78 107 159 210 259 344 404 473
#
# _framework density 24.887107
#
# number of rings (size 3 to 8) (size 9 to 14) (size 15 to 20)
#    1.000    0.000    1.667    3.000    7.000    2.667 
#    9.000    0.000    0.000    0.000    0.000    0.000 
#    0.000    0.000    0.000    0.000    0.000    0.000 
#
# Total GULP energy -66904.334849 kJ/mol
# GULP energy per Si atom -5575.361237 kJ/mol
# Density = 2.483046 g / cm^3
# Si number density = 24.887107 Si / 1000 Ang^3
#
#
#
# Elastic Constant Matrix: (Units=GPa)
#
#
# Indices 1 2 3 4 5 6 
#
# 1 100.2948 35.9578 17.9492 0.0000 8.3432 0.0000
# 2 35.9578 145.3369 30.4964 0.0000 6.0967 0.0000
# 3 17.9492 30.4964 104.4164 0.0000 1.3056 0.0000
# 4 0.0000 0.0000 0.0000 19.9612 0.0000 -1.2352
# 5 8.3432 6.0967 1.3056 0.0000 45.2111 0.0000
# 6 0.0000 0.0000 0.0000 -1.2352 0.0000 29.1209
#
#
#
# Elastic Compliance Matrix: (Units=1/GPa)
#
#
# Indices 1 2 3 4 5 6 
#
# 1 0.011204 -0.002451 -0.001189 0.000000 -0.001703 0.000000
# 2 -0.002451 0.007905 -0.001880 0.000000 -0.000559 0.000000
# 3 -0.001189 -0.001880 0.010328 0.000000 0.000175 0.000000
# 4 0.000000 0.000000 0.000000 0.050229 0.000000 0.002130
# 5 -0.001703 -0.000559 0.000175 0.000000 0.022503 0.000000
# 6 0.000000 0.000000 0.000000 0.002130 0.000000 0.034430
#
#
# Mechanical properties :
#
#
# Convention : Reuss Voigt Hill
#
# Bulk Modulus (GPa) = 54.35775 57.65055 56.00415
# Shear Modulus (GPa) = 32.51568 36.56828 34.54198
#
# Velocity S-wave (km/s) = 3.61851 3.83739 3.72956
# Velocity P-wave (km/s) = 6.27274 6.54593 6.41079
#
# Compressibility (1/GPa) = 0.01839664
#
# Stress axis : x y z
#
# Youngs Moduli (GPa) = 89.25583 126.50178 96.82023
#
# Poissons Ratio (x) = 0.31006 0.11510
# Poissons Ratio (y) = 0.21877 0.18207
# Poissons Ratio (z) = 0.10611 0.23788
#
# Static dielectric constant tensor:
#      x y z
#    x 1.968480 0.000000 -0.001920 
#    y 0.000000 2.007050 0.000000 
#    z -0.001920 0.000000 2.077200 
# 
# From -- ./inp_files/3949.got.cif
#   From: 2010.05.17/outbox.cif.g08.bks.cpg/sg9_2_cif.got.tgz:3949.got - 2010.06.03 20:04:27.
