data_PCOD9138060
_publ_section_title
;
Structure prediction by ZEFSAII (Michael W. Deem and Ramdas Pophale) SiO2 
 PCOD9138060
Probable space group: C C
;
_chemical_formula_sum "Si O2"
_cell_formula_units_Z 28
_cell_length_a 5.057926
_cell_length_b 12.983164
_cell_length_c 17.374713
_cell_angle_alpha 90.000000
_cell_angle_beta 71.999308
_cell_angle_gamma 90.000000
_cell_volume 1085.113771
_symmetry_space_group_name_H-M "C C"
_symmetry_group_IT_number 9
_symmetry_cell_setting 'monoclinic'
loop_
_space_group_symop_operation_xyz
x,y,z
x,-y,1/2+z
1/2+x,1/2+y,z
1/2+x,1/2-y,1/2+z
loop_
_atom_site_type_symbol
_atom_site_label
_atom_site_fract_x
_atom_site_fract_y
_atom_site_fract_z
Si Si1 0.828750 0.739606 0.972930
Si Si2 0.634355 0.651963 0.678027
Si Si3 0.030724 0.524574 0.372607
Si Si4 0.461395 0.737189 0.859903
Si Si5 0.046186 0.357021 0.597217
Si Si6 0.413111 0.520221 0.473889
Si Si7 0.104361 0.470185 0.199625
O O1 0.809096 0.861537 0.993705
O O2 0.620941 0.705636 0.924135
O O3 0.825645 0.671199 0.050605
O O4 0.245871 0.981787 0.946388
O O5 0.527592 0.688245 0.771593
O O6 0.642573 0.745268 0.617142
O O7 0.941160 0.612622 0.664828
O O8 0.429589 0.560138 0.668573
O O9 0.015971 0.460864 0.296193
O O10 0.636792 0.769699 0.408978
O O11 0.298580 0.496096 0.398460
O O12 0.552640 0.856725 0.845887
O O13 0.984106 0.421043 0.679990
O O14 0.261325 0.438567 0.541386
#
# Coordination Sequence:
#
# PCOD9138060 Si02
#       7
#     4   4   4   4   4   4   4
#     4  10  24  43  75 106 146 186 248 299 364 441
#     4  12  28  47  76 108 150 194 250 302 369 446
#     4  10  22  47  72 108 141 191 244 302 359 442
#     4  10  22  47  72 108 141 191 244 302 359 442
#     4  12  28  50  74 112 152 198 238 318 376 422
#     4  10  24  43  75 106 146 186 248 299 364 441
#     4  12  28  47  76 108 150 194 250 302 369 446
#
# _framework density 25.803746
#
# number of rings (size 3 to 8) (size 9 to 14) (size 15 to 20)
#    0.000    1.143    1.429    2.571    6.000    9.143 
#    0.000    0.000    0.000    0.000    0.000    0.000 
#    0.000    0.000    0.000    0.000    0.000    0.000 
#
# Total GULP energy -78441.232956 kJ/mol
# GULP energy per Si atom -5602.945211 kJ/mol
# Density = 2.574502 g / cm^3
# Si number density = 25.803746 Si / 1000 Ang^3
#
#
#
# Elastic Constant Matrix: (Units=GPa)
#
#
# Indices 1 2 3 4 5 6 
#
# 1 137.0749 10.9175 40.1413 0.0000 29.4697 0.0000
# 2 10.9175 109.6409 29.9589 0.0000 28.1065 0.0000
# 3 40.1413 29.9589 97.3314 0.0000 27.7324 0.0000
# 4 0.0000 0.0000 0.0000 54.6575 0.0000 11.9001
# 5 29.4697 28.1065 27.7324 0.0000 41.1306 0.0000
# 6 0.0000 0.0000 0.0000 11.9001 0.0000 38.5733
#
#
#
# Elastic Compliance Matrix: (Units=1/GPa)
#
#
# Indices 1 2 3 4 5 6 
#
# 1 0.009166 0.001243 -0.002537 0.000000 -0.005706 0.000000
# 2 0.001243 0.011418 -0.001919 0.000000 -0.007400 0.000000
# 3 -0.002537 -0.001919 0.013640 0.000000 -0.006068 0.000000
# 4 0.000000 0.000000 0.000000 0.019613 0.000000 -0.006051
# 5 -0.005706 -0.007400 -0.006068 0.000000 0.037549 0.000000
# 6 0.000000 0.000000 0.000000 -0.006051 0.000000 0.027791
#
#
# Mechanical properties :
#
#
# Convention : Reuss Voigt Hill
#
# Bulk Modulus (GPa) = 35.97272 56.23140 46.10206
# Shear Modulus (GPa) = 37.07293 44.40758 40.74025
#
# Velocity S-wave (km/s) = 3.79453 4.15296 3.97779
# Velocity P-wave (km/s) = 5.75926 6.69592 6.24518
#
# Compressibility (1/GPa) = 0.02779884
#
# Stress axis : x y z
#
# Youngs Moduli (GPa) = 109.09853 87.58025 73.31365
#
# Poissons Ratio (x) = -0.10889 0.18600
# Poissons Ratio (y) = -0.13565 0.14069
# Poissons Ratio (z) = 0.27679 0.16807
#
# Static dielectric constant tensor:
#      x y z
#    x 1.947150 0.000000 0.011540 
#    y 0.000000 2.093080 0.000000 
#    z 0.011540 0.000000 2.033180 
# 
# From -- ./inp_files/32076.got.cif
#   From: 2010.05.17/outbox.cif.g08.bks.cpg/sg9_17_cif.got.tgz:32076.got - 2010.06.03 20:04:27.
