data_PCOD9138018
_publ_section_title
;
Structure prediction by ZEFSAII (Michael W. Deem and Ramdas Pophale) SiO2 
 PCOD9138018
Probable space group: C C
;
_chemical_formula_sum "Si O2"
_cell_formula_units_Z 16
_cell_length_a 7.776973
_cell_length_b 15.290068
_cell_length_c 4.806010
_cell_angle_alpha 90.000000
_cell_angle_beta 86.854201
_cell_angle_gamma 90.000000
_cell_volume 570.623636
_symmetry_space_group_name_H-M "C C"
_symmetry_group_IT_number 9
_symmetry_cell_setting 'monoclinic'
loop_
_space_group_symop_operation_xyz
x,y,z
x,-y,1/2+z
1/2+x,1/2+y,z
1/2+x,1/2-y,1/2+z
loop_
_atom_site_type_symbol
_atom_site_label
_atom_site_fract_x
_atom_site_fract_y
_atom_site_fract_z
Si Si1 0.859020 0.647638 0.237580
Si Si2 0.660048 0.937896 0.051451
Si Si3 0.977494 0.812090 0.879904
Si Si4 0.083779 0.061481 0.964356
O O1 0.683081 0.673680 0.422056
O O2 0.782171 0.576455 0.028595
O O3 0.995400 0.613069 0.444926
O O4 0.933892 0.721004 0.026588
O O5 0.816557 0.871439 0.985580
O O6 0.666461 0.026395 0.863976
O O7 0.994342 0.846150 0.552962
O O8 0.040082 0.984987 0.186362
#
# Coordination Sequence:
#
# PCOD9138018 Si02
#       4
#     4   4   4   4
#     4  10  26  49  78 114 163 202 265 327 404 465
#     4  12  28  50  82 116 156 212 272 324 402 482
#     4  10  26  49  78 114 163 202 265 327 404 465
#     4  10  22  46  74 104 150 204 252 316 388 458
#
# _framework density 28.039497999999998
#
# number of rings (size 3 to 8) (size 9 to 14) (size 15 to 20)
#    1.500    0.000    0.000    3.000    3.500    4.000 
#    0.000    0.000    0.000    0.000    0.000    0.000 
#    0.000    0.000    0.000    0.000    0.000    0.000 
#
# Total GULP energy -44704.093946 kJ/mol
# GULP energy per Si atom -5588.011743 kJ/mol
# Density = 2.797568 g / cm^3
# Si number density = 28.039498 Si / 1000 Ang^3
#
#
#
# Elastic Constant Matrix: (Units=GPa)
#
#
# Indices 1 2 3 4 5 6 
#
# 1 168.5551 43.0102 25.6150 0.0000 -14.7309 0.0000
# 2 43.0102 107.9222 30.2876 0.0000 -7.4865 0.0000
# 3 25.6150 30.2876 86.7779 0.0000 9.4973 0.0000
# 4 0.0000 0.0000 0.0000 61.5185 0.0000 -11.8519
# 5 -14.7309 -7.4865 9.4973 0.0000 46.2020 0.0000
# 6 0.0000 0.0000 0.0000 -11.8519 0.0000 49.5759
#
#
#
# Elastic Compliance Matrix: (Units=1/GPa)
#
#
# Indices 1 2 3 4 5 6 
#
# 1 0.006908 -0.002178 -0.001515 0.000000 0.002161 0.000000
# 2 -0.002178 0.011239 -0.003481 0.000000 0.001842 0.000000
# 3 -0.001515 -0.003481 0.013607 0.000000 -0.003844 0.000000
# 4 0.000000 0.000000 0.000000 0.017040 0.000000 0.004074
# 5 0.002161 0.001842 -0.003844 0.000000 0.023422 0.000000
# 6 0.000000 0.000000 0.000000 0.004074 0.000000 0.021145
#
#
# Mechanical properties :
#
#
# Convention : Reuss Voigt Hill
#
# Bulk Modulus (GPa) = 57.45785 62.34231 59.90008
# Shear Modulus (GPa) = 44.04882 49.08210 46.56546
#
# Velocity S-wave (km/s) = 3.96783 4.18839 4.07960
# Velocity P-wave (km/s) = 6.44421 6.75812 6.60303
#
# Compressibility (1/GPa) = 0.01740406
#
# Stress axis : x y z
#
# Youngs Moduli (GPa) = 144.76763 88.97872 73.49254
#
# Poissons Ratio (x) = 0.19377 0.11137
# Poissons Ratio (y) = 0.31526 0.25586
# Poissons Ratio (z) = 0.21938 0.30977
#
# Static dielectric constant tensor:
#      x y z
#    x 2.173190 0.000000 -0.065110 
#    y 0.000000 2.227950 0.000000 
#    z -0.065110 0.000000 2.275600 
# 
# From -- ./inp_files/419.got.cif
#   From: 2010.05.17/outbox.cif.g08.bks.cpg/sg9_1_cif.got.tgz:419.got - 2010.06.03 20:04:27.
