data_PCOD9138481
_publ_section_title
;
Structure prediction by ZEFSAII (Michael W. Deem and Ramdas Pophale) SiO2 
 PCOD9138481
Probable space group: C C
;
_chemical_formula_sum "Si O2"
_cell_formula_units_Z 32
_cell_length_a 8.015365
_cell_length_b 11.131237
_cell_length_c 25.407599
_cell_angle_alpha 90.000000
_cell_angle_beta 40.747404
_cell_angle_gamma 90.000000
_cell_volume 1479.656449
_symmetry_space_group_name_H-M "C C"
_symmetry_group_IT_number 9
_symmetry_cell_setting 'monoclinic'
loop_
_space_group_symop_operation_xyz
x,y,z
x,-y,1/2+z
1/2+x,1/2+y,z
1/2+x,1/2-y,1/2+z
loop_
_atom_site_type_symbol
_atom_site_label
_atom_site_fract_x
_atom_site_fract_y
_atom_site_fract_z
Si Si1 0.805430 0.839285 0.596970
Si Si2 0.042900 0.313338 0.837513
Si Si3 0.998665 0.093107 0.686892
Si Si4 0.158735 0.237626 0.921829
Si Si5 0.896951 0.532522 0.462920
Si Si6 0.564704 0.663958 0.147927
Si Si7 0.164366 0.675107 0.857786
Si Si8 0.802987 0.088468 0.625707
O O1 0.635119 0.719638 0.641239
O O2 0.982078 0.831831 0.606863
O O3 0.977018 0.838203 0.503596
O O4 0.668846 0.969588 0.633973
O O5 0.952793 0.433165 0.888629
O O6 0.823606 0.273816 0.850639
O O7 0.094299 0.224703 0.875322
O O8 0.305272 0.326025 0.743854
O O9 0.877709 0.102799 0.773398
O O10 0.779953 0.083372 0.694314
O O11 0.162755 0.970543 0.639245
O O12 0.450613 0.220998 0.868295
O O13 0.072483 0.375333 0.953071
O O14 0.604743 0.565465 0.542884
O O15 0.009401 0.400475 0.438679
O O16 0.727479 0.781512 0.122597
#
# Coordination Sequence:
#
# PCOD9138481 Si02
#       8
#     4   4   4   4   4   4   4   4
#     4  11  23  43  64  99 131 176 226 274 340 401
#     4  10  23  44  65 102 131 172 233 273 340 409
#     4  11  22  42  69  93 135 174 221 281 335 396
#     4  10  23  44  63  99 136 170 229 273 337 407
#     4  10  23  44  61  98 136 173 229 277 330 412
#     4  11  24  43  67  98 133 178 224 282 339 405
#     4  12  22  44  71  91 141 179 215 291 339 390
#     4  11  24  42  70  94 139 174 223 285 334 398
#
# _framework density 21.626642
#
# number of rings (size 3 to 8) (size 9 to 14) (size 15 to 20)
#    0.750    0.500    5.000    0.750    1.750    1.000 
#    6.750    0.000    0.000    0.000    0.000    0.000 
#    0.000    0.000    0.000    0.000    0.000    0.000 
#
# Total GULP energy -89190.619737 kJ/mol
# GULP energy per Si atom -5574.413734 kJ/mol
# Density = 2.157742 g / cm^3
# Si number density = 21.626642 Si / 1000 Ang^3
#
#
#
# Elastic Constant Matrix: (Units=GPa)
#
#
# Indices 1 2 3 4 5 6 
#
# 1 43.5388 23.2027 4.2489 -0.0006 5.3569 0.0005
# 2 23.2027 138.6607 11.5780 -0.0001 -13.6336 0.0000
# 3 4.2489 11.5780 80.9030 -0.0017 1.5857 0.0012
# 4 -0.0006 -0.0001 -0.0017 23.5987 0.0005 -1.3108
# 5 5.3569 -13.6336 1.5857 0.0005 32.4135 -0.0005
# 6 0.0005 0.0000 0.0012 -1.3108 -0.0005 34.9117
#
#
#
# Elastic Compliance Matrix: (Units=1/GPa)
#
#
# Indices 1 2 3 4 5 6 
#
# 1 0.026494 -0.005023 -0.000546 0.000001 -0.006465 0.000000
# 2 -0.005023 0.008582 -0.001052 0.000000 0.004491 0.000000
# 3 -0.000546 -0.001052 0.012559 0.000001 -0.000967 0.000000
# 4 0.000001 0.000000 0.000001 0.042464 -0.000001 0.001594
# 5 -0.006465 0.004491 -0.000967 -0.000001 0.033856 0.000001
# 6 0.000000 0.000000 0.000000 0.001594 0.000001 0.028704
#
#
# Mechanical properties :
#
#
# Convention : Reuss Voigt Hill
#
# Bulk Modulus (GPa) = 29.07718 37.90687 33.49202
# Shear Modulus (GPa) = 28.19050 33.12297 30.65673
#
# Velocity S-wave (km/s) = 3.61433 3.91779 3.76911
# Velocity P-wave (km/s) = 5.55807 6.16695 5.87041
#
# Compressibility (1/GPa) = 0.03439123
#
# Stress axis : x y z
#
# Youngs Moduli (GPa) = 37.74479 116.52424 79.62607
#
# Poissons Ratio (x) = 0.58534 0.04346
# Poissons Ratio (y) = 0.18961 0.08380
# Poissons Ratio (z) = 0.02060 0.12263
#
# Static dielectric constant tensor:
#      x y z
#    x 1.767870 0.000000 0.012860 
#    y 0.000000 1.880240 0.000000 
#    z 0.012860 0.000000 1.829830 
# 
# From -- ./inp_files/34960.got.cif
#   From: 2010.05.17/outbox.cif.g08.bks.cpg/sg9_18_cif.got.tgz:34960.got - 2010.06.03 20:04:27.
