data_PCOD9138560
_publ_section_title
;
Structure prediction by ZEFSAII (Michael W. Deem and Ramdas Pophale) SiO2 
 PCOD9138560
Probable space group: C C
;
_chemical_formula_sum "Si O2"
_cell_formula_units_Z 32
_cell_length_a 13.751894
_cell_length_b 7.605424
_cell_length_c 23.176677
_cell_angle_alpha 90.000000
_cell_angle_beta 150.443877
_cell_angle_gamma 90.000000
_cell_volume 1195.713084
_symmetry_space_group_name_H-M "C C"
_symmetry_group_IT_number 9
_symmetry_cell_setting 'monoclinic'
loop_
_space_group_symop_operation_xyz
x,y,z
x,-y,1/2+z
1/2+x,1/2+y,z
1/2+x,1/2-y,1/2+z
loop_
_atom_site_type_symbol
_atom_site_label
_atom_site_fract_x
_atom_site_fract_y
_atom_site_fract_z
Si Si1 0.341620 0.597516 0.831550
Si Si2 0.549399 0.988554 0.074417
Si Si3 0.658062 0.705743 0.340851
Si Si4 0.310347 0.621650 0.012865
Si Si5 0.362093 0.554305 0.653338
Si Si6 0.763044 0.514744 0.560207
Si Si7 0.650267 0.776216 0.750942
Si Si8 0.637266 0.395472 0.124427
O O1 0.204943 0.567575 0.705087
O O2 0.240113 0.739801 0.820556
O O3 0.572644 0.593023 0.939006
O O4 0.319162 0.411336 0.853733
O O5 0.543662 0.200048 0.063963
O O6 0.662000 0.897053 0.079461
O O7 0.720460 0.339646 0.232194
O O8 0.831256 0.590775 0.459688
O O9 0.446457 0.619023 0.227523
O O10 0.643435 0.865574 0.378430
O O11 0.310580 0.471222 0.060339
O O12 0.499578 0.561501 0.072363
O O13 0.288492 0.794760 0.042782
O O14 0.565406 0.661010 0.758411
O O15 0.740446 0.541022 0.617982
O O16 0.454579 0.900256 0.642095
#
# Coordination Sequence:
#
# PCOD9138560 Si02
#       8
#     4   4   4   4   4   4   4   4
#     4  11  25  45  71 106 145 197 253 303 378 446
#     4  11  24  45  70 102 149 189 247 310 364 452
#     4  12  24  42  71 102 146 195 243 314 366 441
#     4  11  23  43  71 104 143 188 249 303 362 452
#     4  11  24  42  70 106 139 198 245 299 385 440
#     4  12  22  47  77 102 151 196 238 313 380 433
#     4  10  25  46  70 108 149 186 254 312 362 457
#     4  10  23  44  72 106 146 187 243 306 367 441
#
# _framework density 26.762274000000001
#
# number of rings (size 3 to 8) (size 9 to 14) (size 15 to 20)
#    0.000    1.000    2.500    4.500    1.750    0.000 
#    0.000    1.250    0.000    1.500    0.000    0.000 
#    0.000    0.000    0.000    0.000    0.000    0.000 
#
# Total GULP energy -89232.645015 kJ/mol
# GULP energy per Si atom -5577.040313 kJ/mol
# Density = 2.670136 g / cm^3
# Si number density = 26.762274 Si / 1000 Ang^3
#
#
#
# Elastic Constant Matrix: (Units=GPa)
#
#
# Indices 1 2 3 4 5 6 
#
# 1 157.8851 21.0091 19.2630 0.0000 2.0689 0.0000
# 2 21.0091 78.3473 21.5371 -0.0003 -9.3159 -0.0001
# 3 19.2630 21.5371 103.8521 -0.0003 12.9738 -0.0001
# 4 0.0000 -0.0003 -0.0003 36.7553 -0.0001 0.7257
# 5 2.0689 -9.3159 12.9738 -0.0001 25.9187 -0.0001
# 6 0.0000 -0.0001 -0.0001 0.7257 -0.0001 44.4835
#
#
#
# Elastic Compliance Matrix: (Units=1/GPa)
#
#
# Indices 1 2 3 4 5 6 
#
# 1 0.006661 -0.001652 -0.000803 0.000000 -0.000724 0.000000
# 2 -0.001652 0.015127 -0.003762 0.000000 0.007452 0.000000
# 3 -0.000803 -0.003762 0.011434 0.000000 -0.007011 0.000000
# 4 0.000000 0.000000 0.000000 0.027216 0.000000 -0.000444
# 5 -0.000724 0.007452 -0.007011 0.000000 0.044828 0.000000
# 6 0.000000 0.000000 0.000000 -0.000444 0.000000 0.022488
#
#
# Mechanical properties :
#
#
# Convention : Reuss Voigt Hill
#
# Bulk Modulus (GPa) = 48.10004 51.52255 49.81129
# Shear Modulus (GPa) = 33.98724 39.98316 36.98520
#
# Velocity S-wave (km/s) = 3.56753 3.86944 3.72155
# Velocity P-wave (km/s) = 5.91454 6.26555 6.09257
#
# Compressibility (1/GPa) = 0.02079001
#
# Stress axis : x y z
#
# Youngs Moduli (GPa) = 150.13012 66.10861 87.45900
#
# Poissons Ratio (x) = 0.10918 0.07019
# Poissons Ratio (y) = 0.24795 0.32898
# Poissons Ratio (z) = 0.12049 0.24867
#
# Static dielectric constant tensor:
#      x y z
#    x 2.274870 0.000000 -0.103970 
#    y 0.000000 2.553520 0.000000 
#    z -0.103970 0.000000 2.132790 
# 
# From -- ./inp_files/35542.got.cif
#   From: 2010.05.17/outbox.cif.g08.bks.cpg/sg9_18_cif.got.tgz:35542.got - 2010.06.03 20:04:27.
