data_PCOD9138146
_publ_section_title
;
Structure prediction by ZEFSAII (Michael W. Deem and Ramdas Pophale) SiO2 
 PCOD9138146
Probable space group: C C
;
_chemical_formula_sum "Si O2"
_cell_formula_units_Z 24
_cell_length_a 9.452040
_cell_length_b 22.574570
_cell_length_c 9.244058
_cell_angle_alpha 90.000000
_cell_angle_beta 148.424842
_cell_angle_gamma 90.000000
_cell_volume 1032.811536
_symmetry_space_group_name_H-M "C C"
_symmetry_group_IT_number 9
_symmetry_cell_setting 'monoclinic'
loop_
_space_group_symop_operation_xyz
x,y,z
x,-y,1/2+z
1/2+x,1/2+y,z
1/2+x,1/2-y,1/2+z
loop_
_atom_site_type_symbol
_atom_site_label
_atom_site_fract_x
_atom_site_fract_y
_atom_site_fract_z
Si Si1 0.584040 0.360223 0.152520
Si Si2 0.714001 0.613604 0.452536
Si Si3 0.599514 0.937028 0.078353
Si Si4 0.098642 0.015664 0.552601
Si Si5 0.228161 0.216282 0.276444
Si Si6 0.524146 0.834818 0.774941
O O1 0.513714 0.430834 0.085801
O O2 0.828962 0.352493 0.474905
O O3 0.687909 0.350061 0.078957
O O4 0.321449 0.322467 0.968407
O O5 0.590044 0.550760 0.391758
O O6 0.609934 0.655006 0.233479
O O7 0.001389 0.593575 0.640997
O O8 0.891042 0.963122 0.358884
O O9 0.389139 0.989300 0.849947
O O10 0.581688 0.888026 0.938014
O O11 0.343345 0.209673 0.214327
O O12 0.998932 0.264938 0.094443
#
# Coordination Sequence:
#
# PCOD9138146 Si02
#       6
#     4   4   4   4   4   4
#     4  10  23  39  64  92 139 161 214 271 328 378
#     4   9  26  43  65  99 135 174 227 276 313 405
#     4  11  23  39  62  91 135 179 219 249 324 391
#     4  10  24  35  64  92 132 173 212 258 318 387
#     4  11  25  48  74  95 126 176 229 281 343 395
#     4  11  23  42  65  97 131 171 215 281 326 392
#
# _framework density 23.237542000000001
#
# number of rings (size 3 to 8) (size 9 to 14) (size 15 to 20)
#    1.000    0.667    0.000    3.000    7.000    8.000 
#    0.000    5.000    0.000    0.000    0.000    0.000 
#    0.000    0.000    0.000    0.000    0.000    0.000 
#
# Total GULP energy -66937.536166 kJ/mol
# GULP energy per Si atom -5578.128014 kJ/mol
# Density = 2.318465 g / cm^3
# Si number density = 23.237542 Si / 1000 Ang^3
#
#
#
# Elastic Constant Matrix: (Units=GPa)
#
#
# Indices 1 2 3 4 5 6 
#
# 1 138.7929 18.4376 30.3190 0.0000 2.2777 0.0000
# 2 18.4376 49.6720 8.7721 0.0000 7.8624 0.0000
# 3 30.3190 8.7721 92.4662 0.0000 9.9074 0.0000
# 4 0.0000 0.0000 0.0000 23.9091 0.0000 1.3734
# 5 2.2777 7.8624 9.9074 0.0000 11.7116 0.0000
# 6 0.0000 0.0000 0.0000 1.3734 0.0000 34.0889
#
#
#
# Elastic Compliance Matrix: (Units=1/GPa)
#
#
# Indices 1 2 3 4 5 6 
#
# 1 0.008140 -0.002973 -0.002674 0.000000 0.002674 0.000000
# 2 -0.002973 0.023638 0.000408 0.000000 -0.015636 0.000000
# 3 -0.002674 0.000408 0.012785 0.000000 -0.010569 0.000000
# 4 0.000000 0.000000 0.000000 0.041922 0.000000 -0.001689
# 5 0.002674 -0.015636 -0.010569 0.000000 0.104303 0.000000
# 6 0.000000 0.000000 0.000000 -0.001689 0.000000 0.029403
#
#
# Mechanical properties :
#
#
# Convention : Reuss Voigt Hill
#
# Bulk Modulus (GPa) = 29.33733 43.99873 36.66803
# Shear Modulus (GPa) = 20.65846 28.83543 24.74694
#
# Velocity S-wave (km/s) = 2.98487 3.52646 3.26691
# Velocity P-wave (km/s) = 4.95294 5.96294 5.48125
#
# Compressibility (1/GPa) = 0.03408626
#
# Stress axis : x y z
#
# Youngs Moduli (GPa) = 122.84985 42.30402 78.21541
#
# Poissons Ratio (x) = 0.12575 0.20912
# Poissons Ratio (y) = 0.36518 -0.03187
# Poissons Ratio (z) = 0.32845 -0.01724
#
# Static dielectric constant tensor:
#      x y z
#    x 1.918570 0.000000 -0.015470 
#    y 0.000000 1.872720 0.000000 
#    z -0.015470 0.000000 1.803050 
# 
# From -- ./inp_files/6535.got.cif
#   From: 2010.05.17/outbox.cif.g08.bks.cpg/sg9_4_cif.got.tgz:6535.got - 2010.06.03 20:04:27.
