data_PCOD9138996
_publ_section_title
;
Structure prediction by ZEFSAII (Michael W. Deem and Ramdas Pophale) SiO2 
 PCOD9138996
Probable space group: C C
;
_chemical_formula_sum "Si O2"
_cell_formula_units_Z 32
_cell_length_a 16.490420
_cell_length_b 11.090556
_cell_length_c 12.320430
_cell_angle_alpha 90.000000
_cell_angle_beta 138.099593
_cell_angle_gamma 90.000000
_cell_volume 1504.810892
_symmetry_space_group_name_H-M "C C"
_symmetry_group_IT_number 9
_symmetry_cell_setting 'monoclinic'
loop_
_space_group_symop_operation_xyz
x,y,z
x,-y,1/2+z
1/2+x,1/2+y,z
1/2+x,1/2-y,1/2+z
loop_
_atom_site_type_symbol
_atom_site_label
_atom_site_fract_x
_atom_site_fract_y
_atom_site_fract_z
Si Si1 0.257110 0.653372 0.013180
Si Si2 0.632834 0.017532 0.058954
Si Si3 0.739218 0.221102 0.323091
Si Si4 0.896917 0.604904 0.295695
Si Si5 0.227625 0.888264 0.112576
Si Si6 0.315678 0.346648 0.322222
Si Si7 0.972786 0.006630 0.342625
Si Si8 0.491374 0.280862 0.206010
O O1 0.142051 0.586483 0.953309
O O2 0.255360 0.792166 0.046557
O O3 0.367760 0.586408 0.183794
O O4 0.270233 0.641066 0.898751
O O5 0.695857 0.105728 0.208932
O O6 0.710750 0.894604 0.137214
O O7 0.497520 0.979902 0.950978
O O8 0.766549 0.326459 0.263734
O O9 0.618801 0.254878 0.272515
O O10 0.866281 0.200332 0.512281
O O11 0.789714 0.516114 0.155402
O O12 0.851506 0.711399 0.328172
O O13 0.958651 0.671276 0.254917
O O14 0.084582 0.908564 0.978330
O O15 0.425969 0.436342 0.402685
O O16 0.006569 0.901345 0.292331
#
# Coordination Sequence:
#
# PCOD9138996 Si02
#       8
#     4   4   4   4   4   4   4   4
#     4  10  24  43  69  95 133 176 222 272 350 397
#     4  10  24  43  70  97 137 174 224 283 335 414
#     4  11  25  43  73 102 137 182 231 280 348 408
#     4  11  26  43  66  98 137 171 231 281 335 406
#     4  11  26  43  66  98 137 171 231 281 335 406
#     4  10  24  43  69  95 133 176 222 272 350 397
#     4  10  24  43  70  97 137 174 224 283 335 414
#     4  11  25  43  73 102 137 182 231 280 348 408
#
# _framework density 21.265132000000001
#
# number of rings (size 3 to 8) (size 9 to 14) (size 15 to 20)
#    0.000    1.500    0.000    2.250   21.000    4.000 
#    0.000    0.000    0.000    0.000    0.000    0.000 
#    0.000    0.000    0.000    0.000    0.000    0.000 
#
# Total GULP energy -89430.347117 kJ/mol
# GULP energy per Si atom -5589.396695 kJ/mol
# Density = 2.121673 g / cm^3
# Si number density = 21.265132 Si / 1000 Ang^3
#
#
#
# Elastic Constant Matrix: (Units=GPa)
#
#
# Indices 1 2 3 4 5 6 
#
# 1 101.2570 39.2684 20.6133 0.0000 -14.5154 0.0000
# 2 39.2684 107.8494 19.1052 0.0000 -5.4295 0.0000
# 3 20.6133 19.1052 60.8592 0.0000 -2.0608 0.0000
# 4 0.0000 0.0000 0.0000 27.9901 0.0000 61.4813
# 5 -14.5154 -5.4295 -2.0608 0.0000 34.5108 0.0000
# 6 0.0000 0.0000 0.0000 61.4813 0.0000 389.6579
#
#
#
# Elastic Compliance Matrix: (Units=1/GPa)
#
#
# Indices 1 2 3 4 5 6 
#
# 1 0.012609 -0.003848 -0.002910 0.000000 0.004524 0.000000
# 2 -0.003848 0.011057 -0.002168 0.000000 -0.000008 0.000000
# 3 -0.002910 -0.002168 0.018081 0.000000 -0.000485 0.000000
# 4 0.000000 0.000000 0.000000 0.054677 0.000000 -0.008627
# 5 0.004524 -0.000008 -0.000485 0.000000 0.030849 0.000000
# 6 0.000000 0.000000 0.000000 -0.008627 0.000000 0.003928
#
#
# Mechanical properties :
#
#
# Convention : Reuss Voigt Hill
#
# Bulk Modulus (GPa) = 41.84801 47.54881 44.69841
# Shear Modulus (GPa) = 31.84387 103.16366 67.50376
#
# Velocity S-wave (km/s) = 3.87391 6.97269 5.64028
# Velocity P-wave (km/s) = 6.30329 9.33986 7.96758
#
# Compressibility (1/GPa) = 0.02389600
#
# Stress axis : x y z
#
# Youngs Moduli (GPa) = 79.30877 90.44189 55.30658
#
# Poissons Ratio (x) = 0.34800 0.16092
# Poissons Ratio (y) = 0.30516 0.11991
# Poissons Ratio (z) = 0.23076 0.19608
#
# Static dielectric constant tensor:
#      x y z
#    x 1.785490 0.000000 0.010430 
#    y 0.000000 1.687420 0.000000 
#    z 0.010430 0.000000 1.764800 
# 
# From -- ./inp_files/18285.got.cif
#   From: 2010.05.17/outbox.cif.g08.bks.cpg/sg9_10_cif.got.tgz:18285.got - 2010.06.03 20:04:27.
