data_PCOD9138155
_publ_section_title
;
Structure prediction by ZEFSAII (Michael W. Deem and Ramdas Pophale) SiO2 
 PCOD9138155
Probable space group: C C
;
_chemical_formula_sum "Si O2"
_cell_formula_units_Z 24
_cell_length_a 13.008266
_cell_length_b 15.519489
_cell_length_c 4.876451
_cell_angle_alpha 90.000000
_cell_angle_beta 84.312817
_cell_angle_gamma 90.000000
_cell_volume 979.620156
_symmetry_space_group_name_H-M "C C"
_symmetry_group_IT_number 9
_symmetry_cell_setting 'monoclinic'
loop_
_space_group_symop_operation_xyz
x,y,z
x,-y,1/2+z
1/2+x,1/2+y,z
1/2+x,1/2-y,1/2+z
loop_
_atom_site_type_symbol
_atom_site_label
_atom_site_fract_x
_atom_site_fract_y
_atom_site_fract_z
Si Si1 0.359580 0.156142 0.463850
Si Si2 0.875588 0.064472 0.222710
Si Si3 0.037222 0.826605 0.346332
Si Si4 0.987819 0.683288 0.960291
Si Si5 0.179377 0.042453 0.507067
Si Si6 0.200250 0.699002 0.142071
O O1 0.444501 0.180717 0.668290
O O2 0.287574 0.079137 0.579533
O O3 0.276888 0.234292 0.469472
O O4 0.415048 0.126129 0.172454
O O5 0.771189 0.122178 0.232964
O O6 0.879749 0.016468 0.511430
O O7 0.966172 0.129706 0.094957
O O8 0.133186 0.759200 0.373442
O O9 0.089396 0.902143 0.160797
O O10 0.972355 0.772664 0.135542
O O11 0.108542 0.664712 0.969718
O O12 0.171142 0.955001 0.683688
#
# Coordination Sequence:
#
# PCOD9138155 Si02
#       6
#     4   4   4   4   4   4
#     4  11  22  42  66  96 130 177 234 272 330 410
#     4  12  26  43  67 103 142 173 221 296 358 394
#     4   9  22  44  70  98 129 183 226 277 332 425
#     4  10  23  39  70  94 125 168 242 268 320 402
#     4  11  23  41  64  99 136 169 217 286 350 397
#     4   9  22  45  65  98 130 186 226 275 332 424
#
# _framework density 24.499289999999998
#
# number of rings (size 3 to 8) (size 9 to 14) (size 15 to 20)
#    1.000    0.667    1.667    2.000    2.333    4.000 
#    0.000    5.000    0.000    0.000    0.000    0.000 
#    0.000    0.000    0.000    0.000    0.000    0.000 
#
# Total GULP energy -66955.759689 kJ/mol
# GULP energy per Si atom -5579.646641 kJ/mol
# Density = 2.444353 g / cm^3
# Si number density = 24.499290 Si / 1000 Ang^3
#
#
#
# Elastic Constant Matrix: (Units=GPa)
#
#
# Indices 1 2 3 4 5 6 
#
# 1 156.4573 34.3140 40.4290 0.0000 -22.6242 0.0000
# 2 34.3140 59.8622 5.0587 0.0000 -4.5829 0.0000
# 3 40.4290 5.0587 96.5542 0.0000 3.6403 0.0000
# 4 0.0000 0.0000 0.0000 26.6738 0.0000 -8.0699
# 5 -22.6242 -4.5829 3.6403 0.0000 34.9769 0.0000
# 6 0.0000 0.0000 0.0000 -8.0699 0.0000 41.4649
#
#
#
# Elastic Compliance Matrix: (Units=1/GPa)
#
#
# Indices 1 2 3 4 5 6 
#
# 1 0.009205 -0.004511 -0.003835 0.000000 0.005762 0.000000
# 2 -0.004511 0.019176 0.000903 0.000000 -0.000499 0.000000
# 3 -0.003835 0.000903 0.012052 0.000000 -0.003617 0.000000
# 4 0.000000 0.000000 0.000000 0.039835 0.000000 0.007753
# 5 0.005762 -0.000499 -0.003617 0.000000 0.032629 0.000000
# 6 0.000000 0.000000 0.000000 0.007753 0.000000 0.025626
#
#
# Mechanical properties :
#
#
# Convention : Reuss Voigt Hill
#
# Bulk Modulus (GPa) = 39.14432 52.49744 45.82088
# Shear Modulus (GPa) = 30.87837 36.16127 33.51982
#
# Velocity S-wave (km/s) = 3.55403 3.84606 3.70293
# Velocity P-wave (km/s) = 5.73184 6.41853 6.08488
#
# Compressibility (1/GPa) = 0.02554649
#
# Stress axis : x y z
#
# Youngs Moduli (GPa) = 108.63381 52.14725 82.97502
#
# Poissons Ratio (x) = 0.23525 0.31823
# Poissons Ratio (y) = 0.49009 -0.07494
# Poissons Ratio (z) = 0.41664 -0.04710
#
# Static dielectric constant tensor:
#      x y z
#    x 1.984920 0.000000 -0.023530 
#    y 0.000000 2.105060 0.000000 
#    z -0.023530 0.000000 1.905970 
# 
# From -- ./inp_files/1619.got.cif
#   From: 2010.05.17/outbox.cif.g08.bks.cpg/sg9_1_cif.got.tgz:1619.got - 2010.06.03 20:04:27.
