data_PCOD9138064
_publ_section_title
;
Structure prediction by ZEFSAII (Michael W. Deem and Ramdas Pophale) SiO2 
 PCOD9138064
Probable space group: C C
;
_chemical_formula_sum "Si O2"
_cell_formula_units_Z 24
_cell_length_a 6.817228
_cell_length_b 17.165423
_cell_length_c 9.283492
_cell_angle_alpha 90.000000
_cell_angle_beta 111.532054
_cell_angle_gamma 90.000000
_cell_volume 1010.545363
_symmetry_space_group_name_H-M "C C"
_symmetry_group_IT_number 9
_symmetry_cell_setting 'monoclinic'
loop_
_space_group_symop_operation_xyz
x,y,z
x,-y,1/2+z
1/2+x,1/2+y,z
1/2+x,1/2-y,1/2+z
loop_
_atom_site_type_symbol
_atom_site_label
_atom_site_fract_x
_atom_site_fract_y
_atom_site_fract_z
Si Si1 0.191300 0.898345 0.791580
Si Si2 0.398895 0.210180 0.157516
Si Si3 0.864830 0.755374 0.691852
Si Si4 0.939233 0.191989 0.923674
Si Si5 0.548548 0.098213 0.875199
Si Si6 0.337548 0.994439 0.582871
O O1 0.398882 0.855886 0.780998
O O2 0.017110 0.830208 0.758894
O O3 0.168190 0.958467 0.650633
O O4 0.225483 0.944458 0.946407
O O5 0.367771 0.288011 0.244121
O O6 0.460057 0.062872 0.002262
O O7 0.192594 0.192154 0.006727
O O8 0.882741 0.741907 0.526085
O O9 0.625179 0.779737 0.651607
O O10 0.933835 0.679547 0.798409
O O11 0.794919 0.120385 0.935953
O O12 0.496819 0.037818 0.733796
#
# Coordination Sequence:
#
# PCOD9138064 Si02
#       6
#     4   4   4   4   4   4
#     4  10  22  47  73 109 158 196 261 308 392 457
#     4  11  25  41  73 111 147 188 256 314 377 435
#     4  11  25  42  79 114 145 200 263 323 369 458
#     4  11  23  43  69 111 149 190 249 318 373 447
#     4  11  23  46  80 111 160 202 261 315 386 465
#     4  10  24  45  78 114 159 206 244 322 395 458
#
# _framework density 23.749552999999999
#
# number of rings (size 3 to 8) (size 9 to 14) (size 15 to 20)
#    0.000    1.333    3.333    2.000    7.000    0.000 
#    0.000   15.000    0.000    0.000    0.000    0.000 
#    0.000    0.000    0.000    0.000    0.000    0.000 
#
# Total GULP energy -66939.806940 kJ/mol
# GULP energy per Si atom -5578.317245 kJ/mol
# Density = 2.369550 g / cm^3
# Si number density = 23.749553 Si / 1000 Ang^3
#
#
#
# Elastic Constant Matrix: (Units=GPa)
#
#
# Indices 1 2 3 4 5 6 
#
# 1 162.8324 55.5515 70.7908 0.0000 11.3580 0.0000
# 2 55.5515 110.3048 61.0746 0.0000 7.6972 0.0000
# 3 70.7908 61.0746 149.8780 0.0000 1.8384 0.0000
# 4 0.0000 0.0000 0.0000 55.9777 0.0000 4.3959
# 5 11.3580 7.6972 1.8384 0.0000 48.9910 0.0000
# 6 0.0000 0.0000 0.0000 4.3959 0.0000 34.7451
#
#
#
# Elastic Compliance Matrix: (Units=1/GPa)
#
#
# Indices 1 2 3 4 5 6 
#
# 1 0.008360 -0.002497 -0.002914 0.000000 -0.001437 0.000000
# 2 -0.002497 0.012590 -0.003936 0.000000 -0.001251 0.000000
# 3 -0.002914 -0.003936 0.009641 0.000000 0.000932 0.000000
# 4 0.000000 0.000000 0.000000 0.018044 0.000000 -0.002283
# 5 -0.001437 -0.001251 0.000932 0.000000 0.020907 0.000000
# 6 0.000000 0.000000 0.000000 -0.002283 0.000000 0.029070
#
#
# Mechanical properties :
#
#
# Convention : Reuss Voigt Hill
#
# Bulk Modulus (GPa) = 84.04569 88.64990 86.34780
# Shear Modulus (GPa) = 41.23101 43.64932 42.44016
#
# Velocity S-wave (km/s) = 4.17114 4.29173 4.23186
# Velocity P-wave (km/s) = 7.65918 7.87188 7.76626
#
# Compressibility (1/GPa) = 0.01189829
#
# Stress axis : x y z
#
# Youngs Moduli (GPa) = 119.61821 79.43048 103.72884
#
# Poissons Ratio (x) = 0.19832 0.30222
# Poissons Ratio (y) = 0.29866 0.40823
# Poissons Ratio (z) = 0.34851 0.31260
#
# Static dielectric constant tensor:
#      x y z
#    x 1.901960 0.000000 -0.015090 
#    y 0.000000 2.058650 0.000000 
#    z -0.015090 0.000000 2.024900 
# 
# From -- ./inp_files/16749.got.cif
#   From: 2010.05.17/outbox.cif.g08.bks.cpg/sg9_9_cif.got.tgz:16749.got - 2010.06.03 20:04:27.
