data_PCOD9138054
_publ_section_title
;
Structure prediction by ZEFSAII (Michael W. Deem and Ramdas Pophale) SiO2 
 PCOD9138054
Probable space group: C C
;
_chemical_formula_sum "Si O2"
_cell_formula_units_Z 28
_cell_length_a 9.550630
_cell_length_b 10.313759
_cell_length_c 11.690199
_cell_angle_alpha 90.000000
_cell_angle_beta 79.896791
_cell_angle_gamma 90.000000
_cell_volume 1133.662272
_symmetry_space_group_name_H-M "C C"
_symmetry_group_IT_number 9
_symmetry_cell_setting 'monoclinic'
loop_
_space_group_symop_operation_xyz
x,y,z
x,-y,1/2+z
1/2+x,1/2+y,z
1/2+x,1/2-y,1/2+z
loop_
_atom_site_type_symbol
_atom_site_label
_atom_site_fract_x
_atom_site_fract_y
_atom_site_fract_z
Si Si1 0.949550 0.209878 0.187340
Si Si2 0.263558 0.580739 0.406533
Si Si3 0.443056 0.274238 0.066943
Si Si4 0.803812 0.389137 0.782185
Si Si5 0.117546 0.332479 0.355352
Si Si6 0.162186 0.965824 0.135652
Si Si7 0.437913 0.883634 0.984584
O O1 0.824952 0.162470 0.290486
O O2 0.034942 0.321766 0.246941
O O3 0.057360 0.089929 0.150918
O O4 0.900740 0.261235 0.071357
O O5 0.368538 0.618782 0.495663
O O6 0.241438 0.436161 0.357952
O O7 0.106602 0.605437 0.479983
O O8 0.339772 0.202322 0.169417
O O9 0.564736 0.343941 0.123112
O O10 0.507016 0.163324 0.975084
O O11 0.681143 0.310673 0.863208
O O12 0.740814 0.523705 0.747417
O O13 0.935206 0.387655 0.847469
O O14 0.297935 0.969941 0.032747
#
# Coordination Sequence:
#
# PCOD9138054 Si02
#       7
#     4   4   4   4   4   4   4
#     4  10  26  48  72 110 152 190 245 306 367 443
#     4  11  25  46  78 111 144 195 244 307 370 437
#     4  11  24  46  73 105 147 189 240 303 363 442
#     4  11  25  45  68 106 144 184 241 302 360 437
#     4  10  22  47  71 104 143 183 248 302 358 441
#     4  11  25  47  72 102 150 193 237 298 365 430
#     4  12  27  45  76 110 144 196 249 302 371 436
#
# _framework density 24.698713000000001
#
# number of rings (size 3 to 8) (size 9 to 14) (size 15 to 20)
#    0.000    1.143    1.429    3.429    6.000    2.286 
#    2.571    0.000    0.000    0.000    0.000    0.000 
#    0.000    0.000    0.000    0.000    0.000    0.000 
#
# Total GULP energy -78097.617287 kJ/mol
# GULP energy per Si atom -5578.401235 kJ/mol
# Density = 2.464250 g / cm^3
# Si number density = 24.698713 Si / 1000 Ang^3
#
#
#
# Elastic Constant Matrix: (Units=GPa)
#
#
# Indices 1 2 3 4 5 6 
#
# 1 130.0485 45.4163 35.4290 0.0000 -5.4741 0.0000
# 2 45.4163 67.7542 38.6891 0.0000 6.8306 0.0000
# 3 35.4290 38.6891 93.2095 0.0000 1.8300 0.0000
# 4 0.0000 0.0000 0.0000 31.9678 0.0000 8.2087
# 5 -5.4741 6.8306 1.8300 0.0000 56.3142 0.0000
# 6 0.0000 0.0000 0.0000 8.2087 0.0000 47.1095
#
#
#
# Elastic Compliance Matrix: (Units=1/GPa)
#
#
# Indices 1 2 3 4 5 6 
#
# 1 0.010350 -0.006363 -0.001329 0.000000 0.001821 0.000000
# 2 -0.006363 0.023504 -0.007274 0.000000 -0.003233 0.000000
# 3 -0.001329 -0.007274 0.014247 0.000000 0.000290 0.000000
# 4 0.000000 0.000000 0.000000 0.032747 0.000000 -0.005706
# 5 0.001821 -0.003233 0.000290 0.000000 0.018317 0.000000
# 6 0.000000 0.000000 0.000000 -0.005706 0.000000 0.022221
#
#
# Mechanical properties :
#
#
# Convention : Reuss Voigt Hill
#
# Bulk Modulus (GPa) = 55.03526 58.89789 56.96658
# Shear Modulus (GPa) = 31.77156 38.51017 35.14087
#
# Velocity S-wave (km/s) = 3.59048 3.95295 3.77607
# Velocity P-wave (km/s) = 6.28648 6.68825 6.49047
#
# Compressibility (1/GPa) = 0.01817017
#
# Stress axis : x y z
#
# Youngs Moduli (GPa) = 96.61770 42.54673 70.18934
#
# Poissons Ratio (x) = 0.27070 0.09327
# Poissons Ratio (y) = 0.61473 0.51055
# Poissons Ratio (z) = 0.12839 0.30948
#
# Static dielectric constant tensor:
#      x y z
#    x 1.936900 0.000000 0.053570 
#    y 0.000000 2.025620 0.000000 
#    z 0.053570 0.000000 2.023770 
# 
# From -- ./inp_files/14233.got.cif
#   From: 2010.05.17/outbox.cif.g08.bks.cpg/sg9_8_cif.got.tgz:14233.got - 2010.06.03 20:04:27.
