data_PCOD9138808
_publ_section_title
;
Structure prediction by ZEFSAII (Michael W. Deem and Ramdas Pophale) SiO2 
 PCOD9138808
Probable space group: C C
;
_chemical_formula_sum "Si O2"
_cell_formula_units_Z 24
_cell_length_a 5.090337
_cell_length_b 13.555218
_cell_length_c 12.216579
_cell_angle_alpha 90.000000
_cell_angle_beta 98.591823
_cell_angle_gamma 90.000000
_cell_volume 833.491774
_symmetry_space_group_name_H-M "C C"
_symmetry_group_IT_number 9
_symmetry_cell_setting 'monoclinic'
loop_
_space_group_symop_operation_xyz
x,y,z
x,-y,1/2+z
1/2+x,1/2+y,z
1/2+x,1/2-y,1/2+z
loop_
_atom_site_type_symbol
_atom_site_label
_atom_site_fract_x
_atom_site_fract_y
_atom_site_fract_z
Si Si1 0.351160 0.515735 0.250000
Si Si2 0.682003 0.342077 0.244584
Si Si3 0.044536 0.649913 0.362025
Si Si4 0.430340 0.306563 0.607013
Si Si5 0.591349 0.573444 0.470369
Si Si6 0.374587 0.113147 0.988319
O O1 0.462934 0.422236 0.189911
O O2 0.070679 0.559006 0.275147
O O3 0.481702 0.614615 0.208050
O O4 0.482581 0.491408 0.375164
O O5 0.539713 0.247300 0.288560
O O6 0.851156 0.298168 0.154734
O O7 0.869863 0.374906 0.356193
O O8 0.311013 0.632216 0.452918
O O9 0.164760 0.815520 0.535494
O O10 0.292244 0.146694 0.422675
O O11 0.167522 0.355920 0.540669
O O12 0.801579 0.494993 0.534638
#
# Coordination Sequence:
#
# PCOD9138808 Si02
#       6
#     4   4   4   4   4   4
#     4   8  21  41  67  94 130 188 219 291 359 415
#     4  10  23  47  73 101 148 187 237 303 368 416
#     4   9  19  38  67  96 124 181 229 282 344 437
#     4  11  25  45  68 107 146 180 256 295 347 447
#     4   9  19  40  66  88 131 181 221 274 370 402
#     4  11  25  45  69 102 143 193 234 303 360 427
#
# _framework density 28.794526000000001
#
# number of rings (size 3 to 8) (size 9 to 14) (size 15 to 20)
#    1.000    1.333    0.000    1.000    4.667    2.667 
#   15.000    0.000    0.000    0.000    0.000    0.000 
#    0.000    0.000    0.000    0.000    0.000    0.000 
#
# Total GULP energy -66909.584739 kJ/mol
# GULP energy per Si atom -5575.798728 kJ/mol
# Density = 2.872899 g / cm^3
# Si number density = 28.794526 Si / 1000 Ang^3
#
#
#
# Elastic Constant Matrix: (Units=GPa)
#
#
# Indices 1 2 3 4 5 6 
#
# 1 126.1450 27.0531 29.8729 0.0000 18.2855 0.0000
# 2 27.0531 161.5360 19.6798 0.0000 -8.4922 0.0000
# 3 29.8729 19.6798 100.8477 0.0000 -6.0656 0.0000
# 4 0.0000 0.0000 0.0000 21.6021 0.0000 -29.6451
# 5 18.2855 -8.4922 -6.0656 0.0000 37.6565 0.0000
# 6 0.0000 0.0000 0.0000 -29.6451 0.0000 53.4994
#
#
#
# Elastic Compliance Matrix: (Units=1/GPa)
#
#
# Indices 1 2 3 4 5 6 
#
# 1 0.009763 -0.001572 -0.002920 0.000000 -0.005565 0.000000
# 2 -0.001572 0.006653 -0.000703 0.000000 0.002150 0.000000
# 3 -0.002920 -0.000703 0.011101 0.000000 0.003047 0.000000
# 4 0.000000 0.000000 0.000000 0.193231 0.000000 0.107073
# 5 -0.005565 0.002150 0.003047 0.000000 0.030234 0.000000
# 6 0.000000 0.000000 0.000000 0.107073 0.000000 0.078023
#
#
# Mechanical properties :
#
#
# Convention : Reuss Voigt Hill
#
# Bulk Modulus (GPa) = 58.38862 60.19336 59.29099
# Shear Modulus (GPa) = 14.48840 43.34645 28.91742
#
# Velocity S-wave (km/s) = 2.24557 3.88412 3.17246
# Velocity P-wave (km/s) = 5.20049 6.40820 5.83567
#
# Compressibility (1/GPa) = 0.01712662
#
# Stress axis : x y z
#
# Youngs Moduli (GPa) = 102.43065 150.31863 90.07869
#
# Poissons Ratio (x) = 0.23628 0.26302
# Poissons Ratio (y) = 0.16101 0.06335
# Poissons Ratio (z) = 0.29909 0.10571
#
# Static dielectric constant tensor:
#      x y z
#    x 2.228650 0.000000 0.004900 
#    y 0.000000 2.350040 0.000000 
#    z 0.004900 0.000000 2.458180 
# 
# From -- ./inp_files/22411.got.cif
#   From: 2010.05.17/outbox.cif.g08.bks.cpg/sg9_12_cif.got.tgz:22411.got - 2010.06.03 20:04:27.
