data_PCOD9138824
_publ_section_title
;
Structure prediction by ZEFSAII (Michael W. Deem and Ramdas Pophale) SiO2 
 PCOD9138824
Probable space group: C C
;
_chemical_formula_sum "Si O2"
_cell_formula_units_Z 28
_cell_length_a 17.417064
_cell_length_b 5.618110
_cell_length_c 14.837503
_cell_angle_alpha 90.000000
_cell_angle_beta 50.118816
_cell_angle_gamma 90.000000
_cell_volume 1114.125422
_symmetry_space_group_name_H-M "C C"
_symmetry_group_IT_number 9
_symmetry_cell_setting 'monoclinic'
loop_
_space_group_symop_operation_xyz
x,y,z
x,-y,1/2+z
1/2+x,1/2+y,z
1/2+x,1/2-y,1/2+z
loop_
_atom_site_type_symbol
_atom_site_label
_atom_site_fract_x
_atom_site_fract_y
_atom_site_fract_z
Si Si1 0.824320 0.172814 0.059170
Si Si2 0.458980 0.984606 0.553244
Si Si3 0.817809 0.945436 0.759952
Si Si4 0.504901 0.149246 0.681179
Si Si5 0.011692 0.882481 0.866174
Si Si6 0.133154 0.893506 0.408924
Si Si7 0.184120 0.695150 0.001820
O O1 0.807789 0.005427 0.159939
O O2 0.864221 0.410830 0.075375
O O3 0.737179 0.236640 0.056725
O O4 0.916600 0.057970 0.933400
O O5 0.445749 0.942183 0.669313
O O6 0.543798 0.195581 0.483619
O O7 0.496133 0.769353 0.468001
O O8 0.929289 0.863651 0.704215
O O9 0.740934 0.725412 0.831830
O O10 0.766752 0.132242 0.864573
O O11 0.512539 0.210638 0.780319
O O12 0.614939 0.035650 0.576255
O O13 0.112845 0.012041 0.822112
O O14 0.129572 0.078894 0.496074
#
# Coordination Sequence:
#
# PCOD9138824 Si02
#       7
#     4   4   4   4   4   4   4
#     4  10  26  44  75 102 142 190 246 302 373 433
#     4  10  23  48  64 104 143 187 244 300 363 446
#     4  11  25  49  68 109 145 190 247 306 365 453
#     4  11  24  45  73  98 149 189 242 306 360 442
#     4  11  23  48  72 105 142 194 244 306 369 442
#     4  11  24  44  70 101 150 189 243 300 363 442
#     4  12  25  46  70 111 143 197 246 304 373 440
#
# _framework density 25.131820000000001
#
# number of rings (size 3 to 8) (size 9 to 14) (size 15 to 20)
#    0.000    1.143    4.286    0.000    6.000    3.429 
#    5.143    0.000    0.000    0.000    0.000    0.000 
#    0.000    0.000    0.000    0.000    0.000    0.000 
#
# Total GULP energy -77942.508741 kJ/mol
# GULP energy per Si atom -5567.322053 kJ/mol
# Density = 2.507462 g / cm^3
# Si number density = 25.131820 Si / 1000 Ang^3
#
#
#
# Elastic Constant Matrix: (Units=GPa)
#
#
# Indices 1 2 3 4 5 6 
#
# 1 185.1576 34.0230 51.7569 0.0008 33.3474 -0.0022
# 2 34.0230 57.8521 23.1052 0.0056 -5.5048 -0.0010
# 3 51.7569 23.1052 99.3731 0.0024 1.0156 -0.0002
# 4 0.0008 0.0056 0.0024 23.2511 0.0000 -22.9249
# 5 33.3474 -5.5048 1.0156 0.0000 58.1099 0.0010
# 6 -0.0022 -0.0010 -0.0002 -22.9249 0.0010 13.8263
#
#
#
# Elastic Compliance Matrix: (Units=1/GPa)
#
#
# Indices 1 2 3 4 5 6 
#
# 1 0.007849 -0.003815 -0.003152 -0.000004 -0.004811 -0.000005
# 2 -0.003815 0.021117 -0.002966 0.000006 0.004242 0.000011
# 3 -0.003152 -0.002966 0.012381 0.000002 0.001311 0.000002
# 4 -0.000004 0.000006 0.000002 -0.067751 0.000005 -0.112336
# 5 -0.004811 0.004242 0.001311 0.000005 0.020348 0.000006
# 6 -0.000005 0.000011 0.000002 -0.112336 0.000006 -0.113934
#
#
# Mechanical properties :
#
#
# Convention : Reuss Voigt Hill
#
# Bulk Modulus (GPa) = 46.55279 62.23921 54.39600
# Shear Modulus (GPa) = -53.78547 34.60398 -9.59074
#
# Velocity S-wave (km/s) = -4.63118 3.71468 -1.95562
# Velocity P-wave (km/s) = 3.16756 6.57399 4.07333
#
# Compressibility (1/GPa) = 0.02148099
#
# Stress axis : x y z
#
# Youngs Moduli (GPa) = 127.39904 47.35420 80.76868
#
# Poissons Ratio (x) = 0.18066 0.25458
# Poissons Ratio (y) = 0.48604 0.23958
# Poissons Ratio (z) = 0.40156 0.14047
#
# Static dielectric constant tensor:
#      x y z
#    x 2.003050 0.000000 0.015860 
#    y 0.000000 2.120800 0.000000 
#    z 0.015860 0.000000 2.166770 
# 
# From -- ./inp_files/26316.got.cif
#   From: 2010.05.17/outbox.cif.g08.bks.cpg/sg9_14_cif.got.tgz:26316.got - 2010.06.03 20:04:27.
