data_PCOD9138747
_publ_section_title
;
Structure prediction by ZEFSAII (Michael W. Deem and Ramdas Pophale) SiO2 
 PCOD9138747
Probable space group: C C
;
_chemical_formula_sum "Si O2"
_cell_formula_units_Z 28
_cell_length_a 17.670500
_cell_length_b 10.893859
_cell_length_c 11.447463
_cell_angle_alpha 90.000000
_cell_angle_beta 145.919394
_cell_angle_gamma 90.000000
_cell_volume 1234.826482
_symmetry_space_group_name_H-M "C C"
_symmetry_group_IT_number 9
_symmetry_cell_setting 'monoclinic'
loop_
_space_group_symop_operation_xyz
x,y,z
x,-y,1/2+z
1/2+x,1/2+y,z
1/2+x,1/2-y,1/2+z
loop_
_atom_site_type_symbol
_atom_site_label
_atom_site_fract_x
_atom_site_fract_y
_atom_site_fract_z
Si Si1 0.502410 0.434189 0.366940
Si Si2 0.089991 0.786287 0.271703
Si Si3 0.993110 0.523485 0.248100
Si Si4 0.370063 0.814343 0.756527
Si Si5 0.639847 0.770756 0.410077
Si Si6 0.431071 0.318811 0.832101
Si Si7 0.237095 0.887760 0.817169
O O1 0.530014 0.403319 0.267442
O O2 0.463373 0.302381 0.364570
O O3 0.398990 0.538221 0.268383
O O4 0.635379 0.469033 0.609684
O O5 0.041549 0.653136 0.256950
O O6 0.248594 0.796774 0.506650
O O7 0.028982 0.793774 0.065344
O O8 0.097903 0.414586 0.354405
O O9 0.954964 0.563429 0.332824
O O10 0.851609 0.471844 0.019400
O O11 0.308378 0.811015 0.805914
O O12 0.515707 0.716069 0.324860
O O13 0.665093 0.698394 0.321054
O O14 0.786021 0.755290 0.658641
#
# Coordination Sequence:
#
# PCOD9138747 Si02
#       7
#     4   4   4   4   4   4   4
#     4  10  24  42  70  99 139 187 237 304 361 448
#     4  10  25  45  72 105 142 195 246 300 379 435
#     4  11  24  46  73 106 148 192 251 310 368 455
#     4  10  23  46  72 105 140 194 245 300 382 434
#     4  12  28  47  68 111 145 195 246 305 380 430
#     4  12  28  45  71 105 148 188 246 309 365 446
#     4  11  24  43  72 103 144 189 245 300 371 438
#
# _framework density 22.675249000000001
#
# number of rings (size 3 to 8) (size 9 to 14) (size 15 to 20)
#    0.000    1.143    1.429    2.571   14.000    0.000 
#    2.571    0.000    0.000    0.000    0.000    0.000 
#    0.000    0.000    0.000    0.000    0.000    0.000 
#
# Total GULP energy -78119.518540 kJ/mol
# GULP energy per Si atom -5579.965610 kJ/mol
# Density = 2.262364 g / cm^3
# Si number density = 22.675249 Si / 1000 Ang^3
#
#
#
# Elastic Constant Matrix: (Units=GPa)
#
#
# Indices 1 2 3 4 5 6 
#
# 1 91.0568 29.5201 36.2650 0.0000 -1.6150 0.0000
# 2 29.5201 85.7492 26.4781 0.0000 -5.5335 0.0000
# 3 36.2650 26.4781 62.5604 0.0000 -5.9916 0.0000
# 4 0.0000 0.0000 0.0000 21.7809 0.0000 18.4343
# 5 -1.6150 -5.5335 -5.9916 0.0000 27.4442 0.0000
# 6 0.0000 0.0000 0.0000 18.4343 0.0000 11.0572
#
#
#
# Elastic Compliance Matrix: (Units=1/GPa)
#
#
# Indices 1 2 3 4 5 6 
#
# 1 0.014899 -0.002887 -0.007544 0.000000 -0.001352 0.000000
# 2 -0.002887 0.014035 -0.004098 0.000000 0.001765 0.000000
# 3 -0.007544 -0.004098 0.022440 0.000000 0.003629 0.000000
# 4 0.000000 0.000000 0.000000 -0.111704 0.000000 0.186230
# 5 -0.001352 0.001765 0.003629 0.000000 0.037506 0.000000
# 6 0.000000 0.000000 0.000000 0.186230 0.000000 -0.220039
#
#
# Mechanical properties :
#
#
# Convention : Reuss Voigt Hill
#
# Bulk Modulus (GPa) = 44.81094 47.09918 45.95506
# Shear Modulus (GPa) = -24.22863 21.86334 -1.18264
#
# Velocity S-wave (km/s) = -3.27235 3.10852 -0.72297
# Velocity P-wave (km/s) = 2.35102 5.80518 4.42874
#
# Compressibility (1/GPa) = 0.02231598
#
# Stress axis : x y z
#
# Youngs Moduli (GPa) = 67.12019 71.25082 44.56403
#
# Poissons Ratio (x) = 0.20568 0.33620
# Poissons Ratio (y) = 0.19376 0.18261
# Poissons Ratio (z) = 0.50637 0.29196
#
# Static dielectric constant tensor:
#      x y z
#    x 1.914920 0.000000 0.021350 
#    y 0.000000 1.880650 0.000000 
#    z 0.021350 0.000000 1.860960 
# 
# From -- ./inp_files/16523.got.cif
#   From: 2010.05.17/outbox.cif.g08.bks.cpg/sg9_9_cif.got.tgz:16523.got - 2010.06.03 20:04:27.
