data_PCOD9138556
_publ_section_title
;
Structure prediction by ZEFSAII (Michael W. Deem and Ramdas Pophale) SiO2 
 PCOD9138556
Probable space group: C C
;
_chemical_formula_sum "Si O2"
_cell_formula_units_Z 24
_cell_length_a 12.022843
_cell_length_b 7.832436
_cell_length_c 12.907125
_cell_angle_alpha 90.000000
_cell_angle_beta 46.288191
_cell_angle_gamma 90.000000
_cell_volume 878.550141
_symmetry_space_group_name_H-M "C C"
_symmetry_group_IT_number 9
_symmetry_cell_setting 'monoclinic'
loop_
_space_group_symop_operation_xyz
x,y,z
x,-y,1/2+z
1/2+x,1/2+y,z
1/2+x,1/2-y,1/2+z
loop_
_atom_site_type_symbol
_atom_site_label
_atom_site_fract_x
_atom_site_fract_y
_atom_site_fract_z
Si Si1 0.256970 0.703257 0.777400
Si Si2 0.563646 0.905908 0.821671
Si Si3 0.580299 0.773786 0.027742
Si Si4 0.404106 0.423675 0.807899
Si Si5 0.241673 0.060417 0.441742
Si Si6 0.189239 0.958517 0.216446
O O1 0.150994 0.584648 0.775121
O O2 0.388070 0.577822 0.735172
O O3 0.177223 0.765559 0.936018
O O4 0.285442 0.889070 0.709285
O O5 0.503090 0.862243 0.977918
O O6 0.679860 0.747595 0.730494
O O7 0.426793 0.914033 0.827464
O O8 0.733134 0.879908 0.955806
O O9 0.657646 0.595487 0.938247
O O10 0.009726 0.976179 0.835770
O O11 0.471775 0.269821 0.693834
O O12 0.212936 0.014349 0.578395
#
# Coordination Sequence:
#
# PCOD9138556 Si02
#       6
#     4   4   4   4   4   4
#     4  11  24  46  70 104 143 190 242 299 371 430
#     4  11  24  44  69 100 143 190 242 296 367 431
#     4  10  23  44  72 103 145 192 243 304 366 429
#     4  10  23  47  72 109 146 194 247 304 366 441
#     4  11  24  44  68 104 142 189 238 304 358 435
#     4  11  24  47  71 104 149 189 252 299 366 442
#
# _framework density 27.317734000000002
#
# number of rings (size 3 to 8) (size 9 to 14) (size 15 to 20)
#    0.000    1.333    3.333    1.000    4.667    2.667 
#   24.000    0.000    0.000    0.000    0.000    0.000 
#    0.000    0.000    0.000    0.000    0.000    0.000 
#
# Total GULP energy -67028.359543 kJ/mol
# GULP energy per Si atom -5585.696629 kJ/mol
# Density = 2.725556 g / cm^3
# Si number density = 27.317734 Si / 1000 Ang^3
#
#
#
# Elastic Constant Matrix: (Units=GPa)
#
#
# Indices 1 2 3 4 5 6 
#
# 1 161.1102 48.6642 9.0226 0.0000 3.7768 0.0000
# 2 48.6642 182.0411 34.0683 0.0000 8.0298 0.0000
# 3 9.0226 34.0683 41.7634 0.0000 -9.6082 0.0000
# 4 0.0000 0.0000 0.0000 37.2046 0.0000 0.2351
# 5 3.7768 8.0298 -9.6082 0.0000 24.8244 0.0000
# 6 0.0000 0.0000 0.0000 0.2351 0.0000 63.8034
#
#
#
# Elastic Compliance Matrix: (Units=1/GPa)
#
#
# Indices 1 2 3 4 5 6 
#
# 1 0.006758 -0.001756 -0.000146 0.000000 -0.000516 0.000000
# 2 -0.001756 0.007444 -0.006790 0.000000 -0.004769 0.000000
# 3 -0.000146 -0.006790 0.032960 0.000000 0.014976 0.000000
# 4 0.000000 0.000000 0.000000 0.026879 0.000000 -0.000099
# 5 -0.000516 -0.004769 0.014976 0.000000 0.047700 0.000000
# 6 0.000000 0.000000 0.000000 -0.000099 0.000000 0.015674
#
#
# Mechanical properties :
#
#
# Convention : Reuss Voigt Hill
#
# Bulk Modulus (GPa) = 33.58281 63.15832 48.37057
# Shear Modulus (GPa) = 30.35364 44.71045 37.53204
#
# Velocity S-wave (km/s) = 3.33698 4.04998 3.71065
# Velocity P-wave (km/s) = 5.21223 6.71118 6.00863
#
# Compressibility (1/GPa) = 0.02977713
#
# Stress axis : x y z
#
# Youngs Moduli (GPa) = 147.97822 134.33907 30.33964
#
# Poissons Ratio (x) = 0.23596 0.00443
# Poissons Ratio (y) = 0.25991 0.20600
# Poissons Ratio (z) = 0.02160 0.91215
#
# Static dielectric constant tensor:
#      x y z
#    x 2.216070 0.000000 0.005060 
#    y 0.000000 2.106090 0.000000 
#    z 0.005060 0.000000 2.257430 
# 
# From -- ./inp_files/26570.got.cif
#   From: 2010.05.17/outbox.cif.g08.bks.cpg/sg9_14_cif.got.tgz:26570.got - 2010.06.03 20:04:27.
