data_PCOD9138264
_publ_section_title
;
Structure prediction by ZEFSAII (Michael W. Deem and Ramdas Pophale) SiO2 
 PCOD9138264
Probable space group: C C
;
_chemical_formula_sum "Si O2"
_cell_formula_units_Z 32
_cell_length_a 9.770511
_cell_length_b 10.133367
_cell_length_c 16.032255
_cell_angle_alpha 90.000000
_cell_angle_beta 94.315287
_cell_angle_gamma 90.000000
_cell_volume 1582.824372
_symmetry_space_group_name_H-M "C C"
_symmetry_group_IT_number 9
_symmetry_cell_setting 'monoclinic'
loop_
_space_group_symop_operation_xyz
x,y,z
x,-y,1/2+z
1/2+x,1/2+y,z
1/2+x,1/2-y,1/2+z
loop_
_atom_site_type_symbol
_atom_site_label
_atom_site_fract_x
_atom_site_fract_y
_atom_site_fract_z
Si Si1 0.576980 0.754036 0.049030
Si Si2 0.040490 0.979314 0.781082
Si Si3 0.761056 0.040752 0.199232
Si Si4 0.564884 0.188167 0.739767
Si Si5 0.897407 0.966340 0.451327
Si Si6 0.360328 0.760918 0.492725
Si Si7 0.777806 0.687637 0.800400
Si Si8 0.118691 0.452864 0.512139
O O1 0.532979 0.778180 0.141713
O O2 0.486401 0.644438 0.000739
O O3 0.738475 0.715328 0.053155
O O4 0.568936 0.895707 0.002601
O O5 0.161397 0.082196 0.776737
O O6 0.922995 0.990112 0.705389
O O7 0.959253 0.009197 0.862908
O O8 0.095824 0.829137 0.783747
O O9 0.748913 0.176041 0.250633
O O10 0.695311 0.056658 0.105153
O O11 0.681599 0.921547 0.240774
O O12 0.426388 0.137785 0.776668
O O13 0.736771 0.926962 0.449244
O O14 0.904270 0.108261 0.497332
O O15 0.290613 0.784113 0.399181
O O16 0.490911 0.855011 0.505204
#
# Coordination Sequence:
#
# PCOD9138264 Si02
#       8
#     4   4   4   4   4   4   4   4
#     4  10  23  43  64  93 130 166 214 264 319 388
#     4  11  23  40  65  94 128 166 213 267 317 376
#     4  10  23  45  64  93 127 171 215 263 323 383
#     4  10  23  42  64  92 132 165 216 262 316 388
#     4  11  21  41  65  94 128 165 208 269 321 377
#     4  11  23  42  65  97 128 162 215 271 317 379
#     4  11  23  41  64  97 129 162 217 268 315 380
#     4  10  25  42  67  92 130 171 214 266 324 383
#
# _framework density 20.217025
#
# number of rings (size 3 to 8) (size 9 to 14) (size 15 to 20)
#    0.000    1.500    3.750    1.500    1.750    8.000 
#    2.250    0.000    0.000    0.000    0.000    0.000 
#    0.000    0.000    0.000    0.000    0.000    0.000 
#
# Total GULP energy -89422.057744 kJ/mol
# GULP energy per Si atom -5588.878609 kJ/mol
# Density = 2.017101 g / cm^3
# Si number density = 20.217025 Si / 1000 Ang^3
#
#
#
# Elastic Constant Matrix: (Units=GPa)
#
#
# Indices 1 2 3 4 5 6 
#
# 1 71.4808 63.3116 -13.4765 0.0000 8.4932 0.0000
# 2 63.3116 88.6796 -12.8800 0.0000 21.8565 0.0000
# 3 -13.4765 -12.8800 44.4110 0.0000 4.5561 0.0000
# 4 0.0000 0.0000 0.0000 23.6928 0.0000 1.4267
# 5 8.4932 21.8565 4.5561 0.0000 29.1379 0.0000
# 6 0.0000 0.0000 0.0000 1.4267 0.0000 51.5705
#
#
#
# Elastic Compliance Matrix: (Units=1/GPa)
#
#
# Indices 1 2 3 4 5 6 
#
# 1 0.041572 -0.032287 0.002042 0.000000 0.011782 0.000000
# 2 -0.032287 0.040180 0.004047 0.000000 -0.021361 0.000000
# 3 0.002042 0.004047 0.025085 0.000000 -0.007553 0.000000
# 4 0.000000 0.000000 0.000000 0.042277 0.000000 -0.001170
# 5 0.011782 -0.021361 -0.007553 0.000000 0.048089 0.000000
# 6 0.000000 0.000000 0.000000 -0.001170 0.000000 0.019423
#
#
# Mechanical properties :
#
#
# Convention : Reuss Voigt Hill
#
# Bulk Modulus (GPa) = 18.36816 30.94241 24.65529
# Shear Modulus (GPa) = 17.41137 32.05467 24.73302
#
# Velocity S-wave (km/s) = 2.93784 3.98619 3.50147
# Velocity P-wave (km/s) = 4.54017 6.04356 5.34499
#
# Compressibility (1/GPa) = 0.05444203
#
# Stress axis : x y z
#
# Youngs Moduli (GPa) = 24.05478 24.88819 39.86400
#
# Poissons Ratio (x) = 0.80356 -0.08142
# Poissons Ratio (y) = 0.77665 -0.16132
# Poissons Ratio (z) = -0.04913 -0.10072
#
# Static dielectric constant tensor:
#      x y z
#    x 1.706810 0.000000 -0.014180 
#    y 0.000000 1.696520 0.000000 
#    z -0.014180 0.000000 1.743070 
# 
# From -- ./inp_files/22762.got.cif
#   From: 2010.05.17/outbox.cif.g08.bks.cpg/sg9_12_cif.got.tgz:22762.got - 2010.06.03 20:04:27.
