data_PCOD9138409
_publ_section_title
;
Structure prediction by ZEFSAII (Michael W. Deem and Ramdas Pophale) SiO2 
 PCOD9138409
Probable space group: C C
;
_chemical_formula_sum "Si O2"
_cell_formula_units_Z 28
_cell_length_a 11.713048
_cell_length_b 15.514390
_cell_length_c 7.619973
_cell_angle_alpha 90.000000
_cell_angle_beta 124.692617
_cell_angle_gamma 90.000000
_cell_volume 1138.530628
_symmetry_space_group_name_H-M "C C"
_symmetry_group_IT_number 9
_symmetry_cell_setting 'monoclinic'
loop_
_space_group_symop_operation_xyz
x,y,z
x,-y,1/2+z
1/2+x,1/2+y,z
1/2+x,1/2-y,1/2+z
loop_
_atom_site_type_symbol
_atom_site_label
_atom_site_fract_x
_atom_site_fract_y
_atom_site_fract_z
Si Si1 0.589740 0.207601 0.130420
Si Si2 0.101117 0.421284 0.927046
Si Si3 0.716630 0.641017 0.202840
Si Si4 0.920756 0.228064 0.004136
Si Si5 0.808958 0.523304 0.993215
Si Si6 0.192213 0.407712 0.392681
Si Si7 0.822989 0.672711 0.762518
O O1 0.635699 0.164607 0.351501
O O2 0.425618 0.217128 0.992737
O O3 0.669013 0.292991 0.149172
O O4 0.627896 0.140616 0.005946
O O5 0.211683 0.494905 0.974000
O O6 0.958306 0.459531 0.718670
O O7 0.098852 0.408403 0.133547
O O8 0.843742 0.708958 0.299288
O O9 0.578086 0.696756 0.117365
O O10 0.706250 0.581818 0.020946
O O11 0.752938 0.571092 0.389748
O O12 0.890504 0.285728 0.149622
O O13 0.829113 0.142610 0.953947
O O14 0.825003 0.573597 0.820176
#
# Coordination Sequence:
#
# PCOD9138409 Si02
#       7
#     4   4   4   4   4   4   4
#     4  10  23  43  68 102 141 186 245 308 373 449
#     4  11  23  42  73 106 144 190 261 303 383 456
#     4  12  28  49  75 113 155 204 256 318 389 462
#     4  11  27  46  77 106 154 197 261 318 388 452
#     4  11  27  45  79 107 155 198 260 313 388 464
#     4  11  23  42  70 107 142 197 246 320 370 456
#     4  10  23  47  68 103 139 194 241 310 375 447
#
# _framework density 24.593101000000001
#
# number of rings (size 3 to 8) (size 9 to 14) (size 15 to 20)
#    0.000    1.143    1.429    3.429   12.000    2.286 
#    2.571    0.000    0.000    0.000    0.000    0.000 
#    0.000    0.000    0.000    0.000    0.000    0.000 
#
# Total GULP energy -78258.050368 kJ/mol
# GULP energy per Si atom -5589.860741 kJ/mol
# Density = 2.453713 g / cm^3
# Si number density = 24.593101 Si / 1000 Ang^3
#
#
#
# Elastic Constant Matrix: (Units=GPa)
#
#
# Indices 1 2 3 4 5 6 
#
# 1 98.6869 56.3284 51.1275 0.0000 -5.9638 0.0000
# 2 56.3284 131.6122 37.9683 0.0000 6.7440 0.0000
# 3 51.1275 37.9683 99.7669 0.0000 -23.6372 0.0000
# 4 0.0000 0.0000 0.0000 32.1628 0.0000 -6.3799
# 5 -5.9638 6.7440 -23.6372 0.0000 50.7780 0.0000
# 6 0.0000 0.0000 0.0000 -6.3799 0.0000 39.2394
#
#
#
# Elastic Compliance Matrix: (Units=1/GPa)
#
#
# Indices 1 2 3 4 5 6 
#
# 1 0.016434 -0.005110 -0.006585 0.000000 -0.000457 0.000000
# 2 -0.005110 0.010543 -0.002099 0.000000 -0.002978 0.000000
# 3 -0.006585 -0.002099 0.015825 0.000000 0.006872 0.000000
# 4 0.000000 0.000000 0.000000 0.032128 0.000000 0.005224
# 5 -0.000457 -0.002978 0.006872 0.000000 0.023234 0.000000
# 6 0.000000 0.000000 0.000000 0.005224 0.000000 0.026334
#
#
# Mechanical properties :
#
#
# Convention : Reuss Voigt Hill
#
# Bulk Modulus (GPa) = 65.73279 68.99046 67.36163
# Shear Modulus (GPa) = 31.81488 36.74550 34.28019
#
# Velocity S-wave (km/s) = 3.60064 3.86960 3.73754
# Velocity P-wave (km/s) = 6.63870 6.93389 6.78790
#
# Compressibility (1/GPa) = 0.01521311
#
# Stress axis : x y z
#
# Youngs Moduli (GPa) = 60.84923 94.84604 63.19094
#
# Poissons Ratio (x) = 0.48470 0.41613
# Poissons Ratio (y) = 0.31097 0.13264
# Poissons Ratio (z) = 0.40071 0.19909
#
# Static dielectric constant tensor:
#      x y z
#    x 1.953830 0.000000 -0.040230 
#    y 0.000000 1.966860 0.000000 
#    z -0.040230 0.000000 2.103630 
# 
# From -- ./inp_files/8196.got.cif
#   From: 2010.05.17/outbox.cif.g08.bks.cpg/sg9_5_cif.got.tgz:8196.got - 2010.06.03 20:04:27.
