data_PCOD9138059
_publ_section_title
;
Structure prediction by ZEFSAII (Michael W. Deem and Ramdas Pophale) SiO2 
 PCOD9138059
Probable space group: C C
;
_chemical_formula_sum "Si O2"
_cell_formula_units_Z 24
_cell_length_a 18.873259
_cell_length_b 10.387580
_cell_length_c 9.332352
_cell_angle_alpha 90.000000
_cell_angle_beta 144.078292
_cell_angle_gamma 90.000000
_cell_volume 1073.379010
_symmetry_space_group_name_H-M "C C"
_symmetry_group_IT_number 9
_symmetry_cell_setting 'monoclinic'
loop_
_space_group_symop_operation_xyz
x,y,z
x,-y,1/2+z
1/2+x,1/2+y,z
1/2+x,1/2-y,1/2+z
loop_
_atom_site_type_symbol
_atom_site_label
_atom_site_fract_x
_atom_site_fract_y
_atom_site_fract_z
Si Si1 0.313350 0.843548 0.813050
Si Si2 0.460169 0.241373 0.815613
Si Si3 0.549358 0.972777 0.066618
Si Si4 0.934153 0.924221 0.020866
Si Si5 0.581852 0.500465 0.510267
Si Si6 0.705125 0.904940 0.073549
O O1 0.430366 0.908504 0.936199
O O2 0.313534 0.505842 0.807269
O O3 0.212726 0.947335 0.691293
O O4 0.356908 0.769497 0.027879
O O5 0.418605 0.294223 0.903362
O O6 0.556031 0.350599 0.925476
O O7 0.514501 0.101691 0.924028
O O8 0.614658 0.883416 0.058042
O O9 0.638674 0.020902 0.337351
O O10 0.041509 0.998144 0.109698
O O11 0.255219 0.735495 0.614938
O O12 0.982304 0.917757 0.259871
#
# Coordination Sequence:
#
# PCOD9138059 Si02
#       6
#     4   4   4   4   4   4
#     4  12  26  46  74 106 145 189 237 301 355 426
#     4  10  24  47  68 111 142 186 240 293 357 426
#     4  12  27  46  72 111 141 192 246 289 366 424
#     4  10  22  47  72 106 139 195 235 289 370 414
#     4  10  24  43  75 104 144 189 242 286 367 423
#     4  12  25  47  73 104 149 187 240 302 349 437
#
# _framework density 22.359297999999999
#
# number of rings (size 3 to 8) (size 9 to 14) (size 15 to 20)
#    1.000    0.000    3.333    3.000    4.667    1.333 
#    3.000    0.000    0.000    0.000    0.000    0.000 
#    0.000    0.000    0.000    0.000    0.000    0.000 
#
# Total GULP energy -67062.279163 kJ/mol
# GULP energy per Si atom -5588.523264 kJ/mol
# Density = 2.230841 g / cm^3
# Si number density = 22.359298 Si / 1000 Ang^3
#
#
#
# Elastic Constant Matrix: (Units=GPa)
#
#
# Indices 1 2 3 4 5 6 
#
# 1 42.0803 20.5144 10.3199 0.0000 13.3327 0.0000
# 2 20.5144 92.5398 28.0840 0.0000 13.6809 0.0000
# 3 10.3199 28.0840 58.8801 0.0000 3.6422 0.0000
# 4 0.0000 0.0000 0.0000 43.6520 0.0000 4.9956
# 5 13.3327 13.6809 3.6422 0.0000 35.8277 0.0000
# 6 0.0000 0.0000 0.0000 4.9956 0.0000 37.5677
#
#
#
# Elastic Compliance Matrix: (Units=1/GPa)
#
#
# Indices 1 2 3 4 5 6 
#
# 1 0.029381 -0.004432 -0.002480 0.000000 -0.008989 0.000000
# 2 -0.004432 0.013977 -0.005698 0.000000 -0.003109 0.000000
# 3 -0.002480 -0.005698 0.020070 0.000000 0.001058 0.000000
# 4 0.000000 0.000000 0.000000 0.023262 0.000000 -0.003093
# 5 -0.008989 -0.003109 0.001058 0.000000 0.032336 0.000000
# 6 0.000000 0.000000 0.000000 -0.003093 0.000000 0.027030
#
#
# Mechanical properties :
#
#
# Convention : Reuss Voigt Hill
#
# Bulk Modulus (GPa) = 26.17089 34.59299 30.38194
# Shear Modulus (GPa) = 27.17209 32.38160 29.77684
#
# Velocity S-wave (km/s) = 3.48982 3.80970 3.65326
# Velocity P-wave (km/s) = 5.28853 5.90396 5.60470
#
# Compressibility (1/GPa) = 0.03821039
#
# Stress axis : x y z
#
# Youngs Moduli (GPa) = 34.03574 71.54431 49.82445
#
# Poissons Ratio (x) = 0.31706 0.12355
# Poissons Ratio (y) = 0.15084 0.28389
# Poissons Ratio (z) = 0.08440 0.40764
#
# Static dielectric constant tensor:
#      x y z
#    x 1.822480 0.000000 -0.012420 
#    y 0.000000 1.834760 0.000000 
#    z -0.012420 0.000000 1.815580 
# 
# From -- ./inp_files/11607.got.cif
#   From: 2010.05.17/outbox.cif.g08.bks.cpg/sg9_6_cif.got.tgz:11607.got - 2010.06.03 20:04:27.
