data_PCOD9138739
_publ_section_title
;
Structure prediction by ZEFSAII (Michael W. Deem and Ramdas Pophale) SiO2 
 PCOD9138739
Probable space group: C C
;
_chemical_formula_sum "Si O2"
_cell_formula_units_Z 32
_cell_length_a 10.919087
_cell_length_b 10.324890
_cell_length_c 12.940932
_cell_angle_alpha 90.000000
_cell_angle_beta 57.471716
_cell_angle_gamma 90.000000
_cell_volume 1230.070070
_symmetry_space_group_name_H-M "C C"
_symmetry_group_IT_number 9
_symmetry_cell_setting 'monoclinic'
loop_
_space_group_symop_operation_xyz
x,y,z
x,-y,1/2+z
1/2+x,1/2+y,z
1/2+x,1/2-y,1/2+z
loop_
_atom_site_type_symbol
_atom_site_label
_atom_site_fract_x
_atom_site_fract_y
_atom_site_fract_z
Si Si1 0.328640 0.528018 0.909460
Si Si2 0.700567 0.871067 0.661429
Si Si3 0.535817 0.624794 0.646011
Si Si4 0.474551 0.055531 0.843111
Si Si5 0.536925 0.680532 0.405468
Si Si6 0.222307 0.014432 0.206024
Si Si7 0.705512 0.698300 0.857050
Si Si8 0.020221 0.408665 0.007367
O O1 0.393597 0.593257 0.777502
O O2 0.415258 0.395185 0.894033
O O3 0.088595 0.265725 0.984615
O O4 0.322268 0.607636 0.019541
O O5 0.598074 0.761130 0.658463
O O6 0.748622 0.809162 0.750855
O O7 0.662395 0.007207 0.462514
O O8 0.526584 0.634299 0.527539
O O9 0.648998 0.510809 0.628962
O O10 0.512000 0.168208 0.906865
O O11 0.337323 0.121038 0.850278
O O12 0.613060 0.006759 0.714603
O O13 0.456015 0.926256 0.920244
O O14 0.687802 0.647735 0.277254
O O15 0.135307 0.913231 0.318443
O O16 0.385516 0.963672 0.131894
#
# Coordination Sequence:
#
# PCOD9138739 Si02
#       8
#     4   4   4   4   4   4   4   4
#     4  11  24  48  76 111 154 202 254 319 396 455
#     4  10  24  45  76 107 148 209 252 315 384 469
#     4  10  25  49  73 112 155 200 257 318 390 465
#     4  11  24  45  74 112 149 202 251 314 386 463
#     4  11  25  46  76 112 153 199 252 324 383 469
#     4  10  25  46  74 112 148 204 253 312 389 468
#     4  10  23  46  71 108 148 199 248 313 377 454
#     4  11  24  47  72 112 155 197 259 313 389 457
#
# _framework density 26.014776000000001
#
# number of rings (size 3 to 8) (size 9 to 14) (size 15 to 20)
#    0.000    1.500    1.250    1.500    5.250    9.000 
#   11.250    0.000    0.000    0.000    0.000    0.000 
#    0.000    0.000    0.000    0.000    0.000    0.000 
#
# Total GULP energy -89395.722957 kJ/mol
# GULP energy per Si atom -5587.232685 kJ/mol
# Density = 2.595557 g / cm^3
# Si number density = 26.014776 Si / 1000 Ang^3
#
#
#
# Elastic Constant Matrix: (Units=GPa)
#
#
# Indices 1 2 3 4 5 6 
#
# 1 131.2119 39.8880 62.3546 0.0000 -3.8548 0.0000
# 2 39.8880 80.6579 18.3449 0.0000 10.3852 0.0000
# 3 62.3546 18.3449 130.8827 0.0000 -1.3520 0.0000
# 4 0.0000 0.0000 0.0000 40.3213 0.0000 4.8410
# 5 -3.8548 10.3852 -1.3520 0.0000 49.9952 0.0000
# 6 0.0000 0.0000 0.0000 4.8410 0.0000 37.5463
#
#
#
# Elastic Compliance Matrix: (Units=1/GPa)
#
#
# Indices 1 2 3 4 5 6 
#
# 1 0.011371 -0.004771 -0.004731 0.000000 0.001740 0.000000
# 2 -0.004771 0.015186 0.000108 0.000000 -0.003519 0.000000
# 3 -0.004731 0.000108 0.009878 0.000000 -0.000120 0.000000
# 4 0.000000 0.000000 0.000000 0.025191 0.000000 -0.003248
# 5 0.001740 -0.003519 -0.000120 0.000000 0.020864 0.000000
# 6 0.000000 0.000000 0.000000 -0.003248 0.000000 0.027053
#
#
# Mechanical properties :
#
#
# Convention : Reuss Voigt Hill
#
# Bulk Modulus (GPa) = 56.66531 64.88085 60.77308
# Shear Modulus (GPa) = 37.25452 40.38354 38.81903
#
# Velocity S-wave (km/s) = 3.78835 3.94424 3.86708
# Velocity P-wave (km/s) = 6.40037 6.76290 6.58413
#
# Compressibility (1/GPa) = 0.01764748
#
# Stress axis : x y z
#
# Youngs Moduli (GPa) = 87.94360 65.84932 101.23795
#
# Poissons Ratio (x) = 0.31419 0.47891
# Poissons Ratio (y) = 0.41961 -0.01096
# Poissons Ratio (z) = 0.41602 -0.00713
#
# Static dielectric constant tensor:
#      x y z
#    x 2.116340 0.000000 0.004980 
#    y 0.000000 2.039570 0.000000 
#    z 0.004980 0.000000 2.174460 
# 
# From -- ./inp_files/16566.got.cif
#   From: 2010.05.17/outbox.cif.g08.bks.cpg/sg9_9_cif.got.tgz:16566.got - 2010.06.03 20:04:27.
