data_PCOD9138466
_publ_section_title
;
Structure prediction by ZEFSAII (Michael W. Deem and Ramdas Pophale) SiO2 
 PCOD9138466
Probable space group: C C
;
_chemical_formula_sum "Si O2"
_cell_formula_units_Z 32
_cell_length_a 8.490832
_cell_length_b 11.147126
_cell_length_c 14.725713
_cell_angle_alpha 90.000000
_cell_angle_beta 64.526652
_cell_angle_gamma 90.000000
_cell_volume 1258.270570
_symmetry_space_group_name_H-M "C C"
_symmetry_group_IT_number 9
_symmetry_cell_setting 'monoclinic'
loop_
_space_group_symop_operation_xyz
x,y,z
x,-y,1/2+z
1/2+x,1/2+y,z
1/2+x,1/2-y,1/2+z
loop_
_atom_site_type_symbol
_atom_site_label
_atom_site_fract_x
_atom_site_fract_y
_atom_site_fract_z
Si Si1 0.337000 0.967332 0.552020
Si Si2 0.879726 0.806836 0.045393
Si Si3 0.199997 0.427343 0.250220
Si Si4 0.179939 0.791896 0.098344
Si Si5 0.740581 0.038589 0.425322
Si Si6 0.357910 0.808458 0.787137
Si Si7 0.964690 0.189295 0.930603
Si Si8 0.299516 0.054354 0.846762
O O1 0.311943 0.827935 0.585571
O O2 0.541965 0.006050 0.506284
O O3 0.292683 0.966171 0.456296
O O4 0.217171 0.072948 0.622988
O O5 0.810621 0.909661 0.131602
O O6 0.083030 0.798534 0.023261
O O7 0.816663 0.847450 0.961637
O O8 0.241130 0.529512 0.314852
O O9 0.237424 0.303640 0.294126
O O10 0.999536 0.425707 0.273155
O O11 0.038195 0.715744 0.188463
O O12 0.368347 0.729048 0.046201
O O13 0.865084 0.930759 0.426293
O O14 0.421890 0.797071 0.874064
O O15 0.259589 0.933087 0.801570
O O16 0.164630 0.159693 0.866976
#
# Coordination Sequence:
#
# PCOD9138466 Si02
#       8
#     4   4   4   4   4   4   4   4
#     4  11  24  44  71 106 145 190 255 302 376 460
#     4  11  24  45  73 105 152 194 249 320 379 448
#     4   9  24  45  67 107 147 188 253 310 367 460
#     4  11  24  46  71 107 147 192 256 315 373 459
#     4  10  23  43  73 104 140 198 241 305 387 438
#     4  10  24  46  67  99 152 186 244 323 368 445
#     4  11  23  44  70 103 141 198 246 303 381 446
#     4  11  24  43  70 103 148 196 246 304 379 454
#
# _framework density 25.431732
#
# number of rings (size 3 to 8) (size 9 to 14) (size 15 to 20)
#    0.000    1.500    2.500    0.750    3.500    3.000 
#    0.000    5.000    0.000    0.000    0.000    0.000 
#    0.000    0.000    0.000    0.000    0.000    0.000 
#
# Total GULP energy -89396.175208 kJ/mol
# GULP energy per Si atom -5587.260951 kJ/mol
# Density = 2.537385 g / cm^3
# Si number density = 25.431732 Si / 1000 Ang^3
#
#
#
# Elastic Constant Matrix: (Units=GPa)
#
#
# Indices 1 2 3 4 5 6 
#
# 1 53.9050 32.4037 28.1855 0.0000 1.9437 0.0000
# 2 32.4037 107.1523 31.5653 0.0000 7.6987 0.0000
# 3 28.1855 31.5653 79.6492 0.0000 -9.4103 0.0000
# 4 0.0000 0.0000 0.0000 41.4397 0.0000 -1.0280
# 5 1.9437 7.6987 -9.4103 0.0000 23.1005 0.0000
# 6 0.0000 0.0000 0.0000 -1.0280 0.0000 52.2202
#
#
#
# Elastic Compliance Matrix: (Units=1/GPa)
#
#
# Indices 1 2 3 4 5 6 
#
# 1 0.025766 -0.005372 -0.007389 0.000000 -0.003388 0.000000
# 2 -0.005372 0.012393 -0.003619 0.000000 -0.005153 0.000000
# 3 -0.007389 -0.003619 0.017671 0.000000 0.009026 0.000000
# 4 0.000000 0.000000 0.000000 0.024143 0.000000 0.000475
# 5 -0.003388 -0.005153 0.009026 0.000000 0.048968 0.000000
# 6 0.000000 0.000000 0.000000 0.000475 0.000000 0.019159
#
#
# Mechanical properties :
#
#
# Convention : Reuss Voigt Hill
#
# Bulk Modulus (GPa) = 43.34760 47.22394 45.28577
# Shear Modulus (GPa) = 26.51796 33.25556 29.88676
#
# Velocity S-wave (km/s) = 3.23261 3.62005 3.43180
# Velocity P-wave (km/s) = 5.56908 6.00685 5.79211
#
# Compressibility (1/GPa) = 0.02306933
#
# Stress axis : x y z
#
# Youngs Moduli (GPa) = 38.81081 80.68815 56.59070
#
# Poissons Ratio (x) = 0.43343 0.41816
# Poissons Ratio (y) = 0.20848 0.20483
# Poissons Ratio (z) = 0.28678 0.29205
#
# Static dielectric constant tensor:
#      x y z
#    x 2.023000 0.000000 0.036770 
#    y 0.000000 1.983600 0.000000 
#    z 0.036770 0.000000 2.070240 
# 
# From -- ./inp_files/22714.got.cif
#   From: 2010.05.17/outbox.cif.g08.bks.cpg/sg9_12_cif.got.tgz:22714.got - 2010.06.03 20:04:27.
