data_PCOD9138839
_publ_section_title
;
Structure prediction by ZEFSAII (Michael W. Deem and Ramdas Pophale) SiO2 
 PCOD9138839
Probable space group: C C
;
_chemical_formula_sum "Si O2"
_cell_formula_units_Z 32
_cell_length_a 8.902568
_cell_length_b 13.742257
_cell_length_c 20.764178
_cell_angle_alpha 90.000000
_cell_angle_beta 147.702374
_cell_angle_gamma 90.000000
_cell_volume 1357.335995
_symmetry_space_group_name_H-M "C C"
_symmetry_group_IT_number 9
_symmetry_cell_setting 'monoclinic'
loop_
_space_group_symop_operation_xyz
x,y,z
x,-y,1/2+z
1/2+x,1/2+y,z
1/2+x,1/2-y,1/2+z
loop_
_atom_site_type_symbol
_atom_site_label
_atom_site_fract_x
_atom_site_fract_y
_atom_site_fract_z
Si Si1 0.083640 0.234223 0.767710
Si Si2 0.882248 0.038257 0.629564
Si Si3 0.685786 0.314682 0.451073
Si Si4 0.316512 0.346306 0.659311
Si Si5 0.409586 0.548483 0.948345
Si Si6 0.844387 0.552925 0.202491
Si Si7 0.236693 0.724043 0.983544
Si Si8 0.407045 0.154797 0.436053
O O1 0.101582 0.195155 0.846913
O O2 0.408606 0.252588 0.866773
O O3 0.981586 0.144318 0.687053
O O4 0.896807 0.333100 0.702829
O O5 0.570481 0.053068 0.485548
O O6 0.818431 0.963218 0.662445
O O7 0.126369 0.982668 0.678719
O O8 0.531336 0.404212 0.428237
O O9 0.581196 0.223127 0.452424
O O10 0.020387 0.314866 0.579794
O O11 0.323068 0.304696 0.587956
O O12 0.594018 0.322963 0.798674
O O13 0.293782 0.631411 0.956653
O O14 0.149228 0.481938 0.835413
O O15 0.683357 0.504751 0.083339
O O16 0.402861 0.811906 0.009153
#
# Coordination Sequence:
#
# PCOD9138839 Si02
#       8
#     4   4   4   4   4   4   4   4
#     4  11  25  48  77 110 150 204 259 319 389 473
#     4  12  27  44  78 106 154 203 260 314 397 468
#     4  10  26  46  73 110 152 192 260 323 393 461
#     4  11  26  46  73 108 155 197 259 326 391 477
#     4  11  25  49  75 113 153 202 257 324 390 484
#     4  12  27  47  81 113 156 205 265 317 404 470
#     4  10  23  48  74 105 152 199 262 314 391 468
#     4  11  27  44  77 109 152 202 256 325 401 459
#
# _framework density 23.575592
#
# number of rings (size 3 to 8) (size 9 to 14) (size 15 to 20)
#    0.000    1.000    2.500    2.250   12.250    2.000 
#    4.500    0.000    0.000    0.000    0.000    0.000 
#    0.000    0.000    0.000    0.000    0.000    0.000 
#
# Total GULP energy -89360.713181 kJ/mol
# GULP energy per Si atom -5585.044574 kJ/mol
# Density = 2.352193 g / cm^3
# Si number density = 23.575592 Si / 1000 Ang^3
#
#
#
# Elastic Constant Matrix: (Units=GPa)
#
#
# Indices 1 2 3 4 5 6 
#
# 1 100.6021 32.2220 42.0583 -0.0005 17.7699 0.0001
# 2 32.2220 61.1366 37.1985 0.0003 9.7817 0.0001
# 3 42.0583 37.1985 125.9601 0.0007 5.0150 0.0001
# 4 -0.0005 0.0003 0.0007 33.0763 -0.0003 6.4974
# 5 17.7699 9.7817 5.0150 -0.0003 19.9371 0.0000
# 6 0.0001 0.0001 0.0001 6.4974 0.0000 12.0495
#
#
#
# Elastic Compliance Matrix: (Units=1/GPa)
#
#
# Indices 1 2 3 4 5 6 
#
# 1 0.014328 -0.004002 -0.003204 0.000000 -0.010001 0.000000
# 2 -0.004002 0.022549 -0.005075 0.000000 -0.006220 0.000000
# 3 -0.003204 -0.005075 0.010399 0.000000 0.002730 0.000000
# 4 0.000000 0.000000 0.000000 0.033815 0.000000 -0.018234
# 5 -0.010001 -0.006220 0.002730 0.000000 0.061437 0.000000
# 6 0.000000 0.000000 0.000000 -0.018234 0.000000 0.092823
#
#
# Mechanical properties :
#
#
# Convention : Reuss Voigt Hill
#
# Bulk Modulus (GPa) = 44.02652 56.73960 50.38306
# Shear Modulus (GPa) = 18.69266 24.76058 21.72662
#
# Velocity S-wave (km/s) = 2.81887 3.24429 3.03903
# Velocity P-wave (km/s) = 5.41386 6.17683 5.80789
#
# Compressibility (1/GPa) = 0.02271358
#
# Stress axis : x y z
#
# Youngs Moduli (GPa) = 69.79335 44.34735 96.16257
#
# Poissons Ratio (x) = 0.17747 0.30812
# Poissons Ratio (y) = 0.27930 0.48806
# Poissons Ratio (z) = 0.22363 0.22508
#
# Static dielectric constant tensor:
#      x y z
#    x 1.925300 0.000000 0.048450 
#    y 0.000000 1.925440 0.000000 
#    z 0.048450 0.000000 2.209890 
# 
# From -- ./inp_files/32795.got.cif
#   From: 2010.05.17/outbox.cif.g08.bks.cpg/sg9_17_cif.got.tgz:32795.got - 2010.06.03 20:04:27.
