data_PCOD9138245
_publ_section_title
;
Structure prediction by ZEFSAII (Michael W. Deem and Ramdas Pophale) SiO2 
 PCOD9138245
Probable space group: C C
;
_chemical_formula_sum "Si O2"
_cell_formula_units_Z 32
_cell_length_a 10.759942
_cell_length_b 13.752285
_cell_length_c 14.718731
_cell_angle_alpha 90.000000
_cell_angle_beta 143.643635
_cell_angle_gamma 90.000000
_cell_volume 1291.122810
_symmetry_space_group_name_H-M "C C"
_symmetry_group_IT_number 9
_symmetry_cell_setting 'monoclinic'
loop_
_space_group_symop_operation_xyz
x,y,z
x,-y,1/2+z
1/2+x,1/2+y,z
1/2+x,1/2-y,1/2+z
loop_
_atom_site_type_symbol
_atom_site_label
_atom_site_fract_x
_atom_site_fract_y
_atom_site_fract_z
Si Si1 0.455740 0.944896 0.902020
Si Si2 0.132765 0.735874 0.012311
Si Si3 0.908861 0.613118 0.729249
Si Si4 0.595044 0.387583 0.407422
Si Si5 0.515879 0.638603 0.141131
Si Si6 0.718926 0.768844 0.104601
Si Si7 0.282325 0.521271 0.863104
Si Si8 0.014816 0.408252 0.585335
O O1 0.237411 0.898427 0.806326
O O2 0.406905 0.013015 0.786018
O O3 0.600349 0.850950 0.976835
O O4 0.577978 0.012449 0.045602
O O5 0.193928 0.848428 0.059613
O O6 0.353709 0.684515 0.115500
O O7 0.044417 0.694508 0.054466
O O8 0.982153 0.695898 0.844343
O O9 0.086727 0.597373 0.757484
O O10 0.751651 0.323162 0.560811
O O11 0.430831 0.316842 0.263198
O O12 0.452604 0.451998 0.388161
O O13 0.769580 0.435767 0.449145
O O14 0.574222 0.721703 0.099733
O O15 0.400771 0.545367 0.026621
O O16 0.163011 0.425657 0.759060
#
# Coordination Sequence:
#
# PCOD9138245 Si02
#       8
#     4   4   4   4   4   4   4   4
#     4  11  24  42  69 102 133 172 232 284 339 410
#     4  10  24  44  62  98 134 176 225 278 349 404
#     4  10  24  43  67  97 135 174 227 282 338 412
#     4  11  24  41  69  99 135 183 225 282 352 401
#     4  10  23  41  72 101 127 184 230 286 341 405
#     4  11  22  43  69  98 134 176 234 284 338 420
#     4  10  23  42  66 102 133 176 235 280 335 418
#     4  11  26  42  66 101 141 177 224 290 350 402
#
# _framework density 24.78463
#
# number of rings (size 3 to 8) (size 9 to 14) (size 15 to 20)
#    0.000    1.500    2.500    0.750    8.750    4.000 
#    0.000    0.000    0.000    0.000    0.000    0.000 
#    0.000    0.000    0.000    0.000    0.000    0.000 
#
# Total GULP energy -89358.457825 kJ/mol
# GULP energy per Si atom -5584.903614 kJ/mol
# Density = 2.472822 g / cm^3
# Si number density = 24.784630 Si / 1000 Ang^3
#
#
#
# Elastic Constant Matrix: (Units=GPa)
#
#
# Indices 1 2 3 4 5 6 
#
# 1 56.4608 19.3769 27.0680 0.0013 -0.7391 0.0006
# 2 19.3769 75.7655 35.1753 0.0031 -1.6220 0.0020
# 3 27.0680 35.1753 71.7548 0.0060 15.0674 0.0039
# 4 0.0013 0.0031 0.0060 62.5671 0.0028 6.8895
# 5 -0.7391 -1.6220 15.0674 0.0028 22.5255 0.0014
# 6 0.0006 0.0020 0.0039 6.8895 0.0014 22.0386
#
#
#
# Elastic Compliance Matrix: (Units=1/GPa)
#
#
# Indices 1 2 3 4 5 6 
#
# 1 0.022758 -0.001307 -0.009402 0.000000 0.006942 0.000001
# 2 -0.001307 0.018481 -0.010281 0.000000 0.008165 0.000000
# 3 -0.009402 -0.010281 0.026460 -0.000001 -0.018748 -0.000002
# 4 0.000000 0.000000 -0.000001 0.016553 -0.000001 -0.005175
# 5 0.006942 0.008165 -0.018748 -0.000001 0.057751 -0.000001
# 6 0.000001 0.000000 -0.000002 -0.005175 -0.000001 0.046993
#
#
# Mechanical properties :
#
#
# Convention : Reuss Voigt Hill
#
# Bulk Modulus (GPa) = 38.88196 40.80238 39.84217
# Shear Modulus (GPa) = 20.87266 29.58363 25.22815
#
# Velocity S-wave (km/s) = 2.90515 3.45864 3.19391
# Velocity P-wave (km/s) = 5.19376 5.69632 5.45084
#
# Compressibility (1/GPa) = 0.02571887
#
# Stress axis : x y z
#
# Youngs Moduli (GPa) = 43.94007 54.11032 37.79294
#
# Poissons Ratio (x) = 0.07070 0.35534
# Poissons Ratio (y) = 0.05741 0.38856
# Poissons Ratio (z) = 0.41314 0.55632
#
# Static dielectric constant tensor:
#      x y z
#    x 2.011640 0.000000 -0.028660 
#    y 0.000000 1.964060 0.000000 
#    z -0.028660 0.000000 1.939360 
# 
# From -- ./inp_files/24857.got.cif
#   From: 2010.05.17/outbox.cif.g08.bks.cpg/sg9_13_cif.got.tgz:24857.got - 2010.06.03 20:04:27.
