data_PCOD9138364
_publ_section_title
;
Structure prediction by ZEFSAII (Michael W. Deem and Ramdas Pophale) SiO2 
 PCOD9138364
Probable space group: C C
;
_chemical_formula_sum "Si O2"
_cell_formula_units_Z 32
_cell_length_a 11.298351
_cell_length_b 10.700386
_cell_length_c 12.304576
_cell_angle_alpha 90.000000
_cell_angle_beta 112.195754
_cell_angle_gamma 90.000000
_cell_volume 1377.350844
_symmetry_space_group_name_H-M "C C"
_symmetry_group_IT_number 9
_symmetry_cell_setting 'monoclinic'
loop_
_space_group_symop_operation_xyz
x,y,z
x,-y,1/2+z
1/2+x,1/2+y,z
1/2+x,1/2-y,1/2+z
loop_
_atom_site_type_symbol
_atom_site_label
_atom_site_fract_x
_atom_site_fract_y
_atom_site_fract_z
Si Si1 0.050220 0.717081 0.949430
Si Si2 0.671021 0.567614 0.956234
Si Si3 0.788662 0.357258 0.120017
Si Si4 0.822705 0.817841 0.018746
Si Si5 0.367242 0.015318 0.845502
Si Si6 0.314902 0.750048 0.755318
Si Si7 0.024215 0.783884 0.688864
Si Si8 0.898938 0.065066 0.963053
O O1 0.036112 0.778105 0.823921
O O2 0.003265 0.572730 0.929542
O O3 0.188984 0.754691 0.043782
O O4 0.949601 0.773088 0.000020
O O5 0.749544 0.498698 0.887794
O O6 0.522241 0.544212 0.926331
O O7 0.736732 0.494191 0.077509
O O8 0.713515 0.712122 0.965399
O O9 0.812054 0.368337 0.255757
O O10 0.929487 0.329952 0.123436
O O11 0.853507 0.819927 0.158028
O O12 0.803905 0.951672 0.956223
O O13 0.385870 0.882139 0.795533
O O14 0.164217 0.771694 0.691089
O O15 0.330080 0.672901 0.871602
O O16 0.957834 0.896884 0.600763
#
# Coordination Sequence:
#
# PCOD9138364 Si02
#       8
#     4   4   4   4   4   4   4   4
#     4  10  23  42  76 108 146 191 260 315 380 461
#     4  11  22  45  73 105 148 193 253 309 392 453
#     4  11  21  44  75 105 141 199 247 316 382 452
#     4  11  25  45  71 115 144 193 261 316 374 467
#     4  10  23  43  75 105 146 197 252 310 386 465
#     4  12  26  48  74 108 152 202 252 320 391 456
#     4  11  24  46  71 108 146 202 250 305 394 457
#     4  12  26  43  77 106 153 201 249 323 385 457
#
# _framework density 23.233004999999999
#
# number of rings (size 3 to 8) (size 9 to 14) (size 15 to 20)
#    0.000    1.000    3.750    2.250    3.500    0.000 
#    6.750    2.500    0.000    0.000    0.000    0.000 
#    0.000    0.000    0.000    0.000    0.000    0.000 
#
# Total GULP energy -89198.499970 kJ/mol
# GULP energy per Si atom -5574.906248 kJ/mol
# Density = 2.318013 g / cm^3
# Si number density = 23.233005 Si / 1000 Ang^3
#
#
#
# Elastic Constant Matrix: (Units=GPa)
#
#
# Indices 1 2 3 4 5 6 
#
# 1 88.6894 47.5424 30.0014 0.0000 -8.3296 0.0000
# 2 47.5424 111.2403 23.9277 0.0000 18.1867 0.0000
# 3 30.0014 23.9277 63.7467 0.0000 -9.0348 0.0000
# 4 0.0000 0.0000 0.0000 35.8767 0.0000 -4.1632
# 5 -8.3296 18.1867 -9.0348 0.0000 39.0685 0.0000
# 6 0.0000 0.0000 0.0000 -4.1632 0.0000 33.6556
#
#
#
# Elastic Compliance Matrix: (Units=1/GPa)
#
#
# Indices 1 2 3 4 5 6 
#
# 1 0.017375 -0.007459 -0.004508 0.000000 0.006134 0.000000
# 2 -0.007459 0.014321 -0.003138 0.000000 -0.008982 0.000000
# 3 -0.004508 -0.003138 0.019703 0.000000 0.005056 0.000000
# 4 0.000000 0.000000 0.000000 0.028279 0.000000 0.003498
# 5 0.006134 -0.008982 0.005056 0.000000 0.032255 0.000000
# 6 0.000000 0.000000 0.000000 0.003498 0.000000 0.030145
#
#
# Mechanical properties :
#
#
# Convention : Reuss Voigt Hill
#
# Bulk Modulus (GPa) = 47.19469 51.84659 49.52064
# Shear Modulus (GPa) = 27.87828 32.53382 30.20605
#
# Velocity S-wave (km/s) = 3.46778 3.74616 3.60965
# Velocity P-wave (km/s) = 6.03255 6.40905 6.22365
#
# Compressibility (1/GPa) = 0.02118883
#
# Stress axis : x y z
#
# Youngs Moduli (GPa) = 57.55484 69.82793 50.75307
#
# Poissons Ratio (x) = 0.52084 0.22880
# Poissons Ratio (y) = 0.42929 0.15927
# Poissons Ratio (z) = 0.25946 0.21913
#
# Static dielectric constant tensor:
#      x y z
#    x 1.855270 0.000000 -0.029410 
#    y 0.000000 1.942260 0.000000 
#    z -0.029410 0.000000 1.947640 
# 
# From -- ./inp_files/16590.got.cif
#   From: 2010.05.17/outbox.cif.g08.bks.cpg/sg9_9_cif.got.tgz:16590.got - 2010.06.03 20:04:27.
