data_PCOD9138566
_publ_section_title
;
Structure prediction by ZEFSAII (Michael W. Deem and Ramdas Pophale) SiO2 
 PCOD9138566
Probable space group: C C
;
_chemical_formula_sum "Si O2"
_cell_formula_units_Z 32
_cell_length_a 12.678555
_cell_length_b 16.589670
_cell_length_c 8.166023
_cell_angle_alpha 90.000000
_cell_angle_beta 58.108609
_cell_angle_gamma 90.000000
_cell_volume 1458.316948
_symmetry_space_group_name_H-M "C C"
_symmetry_group_IT_number 9
_symmetry_cell_setting 'monoclinic'
loop_
_space_group_symop_operation_xyz
x,y,z
x,-y,1/2+z
1/2+x,1/2+y,z
1/2+x,1/2-y,1/2+z
loop_
_atom_site_type_symbol
_atom_site_label
_atom_site_fract_x
_atom_site_fract_y
_atom_site_fract_z
Si Si1 0.089840 0.107054 0.244530
Si Si2 0.831349 0.530523 0.192023
Si Si3 0.239550 0.107054 0.591650
Si Si4 0.740386 0.070853 0.014298
Si Si5 0.089008 0.570852 0.821880
Si Si6 0.548141 0.772993 0.138808
Si Si7 0.498041 0.530523 0.644156
Si Si8 0.781256 0.772992 0.697364
O O1 0.229649 0.080923 0.171743
O O2 0.073577 0.201327 0.246166
O O3 0.007967 0.067976 0.456687
O O4 0.044213 0.061522 0.118965
O O5 0.821423 0.567976 0.379493
O O6 0.785177 0.438478 0.217215
O O7 0.964608 0.536438 0.004134
O O8 0.099742 0.080922 0.664437
O O9 0.255814 0.201326 0.590013
O O10 0.776130 0.141240 0.111293
O O11 0.664697 0.000001 0.168091
O O12 0.664696 0.102459 0.918091
O O13 0.864783 0.036438 0.832044
O O14 0.053268 0.641239 0.724879
O O15 0.414699 0.750001 0.168083
O O16 0.664700 0.770726 0.918087
#
# Coordination Sequence:
#
# PCOD9138566 Si02
#       8
#     4   4   4   4   4   4   4   4
#     4  10  24  43  74 104 139 191 241 302 367 436
#     4  10  23  44  73 102 141 183 245 296 363 444
#     4  10  24  43  74 104 139 191 241 302 367 436
#     4  12  28  47  76 107 151 196 251 307 384 446
#     4  12  28  47  76 107 151 196 251 307 384 446
#     4  12  30  48  73 107 153 194 248 313 376 444
#     4  10  23  44  73 102 141 183 245 296 363 444
#     4  12  30  48  73 107 153 194 248 313 376 444
#
# _framework density 21.943103000000001
#
# number of rings (size 3 to 8) (size 9 to 14) (size 15 to 20)
#    0.000    1.000    0.000    3.750   24.500    1.000 
#    0.000    0.000    0.000    0.000    0.000    0.000 
#    0.000    0.000    0.000    0.000    0.000    0.000 
#
# Total GULP energy -89516.413124 kJ/mol
# GULP energy per Si atom -5594.775820 kJ/mol
# Density = 2.189316 g / cm^3
# Si number density = 21.943103 Si / 1000 Ang^3
#
#
#
# Elastic Constant Matrix: (Units=GPa)
#
#
# Indices 1 2 3 4 5 6 
#
# 1 120.4858 31.6469 44.1030 0.0000 -16.7512 0.0000
# 2 31.6469 112.8074 24.5144 0.0000 9.0826 0.0000
# 3 44.1030 24.5144 156.3671 0.0000 -20.1848 0.0000
# 4 0.0000 0.0000 0.0000 24.5572 0.0000 9.2931
# 5 -16.7512 9.0826 -20.1848 0.0000 45.7579 0.0000
# 6 0.0000 0.0000 0.0000 9.2931 0.0000 30.5784
#
#
#
# Elastic Compliance Matrix: (Units=1/GPa)
#
#
# Indices 1 2 3 4 5 6 
#
# 1 0.010220 -0.002700 -0.002022 0.000000 0.003385 0.000000
# 2 -0.002700 0.010193 -0.001299 0.000000 -0.003585 0.000000
# 3 -0.002022 -0.001299 0.007536 0.000000 0.002842 0.000000
# 4 0.000000 0.000000 0.000000 0.046013 0.000000 -0.013984
# 5 0.003385 -0.003585 0.002842 0.000000 0.025059 0.000000
# 6 0.000000 0.000000 0.000000 -0.013984 0.000000 0.036953
#
#
# Mechanical properties :
#
#
# Convention : Reuss Voigt Hill
#
# Bulk Modulus (GPa) = 62.86957 65.57655 64.22306
# Shear Modulus (GPa) = 32.61182 39.47176 36.04179
#
# Velocity S-wave (km/s) = 3.85931 4.24585 4.05719
# Velocity P-wave (km/s) = 6.96939 7.34752 7.16095
#
# Compressibility (1/GPa) = 0.01590595
#
# Stress axis : x y z
#
# Youngs Moduli (GPa) = 97.84902 98.10519 132.69472
#
# Poissons Ratio (x) = 0.26490 0.26833
# Poissons Ratio (y) = 0.26421 0.17240
# Poissons Ratio (z) = 0.19787 0.12746
#
# Static dielectric constant tensor:
#      x y z
#    x 1.882350 0.000000 0.030640 
#    y 0.000000 1.778960 0.000000 
#    z 0.030640 0.000000 1.810400 
# 
# From -- ./inp_files/7564.got.cif
#   From: 2010.05.17/outbox.cif.g08.bks.cpg/sg9_4_cif.got.tgz:7564.got - 2010.06.03 20:04:27.
