data_PCOD9138193
_publ_section_title
;
Structure prediction by ZEFSAII (Michael W. Deem and Ramdas Pophale) SiO2 
 PCOD9138193
Probable space group: C C
;
_chemical_formula_sum "Si O2"
_cell_formula_units_Z 28
_cell_length_a 19.920501
_cell_length_b 9.587081
_cell_length_c 9.004399
_cell_angle_alpha 90.000000
_cell_angle_beta 137.536305
_cell_angle_gamma 90.000000
_cell_volume 1160.978629
_symmetry_space_group_name_H-M "C C"
_symmetry_group_IT_number 9
_symmetry_cell_setting 'monoclinic'
loop_
_space_group_symop_operation_xyz
x,y,z
x,-y,1/2+z
1/2+x,1/2+y,z
1/2+x,1/2-y,1/2+z
loop_
_atom_site_type_symbol
_atom_site_label
_atom_site_fract_x
_atom_site_fract_y
_atom_site_fract_z
Si Si1 0.788460 0.390972 0.299700
Si Si2 0.153827 0.522727 0.877736
Si Si3 0.788970 0.888060 0.867216
Si Si4 0.040021 0.337992 0.927175
Si Si5 0.560881 0.676647 0.469893
Si Si6 0.397366 0.076342 0.686046
Si Si7 0.496179 0.438945 0.181772
O O1 0.848149 0.256909 0.458248
O O2 0.834327 0.532271 0.438649
O O3 0.813613 0.382479 0.168057
O O4 0.680687 0.341830 0.183752
O O5 0.224859 0.418578 0.905089
O O6 0.076367 0.424754 0.839279
O O7 0.112877 0.629088 0.686073
O O8 0.219213 0.594953 0.110741
O O9 0.882232 0.989802 0.013865
O O10 0.945673 0.430965 0.820270
O O11 0.031042 0.178208 0.860007
O O12 0.491173 0.815020 0.330576
O O13 0.552282 0.580120 0.311716
O O14 0.516193 0.614224 0.548936
#
# Coordination Sequence:
#
# PCOD9138193 Si02
#       7
#     4   4   4   4   4   4   4
#     4  12  26  46  76 106 145 196 255 302 382 452
#     4  10  23  40  76 107 140 196 244 306 385 444
#     4  11  22  45  67 107 145 187 250 304 364 465
#     4  11  22  45  74 105 143 190 245 308 373 446
#     4  12  27  48  73 108 154 193 249 320 373 457
#     4  12  25  49  74 107 149 195 247 314 374 454
#     4  12  25  47  70 106 150 189 242 310 381 432
#
# _framework density 24.117584000000001
#
# number of rings (size 3 to 8) (size 9 to 14) (size 15 to 20)
#    0.000    0.571    2.857    6.000    0.000    4.571 
#    5.143    0.000    0.000    0.000    0.000    0.000 
#    0.000    0.000    0.000    0.000    0.000    0.000 
#
# Total GULP energy -78031.487068 kJ/mol
# GULP energy per Si atom -5573.677648 kJ/mol
# Density = 2.406269 g / cm^3
# Si number density = 24.117584 Si / 1000 Ang^3
#
#
#
# Elastic Constant Matrix: (Units=GPa)
#
#
# Indices 1 2 3 4 5 6 
#
# 1 141.5929 18.2973 18.9080 0.0000 -7.5432 0.0000
# 2 18.2973 73.2165 18.3525 0.0000 -10.6604 0.0000
# 3 18.9080 18.3525 55.6790 0.0000 -2.6635 0.0000
# 4 0.0000 0.0000 0.0000 35.9024 0.0000 -1.2124
# 5 -7.5432 -10.6604 -2.6635 0.0000 28.5858 0.0000
# 6 0.0000 0.0000 0.0000 -1.2124 0.0000 21.2313
#
#
#
# Elastic Compliance Matrix: (Units=1/GPa)
#
#
# Indices 1 2 3 4 5 6 
#
# 1 0.007569 -0.001160 -0.002122 0.000000 0.001367 0.000000
# 2 -0.001160 0.015851 -0.004583 0.000000 0.005178 0.000000
# 3 -0.002122 -0.004583 0.020173 0.000000 -0.000389 0.000000
# 4 0.000000 0.000000 0.000000 0.027907 0.000000 0.001594
# 5 0.001367 0.005178 -0.000389 0.000000 0.037238 0.000000
# 6 0.000000 0.000000 0.000000 0.001594 0.000000 0.047191
#
#
# Mechanical properties :
#
#
# Convention : Reuss Voigt Hill
#
# Bulk Modulus (GPa) = 35.89265 42.40046 39.14655
# Shear Modulus (GPa) = 27.63247 31.47261 29.55254
#
# Velocity S-wave (km/s) = 3.38855 3.61635 3.50430
# Velocity P-wave (km/s) = 5.49767 5.92083 5.71317
#
# Compressibility (1/GPa) = 0.02786086
#
# Stress axis : x y z
#
# Youngs Moduli (GPa) = 132.12322 63.08842 49.57186
#
# Poissons Ratio (x) = 0.07321 0.10521
# Poissons Ratio (y) = 0.15333 0.22718
# Poissons Ratio (z) = 0.28041 0.28912
#
# Static dielectric constant tensor:
#      x y z
#    x 1.889750 0.000000 0.078760 
#    y 0.000000 2.066490 0.000000 
#    z 0.078760 0.000000 2.059190 
# 
# From -- ./inp_files/11429.got.cif
#   From: 2010.05.17/outbox.cif.g08.bks.cpg/sg9_6_cif.got.tgz:11429.got - 2010.06.03 20:04:27.
