data_PCOD9138493
_publ_section_title
;
Structure prediction by ZEFSAII (Michael W. Deem and Ramdas Pophale) SiO2 
 PCOD9138493
Probable space group: C C
;
_chemical_formula_sum "Si O2"
_cell_formula_units_Z 24
_cell_length_a 20.237443
_cell_length_b 7.028715
_cell_length_c 10.771913
_cell_angle_alpha 90.000000
_cell_angle_beta 136.763933
_cell_angle_gamma 90.000000
_cell_volume 1049.587593
_symmetry_space_group_name_H-M "C C"
_symmetry_group_IT_number 9
_symmetry_cell_setting 'monoclinic'
loop_
_space_group_symop_operation_xyz
x,y,z
x,-y,1/2+z
1/2+x,1/2+y,z
1/2+x,1/2-y,1/2+z
loop_
_atom_site_type_symbol
_atom_site_label
_atom_site_fract_x
_atom_site_fract_y
_atom_site_fract_z
Si Si1 0.617060 0.160910 0.767130
Si Si2 0.430103 0.600208 0.042980
Si Si3 0.826678 0.659832 0.569978
Si Si4 0.282784 0.186122 0.163019
Si Si5 0.590139 0.873269 0.958375
Si Si6 0.385402 0.777494 0.577157
O O1 0.536208 0.326564 0.658886
O O2 0.722049 0.253204 0.909104
O O3 0.600758 0.053491 0.613737
O O4 0.604661 0.030375 0.871300
O O5 0.410044 0.376443 0.009120
O O6 0.403746 0.676548 0.146462
O O7 0.351547 0.698023 0.847611
O O8 0.818473 0.528807 0.681707
O O9 0.855904 0.494110 0.510313
O O10 0.298278 0.284087 0.048344
O O11 0.172713 0.213539 0.052095
O O12 0.483419 0.792836 0.791624
#
# Coordination Sequence:
#
# PCOD9138493 Si02
#       6
#     4   4   4   4   4   4
#     4  12  24  46  74 105 146 186 239 290 354 421
#     4  12  22  47  70 100 143 188 229 300 353 416
#     4  10  23  47  69  99 141 184 240 290 352 420
#     4  10  23  44  66 101 139 179 239 291 340 430
#     4  12  24  46  71 107 143 186 238 290 349 432
#     4  10  24  46  68 102 142 181 239 289 352 417
#
# _framework density 22.866123999999999
#
# number of rings (size 3 to 8) (size 9 to 14) (size 15 to 20)
#    1.000    0.000    5.000    2.000    0.000    0.000 
#   12.000    0.000    0.000    0.000    0.000    0.000 
#    0.000    0.000    0.000    0.000    0.000    0.000 
#
# Total GULP energy -66908.954239 kJ/mol
# GULP energy per Si atom -5575.746187 kJ/mol
# Density = 2.281408 g / cm^3
# Si number density = 22.866124 Si / 1000 Ang^3
#
#
#
# Elastic Constant Matrix: (Units=GPa)
#
#
# Indices 1 2 3 4 5 6 
#
# 1 85.6949 8.0594 21.7540 0.0000 16.6216 0.0000
# 2 8.0594 70.9312 5.2690 0.0000 -7.2237 0.0000
# 3 21.7540 5.2690 60.9670 0.0000 2.7630 0.0000
# 4 0.0000 0.0000 0.0000 17.4649 0.0000 1.8281
# 5 16.6216 -7.2237 2.7630 0.0000 48.3850 0.0000
# 6 0.0000 0.0000 0.0000 1.8281 0.0000 48.1797
#
#
#
# Elastic Compliance Matrix: (Units=1/GPa)
#
#
# Indices 1 2 3 4 5 6 
#
# 1 0.013927 -0.001727 -0.004604 0.000000 -0.004779 0.000000
# 2 -0.001727 0.014640 -0.000777 0.000000 0.002823 0.000000
# 3 -0.004604 -0.000777 0.018093 0.000000 0.000432 0.000000
# 4 0.000000 0.000000 0.000000 0.057486 0.000000 -0.002181
# 5 -0.004779 0.002823 0.000432 0.000000 0.022706 0.000000
# 6 0.000000 0.000000 0.000000 -0.002181 0.000000 0.020838
#
#
# Mechanical properties :
#
#
# Convention : Reuss Voigt Hill
#
# Bulk Modulus (GPa) = 30.82224 31.97309 31.39767
# Shear Modulus (GPa) = 28.94852 34.97330 31.96091
#
# Velocity S-wave (km/s) = 3.56195 3.91510 3.74269
# Velocity P-wave (km/s) = 5.51592 5.86945 5.69543
#
# Compressibility (1/GPa) = 0.03244411
#
# Stress axis : x y z
#
# Youngs Moduli (GPa) = 71.80069 68.30765 55.27149
#
# Poissons Ratio (x) = 0.11798 0.25445
# Poissons Ratio (y) = 0.12402 0.04294
# Poissons Ratio (z) = 0.33055 0.05306
#
# Static dielectric constant tensor:
#      x y z
#    x 1.926820 0.000000 -0.084170 
#    y 0.000000 1.856900 0.000000 
#    z -0.084170 0.000000 1.830100 
# 
# From -- ./inp_files/20068.got.cif
#   From: 2010.05.17/outbox.cif.g08.bks.cpg/sg9_11_cif.got.tgz:20068.got - 2010.06.03 20:04:27.
