data_PCOD9138116
_publ_section_title
;
Structure prediction by ZEFSAII (Michael W. Deem and Ramdas Pophale) SiO2 
 PCOD9138116
Probable space group: C C
;
_chemical_formula_sum "Si O2"
_cell_formula_units_Z 20
_cell_length_a 6.954740
_cell_length_b 13.266087
_cell_length_c 12.184544
_cell_angle_alpha 90.000000
_cell_angle_beta 135.471309
_cell_angle_gamma 90.000000
_cell_volume 788.344447
_symmetry_space_group_name_H-M "C C"
_symmetry_group_IT_number 9
_symmetry_cell_setting 'monoclinic'
loop_
_space_group_symop_operation_xyz
x,y,z
x,-y,1/2+z
1/2+x,1/2+y,z
1/2+x,1/2-y,1/2+z
loop_
_atom_site_type_symbol
_atom_site_label
_atom_site_fract_x
_atom_site_fract_y
_atom_site_fract_z
Si Si1 0.213950 0.788212 0.519130
Si Si2 0.290440 0.767753 0.315698
Si Si3 0.248651 0.116379 0.580965
Si Si4 0.512244 0.066045 0.470302
Si Si5 0.494270 0.433390 0.598486
O O1 0.189367 0.826616 0.384260
O O2 0.530037 0.802078 0.680456
O O3 0.026780 0.833051 0.538948
O O4 0.164296 0.668026 0.492114
O O5 0.548325 0.699667 0.448722
O O6 0.353874 0.835165 0.236359
O O7 0.466787 0.082305 0.580582
O O8 0.080918 0.018496 0.546946
O O9 0.222734 0.065394 0.287766
O O10 0.702427 0.969586 0.524609
#
# Coordination Sequence:
#
# PCOD9138116 Si02
#       5
#     4   4   4   4   4
#     4  11  23  49  82 117 166 212 281 339 419 490
#     4  10  22  50  82 119 163 217 270 344 414 490
#     4  11  27  48  80 120 163 219 275 337 424 490
#     4  12  29  51  79 125 164 217 281 341 420 495
#     4  12  27  52  83 117 168 219 275 349 409 505
#
# _framework density 25.369620000000001
#
# number of rings (size 3 to 8) (size 9 to 14) (size 15 to 20)
#    0.000    0.800    6.000    0.000    5.600    6.400 
#    0.000    0.000    0.000    0.000    0.000    0.000 
#    0.000    0.000    0.000    0.000    0.000    0.000 
#
# Total GULP energy -56066.244226 kJ/mol
# GULP energy per Si atom -5606.624423 kJ/mol
# Density = 2.531188 g / cm^3
# Si number density = 25.369620 Si / 1000 Ang^3
#
#
#
# Elastic Constant Matrix: (Units=GPa)
#
#
# Indices 1 2 3 4 5 6 
#
# 1 155.6510 39.9819 68.3254 0.0006 -29.2023 0.0003
# 2 39.9819 75.5035 31.5141 0.0003 3.0255 0.0003
# 3 68.3254 31.5141 151.2158 0.0010 -10.4504 0.0009
# 4 0.0006 0.0003 0.0010 35.8942 0.0006 -9.2468
# 5 -29.2023 3.0255 -10.4504 0.0006 45.9443 0.0004
# 6 0.0003 0.0003 0.0009 -9.2468 0.0004 50.4340
#
#
#
# Elastic Compliance Matrix: (Units=1/GPa)
#
#
# Indices 1 2 3 4 5 6 
#
# 1 0.010041 -0.004196 -0.003253 0.000000 0.005918 0.000000
# 2 -0.004196 0.016387 -0.001806 0.000000 -0.004157 0.000000
# 3 -0.003253 -0.001806 0.008458 0.000000 -0.000025 0.000000
# 4 0.000000 0.000000 0.000000 0.029241 -0.000001 0.005361
# 5 0.005918 -0.004157 -0.000025 -0.000001 0.025795 0.000000
# 6 0.000000 0.000000 0.000000 0.005361 0.000000 0.020811
#
#
# Mechanical properties :
#
#
# Convention : Reuss Voigt Hill
#
# Bulk Modulus (GPa) = 61.07351 73.55700 67.31525
# Shear Modulus (GPa) = 37.11874 42.62444 39.87159
#
# Velocity S-wave (km/s) = 3.82922 4.10339 3.96868
# Velocity P-wave (km/s) = 6.60881 7.17687 6.89869
#
# Compressibility (1/GPa) = 0.01637371
#
# Stress axis : x y z
#
# Youngs Moduli (GPa) = 99.59128 61.02376 118.23405
#
# Poissons Ratio (x) = 0.25608 0.38466
# Poissons Ratio (y) = 0.41792 0.21358
# Poissons Ratio (z) = 0.32401 0.11023
#
# Static dielectric constant tensor:
#      x y z
#    x 2.016350 0.000000 -0.009040 
#    y 0.000000 2.007750 0.000000 
#    z -0.009040 0.000000 1.997570 
# 
# From -- ./inp_files/4701.got.cif
#   From: 2010.05.17/outbox.cif.g08.bks.cpg/sg9_3_cif.got.tgz:4701.got - 2010.06.03 20:04:27.
