data_PCOD9138027
_publ_section_title
;
Structure prediction by ZEFSAII (Michael W. Deem and Ramdas Pophale) SiO2 
 PCOD9138027
Probable space group: C C
;
_chemical_formula_sum "Si O2"
_cell_formula_units_Z 28
_cell_length_a 13.833477
_cell_length_b 11.517628
_cell_length_c 9.092664
_cell_angle_alpha 90.000000
_cell_angle_beta 128.306919
_cell_angle_gamma 90.000000
_cell_volume 1136.815632
_symmetry_space_group_name_H-M "C C"
_symmetry_group_IT_number 9
_symmetry_cell_setting 'monoclinic'
loop_
_space_group_symop_operation_xyz
x,y,z
x,-y,1/2+z
1/2+x,1/2+y,z
1/2+x,1/2-y,1/2+z
loop_
_atom_site_type_symbol
_atom_site_label
_atom_site_fract_x
_atom_site_fract_y
_atom_site_fract_z
Si Si1 0.981170 0.247735 0.726660
Si Si2 0.229829 0.708116 0.491490
Si Si3 0.583319 0.240777 0.884057
Si Si4 0.480646 0.569699 0.514700
Si Si5 0.965020 0.386569 0.013321
Si Si6 0.694323 0.385978 0.727428
Si Si7 0.209810 0.521126 0.150421
O O1 0.847911 0.265523 0.527716
O O2 0.966822 0.294272 0.878716
O O3 0.001433 0.114744 0.701493
O O4 0.104747 0.305220 0.783759
O O5 0.202270 0.794773 0.600884
O O6 0.250136 0.582615 0.579110
O O7 0.519377 0.326623 0.940188
O O8 0.482318 0.178767 0.683559
O O9 0.664918 0.316306 0.848351
O O10 0.667097 0.138416 0.030151
O O11 0.580203 0.469391 0.589799
O O12 0.336852 0.539755 0.358812
O O13 0.829888 0.443196 0.872555
O O14 0.085465 0.466847 0.106426
#
# Coordination Sequence:
#
# PCOD9138027 Si02
#       7
#     4   4   4   4   4   4   4
#     4  10  23  45  74 108 144 193 248 306 369 445
#     4  10  22  46  76 105 141 198 247 298 373 447
#     4  12  27  48  76 115 152 198 255 312 375 455
#     4  12  30  45  78 114 155 191 255 312 382 444
#     4  10  25  52  79 105 152 202 253 308 382 443
#     4  11  25  48  77 108 151 199 245 311 374 446
#     4  11  26  46  76 111 147 195 251 309 375 446
#
# _framework density 24.630205
#
# number of rings (size 3 to 8) (size 9 to 14) (size 15 to 20)
#    0.000    1.143    2.857    1.714   10.000    3.429 
#    5.143    0.000    0.000    0.000    0.000    0.000 
#    0.000    0.000    0.000    0.000    0.000    0.000 
#
# Total GULP energy -78179.855648 kJ/mol
# GULP energy per Si atom -5584.275403 kJ/mol
# Density = 2.457415 g / cm^3
# Si number density = 24.630205 Si / 1000 Ang^3
#
#
#
# Elastic Constant Matrix: (Units=GPa)
#
#
# Indices 1 2 3 4 5 6 
#
# 1 106.5695 56.8379 84.6221 0.0000 12.2267 0.0000
# 2 56.8379 143.5271 85.7343 0.0000 -1.2206 0.0000
# 3 84.6221 85.7343 159.6935 0.0000 27.5483 0.0000
# 4 0.0000 0.0000 0.0000 45.6075 0.0000 -0.5659
# 5 12.2267 -1.2206 27.5483 0.0000 38.0733 0.0000
# 6 0.0000 0.0000 0.0000 -0.5659 0.0000 13.0976
#
#
#
# Elastic Compliance Matrix: (Units=1/GPa)
#
#
# Indices 1 2 3 4 5 6 
#
# 1 0.016560 -0.001893 -0.007805 0.000000 0.000269 0.000000
# 2 -0.001893 0.011352 -0.006009 0.000000 0.005320 0.000000
# 3 -0.007805 -0.006009 0.015111 0.000000 -0.008620 0.000000
# 4 0.000000 0.000000 0.000000 0.021938 0.000000 0.000948
# 5 0.000269 0.005320 -0.008620 0.000000 0.032586 0.000000
# 6 0.000000 0.000000 0.000000 0.000948 0.000000 0.076391
#
#
# Mechanical properties :
#
#
# Convention : Reuss Voigt Hill
#
# Bulk Modulus (GPa) = 86.14607 96.01986 91.08296
# Shear Modulus (GPa) = 23.89812 31.52874 27.71343
#
# Velocity S-wave (km/s) = 3.11831 3.58171 3.35801
# Velocity P-wave (km/s) = 6.92942 7.49494 7.21772
#
# Compressibility (1/GPa) = 0.01160819
#
# Stress axis : x y z
#
# Youngs Moduli (GPa) = 60.38533 88.09370 66.17773
#
# Poissons Ratio (x) = 0.16679 0.51653
# Poissons Ratio (y) = 0.11433 0.39764
# Poissons Ratio (z) = 0.47132 0.52932
#
# Static dielectric constant tensor:
#      x y z
#    x 2.028330 0.000000 0.034650 
#    y 0.000000 1.968020 0.000000 
#    z 0.034650 0.000000 2.035160 
# 
# From -- ./inp_files/19284.got.cif
#   From: 2010.05.17/outbox.cif.g08.bks.cpg/sg9_10_cif.got.tgz:19284.got - 2010.06.03 20:04:27.
