data_PCOD9138279
_publ_section_title
;
Structure prediction by ZEFSAII (Michael W. Deem and Ramdas Pophale) SiO2 
 PCOD9138279
Probable space group: C C
;
_chemical_formula_sum "Si O2"
_cell_formula_units_Z 28
_cell_length_a 8.559262
_cell_length_b 20.022268
_cell_length_c 11.080781
_cell_angle_alpha 90.000000
_cell_angle_beta 39.969025
_cell_angle_gamma 90.000000
_cell_volume 1219.852997
_symmetry_space_group_name_H-M "C C"
_symmetry_group_IT_number 9
_symmetry_cell_setting 'monoclinic'
loop_
_space_group_symop_operation_xyz
x,y,z
x,-y,1/2+z
1/2+x,1/2+y,z
1/2+x,1/2-y,1/2+z
loop_
_atom_site_type_symbol
_atom_site_label
_atom_site_fract_x
_atom_site_fract_y
_atom_site_fract_z
Si Si1 0.115530 0.818514 0.838250
Si Si2 0.095365 0.587715 0.318684
Si Si3 0.116633 0.148961 0.618431
Si Si4 0.890787 0.552060 0.887495
Si Si5 0.422701 0.560559 0.336193
Si Si6 0.527143 0.566343 0.900294
Si Si7 0.099415 0.326546 0.403988
O O1 0.389074 0.831448 0.628479
O O2 0.930589 0.863766 0.874248
O O3 0.047286 0.741357 0.863157
O O4 0.098891 0.843716 0.985081
O O5 0.199777 0.553270 0.377862
O O6 0.910293 0.647604 0.457930
O O7 0.963559 0.525267 0.332518
O O8 0.320990 0.605187 0.098148
O O9 0.055512 0.087967 0.745122
O O10 0.868640 0.189558 0.797695
O O11 0.775122 0.573603 0.828261
O O12 0.076215 0.606388 0.836013
O O13 0.665101 0.552150 0.113535
O O14 0.440859 0.510387 0.437540
#
# Coordination Sequence:
#
# PCOD9138279 Si02
#       7
#     4   4   4   4   4   4   4
#     4  11  24  45  72  96 132 181 230 273 330 402
#     4  11  24  40  66 102 137 175 218 277 342 399
#     4  12  24  42  66  98 132 174 222 272 338 396
#     4  10  23  42  66 100 139 174 222 277 334 400
#     4  10  23  42  66 100 139 174 222 277 334 400
#     4  11  24  40  66 102 137 175 218 277 342 399
#     4  11  24  45  72  96 132 181 230 273 330 402
#
# _framework density 22.953586000000001
#
# number of rings (size 3 to 8) (size 9 to 14) (size 15 to 20)
#    0.000    1.143    2.857    2.571    8.000    2.286 
#    0.000    1.429    6.286    0.000    0.000    0.000 
#    0.000    0.000    0.000    0.000    0.000    0.000 
#
# Total GULP energy -77957.647549 kJ/mol
# GULP energy per Si atom -5568.403396 kJ/mol
# Density = 2.290134 g / cm^3
# Si number density = 22.953586 Si / 1000 Ang^3
#
#
#
# Elastic Constant Matrix: (Units=GPa)
#
#
# Indices 1 2 3 4 5 6 
#
# 1 51.0156 7.2805 11.5571 0.0000 -8.2899 0.0000
# 2 7.2805 32.8997 -12.7846 0.0000 9.3421 0.0000
# 3 11.5571 -12.7846 121.8676 0.0000 -3.8274 0.0000
# 4 0.0000 0.0000 0.0000 20.7033 0.0000 -2.1717
# 5 -8.2899 9.3421 -3.8274 0.0000 26.3550 0.0000
# 6 0.0000 0.0000 0.0000 -2.1717 0.0000 26.9739
#
#
#
# Elastic Compliance Matrix: (Units=1/GPa)
#
#
# Indices 1 2 3 4 5 6 
#
# 1 0.023186 -0.009103 -0.002836 0.000000 0.010108 0.000000
# 2 -0.009103 0.038648 0.004418 0.000000 -0.015921 0.000000
# 3 -0.002836 0.004418 0.008901 0.000000 -0.001165 0.000000
# 4 0.000000 0.000000 0.000000 0.048713 0.000000 0.003922
# 5 0.010108 -0.015921 -0.001165 0.000000 0.046597 0.000000
# 6 0.000000 0.000000 0.000000 0.003922 0.000000 0.037389
#
#
# Mechanical properties :
#
#
# Convention : Reuss Voigt Hill
#
# Bulk Modulus (GPa) = 17.95626 24.20989 21.08308
# Shear Modulus (GPa) = 21.09331 28.12176 24.60754
#
# Velocity S-wave (km/s) = 3.03472 3.50402 3.27778
# Velocity P-wave (km/s) = 4.48544 5.19048 4.85079
#
# Compressibility (1/GPa) = 0.05569087
#
# Stress axis : x y z
#
# Youngs Moduli (GPa) = 43.12931 25.87483 112.34143
#
# Poissons Ratio (x) = 0.23555 0.31864
# Poissons Ratio (y) = 0.39262 -0.49628
# Poissons Ratio (z) = 0.12233 -0.11430
#
# Static dielectric constant tensor:
#      x y z
#    x 1.833840 0.000000 -0.026060 
#    y 0.000000 1.850160 0.000000 
#    z -0.026060 0.000000 1.909010 
# 
# From -- ./inp_files/15459.got.cif
#   From: 2010.05.17/outbox.cif.g08.bks.cpg/sg9_8_cif.got.tgz:15459.got - 2010.06.03 20:04:27.
