data_PCOD9138725
_publ_section_title
;
Structure prediction by ZEFSAII (Michael W. Deem and Ramdas Pophale) SiO2 
 PCOD9138725
Probable space group: C C
;
_chemical_formula_sum "Si O2"
_cell_formula_units_Z 20
_cell_length_a 7.317696
_cell_length_b 7.565769
_cell_length_c 14.452847
_cell_angle_alpha 90.000000
_cell_angle_beta 64.878437
_cell_angle_gamma 90.000000
_cell_volume 724.478824
_symmetry_space_group_name_H-M "C C"
_symmetry_group_IT_number 9
_symmetry_cell_setting 'monoclinic'
loop_
_space_group_symop_operation_xyz
x,y,z
x,-y,1/2+z
1/2+x,1/2+y,z
1/2+x,1/2-y,1/2+z
loop_
_atom_site_type_symbol
_atom_site_label
_atom_site_fract_x
_atom_site_fract_y
_atom_site_fract_z
Si Si1 0.657680 0.577252 0.171030
Si Si2 0.239657 0.635067 0.333725
Si Si3 0.532223 0.414542 0.495121
Si Si4 0.685123 0.795893 0.448082
Si Si5 0.008472 0.685791 0.220315
O O1 0.481370 0.642397 0.278229
O O2 0.878579 0.610370 0.164419
O O3 0.611646 0.370993 0.177336
O O4 0.615357 0.646188 0.076789
O O5 0.172301 0.824741 0.386453
O O6 0.128556 0.488591 0.420760
O O7 0.174789 0.579831 0.243259
O O8 0.541537 0.627409 0.489187
O O9 0.313145 0.345322 0.512205
O O10 0.845373 0.728918 0.336347
#
# Coordination Sequence:
#
# PCOD9138725 Si02
#       5
#     4   4   4   4   4
#     4  11  26  45  72 112 150 193 254 310 380 446
#     4  10  24  50  79 101 153 204 243 314 386 446
#     4  11  26  45  72 113 147 195 255 311 371 460
#     4  10  23  46  70 105 142 193 250 305 374 447
#     4  10  23  46  71 105 144 191 252 306 375 453
#
# _framework density 27.606051000000001
#
# number of rings (size 3 to 8) (size 9 to 14) (size 15 to 20)
#    0.000    1.600    0.000    3.600    5.600   14.400 
#    0.000    2.000    0.000    0.000    0.000    0.000 
#    0.000    0.000    0.000    0.000    0.000    0.000 
#
# Total GULP energy -56021.312750 kJ/mol
# GULP energy per Si atom -5602.131275 kJ/mol
# Density = 2.754322 g / cm^3
# Si number density = 27.606051 Si / 1000 Ang^3
#
#
#
# Elastic Constant Matrix: (Units=GPa)
#
#
# Indices 1 2 3 4 5 6 
#
# 1 189.7045 74.8141 51.4703 0.0000 37.5674 0.0000
# 2 74.8141 130.6823 37.9043 0.0000 -5.5506 0.0000
# 3 51.4703 37.9043 118.8940 0.0000 43.4642 0.0000
# 4 0.0000 0.0000 0.0000 47.0779 0.0000 -2.6708
# 5 37.5674 -5.5506 43.4642 0.0000 50.4806 0.0000
# 6 0.0000 0.0000 0.0000 -2.6708 0.0000 51.8768
#
#
#
# Elastic Compliance Matrix: (Units=1/GPa)
#
#
# Indices 1 2 3 4 5 6 
#
# 1 0.008838 -0.005655 0.000888 0.000000 -0.007964 0.000000
# 2 -0.005655 0.012903 -0.005433 0.000000 0.010305 0.000000
# 3 0.000888 -0.005433 0.014912 0.000000 -0.014098 0.000000
# 4 0.000000 0.000000 0.000000 0.021304 0.000000 0.001097
# 5 -0.007964 0.010305 -0.014098 0.000000 0.039008 0.000000
# 6 0.000000 0.000000 0.000000 0.001097 0.000000 0.019333
#
#
# Mechanical properties :
#
#
# Convention : Reuss Voigt Hill
#
# Bulk Modulus (GPa) = 61.52465 85.29536 73.41000
# Shear Modulus (GPa) = 35.18298 48.22654 41.70476
#
# Velocity S-wave (km/s) = 3.57384 4.18419 3.89100
# Velocity P-wave (km/s) = 6.27414 7.36938 6.84370
#
# Compressibility (1/GPa) = 0.01625365
#
# Stress axis : x y z
#
# Youngs Moduli (GPa) = 113.15120 77.49994 67.06026
#
# Poissons Ratio (x) = 0.43830 -0.05957
# Poissons Ratio (y) = 0.63992 0.36431
# Poissons Ratio (z) = -0.10052 0.42103
#
# Static dielectric constant tensor:
#      x y z
#    x 2.177500 0.000000 0.054320 
#    y 0.000000 2.081820 0.000000 
#    z 0.054320 0.000000 2.320380 
# 
# From -- ./inp_files/22340.got.cif
#   From: 2010.05.17/outbox.cif.g08.bks.cpg/sg9_12_cif.got.tgz:22340.got - 2010.06.03 20:04:27.
