data_PCOD9138025
_publ_section_title
;
Structure prediction by ZEFSAII (Michael W. Deem and Ramdas Pophale) SiO2 
 PCOD9138025
Probable space group: C C
;
_chemical_formula_sum "Si O2"
_cell_formula_units_Z 28
_cell_length_a 12.133201
_cell_length_b 10.601889
_cell_length_c 19.631599
_cell_angle_alpha 90.000000
_cell_angle_beta 151.364186
_cell_angle_gamma 90.000000
_cell_volume 1210.229941
_symmetry_space_group_name_H-M "C C"
_symmetry_group_IT_number 9
_symmetry_cell_setting 'monoclinic'
loop_
_space_group_symop_operation_xyz
x,y,z
x,-y,1/2+z
1/2+x,1/2+y,z
1/2+x,1/2-y,1/2+z
loop_
_atom_site_type_symbol
_atom_site_label
_atom_site_fract_x
_atom_site_fract_y
_atom_site_fract_z
Si Si1 0.537160 0.097691 0.005540
Si Si2 0.484252 0.673897 0.290364
Si Si3 0.087133 0.754350 0.237067
Si Si4 0.635087 0.835214 0.909569
Si Si5 0.218441 0.497790 0.730593
Si Si6 0.706389 0.714987 0.265934
Si Si7 0.253315 0.595992 0.987384
O O1 0.714486 0.207841 0.127744
O O2 0.529454 0.008586 0.067097
O O3 0.703551 0.045846 0.036811
O O4 0.293989 0.143661 0.847111
O O5 0.449901 0.544409 0.314229
O O6 0.634141 0.677241 0.303133
O O7 0.592449 0.783376 0.393524
O O8 0.044564 0.742420 0.295153
O O9 0.174715 0.619433 0.256660
O O10 0.871412 0.788694 0.072559
O O11 0.443784 0.830999 0.864222
O O12 0.680961 0.975759 0.905813
O O13 0.209998 0.633674 0.759840
O O14 0.507152 0.646869 0.114195
#
# Coordination Sequence:
#
# PCOD9138025 Si02
#       7
#     4   4   4   4   4   4   4
#     4   9  20  43  73 104 138 193 245 295 374 446
#     4   9  21  44  72 109 137 196 243 306 373 433
#     4  12  24  50  71 108 148 194 250 301 381 447
#     4  12  30  44  71 109 148 198 241 315 374 452
#     4  10  22  46  75 107 147 192 245 313 368 449
#     4  11  27  45  69 112 145 194 254 306 377 456
#     4  11  24  46  73 101 149 197 246 312 375 445
#
# _framework density 23.136099000000002
#
# number of rings (size 3 to 8) (size 9 to 14) (size 15 to 20)
#    0.857    0.571    2.857    0.857    6.000    1.143 
#    5.143    0.000    0.000    0.000    0.000    0.000 
#    0.000    0.000    0.000    0.000    0.000    0.000 
#
# Total GULP energy -78055.822393 kJ/mol
# GULP energy per Si atom -5575.415885 kJ/mol
# Density = 2.308344 g / cm^3
# Si number density = 23.136099 Si / 1000 Ang^3
#
#
#
# Elastic Constant Matrix: (Units=GPa)
#
#
# Indices 1 2 3 4 5 6 
#
# 1 128.7839 26.7432 27.0988 0.0000 12.2794 0.0000
# 2 26.7432 102.0757 14.8405 0.0001 20.0262 0.0000
# 3 27.0988 14.8405 73.3591 0.0008 13.0682 0.0003
# 4 0.0000 0.0001 0.0008 30.0019 0.0002 4.7569
# 5 12.2794 20.0262 13.0682 0.0002 32.3222 0.0001
# 6 0.0000 0.0000 0.0003 4.7569 0.0001 18.3083
#
#
#
# Elastic Compliance Matrix: (Units=1/GPa)
#
#
# Indices 1 2 3 4 5 6 
#
# 1 0.008795 -0.001674 -0.002694 0.000000 -0.001215 0.000000
# 2 -0.001674 0.011555 -0.000600 0.000000 -0.006280 0.000000
# 3 -0.002694 -0.000600 0.015625 0.000000 -0.004922 0.000000
# 4 0.000000 0.000000 0.000000 0.034763 0.000000 -0.009032
# 5 -0.001215 -0.006280 -0.004922 0.000000 0.037281 0.000000
# 6 0.000000 0.000000 0.000000 -0.009032 0.000000 0.056967
#
#
# Mechanical properties :
#
#
# Convention : Reuss Voigt Hill
#
# Bulk Modulus (GPa) = 38.40524 49.06486 43.73505
# Shear Modulus (GPa) = 27.23277 31.82891 29.53084
#
# Velocity S-wave (km/s) = 3.43457 3.71310 3.57655
# Velocity P-wave (km/s) = 5.68894 6.29571 6.00000
#
# Compressibility (1/GPa) = 0.02603811
#
# Stress axis : x y z
#
# Youngs Moduli (GPa) = 113.69693 86.54478 64.00030
#
# Poissons Ratio (x) = 0.14490 0.17241
# Poissons Ratio (y) = 0.19037 0.03842
# Poissons Ratio (z) = 0.30628 0.05195
#
# Static dielectric constant tensor:
#      x y z
#    x 1.947480 0.000000 -0.076850 
#    y 0.000000 1.922690 0.000000 
#    z -0.076850 0.000000 1.901490 
# 
# From -- ./inp_files/33333.got.cif
#   From: 2010.05.17/outbox.cif.g08.bks.cpg/sg9_17_cif.got.tgz:33333.got - 2010.06.03 20:04:27.
