data_PCOD9138247
_publ_section_title
;
Structure prediction by ZEFSAII (Michael W. Deem and Ramdas Pophale) SiO2 
 PCOD9138247
Probable space group: C C
;
_chemical_formula_sum "Si O2"
_cell_formula_units_Z 28
_cell_length_a 23.536937
_cell_length_b 5.534954
_cell_length_c 10.372812
_cell_angle_alpha 90.000000
_cell_angle_beta 131.284784
_cell_angle_gamma 90.000000
_cell_volume 1015.440358
_symmetry_space_group_name_H-M "C C"
_symmetry_group_IT_number 9
_symmetry_cell_setting 'monoclinic'
loop_
_space_group_symop_operation_xyz
x,y,z
x,-y,1/2+z
1/2+x,1/2+y,z
1/2+x,1/2-y,1/2+z
loop_
_atom_site_type_symbol
_atom_site_label
_atom_site_fract_x
_atom_site_fract_y
_atom_site_fract_z
Si Si1 0.391760 0.979523 0.591530
Si Si2 0.636629 0.854494 0.671280
Si Si3 0.361795 0.533198 0.103774
Si Si4 0.492993 0.887665 0.002419
Si Si5 0.250044 0.579306 0.140741
Si Si6 0.173284 0.913276 0.444821
Si Si7 0.032907 0.975779 0.894272
O O1 0.336220 0.210321 0.508444
O O2 0.443933 0.012077 0.545792
O O3 0.345595 0.729887 0.522735
O O4 0.441902 0.962507 0.798745
O O5 0.711888 0.958810 0.723191
O O6 0.653776 0.599424 0.764999
O O7 0.576022 0.776137 0.471609
O O8 0.579053 0.024615 0.660242
O O9 0.451570 0.551279 0.209418
O O10 0.335222 0.554162 0.213592
O O11 0.508187 0.607417 0.989801
O O12 0.215030 0.344942 0.017307
O O13 0.219040 0.847881 0.055190
O O14 0.095410 0.880424 0.407779
#
# Coordination Sequence:
#
# PCOD9138247 Si02
#       7
#     4   4   4   4   4   4   4
#     4  11  26  43  74 103 143 182 243 295 365 410
#     4  11  23  41  72 100 141 184 238 296 355 427
#     4  11  24  49  68 104 139 188 234 301 356 434
#     4  11  23  42  71 108 139 184 237 309 347 425
#     4  11  26  48  67  99 148 183 238 285 372 429
#     4  11  25  44  70 104 137 190 238 293 355 435
#     4  10  23  41  72 104 139 179 244 299 354 418
#
# _framework density 27.574242999999999
#
# number of rings (size 3 to 8) (size 9 to 14) (size 15 to 20)
#    0.000    1.143    2.857    2.571    6.000    0.000 
#   10.286    0.000    0.000    0.000    0.000    0.000 
#    0.000    0.000    0.000    0.000    0.000    0.000 
#
# Total GULP energy -78074.881406 kJ/mol
# GULP energy per Si atom -5576.777243 kJ/mol
# Density = 2.751148 g / cm^3
# Si number density = 27.574243 Si / 1000 Ang^3
#
#
#
# Elastic Constant Matrix: (Units=GPa)
#
#
# Indices 1 2 3 4 5 6 
#
# 1 227.6444 37.8131 45.5928 0.0000 -3.6639 0.0000
# 2 37.8131 172.0109 27.2510 0.0000 4.9020 0.0000
# 3 45.5928 27.2510 67.4135 0.0000 10.1038 0.0000
# 4 0.0000 0.0000 0.0000 37.0008 0.0000 3.6983
# 5 -3.6639 4.9020 10.1038 0.0000 32.4347 0.0000
# 6 0.0000 0.0000 0.0000 3.6983 0.0000 32.4590
#
#
#
# Elastic Compliance Matrix: (Units=1/GPa)
#
#
# Indices 1 2 3 4 5 6 
#
# 1 0.005240 -0.000640 -0.003554 0.000000 0.001796 0.000000
# 2 -0.000640 0.006290 -0.002052 0.000000 -0.000384 0.000000
# 3 -0.003554 -0.002052 0.018967 0.000000 -0.006000 0.000000
# 4 0.000000 0.000000 0.000000 0.027338 0.000000 -0.003115
# 5 0.001796 -0.000384 -0.006000 0.000000 0.032961 0.000000
# 6 0.000000 0.000000 0.000000 -0.003115 0.000000 0.031163
#
#
# Mechanical properties :
#
#
# Convention : Reuss Voigt Hill
#
# Bulk Modulus (GPa) = 55.54528 76.48698 66.01613
# Shear Modulus (GPa) = 35.59909 44.13970 39.86940
#
# Velocity S-wave (km/s) = 3.59698 4.00529 3.80661
# Velocity P-wave (km/s) = 6.11872 7.01346 6.58131
#
# Compressibility (1/GPa) = 0.01800333
#
# Stress axis : x y z
#
# Youngs Moduli (GPa) = 190.84430 158.97319 52.72445
#
# Poissons Ratio (x) = 0.10174 0.18740
# Poissons Ratio (y) = 0.12213 0.10822
# Poissons Ratio (z) = 0.67831 0.32629
#
# Static dielectric constant tensor:
#      x y z
#    x 2.169850 0.000000 -0.050560 
#    y 0.000000 2.312340 0.000000 
#    z -0.050560 0.000000 2.409670 
# 
# From -- ./inp_files/19653.got.cif
#   From: 2010.05.17/outbox.cif.g08.bks.cpg/sg9_10_cif.got.tgz:19653.got - 2010.06.03 20:04:27.
