data_PCOD9138940
_publ_section_title
;
Structure prediction by ZEFSAII (Michael W. Deem and Ramdas Pophale) SiO2 
 PCOD9138940
Probable space group: C C
;
_chemical_formula_sum "Si O2"
_cell_formula_units_Z 28
_cell_length_a 4.817537
_cell_length_b 21.054730
_cell_length_c 12.093484
_cell_angle_alpha 90.000000
_cell_angle_beta 75.167142
_cell_angle_gamma 90.000000
_cell_volume 1185.789054
_symmetry_space_group_name_H-M "C C"
_symmetry_group_IT_number 9
_symmetry_cell_setting 'monoclinic'
loop_
_space_group_symop_operation_xyz
x,y,z
x,-y,1/2+z
1/2+x,1/2+y,z
1/2+x,1/2-y,1/2+z
loop_
_atom_site_type_symbol
_atom_site_label
_atom_site_fract_x
_atom_site_fract_y
_atom_site_fract_z
Si Si1 0.174940 0.617325 0.998910
Si Si2 0.732244 0.305821 0.409485
Si Si3 0.795907 0.610572 0.253344
Si Si4 0.416085 0.889262 0.210869
Si Si5 0.011564 0.086774 0.560385
Si Si6 0.763329 0.837516 0.875198
Si Si7 0.536317 0.488000 0.380172
O O1 0.482417 0.650177 0.985342
O O2 0.244577 0.552399 0.924992
O O3 0.010514 0.670760 0.946385
O O4 0.994954 0.603447 0.126724
O O5 0.814870 0.323455 0.274681
O O6 0.661518 0.232130 0.419408
O O7 0.552900 0.665087 0.269978
O O8 0.597862 0.548212 0.294479
O O9 0.012748 0.625573 0.333893
O O10 0.748216 0.907716 0.172467
O O11 0.259980 0.938839 0.307238
O O12 0.288407 0.893699 0.100935
O O13 0.895479 0.129930 0.471725
O O14 0.070190 0.018654 0.498585
#
# Coordination Sequence:
#
# PCOD9138940 Si02
#       7
#     4   4   4   4   4   4   4
#     4  11  24  43  70 100 133 179 226 281 347 408
#     4  11  25  45  67  99 137 175 230 286 338 411
#     4  11  24  43  70 100 133 179 226 281 347 408
#     4  11  24  41  65  94 128 172 216 270 336 397
#     4  11  24  41  65  94 128 172 216 270 336 397
#     4  11  25  45  67  99 137 175 230 286 338 411
#     4  10  24  42  64  94 132 166 220 274 326 400
#
# _framework density 23.612971000000002
#
# number of rings (size 3 to 8) (size 9 to 14) (size 15 to 20)
#    0.000    1.143    0.000    6.000    0.000   18.286 
#    0.000    0.000    0.000    0.000    0.000    0.000 
#    0.000    0.000    0.000    0.000    0.000    0.000 
#
# Total GULP energy -78161.752777 kJ/mol
# GULP energy per Si atom -5582.982341 kJ/mol
# Density = 2.355923 g / cm^3
# Si number density = 23.612971 Si / 1000 Ang^3
#
#
#
# Elastic Constant Matrix: (Units=GPa)
#
#
# Indices 1 2 3 4 5 6 
#
# 1 79.8670 12.2000 16.8767 0.0000 -2.6953 0.0000
# 2 12.2000 102.2423 30.4663 0.0000 1.4222 0.0000
# 3 16.8767 30.4663 118.7674 0.0000 -17.7022 0.0000
# 4 0.0000 0.0000 0.0000 25.7446 0.0000 3.3188
# 5 -2.6953 1.4222 -17.7022 0.0000 51.5714 0.0000
# 6 0.0000 0.0000 0.0000 3.3188 0.0000 47.8678
#
#
#
# Elastic Compliance Matrix: (Units=1/GPa)
#
#
# Indices 1 2 3 4 5 6 
#
# 1 0.013020 -0.001097 -0.001542 0.000000 0.000182 0.000000
# 2 -0.001097 0.010765 -0.002802 0.000000 -0.001316 0.000000
# 3 -0.001542 -0.002802 0.009862 0.000000 0.003382 0.000000
# 4 0.000000 0.000000 0.000000 0.039193 0.000000 -0.002717
# 5 0.000182 -0.001316 0.003382 0.000000 0.020597 0.000000
# 6 0.000000 0.000000 0.000000 -0.002717 0.000000 0.021079
#
#
# Mechanical properties :
#
#
# Convention : Reuss Voigt Hill
#
# Bulk Modulus (GPa) = 43.92467 46.66254 45.29361
# Shear Modulus (GPa) = 37.59807 41.12567 39.36187
#
# Velocity S-wave (km/s) = 3.99465 4.17784 4.08727
# Velocity P-wave (km/s) = 6.31811 6.56329 6.44187
#
# Compressibility (1/GPa) = 0.02276625
#
# Stress axis : x y z
#
# Youngs Moduli (GPa) = 76.80337 92.89615 101.40302
#
# Poissons Ratio (x) = 0.10188 0.15634
# Poissons Ratio (y) = 0.08423 0.28410
# Poissons Ratio (z) = 0.11841 0.26026
#
# Static dielectric constant tensor:
#      x y z
#    x 1.862840 0.000000 0.004960 
#    y 0.000000 1.992390 0.000000 
#    z 0.004960 0.000000 1.971170 
# 
# From -- ./inp_files/13316.got.cif
#   From: 2010.05.17/outbox.cif.g08.bks.cpg/sg9_7_cif.got.tgz:13316.got - 2010.06.03 20:04:27.
