data_PCOD9138804
_publ_section_title
;
Structure prediction by ZEFSAII (Michael W. Deem and Ramdas Pophale) SiO2 
 PCOD9138804
Probable space group: C C
;
_chemical_formula_sum "Si O2"
_cell_formula_units_Z 32
_cell_length_a 21.165718
_cell_length_b 9.697050
_cell_length_c 15.923193
_cell_angle_alpha 90.000000
_cell_angle_beta 25.799325
_cell_angle_gamma 90.000000
_cell_volume 1422.368533
_symmetry_space_group_name_H-M "C C"
_symmetry_group_IT_number 9
_symmetry_cell_setting 'monoclinic'
loop_
_space_group_symop_operation_xyz
x,y,z
x,-y,1/2+z
1/2+x,1/2+y,z
1/2+x,1/2-y,1/2+z
loop_
_atom_site_type_symbol
_atom_site_label
_atom_site_fract_x
_atom_site_fract_y
_atom_site_fract_z
Si Si1 0.129700 0.661048 0.630910
Si Si2 0.914249 0.505381 0.770721
Si Si3 0.202647 0.380412 0.589439
Si Si4 0.427183 0.299331 0.458934
Si Si5 0.874524 0.232811 0.730411
Si Si6 0.794764 0.314308 0.284916
Si Si7 0.175376 0.915822 0.847148
Si Si8 0.136006 0.056005 0.207007
O O1 0.208919 0.545530 0.591608
O O2 0.224661 0.719034 0.440008
O O3 0.085321 0.792755 0.738487
O O4 0.003710 0.574862 0.737174
O O5 0.947231 0.353669 0.699776
O O6 0.923259 0.604750 0.679186
O O7 0.748303 0.504925 0.001594
O O8 0.307267 0.308016 0.530735
O O9 0.262955 0.346206 0.424717
O O10 0.044753 0.317053 0.794862
O O11 0.353747 0.266950 0.635223
O O12 0.510512 0.444221 0.363051
O O13 0.783036 0.309876 0.766763
O O14 0.009248 0.136977 0.544332
O O15 0.690413 0.436931 0.376006
O O16 0.215204 0.934467 0.702008
#
# Coordination Sequence:
#
# PCOD9138804 Si02
#       8
#     4   4   4   4   4   4   4   4
#     4  11  27  45  73 107 148 192 242 302 369 434
#     4  10  23  47  72 103 152 188 247 296 371 429
#     4  12  27  46  79 106 147 193 248 298 369 435
#     4  12  27  50  78 109 145 195 252 296 365 437
#     4  11  24  46  74 108 144 197 239 303 367 434
#     4  10  27  46  73 106 144 198 243 307 358 438
#     4  11  26  45  76 106 151 186 250 300 364 434
#     4  11  27  45  73 105 149 195 237 308 359 435
#
# _framework density 22.497682999999999
#
# number of rings (size 3 to 8) (size 9 to 14) (size 15 to 20)
#    0.000    1.000    1.250    3.000   15.750    1.000 
#    0.000    0.000    0.000    0.000    0.000    0.000 
#    0.000    0.000    0.000    0.000    0.000    0.000 
#
# Total GULP energy -89549.464592 kJ/mol
# GULP energy per Si atom -5596.841537 kJ/mol
# Density = 2.244648 g / cm^3
# Si number density = 22.497683 Si / 1000 Ang^3
#
#
#
# Elastic Constant Matrix: (Units=GPa)
#
#
# Indices 1 2 3 4 5 6 
#
# 1 81.5875 16.3451 19.2946 0.0000 13.5743 0.0000
# 2 16.3451 131.7341 40.8397 0.0000 6.1842 0.0000
# 3 19.2946 40.8397 81.1422 0.0000 7.8915 0.0000
# 4 0.0000 0.0000 0.0000 26.3003 0.0000 4.9372
# 5 13.5743 6.1842 7.8915 0.0000 31.4870 0.0000
# 6 0.0000 0.0000 0.0000 4.9372 0.0000 31.1682
#
#
#
# Elastic Compliance Matrix: (Units=1/GPa)
#
#
# Indices 1 2 3 4 5 6 
#
# 1 0.013842 -0.000722 -0.002420 0.000000 -0.005219 0.000000
# 2 -0.000722 0.009045 -0.004344 0.000000 -0.000376 0.000000
# 3 -0.002420 -0.004344 0.015274 0.000000 -0.001931 0.000000
# 4 0.000000 0.000000 0.000000 0.039188 0.000000 -0.006207
# 5 -0.005219 -0.000376 -0.001931 0.000000 0.034567 0.000000
# 6 0.000000 0.000000 0.000000 -0.006207 0.000000 0.033067
#
#
# Mechanical properties :
#
#
# Convention : Reuss Voigt Hill
#
# Bulk Modulus (GPa) = 43.12636 49.71362 46.41999
# Shear Modulus (GPa) = 29.81767 32.32341 31.07054
#
# Velocity S-wave (km/s) = 3.64451 3.79455 3.72029
# Velocity P-wave (km/s) = 6.07625 6.42988 6.25556
#
# Compressibility (1/GPa) = 0.02318768
#
# Stress axis : x y z
#
# Youngs Moduli (GPa) = 72.24294 110.55738 65.47110
#
# Poissons Ratio (x) = 0.07983 0.15847
# Poissons Ratio (y) = 0.05217 0.28442
# Poissons Ratio (z) = 0.17486 0.48028
#
# Static dielectric constant tensor:
#      x y z
#    x 1.847360 0.000000 -0.027370 
#    y 0.000000 1.844890 0.000000 
#    z -0.027370 0.000000 1.800850 
# 
# From -- ./inp_files/27342.got.cif
#   From: 2010.05.17/outbox.cif.g08.bks.cpg/sg9_14_cif.got.tgz:27342.got - 2010.06.03 20:04:27.
