data_PCOD9138621
_publ_section_title
;
Structure prediction by ZEFSAII (Michael W. Deem and Ramdas Pophale) SiO2 
 PCOD9138621
Probable space group: C C
;
_chemical_formula_sum "Si O2"
_cell_formula_units_Z 32
_cell_length_a 7.196282
_cell_length_b 12.509347
_cell_length_c 14.312949
_cell_angle_alpha 90.000000
_cell_angle_beta 84.883284
_cell_angle_gamma 90.000000
_cell_volume 1283.328546
_symmetry_space_group_name_H-M "C C"
_symmetry_group_IT_number 9
_symmetry_cell_setting 'monoclinic'
loop_
_space_group_symop_operation_xyz
x,y,z
x,-y,1/2+z
1/2+x,1/2+y,z
1/2+x,1/2-y,1/2+z
loop_
_atom_site_type_symbol
_atom_site_label
_atom_site_fract_x
_atom_site_fract_y
_atom_site_fract_z
Si Si1 0.708050 0.294737 0.890460
Si Si2 0.229040 0.748873 0.575552
Si Si3 0.391378 0.439737 0.963772
Si Si4 0.406893 0.042658 0.141060
Si Si5 0.750987 0.136870 0.053782
Si Si6 0.864184 0.349182 0.377676
Si Si7 0.534967 0.935788 0.840587
Si Si8 0.823001 0.683849 0.671501
O O1 0.576278 0.397627 0.905955
O O2 0.567504 0.208420 0.851555
O O3 0.910647 0.328611 0.847410
O O4 0.740799 0.238377 0.987690
O O5 0.350578 0.642159 0.551673
O O6 0.293388 0.846096 0.639656
O O7 0.255050 0.798288 0.469622
O O8 0.033310 0.707513 0.623574
O O9 0.227268 0.432348 0.890997
O O10 0.405970 0.557062 0.008190
O O11 0.570670 0.062185 0.059938
O O12 0.519983 0.026514 0.233278
O O13 0.287872 0.935137 0.130790
O O14 0.741416 0.199546 0.151158
O O15 0.910172 0.471630 0.393177
O O16 0.772362 0.332984 0.281799
#
# Coordination Sequence:
#
# PCOD9138621 Si02
#       8
#     4   4   4   4   4   4   4   4
#     4  11  24  43  69  98 140 181 231 287 350 418
#     4  11  22  44  70  94 143 185 227 286 359 405
#     4  11  23  44  70 103 133 188 232 287 349 423
#     4  11  24  46  67 100 141 180 228 293 351 409
#     4  12  24  43  66 103 136 178 238 281 352 422
#     4  10  23  45  68 103 142 174 242 294 336 434
#     4  11  24  45  73 100 142 181 232 297 354 407
#     4  11  26  42  73 101 135 187 232 293 353 416
#
# _framework density 24.93516
#
# number of rings (size 3 to 8) (size 9 to 14) (size 15 to 20)
#    0.000    1.000    5.000    1.500    7.000    0.000 
#    0.000    0.000    0.000    0.000    0.000    0.000 
#    0.000    0.000    0.000    0.000    0.000    0.000 
#
# Total GULP energy -89181.817533 kJ/mol
# GULP energy per Si atom -5573.863596 kJ/mol
# Density = 2.487841 g / cm^3
# Si number density = 24.935160 Si / 1000 Ang^3
#
#
#
# Elastic Constant Matrix: (Units=GPa)
#
#
# Indices 1 2 3 4 5 6 
#
# 1 59.7029 68.7991 20.7023 0.0000 -8.9952 0.0000
# 2 68.7991 85.0257 2.2226 0.0000 33.2422 0.0000
# 3 20.7023 2.2226 71.4767 0.0000 10.1305 0.0000
# 4 0.0000 0.0000 0.0000 39.1974 0.0000 -8.1382
# 5 -8.9952 33.2422 10.1305 0.0000 15.5976 0.0000
# 6 0.0000 0.0000 0.0000 -8.1382 0.0000 112.0638
#
#
#
# Elastic Compliance Matrix: (Units=1/GPa)
#
#
# Indices 1 2 3 4 5 6 
#
# 1 -0.000951 0.010862 0.003631 0.000000 -0.026055 0.000000
# 2 0.010862 -0.004945 -0.005918 0.000000 0.020647 0.000000
# 3 0.003631 -0.005918 0.012158 0.000000 0.006811 0.000000
# 4 0.000000 0.000000 0.000000 0.025902 0.000000 0.001881
# 5 -0.026055 0.020647 0.006811 0.000000 0.000659 0.000000
# 6 0.000000 0.000000 0.000000 0.001881 0.000000 0.009060
#
#
# Mechanical properties :
#
#
# Convention : Reuss Voigt Hill
#
# Bulk Modulus (GPa) = 42.71910 44.40591 43.56251
# Shear Modulus (GPa) = 153.66349 41.67052 97.66701
#
# Velocity S-wave (km/s) = 7.85869 4.09241 6.26526
# Velocity P-wave (km/s) = 9.97570 6.33858 8.35740
#
# Compressibility (1/GPa) = 0.02340873
#
# Stress axis : x y z
#
# Youngs Moduli (GPa) = -1051.20282 -202.22237 82.25239
#
# Poissons Ratio (x) = 2.19644 -0.29863
# Poissons Ratio (y) = 11.41765 0.48681
# Poissons Ratio (z) = 3.81653 -1.19684
#
# Static dielectric constant tensor:
#      x y z
#    x 2.100520 0.000000 0.122170 
#    y 0.000000 1.945110 0.000000 
#    z 0.122170 0.000000 2.185000 
# 
# From -- ./inp_files/22887.got.cif
#   From: 2010.05.17/outbox.cif.g08.bks.cpg/sg9_12_cif.got.tgz:22887.got - 2010.06.03 20:04:27.
