data_PCOD9138532
_publ_section_title
;
Structure prediction by ZEFSAII (Michael W. Deem and Ramdas Pophale) SiO2 
 PCOD9138532
Probable space group: C C
;
_chemical_formula_sum "Si O2"
_cell_formula_units_Z 32
_cell_length_a 7.012337
_cell_length_b 11.879830
_cell_length_c 17.942978
_cell_angle_alpha 90.000000
_cell_angle_beta 106.157479
_cell_angle_gamma 90.000000
_cell_volume 1435.704664
_symmetry_space_group_name_H-M "C C"
_symmetry_group_IT_number 9
_symmetry_cell_setting 'monoclinic'
loop_
_space_group_symop_operation_xyz
x,y,z
x,-y,1/2+z
1/2+x,1/2+y,z
1/2+x,1/2-y,1/2+z
loop_
_atom_site_type_symbol
_atom_site_label
_atom_site_fract_x
_atom_site_fract_y
_atom_site_fract_z
Si Si1 0.777040 0.262381 0.143050
Si Si2 0.576721 0.919123 0.266133
Si Si3 0.512256 0.498337 0.350647
Si Si4 0.097156 0.783311 0.442219
Si Si5 0.230095 0.793433 0.820752
Si Si6 0.530816 0.406785 0.585486
Si Si7 0.427593 0.152136 0.202312
Si Si8 0.975575 0.130225 0.504193
O O1 0.606645 0.218820 0.182029
O O2 0.668831 0.306036 0.056310
O O3 0.926849 0.357242 0.191311
O O4 0.907237 0.155028 0.135135
O O5 0.595189 0.815028 0.327504
O O6 0.490183 0.045327 0.259579
O O7 0.809259 0.956765 0.291029
O O8 0.628692 0.385031 0.386628
O O9 0.618964 0.589090 0.311145
O O10 0.487008 0.568647 0.425420
O O11 0.009777 0.840325 0.506188
O O12 0.293523 0.715195 0.481253
O O13 0.924771 0.704038 0.392117
O O14 0.306402 0.769144 0.745475
O O15 0.765549 0.397090 0.627606
O O16 0.453125 0.531790 0.563082
#
# Coordination Sequence:
#
# PCOD9138532 Si02
#       8
#     4   4   4   4   4   4   4   4
#     4  12  25  42  70 101 140 187 230 289 348 411
#     4  11  24  42  67 100 138 182 225 285 348 404
#     4  10  24  44  70 102 139 177 241 282 345 417
#     4  10  23  44  69  99 138 181 229 286 344 410
#     4  11  24  45  68 103 140 181 228 290 341 414
#     4  11  24  44  65 102 138 174 235 279 339 418
#     4  12  25  42  67 103 138 180 232 277 349 413
#     4  11  23  45  70 100 137 184 228 288 344 407
#
# _framework density 22.288705
#
# number of rings (size 3 to 8) (size 9 to 14) (size 15 to 20)
#    0.000    1.000    3.750    2.250    0.000    6.000 
#    0.000    0.000    0.000    0.000    0.000    0.000 
#    0.000    0.000    0.000    0.000    0.000    0.000 
#
# Total GULP energy -89193.683970 kJ/mol
# GULP energy per Si atom -5574.605248 kJ/mol
# Density = 2.223797 g / cm^3
# Si number density = 22.288705 Si / 1000 Ang^3
#
#
#
# Elastic Constant Matrix: (Units=GPa)
#
#
# Indices 1 2 3 4 5 6 
#
# 1 94.6208 63.4548 50.6161 0.0000 18.7615 0.0000
# 2 63.4548 139.1458 37.5618 0.0000 19.0744 0.0000
# 3 50.6161 37.5618 83.6862 0.0000 31.3452 0.0000
# 4 0.0000 0.0000 0.0000 49.0234 0.0000 14.5294
# 5 18.7615 19.0744 31.3452 0.0000 46.9525 0.0000
# 6 0.0000 0.0000 0.0000 14.5294 0.0000 33.0623
#
#
#
# Elastic Compliance Matrix: (Units=1/GPa)
#
#
# Indices 1 2 3 4 5 6 
#
# 1 0.019866 -0.006661 -0.009422 0.000000 0.001058 0.000000
# 2 -0.006661 0.010459 -0.000095 0.000000 -0.001524 0.000000
# 3 -0.009422 -0.000095 0.021690 0.000000 -0.010677 0.000000
# 4 0.000000 0.000000 0.000000 0.023453 0.000000 -0.010307
# 5 0.001058 -0.001524 -0.010677 0.000000 0.028622 0.000000
# 6 0.000000 0.000000 0.000000 -0.010307 0.000000 0.034775
#
#
# Mechanical properties :
#
#
# Convention : Reuss Voigt Hill
#
# Bulk Modulus (GPa) = 50.86810 68.96870 59.91840
# Shear Modulus (GPa) = 28.12566 36.86230 32.49398
#
# Velocity S-wave (km/s) = 3.55615 4.07117 3.82235
# Velocity P-wave (km/s) = 6.30345 7.28765 6.81334
#
# Compressibility (1/GPa) = 0.01965868
#
# Stress axis : x y z
#
# Youngs Moduli (GPa) = 50.33719 95.61278 46.10488
#
# Poissons Ratio (x) = 0.63689 0.43441
# Poissons Ratio (y) = 0.33530 0.00437
# Poissons Ratio (z) = 0.47428 0.00905
#
# Static dielectric constant tensor:
#      x y z
#    x 1.809990 0.000000 -0.013410 
#    y 0.000000 1.833550 0.000000 
#    z -0.013410 0.000000 1.836870 
# 
# From -- ./inp_files/32017.got.cif
#   From: 2010.05.17/outbox.cif.g08.bks.cpg/sg9_17_cif.got.tgz:32017.got - 2010.06.03 20:04:27.
