data_PCOD9138385
_publ_section_title
;
Structure prediction by ZEFSAII (Michael W. Deem and Ramdas Pophale) SiO2 
 PCOD9138385
Probable space group: C C
;
_chemical_formula_sum "Si O2"
_cell_formula_units_Z 32
_cell_length_a 7.737470
_cell_length_b 10.793995
_cell_length_c 26.681808
_cell_angle_alpha 90.000000
_cell_angle_beta 137.351239
_cell_angle_gamma 90.000000
_cell_volume 1509.757298
_symmetry_space_group_name_H-M "C C"
_symmetry_group_IT_number 9
_symmetry_cell_setting 'monoclinic'
loop_
_space_group_symop_operation_xyz
x,y,z
x,-y,1/2+z
1/2+x,1/2+y,z
1/2+x,1/2-y,1/2+z
loop_
_atom_site_type_symbol
_atom_site_label
_atom_site_fract_x
_atom_site_fract_y
_atom_site_fract_z
Si Si1 0.218970 0.614563 0.084810
Si Si2 0.019802 0.861677 0.003091
Si Si3 0.153553 0.890869 0.591680
Si Si4 0.120403 0.236340 0.356708
Si Si5 0.937768 0.357264 0.006599
Si Si6 0.063249 0.643911 0.261044
Si Si7 0.651331 0.659818 0.253245
Si Si8 0.585220 0.004366 0.359420
O O1 0.042265 0.734586 0.038531
O O2 0.428921 0.610163 0.085279
O O3 0.382194 0.635746 0.169972
O O4 0.074332 0.484752 0.050405
O O5 0.197244 0.844212 0.992410
O O6 0.123842 0.982166 0.054666
O O7 0.739006 0.894988 0.923922
O O8 0.415221 0.888481 0.678928
O O9 0.118051 0.762496 0.553695
O O10 0.315562 0.143268 0.425213
O O11 0.142474 0.237546 0.301686
O O12 0.176754 0.369654 0.392853
O O13 0.825438 0.211157 0.306042
O O14 0.138644 0.527484 0.311970
O O15 0.852681 0.707465 0.253630
O O16 0.784500 0.530307 0.298517
#
# Coordination Sequence:
#
# PCOD9138385 Si02
#       8
#     4   4   4   4   4   4   4   4
#     4  10  25  42  63  98 133 169 224 267 327 403
#     4  11  23  43  65  94 135 173 213 274 330 391
#     4  10  23  43  66  90 136 172 207 277 335 380
#     4  12  23  43  69  94 132 175 220 276 333 389
#     4  11  24  41  63 101 127 170 228 263 328 403
#     4   9  23  45  61  97 130 169 216 278 322 392
#     4   9  24  44  62 100 127 171 223 269 328 397
#     4  10  23  45  63  96 134 169 227 270 325 403
#
# _framework density 21.195459
#
# number of rings (size 3 to 8) (size 9 to 14) (size 15 to 20)
#    0.750    1.000    2.500    0.000    7.000    2.000 
#    2.250    0.000    0.000    0.000    0.000    0.000 
#    0.000    0.000    0.000    0.000    0.000    0.000 
#
# Total GULP energy -89221.406383 kJ/mol
# GULP energy per Si atom -5576.337899 kJ/mol
# Density = 2.114722 g / cm^3
# Si number density = 21.195459 Si / 1000 Ang^3
#
#
#
# Elastic Constant Matrix: (Units=GPa)
#
#
# Indices 1 2 3 4 5 6 
#
# 1 43.9779 -1.6291 9.5130 0.0000 -7.1735 0.0000
# 2 -1.6291 100.4505 43.6481 0.0000 -2.0816 0.0000
# 3 9.5130 43.6481 159.4000 0.0000 -3.0546 0.0000
# 4 0.0000 0.0000 0.0000 -44.8839 0.0000 -21.6665
# 5 -7.1735 -2.0816 -3.0546 0.0000 20.0959 0.0000
# 6 0.0000 0.0000 0.0000 -21.6665 0.0000 8.0768
#
#
#
# Elastic Compliance Matrix: (Units=1/GPa)
#
#
# Indices 1 2 3 4 5 6 
#
# 1 0.024555 0.001296 -0.001655 0.000000 0.008648 0.000000
# 2 0.001296 0.011378 -0.003171 0.000000 0.001159 0.000000
# 3 -0.001655 -0.003171 0.007244 0.000000 0.000182 0.000000
# 4 0.000000 0.000000 0.000000 -0.009708 0.000000 -0.026043
# 5 0.008648 0.001159 0.000182 0.000000 0.052996 0.000000
# 6 0.000000 0.000000 0.000000 -0.026043 0.000000 0.053950
#
#
# Mechanical properties :
#
#
# Convention : Reuss Voigt Hill
#
# Bulk Modulus (GPa) = 27.68609 45.21027 36.44818
# Shear Modulus (GPa) = 31.34539 13.47751 22.41145
#
# Velocity S-wave (km/s) = 3.84978 2.52438 3.25525
# Velocity P-wave (km/s) = 5.73164 5.46563 5.60022
#
# Compressibility (1/GPa) = 0.03611923
#
# Stress axis : x y z
#
# Youngs Moduli (GPa) = 40.72436 87.88917 138.04509
#
# Poissons Ratio (x) = -0.11394 0.22843
# Poissons Ratio (y) = -0.05280 0.43771
# Poissons Ratio (z) = 0.06739 0.27868
#
# Static dielectric constant tensor:
#      x y z
#    x 1.770170 0.000000 -0.011360 
#    y 0.000000 1.829170 0.000000 
#    z -0.011360 0.000000 1.760570 
# 
# From -- ./inp_files/36343.got.cif
#   From: 2010.05.17/outbox.cif.g08.bks.cpg/sg9_19_cif.got.tgz:36343.got - 2010.06.03 20:04:27.
