data_PCOD9138175
_publ_section_title
;
Structure prediction by ZEFSAII (Michael W. Deem and Ramdas Pophale) SiO2 
 PCOD9138175
Probable space group: C C
;
_chemical_formula_sum "Si O2"
_cell_formula_units_Z 20
_cell_length_a 6.374656
_cell_length_b 16.503920
_cell_length_c 8.032694
_cell_angle_alpha 90.000000
_cell_angle_beta 95.034000
_cell_angle_gamma 90.000000
_cell_volume 841.834439
_symmetry_space_group_name_H-M "C C"
_symmetry_group_IT_number 9
_symmetry_cell_setting 'monoclinic'
loop_
_space_group_symop_operation_xyz
x,y,z
x,-y,1/2+z
1/2+x,1/2+y,z
1/2+x,1/2-y,1/2+z
loop_
_atom_site_type_symbol
_atom_site_label
_atom_site_fract_x
_atom_site_fract_y
_atom_site_fract_z
Si Si1 0.524070 0.157193 0.655350
Si Si2 0.498790 0.104173 0.175002
Si Si3 0.871047 0.904307 0.921399
Si Si4 0.647092 0.754473 0.490350
Si Si5 0.281462 0.029060 0.480637
O O1 0.702975 0.119342 0.550252
O O2 0.382164 0.229697 0.564680
O O3 0.351764 0.085064 0.642642
O O4 0.630192 0.186562 0.831320
O O5 0.733912 0.080621 0.247744
O O6 0.522052 0.198306 0.128969
O O7 0.353898 0.077876 0.320659
O O8 0.406790 0.053197 0.016780
O O9 0.019260 0.825244 0.928235
O O10 0.030970 0.977306 0.964354
#
# Coordination Sequence:
#
# PCOD9138175 Si02
#       5
#     4   4   4   4   4
#     4  10  23  40  67  99 141 183 237 285 357 412
#     4  11  23  44  70 101 145 184 245 284 359 423
#     4  10  24  42  67 102 141 184 237 292 346 421
#     4  11  22  41  70 105 139 185 230 296 349 426
#     4  10  24  43  66 103 142 190 235 291 353 426
#
# _framework density 23.757641
#
# number of rings (size 3 to 8) (size 9 to 14) (size 15 to 20)
#    0.000    1.600    2.000    1.200    8.400    3.200 
#    0.000    4.000    0.000    0.000    0.000    0.000 
#    0.000    0.000    0.000    0.000    0.000    0.000 
#
# Total GULP energy -55826.623135 kJ/mol
# GULP energy per Si atom -5582.662313 kJ/mol
# Density = 2.370357 g / cm^3
# Si number density = 23.757641 Si / 1000 Ang^3
#
#
#
# Elastic Constant Matrix: (Units=GPa)
#
#
# Indices 1 2 3 4 5 6 
#
# 1 135.7813 41.6303 44.4746 0.0000 21.3759 0.0000
# 2 41.6303 70.0182 20.2332 0.0000 9.1883 0.0000
# 3 44.4746 20.2332 99.9018 0.0000 6.0703 0.0000
# 4 0.0000 0.0000 0.0000 34.6554 0.0000 8.7987
# 5 21.3759 9.1883 6.0703 0.0000 27.9082 0.0000
# 6 0.0000 0.0000 0.0000 8.7987 0.0000 36.7109
#
#
#
# Elastic Compliance Matrix: (Units=1/GPa)
#
#
# Indices 1 2 3 4 5 6 
#
# 1 0.010909 -0.004668 -0.003543 0.000000 -0.006048 0.000000
# 2 -0.004668 0.017716 -0.001391 0.000000 -0.001954 0.000000
# 3 -0.003543 -0.001391 0.011833 0.000000 0.000598 0.000000
# 4 0.000000 0.000000 0.000000 0.030725 0.000000 -0.007364
# 5 -0.006048 -0.001954 0.000598 0.000000 0.040977 0.000000
# 6 0.000000 0.000000 0.000000 -0.007364 0.000000 0.029005
#
#
# Mechanical properties :
#
#
# Convention : Reuss Voigt Hill
#
# Bulk Modulus (GPa) = 47.05464 57.59750 52.32607
# Shear Modulus (GPa) = 29.85881 33.14578 31.50229
#
# Velocity S-wave (km/s) = 3.54900 3.73924 3.64536
# Velocity P-wave (km/s) = 6.05334 6.55278 6.30801
#
# Compressibility (1/GPa) = 0.02125189
#
# Stress axis : x y z
#
# Youngs Moduli (GPa) = 91.66866 56.44586 84.51163
#
# Poissons Ratio (x) = 0.26351 0.29946
# Poissons Ratio (y) = 0.42795 0.11755
# Poissons Ratio (z) = 0.32483 0.07852
#
# Static dielectric constant tensor:
#      x y z
#    x 1.902060 0.000000 -0.003390 
#    y 0.000000 1.979690 0.000000 
#    z -0.003390 0.000000 1.954140 
# 
# From -- ./inp_files/3576.got.cif
#   From: 2010.05.17/outbox.cif.g08.bks.cpg/sg9_2_cif.got.tgz:3576.got - 2010.06.03 20:04:27.
