data_PCOD9138094
_publ_section_title
;
Structure prediction by ZEFSAII (Michael W. Deem and Ramdas Pophale) SiO2 
 PCOD9138094
Probable space group: C C
;
_chemical_formula_sum "Si O2"
_cell_formula_units_Z 32
_cell_length_a 15.828875
_cell_length_b 8.144869
_cell_length_c 11.458229
_cell_angle_alpha 90.000000
_cell_angle_beta 60.709148
_cell_angle_gamma 90.000000
_cell_volume 1288.372778
_symmetry_space_group_name_H-M "C C"
_symmetry_group_IT_number 9
_symmetry_cell_setting 'monoclinic'
loop_
_space_group_symop_operation_xyz
x,y,z
x,-y,1/2+z
1/2+x,1/2+y,z
1/2+x,1/2-y,1/2+z
loop_
_atom_site_type_symbol
_atom_site_label
_atom_site_fract_x
_atom_site_fract_y
_atom_site_fract_z
Si Si1 0.704170 0.352119 0.954130
Si Si2 0.992275 0.779661 0.206315
Si Si3 0.796768 0.709412 0.942577
Si Si4 0.105028 0.387394 0.060216
Si Si5 0.298386 0.268960 0.607440
Si Si6 0.943429 0.132959 0.175415
Si Si7 0.593831 0.080771 0.309490
Si Si8 0.330873 0.892862 0.667499
O O1 0.739978 0.538135 0.957877
O O2 0.732961 0.334410 0.800074
O O3 0.595953 0.307527 0.068453
O O4 0.773943 0.241753 0.987946
O O5 0.920138 0.653003 0.190918
O O6 0.016734 0.716943 0.319324
O O7 0.947569 0.958898 0.233232
O O8 0.718396 0.851479 0.983838
O O9 0.881706 0.742563 0.795747
O O10 0.840226 0.703418 0.041478
O O11 0.079733 0.474954 0.952708
O O12 0.085523 0.462151 0.201905
O O13 0.046616 0.217250 0.090163
O O14 0.384977 0.379864 0.594461
O O15 0.199365 0.335086 0.732246
O O16 0.319686 0.082694 0.637071
#
# Coordination Sequence:
#
# PCOD9138094 Si02
#       8
#     4   4   4   4   4   4   4   4
#     4  10  22  48  72 103 153 198 245 307 389 452
#     4  11  27  46  74 119 143 201 253 317 383 465
#     4  11  25  46  73 113 146 201 244 321 387 449
#     4  12  27  49  79 110 159 203 258 323 385 463
#     4  10  23  45  75 101 150 195 246 314 372 459
#     4  12  25  45  75 111 150 195 257 314 374 463
#     4  11  27  50  77 111 157 203 257 317 398 455
#     4  11  24  45  79 106 150 194 258 305 386 460
#
# _framework density 24.837530999999998
#
# number of rings (size 3 to 8) (size 9 to 14) (size 15 to 20)
#    0.000    1.000    3.750    0.750    3.500    8.000 
#    0.000    0.000    0.000    0.000    0.000    0.000 
#    0.000    0.000    0.000    0.000    0.000    0.000 
#
# Total GULP energy -89523.747268 kJ/mol
# GULP energy per Si atom -5595.234204 kJ/mol
# Density = 2.478100 g / cm^3
# Si number density = 24.837531 Si / 1000 Ang^3
#
#
#
# Elastic Constant Matrix: (Units=GPa)
#
#
# Indices 1 2 3 4 5 6 
#
# 1 111.1399 38.7719 5.0570 0.0000 -4.2475 0.0000
# 2 38.7719 81.0960 14.3232 0.0000 17.4846 0.0000
# 3 5.0570 14.3232 76.2102 0.0000 5.9229 0.0000
# 4 0.0000 0.0000 0.0000 27.3183 0.0000 -9.4592
# 5 -4.2475 17.4846 5.9229 0.0000 36.7027 0.0000
# 6 0.0000 0.0000 0.0000 -9.4592 0.0000 39.7888
#
#
#
# Elastic Compliance Matrix: (Units=1/GPa)
#
#
# Indices 1 2 3 4 5 6 
#
# 1 0.011393 -0.006405 0.000109 0.000000 0.004352 0.000000
# 2 -0.006405 0.017683 -0.002214 0.000000 -0.008808 0.000000
# 3 0.000109 -0.002214 0.013618 0.000000 -0.001130 0.000000
# 4 0.000000 0.000000 0.000000 0.039889 0.000000 0.009483
# 5 0.004352 -0.008808 -0.001130 0.000000 0.032128 0.000000
# 6 0.000000 0.000000 0.000000 0.009483 0.000000 0.027387
#
#
# Mechanical properties :
#
#
# Convention : Reuss Voigt Hill
#
# Bulk Modulus (GPa) = 38.94621 42.75005 40.84813
# Shear Modulus (GPa) = 29.81934 34.78156 32.30045
#
# Velocity S-wave (km/s) = 3.46869 3.74620 3.61011
# Velocity P-wave (km/s) = 5.63532 5.99677 5.81885
#
# Compressibility (1/GPa) = 0.02567644
#
# Stress axis : x y z
#
# Youngs Moduli (GPa) = 87.77028 56.55067 73.43072
#
# Poissons Ratio (x) = 0.36220 -0.00804
# Poissons Ratio (y) = 0.56215 0.16257
# Poissons Ratio (z) = -0.00961 0.12520
#
# Static dielectric constant tensor:
#      x y z
#    x 1.930720 0.000000 -0.003010 
#    y 0.000000 1.999930 0.000000 
#    z -0.003010 0.000000 1.975110 
# 
# From -- ./inp_files/17908.got.cif
#   From: 2010.05.17/outbox.cif.g08.bks.cpg/sg9_9_cif.got.tgz:17908.got - 2010.06.03 20:04:27.
