data_PCOD9138286
_publ_section_title
;
Structure prediction by ZEFSAII (Michael W. Deem and Ramdas Pophale) SiO2 
 PCOD9138286
Probable space group: C C
;
_chemical_formula_sum "Si O2"
_cell_formula_units_Z 24
_cell_length_a 18.049352
_cell_length_b 6.181622
_cell_length_c 10.123444
_cell_angle_alpha 90.000000
_cell_angle_beta 111.707884
_cell_angle_gamma 90.000000
_cell_volume 1049.412525
_symmetry_space_group_name_H-M "C C"
_symmetry_group_IT_number 9
_symmetry_cell_setting 'monoclinic'
loop_
_space_group_symop_operation_xyz
x,y,z
x,-y,1/2+z
1/2+x,1/2+y,z
1/2+x,1/2-y,1/2+z
loop_
_atom_site_type_symbol
_atom_site_label
_atom_site_fract_x
_atom_site_fract_y
_atom_site_fract_z
Si Si1 0.186110 0.652661 0.805380
Si Si2 0.883545 0.091644 0.296128
Si Si3 0.414850 0.720991 0.598542
Si Si4 0.049466 0.979294 0.806976
Si Si5 0.308851 0.909372 0.047482
Si Si6 0.675535 0.228799 0.505313
O O1 0.113808 0.817627 0.789376
O O2 0.183915 0.607840 0.649206
O O3 0.266399 0.775113 0.904195
O O4 0.178136 0.439745 0.887805
O O5 0.876972 0.099273 0.448145
O O6 0.826353 0.258533 0.184392
O O7 0.976104 0.150271 0.323976
O O8 0.878129 0.866977 0.212541
O O9 0.505629 0.640386 0.673888
O O10 0.391274 0.969575 0.565169
O O11 0.094434 0.133077 0.940191
O O12 0.245847 0.096862 0.038556
#
# Coordination Sequence:
#
# PCOD9138286 Si02
#       6
#     4   4   4   4   4   4
#     4  11  25  45  68  96 132 176 221 268 323 389
#     4  10  23  42  66  98 132 169 214 269 327 385
#     4  10  23  42  66  98 132 169 214 269 327 385
#     4   9  24  44  68  95 128 168 220 269 326 382
#     4  11  24  42  68  99 132 174 218 269 324 390
#     4  11  25  45  68  96 132 176 221 268 323 389
#
# _framework density 22.869938999999999
#
# number of rings (size 3 to 8) (size 9 to 14) (size 15 to 20)
#    1.000    0.667    0.000    3.000    2.333   13.333 
#    0.000    0.000    0.000    0.000    0.000    0.000 
#    0.000    0.000    0.000    0.000    0.000    0.000 
#
# Total GULP energy -67026.798585 kJ/mol
# GULP energy per Si atom -5585.566549 kJ/mol
# Density = 2.281789 g / cm^3
# Si number density = 22.869939 Si / 1000 Ang^3
#
#
#
# Elastic Constant Matrix: (Units=GPa)
#
#
# Indices 1 2 3 4 5 6 
#
# 1 67.6434 30.2180 29.2311 0.0000 18.9352 0.0000
# 2 30.2180 54.4318 17.1411 0.0000 26.4008 0.0000
# 3 29.2311 17.1411 134.1484 0.0000 6.3285 0.0000
# 4 0.0000 0.0000 0.0000 36.7341 0.0000 9.5804
# 5 18.9352 26.4008 6.3285 0.0000 38.8728 0.0000
# 6 0.0000 0.0000 0.0000 9.5804 0.0000 38.5553
#
#
#
# Elastic Compliance Matrix: (Units=1/GPa)
#
#
# Indices 1 2 3 4 5 6 
#
# 1 0.021257 -0.008943 -0.003313 0.000000 -0.003741 0.000000
# 2 -0.008943 0.032121 -0.001342 0.000000 -0.017241 0.000000
# 3 -0.003313 -0.001342 0.008292 0.000000 0.001175 0.000000
# 4 0.000000 0.000000 0.000000 0.029109 0.000000 -0.007233
# 5 -0.003741 -0.017241 0.001175 0.000000 0.039065 0.000000
# 6 0.000000 0.000000 0.000000 -0.007233 0.000000 0.027734
#
#
# Mechanical properties :
#
#
# Convention : Reuss Voigt Hill
#
# Bulk Modulus (GPa) = 29.00693 45.48934 37.24813
# Shear Modulus (GPa) = 25.47540 34.80798 30.14169
#
# Velocity S-wave (km/s) = 3.34117 3.90551 3.63431
# Velocity P-wave (km/s) = 5.25315 6.34594 5.82523
#
# Compressibility (1/GPa) = 0.03447453
#
# Stress axis : x y z
#
# Youngs Moduli (GPa) = 47.04227 31.13195 120.59289
#
# Poissons Ratio (x) = 0.27842 0.39950
# Poissons Ratio (y) = 0.42071 0.16187
# Poissons Ratio (z) = 0.15584 0.04179
#
# Static dielectric constant tensor:
#      x y z
#    x 1.909820 0.000000 0.033850 
#    y 0.000000 1.858470 0.000000 
#    z 0.033850 0.000000 1.825640 
# 
# From -- ./inp_files/19619.got.cif
#   From: 2010.05.17/outbox.cif.g08.bks.cpg/sg9_10_cif.got.tgz:19619.got - 2010.06.03 20:04:27.
