data_PCOD9138162
_publ_section_title
;
Structure prediction by ZEFSAII (Michael W. Deem and Ramdas Pophale) SiO2 
 PCOD9138162
Probable space group: C C
;
_chemical_formula_sum "Si O2"
_cell_formula_units_Z 32
_cell_length_a 20.471849
_cell_length_b 18.032577
_cell_length_c 12.673319
_cell_angle_alpha 90.000000
_cell_angle_beta 160.906957
_cell_angle_gamma 90.000000
_cell_volume 1530.347185
_symmetry_space_group_name_H-M "C C"
_symmetry_group_IT_number 9
_symmetry_cell_setting 'monoclinic'
loop_
_space_group_symop_operation_xyz
x,y,z
x,-y,1/2+z
1/2+x,1/2+y,z
1/2+x,1/2-y,1/2+z
loop_
_atom_site_type_symbol
_atom_site_label
_atom_site_fract_x
_atom_site_fract_y
_atom_site_fract_z
Si Si1 0.071430 0.750794 0.195360
Si Si2 0.574696 0.898400 0.344415
Si Si3 0.820398 0.494671 0.816861
Si Si4 0.100458 0.248978 0.491301
Si Si5 0.851055 0.994859 0.369379
Si Si6 0.418352 0.412247 0.689076
Si Si7 0.096887 0.601481 0.341948
Si Si8 0.253144 0.912076 0.497189
O O1 0.085952 0.738691 0.093323
O O2 0.165432 0.829034 0.372230
O O3 0.148169 0.683580 0.383890
O O4 0.835946 0.749741 0.843361
O O5 0.524019 0.816204 0.303159
O O6 0.743471 0.904707 0.509483
O O7 0.680108 0.941869 0.601733
O O8 0.382326 0.940795 0.007108
O O9 0.607744 0.535082 0.505623
O O10 0.827081 0.447052 0.720039
O O11 0.991337 0.557944 0.084520
O O12 0.006053 0.170788 0.313948
O O13 0.844378 0.947248 0.466205
O O14 0.789069 0.940974 0.179078
O O15 0.063724 0.035259 0.680614
O O16 0.928052 0.595380 0.176804
#
# Coordination Sequence:
#
# PCOD9138162 Si02
#       8
#     4   4   4   4   4   4   4   4
#     4  12  23  43  68  95 129 176 215 266 328 389
#     4  11  23  43  66  97 131 168 220 269 321 388
#     4  10  23  40  65  94 130 173 211 268 326 377
#     4  12  23  43  68  95 129 176 215 266 328 389
#     4  10  23  40  65  94 130 173 211 268 326 377
#     4  11  22  44  65  95 134 167 218 272 321 382
#     4  11  23  43  66  97 131 168 220 269 321 388
#     4  11  22  44  65  95 134 167 218 272 321 382
#
# _framework density 20.910288999999999
#
# number of rings (size 3 to 8) (size 9 to 14) (size 15 to 20)
#    0.000    1.000    5.000    1.500    0.000    5.000 
#    4.500    0.000    0.000    0.000    0.000    0.000 
#    0.000    0.000    0.000    0.000    0.000    0.000 
#
# Total GULP energy -89379.129878 kJ/mol
# GULP energy per Si atom -5586.195617 kJ/mol
# Density = 2.086270 g / cm^3
# Si number density = 20.910289 Si / 1000 Ang^3
#
#
#
# Elastic Constant Matrix: (Units=GPa)
#
#
# Indices 1 2 3 4 5 6 
#
# 1 125.5032 71.9232 36.4316 0.0000 -4.4214 0.0000
# 2 71.9232 197.1113 66.3899 0.0000 -7.2913 0.0000
# 3 36.4316 66.3899 112.3278 0.0000 -15.5860 0.0000
# 4 0.0000 0.0000 0.0000 30.1320 0.0000 -2.9675
# 5 -4.4214 -7.2913 -15.5860 0.0000 26.0153 0.0000
# 6 0.0000 0.0000 0.0000 -2.9675 0.0000 32.2252
#
#
#
# Elastic Compliance Matrix: (Units=1/GPa)
#
#
# Indices 1 2 3 4 5 6 
#
# 1 0.010246 -0.003270 -0.001391 0.000000 -0.000009 0.000000
# 2 -0.003270 0.007384 -0.003374 0.000000 -0.000508 0.000000
# 3 -0.001391 -0.003374 0.012198 0.000000 0.006126 0.000000
# 4 0.000000 0.000000 0.000000 0.033491 0.000000 0.003084
# 5 -0.000009 -0.000508 0.006126 0.000000 0.041965 0.000000
# 6 0.000000 0.000000 0.000000 0.003084 0.000000 0.031316
#
#
# Mechanical properties :
#
#
# Convention : Reuss Voigt Hill
#
# Bulk Modulus (GPa) = 72.69379 87.15907 79.92643
# Shear Modulus (GPa) = 31.79519 35.02101 33.40810
#
# Velocity S-wave (km/s) = 3.90366 4.09690 4.00144
# Velocity P-wave (km/s) = 7.42685 8.00951 7.72368
#
# Compressibility (1/GPa) = 0.01375633
#
# Stress axis : x y z
#
# Youngs Moduli (GPa) = 97.60317 135.42437 81.98033
#
# Poissons Ratio (x) = 0.44286 0.11407
# Poissons Ratio (y) = 0.31918 0.27662
# Poissons Ratio (z) = 0.13581 0.45694
#
# Static dielectric constant tensor:
#      x y z
#    x 1.656910 0.000000 0.071180 
#    y 0.000000 1.717150 0.000000 
#    z 0.071180 0.000000 1.663200 
# 
# From -- ./inp_files/20395.got.cif
#   From: 2010.05.17/outbox.cif.g08.bks.cpg/sg9_11_cif.got.tgz:20395.got - 2010.06.03 20:04:27.
