data_PCOD9138848
_publ_section_title
;
Structure prediction by ZEFSAII (Michael W. Deem and Ramdas Pophale) SiO2 
 PCOD9138848
Probable space group: C C
;
_chemical_formula_sum "Si O2"
_cell_formula_units_Z 24
_cell_length_a 21.782245
_cell_length_b 5.205331
_cell_length_c 17.208191
_cell_angle_alpha 90.000000
_cell_angle_beta 26.765315
_cell_angle_gamma 90.000000
_cell_volume 878.666258
_symmetry_space_group_name_H-M "C C"
_symmetry_group_IT_number 9
_symmetry_cell_setting 'monoclinic'
loop_
_space_group_symop_operation_xyz
x,y,z
x,-y,1/2+z
1/2+x,1/2+y,z
1/2+x,1/2-y,1/2+z
loop_
_atom_site_type_symbol
_atom_site_label
_atom_site_fract_x
_atom_site_fract_y
_atom_site_fract_z
Si Si1 0.288030 0.714969 0.402440
Si Si2 0.446254 0.778020 0.698292
Si Si3 0.414907 0.283500 0.526316
Si Si4 0.280163 0.122921 0.070796
Si Si5 0.051209 0.992526 0.228205
Si Si6 0.639135 0.972641 0.353580
O O1 0.341627 0.455810 0.305490
O O2 0.194097 0.081599 0.615227
O O3 0.360828 0.962224 0.284922
O O4 0.127361 0.772311 0.595251
O O5 0.508720 0.719124 0.712960
O O6 0.567054 0.799072 0.499500
O O7 0.459245 0.484449 0.410015
O O8 0.535854 0.196963 0.444854
O O9 0.279672 0.392087 0.718741
O O10 0.372817 0.031850 0.524723
O O11 0.178467 0.299727 0.234867
O O12 0.346663 0.287413 0.925612
#
# Coordination Sequence:
#
# PCOD9138848 Si02
#       6
#     4   4   4   4   4   4
#     4  10  26  47  81 115 161 220 283 346 421 519
#     4  12  27  52  78 124 172 222 281 362 440 510
#     4  12  25  53  82 126 171 235 292 359 438 534
#     4  10  25  45  82 123 160 225 292 350 431 527
#     4  10  23  48  82 117 165 223 298 347 430 519
#     4  12  30  49  85 125 179 227 292 368 444 523
#
# _framework density 27.314126000000002
#
# number of rings (size 3 to 8) (size 9 to 14) (size 15 to 20)
#    1.000    0.000    3.333    1.000    9.333    2.667 
#    3.000    0.000    0.000    0.000    0.000    0.000 
#    0.000    0.000    0.000    0.000    0.000    0.000 
#
# Total GULP energy -67154.008208 kJ/mol
# GULP energy per Si atom -5596.167351 kJ/mol
# Density = 2.725196 g / cm^3
# Si number density = 27.314126 Si / 1000 Ang^3
#
#
#
# Elastic Constant Matrix: (Units=GPa)
#
#
# Indices 1 2 3 4 5 6 
#
# 1 95.3816 30.8960 42.3509 0.0001 1.0944 0.0005
# 2 30.8960 161.3731 78.3078 -0.0170 3.9437 0.0160
# 3 42.3509 78.3078 213.2095 -0.0116 15.2765 0.0105
# 4 0.0001 -0.0170 -0.0116 57.0551 0.0058 1.0680
# 5 1.0944 3.9437 15.2765 0.0058 38.2013 -0.0022
# 6 0.0005 0.0160 0.0105 1.0680 -0.0022 13.2381
#
#
#
# Elastic Compliance Matrix: (Units=1/GPa)
#
#
# Indices 1 2 3 4 5 6 
#
# 1 0.011749 -0.001352 -0.001877 -0.000001 0.000554 0.000003
# 2 -0.001352 0.007701 -0.002579 0.000002 0.000275 -0.000007
# 3 -0.001877 -0.002579 0.006164 0.000001 -0.002145 -0.000002
# 4 -0.000001 0.000002 0.000001 0.017553 -0.000003 -0.001416
# 5 0.000554 0.000275 -0.002145 -0.000003 0.026991 0.000006
# 6 0.000003 -0.000007 -0.000002 -0.001416 0.000006 0.075654
#
#
# Mechanical properties :
#
#
# Convention : Reuss Voigt Hill
#
# Bulk Modulus (GPa) = 71.44395 85.89705 78.67050
# Shear Modulus (GPa) = 30.84624 42.92621 36.88622
#
# Velocity S-wave (km/s) = 3.36417 3.96861 3.67883
# Velocity P-wave (km/s) = 6.42677 7.24679 6.84906
#
# Compressibility (1/GPa) = 0.01399699
#
# Stress axis : x y z
#
# Youngs Moduli (GPa) = 85.11213 129.85862 162.23007
#
# Poissons Ratio (x) = 0.17560 0.30447
# Poissons Ratio (y) = 0.11509 0.41846
# Poissons Ratio (z) = 0.15974 0.33496
#
# Static dielectric constant tensor:
#      x y z
#    x 2.339610 -0.000020 -0.244790 
#    y -0.000020 2.261920 0.000050 
#    z -0.244790 0.000050 2.435850 
# 
# From -- ./inp_files/17384.got.cif
#   From: 2010.05.17/outbox.cif.g08.bks.cpg/sg9_9_cif.got.tgz:17384.got - 2010.06.03 20:04:27.
