data_PCOD9138358
_publ_section_title
;
Structure prediction by ZEFSAII (Michael W. Deem and Ramdas Pophale) SiO2 
 PCOD9138358
Probable space group: C C
;
_chemical_formula_sum "Si O2"
_cell_formula_units_Z 32
_cell_length_a 5.637806
_cell_length_b 29.691009
_cell_length_c 11.999137
_cell_angle_alpha 90.000000
_cell_angle_beta 129.475654
_cell_angle_gamma 90.000000
_cell_volume 1550.398031
_symmetry_space_group_name_H-M "C C"
_symmetry_group_IT_number 9
_symmetry_cell_setting 'monoclinic'
loop_
_space_group_symop_operation_xyz
x,y,z
x,-y,1/2+z
1/2+x,1/2+y,z
1/2+x,1/2-y,1/2+z
loop_
_atom_site_type_symbol
_atom_site_label
_atom_site_fract_x
_atom_site_fract_y
_atom_site_fract_z
Si Si1 0.304410 0.447181 0.819020
Si Si2 0.540871 0.348893 0.834956
Si Si3 0.999808 0.788539 0.372270
Si Si4 0.407739 0.978990 0.097899
Si Si5 0.047388 0.781929 0.647747
Si Si6 0.254701 0.660456 0.608185
Si Si7 0.910324 0.065335 0.594304
Si Si8 0.465990 0.726693 0.487740
O O1 0.390508 0.397518 0.802956
O O2 0.045941 0.472900 0.672862
O O3 0.624524 0.475779 0.925376
O O4 0.213991 0.441792 0.921994
O O5 0.494703 0.327186 0.700818
O O6 0.404862 0.311092 0.877481
O O7 0.901164 0.351237 0.976479
O O8 0.038512 0.793033 0.515100
O O9 0.846401 0.740481 0.293464
O O10 0.832962 0.828499 0.259067
O O11 0.333662 0.776526 0.423610
O O12 0.700532 0.952962 0.132436
O O13 0.236027 0.957294 0.155672
O O14 0.820018 0.739758 0.598752
O O15 0.451748 0.618330 0.624726
O O16 0.355604 0.704887 0.570298
#
# Coordination Sequence:
#
# PCOD9138358 Si02
#       8
#     4   4   4   4   4   4   4   4
#     4  10  24  44  76 100 138 181 231 296 367 437
#     4  12  23  42  70  99 135 183 241 288 346 425
#     4  12  24  39  62  94 137 189 232 288 339 413
#     4  10  23  42  75 104 134 176 234 286 375 436
#     4  12  24  40  60  97 140 183 239 284 345 406
#     4  12  22  41  68  94 136 183 240 282 349 421
#     4  10  23  43  71 101 132 181 227 292 356 436
#     4  12  21  39  66  89 134 190 230 282 343 406
#
# _framework density 20.639859999999999
#
# number of rings (size 3 to 8) (size 9 to 14) (size 15 to 20)
#    0.750    0.000    7.500    0.750    1.750    0.000 
#    0.000    2.500    0.000    0.000    0.000    0.000 
#    0.000    0.000    0.000    0.000    0.000    0.000 
#
# Total GULP energy -89139.845619 kJ/mol
# GULP energy per Si atom -5571.240351 kJ/mol
# Density = 2.059288 g / cm^3
# Si number density = 20.639860 Si / 1000 Ang^3
#
#
#
# Elastic Constant Matrix: (Units=GPa)
#
#
# Indices 1 2 3 4 5 6 
#
# 1 67.8058 34.3660 24.8874 0.0000 -6.9941 0.0000
# 2 34.3660 101.0575 47.8102 0.0000 -6.1511 0.0000
# 3 24.8874 47.8102 102.4415 0.0000 -21.2879 0.0000
# 4 0.0000 0.0000 0.0000 30.3512 0.0000 -2.5713
# 5 -6.9941 -6.1511 -21.2879 0.0000 18.1136 0.0000
# 6 0.0000 0.0000 0.0000 -2.5713 0.0000 35.3397
#
#
#
# Elastic Compliance Matrix: (Units=1/GPa)
#
#
# Indices 1 2 3 4 5 6 
#
# 1 0.018329 -0.005486 -0.001071 0.000000 0.003956 0.000000
# 2 -0.005486 0.014512 -0.006426 0.000000 -0.004742 0.000000
# 3 -0.001071 -0.006426 0.016514 0.000000 0.016813 0.000000
# 4 0.000000 0.000000 0.000000 0.033152 0.000000 0.002412
# 5 0.003956 -0.004742 0.016813 0.000000 0.074884 0.000000
# 6 0.000000 0.000000 0.000000 0.002412 0.000000 0.028472
#
#
# Mechanical properties :
#
#
# Convention : Reuss Voigt Hill
#
# Bulk Modulus (GPa) = 42.74939 53.93688 48.34314
# Shear Modulus (GPa) = 22.76603 27.71032 25.23817
#
# Velocity S-wave (km/s) = 3.32477 3.66808 3.50063
# Velocity P-wave (km/s) = 5.95783 6.64295 6.30970
#
# Compressibility (1/GPa) = 0.02339214
#
# Stress axis : x y z
#
# Youngs Moduli (GPa) = 54.55697 68.90748 60.55313
#
# Poissons Ratio (x) = 0.37802 0.06482
# Poissons Ratio (y) = 0.29929 0.38909
# Poissons Ratio (z) = 0.05841 0.44277
#
# Static dielectric constant tensor:
#      x y z
#    x 1.861420 0.000000 0.060820 
#    y 0.000000 1.727880 0.000000 
#    z 0.060820 0.000000 1.856410 
# 
# From -- ./inp_files/4322.got.cif
#   From: 2010.05.17/outbox.cif.g08.bks.cpg/sg9_3_cif.got.tgz:4322.got - 2010.06.03 20:04:27.
