data_PCOD9138226
_publ_section_title
;
Structure prediction by ZEFSAII (Michael W. Deem and Ramdas Pophale) SiO2 
 PCOD9138226
Probable space group: C C
;
_chemical_formula_sum "Si O2"
_cell_formula_units_Z 28
_cell_length_a 10.646437
_cell_length_b 10.994360
_cell_length_c 10.506277
_cell_angle_alpha 90.000000
_cell_angle_beta 88.906719
_cell_angle_gamma 90.000000
_cell_volume 1229.543848
_symmetry_space_group_name_H-M "C C"
_symmetry_group_IT_number 9
_symmetry_cell_setting 'monoclinic'
loop_
_space_group_symop_operation_xyz
x,y,z
x,-y,1/2+z
1/2+x,1/2+y,z
1/2+x,1/2-y,1/2+z
loop_
_atom_site_type_symbol
_atom_site_label
_atom_site_fract_x
_atom_site_fract_y
_atom_site_fract_z
Si Si1 0.802800 0.021626 0.143050
Si Si2 0.812101 0.589974 0.649334
Si Si3 0.421654 0.831949 0.594312
Si Si4 0.690473 0.784406 0.490090
Si Si5 0.199528 0.278958 0.201343
Si Si6 0.068821 0.045165 0.216602
Si Si7 0.877699 0.800422 0.837347
O O1 0.780993 0.106055 0.269892
O O2 0.949786 0.985255 0.149650
O O3 0.710964 0.908435 0.135736
O O4 0.786231 0.109378 0.025128
O O5 0.894272 0.475231 0.605215
O O6 0.754907 0.658700 0.528227
O O7 0.689424 0.539093 0.728257
O O8 0.882907 0.690061 0.734048
O O9 0.567677 0.804922 0.579008
O O10 0.342328 0.772032 0.709177
O O11 0.360540 0.765812 0.471020
O O12 0.655432 0.800462 0.345299
O O13 0.121224 0.167022 0.144751
O O14 0.998617 0.108341 0.338159
#
# Coordination Sequence:
#
# PCOD9138226 Si02
#       7
#     4   4   4   4   4   4   4
#     4   9  22  39  64  88 128 165 202 258 312 363
#     4  10  23  41  67  92 123 172 206 255 319 370
#     4  11  24  38  69  91 125 170 205 259 321 366
#     4  11  23  42  63  95 131 159 215 262 301 387
#     4  11  23  41  64  95 121 169 210 252 325 363
#     4   9  20  43  63  89 129 157 209 264 298 373
#     4   9  21  42  60  94 125 160 211 258 306 370
#
# _framework density 22.772672
#
# number of rings (size 3 to 8) (size 9 to 14) (size 15 to 20)
#    0.857    1.143    1.429    0.857    8.000    0.000 
#    2.571    5.714    0.000    0.000    0.000    0.000 
#    0.000    0.000    0.000    0.000    0.000    0.000 
#
# Total GULP energy -77946.304742 kJ/mol
# GULP energy per Si atom -5567.593196 kJ/mol
# Density = 2.272084 g / cm^3
# Si number density = 22.772672 Si / 1000 Ang^3
#
#
#
# Elastic Constant Matrix: (Units=GPa)
#
#
# Indices 1 2 3 4 5 6 
#
# 1 59.3592 0.9068 2.3011 0.0000 -7.0531 0.0000
# 2 0.9068 107.6479 2.8021 0.0000 -0.6903 0.0000
# 3 2.3011 2.8021 27.1265 0.0000 -0.0197 0.0000
# 4 0.0000 0.0000 0.0000 25.3377 0.0000 -4.0554
# 5 -7.0531 -0.6903 -0.0197 0.0000 26.5816 0.0000
# 6 0.0000 0.0000 0.0000 -4.0554 0.0000 42.3677
#
#
#
# Elastic Compliance Matrix: (Units=1/GPa)
#
#
# Indices 1 2 3 4 5 6 
#
# 1 0.017455 -0.000079 -0.001469 0.000000 0.004628 0.000000
# 2 -0.000079 0.009316 -0.000956 0.000000 0.000220 0.000000
# 3 -0.001469 -0.000956 0.037087 0.000000 -0.000387 0.000000
# 4 0.000000 0.000000 0.000000 0.040081 0.000000 0.003837
# 5 0.004628 0.000220 -0.000387 0.000000 0.038854 0.000000
# 6 0.000000 0.000000 0.000000 0.003837 0.000000 0.023970
#
#
# Mechanical properties :
#
#
# Convention : Reuss Voigt Hill
#
# Bulk Modulus (GPa) = 16.99206 22.90597 19.94901
# Shear Modulus (GPa) = 26.12498 31.39895 28.76197
#
# Velocity S-wave (km/s) = 3.39072 3.71725 3.55773
# Velocity P-wave (km/s) = 4.77568 5.33894 5.06514
#
# Compressibility (1/GPa) = 0.05885100
#
# Stress axis : x y z
#
# Youngs Moduli (GPa) = 57.29126 107.33648 26.96337
#
# Poissons Ratio (x) = 0.00849 0.03961
# Poissons Ratio (y) = 0.00453 0.02576
# Poissons Ratio (z) = 0.08417 0.10256
#
# Static dielectric constant tensor:
#      x y z
#    x 1.924550 0.000000 -0.038130 
#    y 0.000000 1.867110 0.000000 
#    z -0.038130 0.000000 1.861780 
# 
# From -- ./inp_files/16032.got.cif
#   From: 2010.05.17/outbox.cif.g08.bks.cpg/sg9_9_cif.got.tgz:16032.got - 2010.06.03 20:04:27.
