data_PCOD9138296
_publ_section_title
;
Structure prediction by ZEFSAII (Michael W. Deem and Ramdas Pophale) SiO2 
 PCOD9138296
Probable space group: C C
;
_chemical_formula_sum "Si O2"
_cell_formula_units_Z 28
_cell_length_a 11.746909
_cell_length_b 8.982425
_cell_length_c 17.293759
_cell_angle_alpha 90.000000
_cell_angle_beta 142.209016
_cell_angle_gamma 90.000000
_cell_volume 1118.183574
_symmetry_space_group_name_H-M "C C"
_symmetry_group_IT_number 9
_symmetry_cell_setting 'monoclinic'
loop_
_space_group_symop_operation_xyz
x,y,z
x,-y,1/2+z
1/2+x,1/2+y,z
1/2+x,1/2-y,1/2+z
loop_
_atom_site_type_symbol
_atom_site_label
_atom_site_fract_x
_atom_site_fract_y
_atom_site_fract_z
Si Si1 0.641160 0.608600 0.450090
Si Si2 0.290130 0.724543 0.877418
Si Si3 0.765660 0.886448 0.584653
Si Si4 0.843940 0.328867 0.502294
Si Si5 0.878032 0.526130 0.851195
Si Si6 0.723787 0.042246 0.237217
Si Si7 0.994096 0.985464 0.084279
O O1 0.683294 0.692183 0.390703
O O2 0.755480 0.707814 0.573222
O O3 0.700197 0.436542 0.469431
O O4 0.427313 0.609562 0.362421
O O5 0.376283 0.852605 0.871122
O O6 0.190945 0.609782 0.765850
O O7 0.443733 0.619257 0.000317
O O8 0.736550 0.965108 0.650739
O O9 0.584165 0.930554 0.436758
O O10 0.949407 0.947322 0.644530
O O11 0.845504 0.389611 0.415371
O O12 0.850596 0.151300 0.498922
O O13 0.040742 0.360582 0.650577
O O14 0.709472 0.557087 0.702723
#
# Coordination Sequence:
#
# PCOD9138296 Si02
#       7
#     4   4   4   4   4   4   4
#     4  10  23  45  66 101 141 181 237 293 361 425
#     4  10  25  42  71  98 135 189 237 289 361 416
#     4  10  23  42  67  97 133 182 231 284 355 427
#     4  10  24  41  68 101 136 183 234 294 353 426
#     4  10  23  44  66  97 140 177 230 286 352 422
#     4  11  24  42  72  94 139 184 237 289 359 418
#     4  11  24  44  68  98 140 176 236 293 349 418
#
# _framework density 25.040610000000001
#
# number of rings (size 3 to 8) (size 9 to 14) (size 15 to 20)
#    0.000    1.714    0.000    2.571   18.000    0.000 
#    0.000    0.000    0.000    0.000    0.000    0.000 
#    0.000    0.000    0.000    0.000    0.000    0.000 
#
# Total GULP energy -78232.077472 kJ/mol
# GULP energy per Si atom -5588.005534 kJ/mol
# Density = 2.498362 g / cm^3
# Si number density = 25.040610 Si / 1000 Ang^3
#
#
#
# Elastic Constant Matrix: (Units=GPa)
#
#
# Indices 1 2 3 4 5 6 
#
# 1 74.7952 22.5910 33.1095 0.0000 0.2336 0.0000
# 2 22.5910 139.3767 42.6539 0.0000 -12.7278 0.0000
# 3 33.1095 42.6539 65.2134 0.0000 1.3837 0.0000
# 4 0.0000 0.0000 0.0000 41.9266 0.0000 -10.5021
# 5 0.2336 -12.7278 1.3837 0.0000 31.6852 0.0000
# 6 0.0000 0.0000 0.0000 -10.5021 0.0000 43.5827
#
#
#
# Elastic Compliance Matrix: (Units=1/GPa)
#
#
# Indices 1 2 3 4 5 6 
#
# 1 0.017249 -0.000120 -0.008684 0.000000 0.000204 0.000000
# 2 -0.000120 0.009470 -0.006220 0.000000 0.004077 0.000000
# 3 -0.008684 -0.006220 0.023885 0.000000 -0.003477 0.000000
# 4 0.000000 0.000000 0.000000 0.025383 0.000000 0.006117
# 5 0.000204 0.004077 -0.003477 0.000000 0.033348 0.000000
# 6 0.000000 0.000000 0.000000 0.006117 0.000000 0.024419
#
#
# Mechanical properties :
#
#
# Convention : Reuss Voigt Hill
#
# Bulk Modulus (GPa) = 48.64281 52.89935 50.77108
# Shear Modulus (GPa) = 29.29914 35.50763 32.40338
#
# Velocity S-wave (km/s) = 3.42433 3.76972 3.60117
# Velocity P-wave (km/s) = 5.92473 6.33396 6.13276
#
# Compressibility (1/GPa) = 0.02055802
#
# Stress axis : x y z
#
# Youngs Moduli (GPa) = 57.97308 105.59791 41.86749
#
# Poissons Ratio (x) = 0.01265 0.36356
# Poissons Ratio (y) = 0.00694 0.26040
# Poissons Ratio (z) = 0.50342 0.65678
#
# Static dielectric constant tensor:
#      x y z
#    x 1.948090 0.000000 -0.032780 
#    y 0.000000 2.025220 0.000000 
#    z -0.032780 0.000000 2.062820 
# 
# From -- ./inp_files/17598.got.cif
#   From: 2010.05.17/outbox.cif.g08.bks.cpg/sg9_9_cif.got.tgz:17598.got - 2010.06.03 20:04:27.
