data_PCOD9138216
_publ_section_title
;
Structure prediction by ZEFSAII (Michael W. Deem and Ramdas Pophale) SiO2 
 PCOD9138216
Probable space group: C C
;
_chemical_formula_sum "Si O2"
_cell_formula_units_Z 32
_cell_length_a 22.020575
_cell_length_b 11.349935
_cell_length_c 16.353273
_cell_angle_alpha 90.000000
_cell_angle_beta 159.810061
_cell_angle_gamma 90.000000
_cell_volume 1410.631903
_symmetry_space_group_name_H-M "C C"
_symmetry_group_IT_number 9
_symmetry_cell_setting 'monoclinic'
loop_
_space_group_symop_operation_xyz
x,y,z
x,-y,1/2+z
1/2+x,1/2+y,z
1/2+x,1/2-y,1/2+z
loop_
_atom_site_type_symbol
_atom_site_label
_atom_site_fract_x
_atom_site_fract_y
_atom_site_fract_z
Si Si1 0.014110 0.888973 0.876800
Si Si2 0.254750 0.509463 0.329409
Si Si3 0.212079 0.292487 0.381882
Si Si4 0.495902 0.655286 0.540454
Si Si5 0.818852 0.629021 0.069721
Si Si6 0.492325 0.624434 0.773301
Si Si7 0.376312 0.098228 0.878389
Si Si8 0.378646 0.925877 0.034013
O O1 0.882371 0.819578 0.652734
O O2 0.010729 0.837860 0.962794
O O3 0.220891 0.885206 0.117107
O O4 0.970542 0.027700 0.816423
O O5 0.234894 0.375225 0.331140
O O6 0.377967 0.542067 0.410635
O O7 0.353931 0.576998 0.529778
O O8 0.061354 0.561503 0.073955
O O9 0.220879 0.157447 0.365706
O O10 0.042356 0.342144 0.215382
O O11 0.675423 0.649178 0.816675
O O12 0.404568 0.774828 0.455313
O O13 0.688997 0.616809 0.983529
O O14 0.941397 0.743135 0.231857
O O15 0.919743 0.515177 0.160927
O O16 0.338207 0.001022 0.900601
#
# Coordination Sequence:
#
# PCOD9138216 Si02
#       8
#     4   4   4   4   4   4   4   4
#     4  11  25  41  63 102 141 164 223 292 345 382
#     4   9  20  40  65  91 130 176 226 266 335 409
#     4  10  26  42  64  95 135 178 225 282 343 402
#     4  11  21  39  72 103 129 175 227 284 331 394
#     4  11  22  42  74  95 130 181 234 268 331 418
#     4  10  23  41  66 102 134 174 222 283 338 398
#     4  11  21  41  65 100 131 172 228 275 327 398
#     4  11  24  44  69  94 130 186 235 270 330 419
#
# _framework density 22.684868999999999
#
# number of rings (size 3 to 8) (size 9 to 14) (size 15 to 20)
#    0.000    1.500    2.500    2.250   10.500    0.000 
#    2.250    3.750    0.000    0.000    0.000    0.000 
#    0.000    0.000    0.000    0.000    0.000    0.000 
#
# Total GULP energy -89369.197514 kJ/mol
# GULP energy per Si atom -5585.574845 kJ/mol
# Density = 2.263324 g / cm^3
# Si number density = 22.684869 Si / 1000 Ang^3
#
#
#
# Elastic Constant Matrix: (Units=GPa)
#
#
# Indices 1 2 3 4 5 6 
#
# 1 57.5348 31.2286 12.9193 0.0000 9.0397 0.0000
# 2 31.2286 112.6053 -8.1531 0.0000 15.1262 0.0000
# 3 12.9193 -8.1531 66.3656 0.0000 14.1611 0.0000
# 4 0.0000 0.0000 0.0000 28.3909 0.0000 9.8048
# 5 9.0397 15.1262 14.1611 0.0000 18.6823 0.0000
# 6 0.0000 0.0000 0.0000 9.8048 0.0000 37.2106
#
#
#
# Elastic Compliance Matrix: (Units=1/GPa)
#
#
# Indices 1 2 3 4 5 6 
#
# 1 0.022106 -0.006163 -0.004584 0.000000 -0.002232 0.000000
# 2 -0.006163 0.012420 0.005052 0.000000 -0.010904 0.000000
# 3 -0.004584 0.005052 0.020257 0.000000 -0.017227 0.000000
# 4 0.000000 0.000000 0.000000 0.038749 0.000000 -0.010210
# 5 -0.002232 -0.010904 -0.017227 0.000000 0.076492 0.000000
# 6 0.000000 0.000000 0.000000 -0.010210 0.000000 0.029564
#
#
# Mechanical properties :
#
#
# Convention : Reuss Voigt Hill
#
# Bulk Modulus (GPa) = 23.04496 34.27725 28.66110
# Shear Modulus (GPa) = 22.17865 30.22418 26.20141
#
# Velocity S-wave (km/s) = 3.13019 3.65410 3.40224
# Velocity P-wave (km/s) = 4.82129 5.73988 5.30052
#
# Compressibility (1/GPa) = 0.04339344
#
# Stress axis : x y z
#
# Youngs Moduli (GPa) = 45.23712 80.51457 49.36559
#
# Poissons Ratio (x) = 0.49618 0.22630
# Poissons Ratio (y) = 0.27878 -0.24940
# Poissons Ratio (z) = 0.20737 -0.40677
#
# Static dielectric constant tensor:
#      x y z
#    x 1.873110 0.000000 0.045820 
#    y 0.000000 1.870000 0.000000 
#    z 0.045820 0.000000 1.852180 
# 
# From -- ./inp_files/12189.got.cif
#   From: 2010.05.17/outbox.cif.g08.bks.cpg/sg9_7_cif.got.tgz:12189.got - 2010.06.03 20:04:27.
