data_PCOD9138309
_publ_section_title
;
Structure prediction by ZEFSAII (Michael W. Deem and Ramdas Pophale) SiO2 
 PCOD9138309
Probable space group: C C
;
_chemical_formula_sum "Si O2"
_cell_formula_units_Z 32
_cell_length_a 12.690890
_cell_length_b 23.324601
_cell_length_c 5.103302
_cell_angle_alpha 90.000000
_cell_angle_beta 94.779487
_cell_angle_gamma 90.000000
_cell_volume 1505.375321
_symmetry_space_group_name_H-M "C C"
_symmetry_group_IT_number 9
_symmetry_cell_setting 'monoclinic'
loop_
_space_group_symop_operation_xyz
x,y,z
x,-y,1/2+z
1/2+x,1/2+y,z
1/2+x,1/2-y,1/2+z
loop_
_atom_site_type_symbol
_atom_site_label
_atom_site_fract_x
_atom_site_fract_y
_atom_site_fract_z
Si Si1 0.775080 0.321121 0.404920
Si Si2 0.880255 0.094652 0.017691
Si Si3 0.649157 0.462383 0.885815
Si Si4 0.767915 0.923521 0.994890
Si Si5 0.548199 0.638753 0.671350
Si Si6 0.036010 0.536198 0.309890
Si Si7 0.348761 0.111855 0.426030
Si Si8 0.845280 0.808896 0.871909
O O1 0.651504 0.331519 0.312686
O O2 0.802765 0.345349 0.696438
O O3 0.807216 0.255290 0.378547
O O4 0.839570 0.358197 0.204699
O O5 0.127345 0.008779 0.105424
O O6 0.852738 0.161102 0.087308
O O7 0.801826 0.063854 0.797259
O O8 0.987642 0.101740 0.879638
O O9 0.360161 0.434598 0.796259
O O10 0.588022 0.404797 0.955261
O O11 0.771568 0.443221 0.915242
O O12 0.658519 0.948252 0.876629
O O13 0.765546 0.853779 0.993137
O O14 0.460281 0.680712 0.528471
O O15 0.013673 0.485550 0.513441
O O16 0.963503 0.589759 0.370907
#
# Coordination Sequence:
#
# PCOD9138309 Si02
#       8
#     4   4   4   4   4   4   4   4
#     4  11  25  41  68  99 133 173 219 267 340 394
#     4   9  20  40  64  85 136 161 212 267 322 364
#     4  11  23  40  65  93 126 169 218 273 332 377
#     4   9  21  40  62  93 126 167 218 264 308 400
#     4  10  23  42  68  96 133 172 218 275 321 406
#     4  12  24  43  70  95 133 183 219 269 341 388
#     4  11  25  43  63 100 134 166 226 281 317 407
#     4   9  23  43  64  95 137 169 212 272 329 388
#
# _framework density 21.257155000000001
#
# number of rings (size 3 to 8) (size 9 to 14) (size 15 to 20)
#    0.750    1.000    0.000    3.750    8.750    1.000 
#    2.250    8.750    0.000    0.000    0.000    0.000 
#    0.000    0.000    0.000    0.000    0.000    0.000 
#
# Total GULP energy -89315.302890 kJ/mol
# GULP energy per Si atom -5582.206431 kJ/mol
# Density = 2.120877 g / cm^3
# Si number density = 21.257155 Si / 1000 Ang^3
#
#
#
# Elastic Constant Matrix: (Units=GPa)
#
#
# Indices 1 2 3 4 5 6 
#
# 1 93.8990 27.7497 9.1431 0.0000 -2.0956 0.0000
# 2 27.7497 78.3107 -1.2193 0.0000 7.3743 0.0000
# 3 9.1431 -1.2193 91.5694 0.0000 -11.0467 0.0000
# 4 0.0000 0.0000 0.0000 22.0709 0.0000 3.7300
# 5 -2.0956 7.3743 -11.0467 0.0000 24.5748 0.0000
# 6 0.0000 0.0000 0.0000 3.7300 0.0000 30.4163
#
#
#
# Elastic Compliance Matrix: (Units=1/GPa)
#
#
# Indices 1 2 3 4 5 6 
#
# 1 0.012121 -0.004492 -0.001039 0.000000 0.001914 0.000000
# 2 -0.004492 0.014814 0.000067 0.000000 -0.004798 0.000000
# 3 -0.001039 0.000067 0.011644 0.000000 0.005125 0.000000
# 4 0.000000 0.000000 0.000000 0.046267 0.000000 -0.005674
# 5 0.001914 -0.004798 0.005125 0.000000 0.044599 0.000000
# 6 0.000000 0.000000 0.000000 -0.005674 0.000000 0.033573
#
#
# Mechanical properties :
#
#
# Convention : Reuss Voigt Hill
#
# Bulk Modulus (GPa) = 36.16492 37.23626 36.70059
# Shear Modulus (GPa) = 27.29810 30.61943 28.95876
#
# Velocity S-wave (km/s) = 3.58744 3.79942 3.69495
# Velocity P-wave (km/s) = 5.84890 6.06651 5.95870
#
# Compressibility (1/GPa) = 0.02765111
#
# Stress axis : x y z
#
# Youngs Moduli (GPa) = 82.50125 67.50303 85.88392
#
# Poissons Ratio (x) = 0.30320 0.08925
# Poissons Ratio (y) = 0.37056 -0.00574
# Poissons Ratio (z) = 0.08573 -0.00452
#
# Static dielectric constant tensor:
#      x y z
#    x 1.775110 0.000000 0.009000 
#    y 0.000000 1.754240 0.000000 
#    z 0.009000 0.000000 1.796380 
# 
# From -- ./inp_files/1992.got.cif
#   From: 2010.05.17/outbox.cif.g08.bks.cpg/sg9_1_cif.got.tgz:1992.got - 2010.06.03 20:04:27.
