data_PCOD9138816
_publ_section_title
;
Structure prediction by ZEFSAII (Michael W. Deem and Ramdas Pophale) SiO2 
 PCOD9138816
Probable space group: C C
;
_chemical_formula_sum "Si O2"
_cell_formula_units_Z 28
_cell_length_a 7.494911
_cell_length_b 15.192266
_cell_length_c 9.495649
_cell_angle_alpha 90.000000
_cell_angle_beta 68.507787
_cell_angle_gamma 90.000000
_cell_volume 1006.039046
_symmetry_space_group_name_H-M "C C"
_symmetry_group_IT_number 9
_symmetry_cell_setting 'monoclinic'
loop_
_space_group_symop_operation_xyz
x,y,z
x,-y,1/2+z
1/2+x,1/2+y,z
1/2+x,1/2-y,1/2+z
loop_
_atom_site_type_symbol
_atom_site_label
_atom_site_fract_x
_atom_site_fract_y
_atom_site_fract_z
Si Si1 0.362290 0.395703 0.720860
Si Si2 0.274275 0.814661 0.608963
Si Si3 0.735100 0.273252 0.114245
Si Si4 0.648480 0.184825 0.862314
Si Si5 0.477300 0.565003 0.785086
Si Si6 0.848355 0.472239 0.795095
Si Si7 0.544928 0.090327 0.521459
O O1 0.566388 0.351888 0.641000
O O2 0.228575 0.322689 0.686431
O O3 0.414285 0.497869 0.679169
O O4 0.260561 0.403427 0.903185
O O5 0.418514 0.821756 0.435739
O O6 0.240710 0.720069 0.691914
O O7 0.354236 0.882584 0.703017
O O8 0.593806 0.345982 0.218125
O O9 0.681277 0.260766 0.968016
O O10 0.945219 0.315103 0.061705
O O11 0.769326 0.102975 0.888870
O O12 0.634769 0.512118 0.832648
O O13 0.999722 0.537477 0.675837
O O14 0.917684 0.456503 0.933801
#
# Coordination Sequence:
#
# PCOD9138816 Si02
#       7
#     4   4   4   4   4   4   4
#     4  11  26  47  71 113 152 213 274 330 413 503
#     4  11  25  44  71 108 156 202 268 330 401 500
#     4  11  23  45  76 109 157 212 265 338 415 503
#     4  12  22  46  75 106 152 208 257 336 415 489
#     4  10  24  46  74 115 153 211 260 347 412 503
#     4  10  23  47  75 118 156 204 268 337 416 509
#     4  11  23  47  78 115 162 208 272 344 416 503
#
# _framework density 27.831923
#
# number of rings (size 3 to 8) (size 9 to 14) (size 15 to 20)
#    0.000    1.143    2.857    2.571    2.000    3.429 
#   12.857    0.000    0.000    0.000    0.000    0.000 
#    0.000    0.000    0.000    0.000    0.000    0.000 
#
# Total GULP energy -78365.496280 kJ/mol
# GULP energy per Si atom -5597.535449 kJ/mol
# Density = 2.776858 g / cm^3
# Si number density = 27.831923 Si / 1000 Ang^3
#
#
#
# Elastic Constant Matrix: (Units=GPa)
#
#
# Indices 1 2 3 4 5 6 
#
# 1 147.8361 54.6456 47.3043 0.0000 -42.5261 0.0000
# 2 54.6456 139.8155 48.7392 0.0000 -6.1227 0.0000
# 3 47.3043 48.7392 135.6964 0.0000 -24.8506 0.0000
# 4 0.0000 0.0000 0.0000 42.9963 0.0000 5.0601
# 5 -42.5261 -6.1227 -24.8506 0.0000 57.6295 0.0000
# 6 0.0000 0.0000 0.0000 5.0601 0.0000 43.8110
#
#
#
# Elastic Compliance Matrix: (Units=1/GPa)
#
#
# Indices 1 2 3 4 5 6 
#
# 1 0.010309 -0.003328 -0.001162 0.000000 0.006752 0.000000
# 2 -0.003328 0.009261 -0.002644 0.000000 -0.002613 0.000000
# 3 -0.001162 -0.002644 0.009246 0.000000 0.002849 0.000000
# 4 0.000000 0.000000 0.000000 0.023578 0.000000 -0.002723
# 5 0.006752 -0.002613 0.002849 0.000000 0.023286 0.000000
# 6 0.000000 0.000000 0.000000 -0.002723 0.000000 0.023140
#
#
# Mechanical properties :
#
#
# Convention : Reuss Voigt Hill
#
# Bulk Modulus (GPa) = 68.74535 80.52512 74.63523
# Shear Modulus (GPa) = 42.39571 47.06463 44.73017
#
# Velocity S-wave (km/s) = 3.90715 4.11668 4.01328
# Velocity P-wave (km/s) = 6.71627 7.18272 6.95341
#
# Compressibility (1/GPa) = 0.01454644
#
# Stress axis : x y z
#
# Youngs Moduli (GPa) = 97.00624 107.98469 108.15706
#
# Poissons Ratio (x) = 0.35942 0.12563
# Poissons Ratio (y) = 0.32288 0.28600
# Poissons Ratio (z) = 0.11267 0.28555
#
# Static dielectric constant tensor:
#      x y z
#    x 2.214860 0.000000 -0.000880 
#    y 0.000000 2.206280 0.000000 
#    z -0.000880 0.000000 2.138150 
# 
# From -- ./inp_files/14540.got.cif
#   From: 2010.05.17/outbox.cif.g08.bks.cpg/sg9_8_cif.got.tgz:14540.got - 2010.06.03 20:04:27.
