data_PCOD9138310
_publ_section_title
;
Structure prediction by ZEFSAII (Michael W. Deem and Ramdas Pophale) SiO2 
 PCOD9138310
Probable space group: C C
;
_chemical_formula_sum "Si O2"
_cell_formula_units_Z 28
_cell_length_a 17.667683
_cell_length_b 4.953401
_cell_length_c 21.335104
_cell_angle_alpha 90.000000
_cell_angle_beta 138.868257
_cell_angle_gamma 90.000000
_cell_volume 1228.193674
_symmetry_space_group_name_H-M "C C"
_symmetry_group_IT_number 9
_symmetry_cell_setting 'monoclinic'
loop_
_space_group_symop_operation_xyz
x,y,z
x,-y,1/2+z
1/2+x,1/2+y,z
1/2+x,1/2-y,1/2+z
loop_
_atom_site_type_symbol
_atom_site_label
_atom_site_fract_x
_atom_site_fract_y
_atom_site_fract_z
Si Si1 0.475690 0.299144 0.946170
Si Si2 0.103988 0.721212 0.146489
Si Si3 0.163652 0.526330 0.480022
Si Si4 0.583710 0.436798 0.854151
Si Si5 0.315197 0.484969 0.195115
Si Si6 0.360092 0.186912 0.341075
Si Si7 0.129850 0.763950 0.744830
O O1 0.466756 0.612769 0.923827
O O2 0.568645 0.132779 0.963225
O O3 0.365333 0.125682 0.860026
O O4 0.501068 0.246297 0.033534
O O5 0.213012 0.631253 0.170876
O O6 0.074999 0.508857 0.183427
O O7 0.119776 0.014867 0.184357
O O8 0.172594 0.292752 0.433581
O O9 0.266787 0.570747 0.594737
O O10 0.121939 0.789348 0.414624
O O11 0.444614 0.389502 0.776972
O O12 0.593328 0.408018 0.785395
O O13 0.334760 0.224971 0.251831
O O14 0.264420 0.307306 0.327513
#
# Coordination Sequence:
#
# PCOD9138310 Si02
#       7
#     4   4   4   4   4   4   4
#     4  11  20  39  68 100 125 167 232 277 316 389
#     4  10  23  42  68  97 129 171 229 273 323 399
#     4  11  24  41  68 105 126 176 227 274 325 404
#     4  12  25  45  67  95 145 172 216 276 337 400
#     4  10  23  43  73  94 130 172 228 276 327 384
#     4  11  21  39  68  93 130 175 216 275 333 379
#     4  11  24  43  62  96 135 179 210 271 341 395
#
# _framework density 22.797709999999999
#
# number of rings (size 3 to 8) (size 9 to 14) (size 15 to 20)
#    0.000    1.143    2.857    3.429    0.000    8.000 
#    7.714    0.000    0.000    0.000    0.000    0.000 
#    0.000    0.000    0.000    0.000    0.000    0.000 
#
# Total GULP energy -77952.617382 kJ/mol
# GULP energy per Si atom -5568.044099 kJ/mol
# Density = 2.274582 g / cm^3
# Si number density = 22.797710 Si / 1000 Ang^3
#
#
#
# Elastic Constant Matrix: (Units=GPa)
#
#
# Indices 1 2 3 4 5 6 
#
# 1 48.8094 6.7801 24.8092 -0.0016 -17.3731 0.0023
# 2 6.7801 116.7311 31.5057 -0.0025 -3.8359 0.0038
# 3 24.8092 31.5057 134.6476 -0.0002 -5.4955 0.0007
# 4 -0.0016 -0.0025 -0.0002 26.5494 -0.0004 -6.9014
# 5 -17.3731 -3.8359 -5.4955 -0.0004 23.4115 0.0003
# 6 0.0023 0.0038 0.0007 -6.9014 0.0003 17.5813
#
#
#
# Elastic Compliance Matrix: (Units=1/GPa)
#
#
# Indices 1 2 3 4 5 6 
#
# 1 0.030592 0.000231 -0.004809 0.000001 0.021611 -0.000004
# 2 0.000231 0.009169 -0.002140 0.000000 0.001172 -0.000002
# 3 -0.004809 -0.002140 0.008737 0.000000 -0.001868 0.000001
# 4 0.000001 0.000000 0.000000 0.041946 0.000001 0.016466
# 5 0.021611 0.001172 -0.001868 0.000001 0.058504 -0.000003
# 6 -0.000004 -0.000002 0.000001 0.016466 -0.000003 0.063342
#
#
# Mechanical properties :
#
#
# Convention : Reuss Voigt Hill
#
# Bulk Modulus (GPa) = 28.52000 47.37533 37.94767
# Shear Modulus (GPa) = 21.06023 29.31467 25.18745
#
# Velocity S-wave (km/s) = 3.04268 3.58978 3.32749
# Velocity P-wave (km/s) = 4.98809 6.16505 5.60754
#
# Compressibility (1/GPa) = 0.03506312
#
# Stress axis : x y z
#
# Youngs Moduli (GPa) = 32.68823 109.05802 114.45100
#
# Poissons Ratio (x) = -0.02521 0.55036
# Poissons Ratio (y) = -0.00756 0.24496
# Poissons Ratio (z) = 0.15719 0.23342
#
# Static dielectric constant tensor:
#      x y z
#    x 2.016600 0.000000 0.101090 
#    y 0.000000 1.866670 0.000000 
#    z 0.101090 0.000000 1.964430 
# 
# From -- ./inp_files/30888.got.cif
#   From: 2010.05.17/outbox.cif.g08.bks.cpg/sg9_16_cif.got.tgz:30888.got - 2010.06.03 20:04:27.
