data_PCOD9138982
_publ_section_title
;
Structure prediction by ZEFSAII (Michael W. Deem and Ramdas Pophale) SiO2 
 PCOD9138982
Probable space group: C C
;
_chemical_formula_sum "Si O2"
_cell_formula_units_Z 24
_cell_length_a 6.226302
_cell_length_b 20.351572
_cell_length_c 8.183569
_cell_angle_alpha 90.000000
_cell_angle_beta 98.809060
_cell_angle_gamma 90.000000
_cell_volume 1024.749174
_symmetry_space_group_name_H-M "C C"
_symmetry_group_IT_number 9
_symmetry_cell_setting 'monoclinic'
loop_
_space_group_symop_operation_xyz
x,y,z
x,-y,1/2+z
1/2+x,1/2+y,z
1/2+x,1/2-y,1/2+z
loop_
_atom_site_type_symbol
_atom_site_label
_atom_site_fract_x
_atom_site_fract_y
_atom_site_fract_z
Si Si1 0.569720 0.691564 0.313600
Si Si2 0.620377 0.984020 0.150019
Si Si3 0.671017 0.691565 0.986454
Si Si4 0.298779 0.947451 0.855249
Si Si5 0.941973 0.947451 0.444782
Si Si6 0.620373 0.772176 0.650027
O O1 0.685504 0.621907 0.322377
O O2 0.643814 0.725704 0.490857
O O3 0.312438 0.683714 0.250156
O O4 0.620367 0.730636 0.150027
O O5 0.429873 0.025694 0.214323
O O6 0.747300 0.940614 0.293767
O O7 0.810890 0.025687 0.085708
O O8 0.493444 0.940616 0.006270
O O9 0.555238 0.621906 0.977673
O O10 0.596927 0.725704 0.809197
O O11 0.928299 0.683716 0.049899
O O12 0.120380 0.000002 0.900010
#
# Coordination Sequence:
#
# PCOD9138982 Si02
#       6
#     4   4   4   4   4   4
#     4  11  24  47  72 104 145 186 250 299 363 442
#     4  10  24  43  66 110 144 189 240 288 386 430
#     4  11  24  47  72 104 145 186 250 299 363 442
#     4  11  24  44  72 106 145 190 238 305 371 436
#     4  11  24  44  72 106 145 190 238 305 371 436
#     4  10  26  47  74 104 138 199 244 302 362 430
#
# _framework density 23.420366000000001
#
# number of rings (size 3 to 8) (size 9 to 14) (size 15 to 20)
#    0.000    1.333    0.000    4.000    4.667    8.000 
#    9.000    0.000    0.000    0.000    0.000    0.000 
#    0.000    0.000    0.000    0.000    0.000    0.000 
#
# Total GULP energy -66894.618808 kJ/mol
# GULP energy per Si atom -5574.551567 kJ/mol
# Density = 2.336706 g / cm^3
# Si number density = 23.420366 Si / 1000 Ang^3
#
#
#
# Elastic Constant Matrix: (Units=GPa)
#
#
# Indices 1 2 3 4 5 6 
#
# 1 135.0937 71.9481 53.8377 0.0000 3.4562 0.0000
# 2 71.9481 97.6153 62.9801 0.0000 7.6985 0.0000
# 3 53.8377 62.9801 212.5718 0.0000 22.8940 0.0000
# 4 0.0000 0.0000 0.0000 7.3986 0.0000 10.6681
# 5 3.4562 7.6985 22.8940 0.0000 60.2695 0.0000
# 6 0.0000 0.0000 0.0000 10.6681 0.0000 44.6431
#
#
#
# Elastic Compliance Matrix: (Units=1/GPa)
#
#
# Indices 1 2 3 4 5 6 
#
# 1 0.012257 -0.008700 -0.000595 0.000000 0.000634 0.000000
# 2 -0.008700 0.018843 -0.003309 0.000000 -0.000651 0.000000
# 3 -0.000595 -0.003309 0.006033 0.000000 -0.001835 0.000000
# 4 0.000000 0.000000 0.000000 0.206216 0.000000 -0.049279
# 5 0.000634 -0.000651 -0.001835 0.000000 0.017336 0.000000
# 6 0.000000 0.000000 0.000000 -0.049279 0.000000 0.034176
#
#
# Mechanical properties :
#
#
# Convention : Reuss Voigt Hill
#
# Bulk Modulus (GPa) = 83.86160 91.42362 87.64261
# Shear Modulus (GPa) = 15.43001 39.56324 27.49663
#
# Velocity S-wave (km/s) = 2.56955 4.11453 3.43016
# Velocity P-wave (km/s) = 6.68493 7.85450 7.29320
#
# Compressibility (1/GPa) = 0.01192441
#
# Stress axis : x y z
#
# Youngs Moduli (GPa) = 81.58893 53.06980 165.75412
#
# Poissons Ratio (x) = 0.46171 0.09861
# Poissons Ratio (y) = 0.70982 0.54852
# Poissons Ratio (z) = 0.04854 0.17562
#
# Static dielectric constant tensor:
#      x y z
#    x 2.119740 0.000000 -0.125930 
#    y 0.000000 1.828110 0.000000 
#    z -0.125930 0.000000 2.007490 
# 
# From -- ./inp_files/3858.got.cif
#   From: 2010.05.17/outbox.cif.g08.bks.cpg/sg9_2_cif.got.tgz:3858.got - 2010.06.03 20:04:27.
