data_PCOD9138767
_publ_section_title
;
Structure prediction by ZEFSAII (Michael W. Deem and Ramdas Pophale) SiO2 
 PCOD9138767
Probable space group: C C
;
_chemical_formula_sum "Si O2"
_cell_formula_units_Z 28
_cell_length_a 9.109024
_cell_length_b 11.786690
_cell_length_c 13.443986
_cell_angle_alpha 90.000000
_cell_angle_beta 125.716746
_cell_angle_gamma 90.000000
_cell_volume 1171.928786
_symmetry_space_group_name_H-M "C C"
_symmetry_group_IT_number 9
_symmetry_cell_setting 'monoclinic'
loop_
_space_group_symop_operation_xyz
x,y,z
x,-y,1/2+z
1/2+x,1/2+y,z
1/2+x,1/2-y,1/2+z
loop_
_atom_site_type_symbol
_atom_site_label
_atom_site_fract_x
_atom_site_fract_y
_atom_site_fract_z
Si Si1 0.121340 0.734575 0.593110
Si Si2 0.769018 0.886454 0.814225
Si Si3 0.373331 0.071783 0.233744
Si Si4 0.247155 0.782194 0.854128
Si Si5 0.563192 0.582558 0.583925
Si Si6 0.023515 0.282009 0.449652
Si Si7 0.254911 0.489653 0.591656
O O1 0.272550 0.828566 0.631360
O O2 0.135979 0.723545 0.719704
O O3 0.172246 0.613908 0.569628
O O4 0.930924 0.771786 0.471452
O O5 0.581895 0.919747 0.791810
O O6 0.773942 0.931015 0.705470
O O7 0.815011 0.751882 0.848440
O O8 0.931830 0.946537 0.939032
O O9 0.317846 0.105830 0.324527
O O10 0.267626 0.959219 0.162255
O O11 0.122274 0.787891 0.900487
O O12 0.561333 0.718886 0.569765
O O13 0.453167 0.515756 0.625458
O O14 0.113590 0.404887 0.480997
#
# Coordination Sequence:
#
# PCOD9138767 Si02
#       7
#     4   4   4   4   4   4   4
#     4  10  26  43  80 109 149 208 263 327 398 467
#     4  10  26  46  73 115 148 210 254 331 394 466
#     4  10  23  47  77 106 155 200 263 321 399 466
#     4  10  23  46  75 105 148 208 259 317 405 459
#     4  10  25  48  71 114 157 198 268 316 398 471
#     4  10  26  46  74 106 155 201 262 320 392 474
#     4  12  25  46  76 111 156 201 261 324 394 467
#
# _framework density 23.892236
#
# number of rings (size 3 to 8) (size 9 to 14) (size 15 to 20)
#    1.714    0.000    0.000    2.571   10.000    0.000 
#    5.143    1.429    0.000    0.000    0.000    0.000 
#    0.000    0.000    0.000    0.000    0.000    0.000 
#
# Total GULP energy -78008.960248 kJ/mol
# GULP energy per Si atom -5572.068589 kJ/mol
# Density = 2.383786 g / cm^3
# Si number density = 23.892236 Si / 1000 Ang^3
#
#
#
# Elastic Constant Matrix: (Units=GPa)
#
#
# Indices 1 2 3 4 5 6 
#
# 1 92.9663 12.9823 13.4730 0.0000 -7.9814 0.0000
# 2 12.9823 82.9703 -14.0213 0.0000 -2.5377 0.0000
# 3 13.4730 -14.0213 79.7764 0.0000 -1.9227 0.0000
# 4 0.0000 0.0000 0.0000 31.7049 0.0000 14.0565
# 5 -7.9814 -2.5377 -1.9227 0.0000 26.0178 0.0000
# 6 0.0000 0.0000 0.0000 14.0565 0.0000 22.6780
#
#
#
# Elastic Compliance Matrix: (Units=1/GPa)
#
#
# Indices 1 2 3 4 5 6 
#
# 1 0.011654 -0.002108 -0.002261 0.000000 0.003202 0.000000
# 2 -0.002108 0.012852 0.002634 0.000000 0.000802 0.000000
# 3 -0.002261 0.002634 0.013393 0.000000 0.000553 0.000000
# 4 0.000000 0.000000 0.000000 0.043493 0.000000 -0.026958
# 5 0.003202 0.000802 0.000553 0.000000 0.039537 0.000000
# 6 0.000000 0.000000 0.000000 -0.026958 0.000000 0.060805
#
#
# Mechanical properties :
#
#
# Convention : Reuss Voigt Hill
#
# Bulk Modulus (GPa) = 29.04535 31.17567 30.11051
# Shear Modulus (GPa) = 25.42202 32.29873 28.86037
#
# Velocity S-wave (km/s) = 3.26548 3.68074 3.47931
# Velocity P-wave (km/s) = 5.13820 5.58037 5.36384
#
# Compressibility (1/GPa) = 0.03442892
#
# Stress axis : x y z
#
# Youngs Moduli (GPa) = 85.81071 77.80926 74.66460
#
# Poissons Ratio (x) = 0.16399 0.16884
# Poissons Ratio (y) = 0.18086 -0.19667
# Poissons Ratio (z) = 0.19405 -0.20496
#
# Static dielectric constant tensor:
#      x y z
#    x 1.944140 0.000000 0.010840 
#    y 0.000000 1.973900 0.000000 
#    z 0.010840 0.000000 1.979430 
# 
# From -- ./inp_files/22829.got.cif
#   From: 2010.05.17/outbox.cif.g08.bks.cpg/sg9_12_cif.got.tgz:22829.got - 2010.06.03 20:04:27.
