data_PCOD9138444
_publ_section_title
;
Structure prediction by ZEFSAII (Michael W. Deem and Ramdas Pophale) SiO2 
 PCOD9138444
Probable space group: C C
;
_chemical_formula_sum "Si O2"
_cell_formula_units_Z 32
_cell_length_a 16.534533
_cell_length_b 5.282255
_cell_length_c 17.925626
_cell_angle_alpha 90.000000
_cell_angle_beta 61.862011
_cell_angle_gamma 90.000000
_cell_volume 1380.583891
_symmetry_space_group_name_H-M "C C"
_symmetry_group_IT_number 9
_symmetry_cell_setting 'monoclinic'
loop_
_space_group_symop_operation_xyz
x,y,z
x,-y,1/2+z
1/2+x,1/2+y,z
1/2+x,1/2-y,1/2+z
loop_
_atom_site_type_symbol
_atom_site_label
_atom_site_fract_x
_atom_site_fract_y
_atom_site_fract_z
Si Si1 0.454210 0.127128 0.442170
Si Si2 0.102581 0.004062 0.858195
Si Si3 0.943538 0.933591 0.200839
Si Si4 0.028261 0.252068 0.526519
Si Si5 0.299035 0.918244 0.700292
Si Si6 0.604458 0.888695 0.642578
Si Si7 0.974798 0.699849 0.802090
Si Si8 0.810896 0.090717 0.098069
O O1 0.559870 0.216883 0.384972
O O2 0.387623 0.347263 0.501951
O O3 0.461741 0.917502 0.503964
O O4 0.425670 0.010446 0.375103
O O5 0.098710 0.882795 0.941767
O O6 0.024612 0.870603 0.842238
O O7 0.200356 0.962495 0.779655
O O8 0.873963 0.697670 0.225170
O O9 0.042621 0.854246 0.190936
O O10 0.911734 0.148573 0.270840
O O11 0.973470 0.956514 0.100490
O O12 0.076046 0.424340 0.568605
O O13 0.323902 0.191109 0.655322
O O14 0.296156 0.688399 0.640598
O O15 0.557655 0.092689 0.715701
O O16 0.710864 0.852101 0.606526
#
# Coordination Sequence:
#
# PCOD9138444 Si02
#       8
#     4   4   4   4   4   4   4   4
#     4  11  24  44  74 104 147 197 253 309 383 443
#     4  11  24  46  70 102 146 196 247 312 374 450
#     4  10  23  43  71 103 142 191 247 302 373 441
#     4   9  23  42  67 103 136 194 237 309 376 437
#     4  12  26  45  75 108 144 196 250 302 372 447
#     4  10  23  44  69 103 143 189 248 300 381 438
#     4  11  22  43  71 103 142 191 245 309 376 447
#     4  12  25  47  73 110 144 196 247 305 369 455
#
# _framework density 23.178597
#
# number of rings (size 3 to 8) (size 9 to 14) (size 15 to 20)
#    0.750    0.500    2.500    3.000    8.750    0.000 
#    4.500    0.000    0.000    0.000    0.000    0.000 
#    0.000    0.000    0.000    0.000    0.000    0.000 
#
# Total GULP energy -89229.780383 kJ/mol
# GULP energy per Si atom -5576.861274 kJ/mol
# Density = 2.312584 g / cm^3
# Si number density = 23.178597 Si / 1000 Ang^3
#
#
#
# Elastic Constant Matrix: (Units=GPa)
#
#
# Indices 1 2 3 4 5 6 
#
# 1 88.2541 27.7655 61.6768 0.0001 -6.2001 -0.0029
# 2 27.7655 102.4960 74.3030 -0.0017 -1.2268 -0.0005
# 3 61.6768 74.3030 154.7591 -0.0015 0.7689 -0.0016
# 4 0.0001 -0.0017 -0.0015 47.6584 -0.0002 9.2663
# 5 -6.2001 -1.2268 0.7689 -0.0002 47.5689 -0.0003
# 6 -0.0029 -0.0005 -0.0016 9.2663 -0.0003 28.9601
#
#
#
# Elastic Compliance Matrix: (Units=1/GPa)
#
#
# Indices 1 2 3 4 5 6 
#
# 1 0.015944 0.000493 -0.006602 0.000000 0.002198 0.000001
# 2 0.000493 0.014992 -0.007398 0.000000 0.000571 0.000000
# 3 -0.006602 -0.007398 0.012651 0.000000 -0.001256 0.000000
# 4 0.000000 0.000000 0.000000 0.022375 0.000000 -0.007159
# 5 0.002198 0.000571 -0.001256 0.000000 0.021344 0.000000
# 6 0.000001 0.000000 0.000000 -0.007159 0.000000 0.036821
#
#
# Mechanical properties :
#
#
# Convention : Reuss Voigt Hill
#
# Bulk Modulus (GPa) = 60.33375 74.77777 67.55576
# Shear Modulus (GPa) = 31.91550 36.95507 34.43529
#
# Velocity S-wave (km/s) = 3.71474 3.99728 3.85859
# Velocity P-wave (km/s) = 6.66974 7.32365 7.00433
#
# Compressibility (1/GPa) = 0.01657447
#
# Stress axis : x y z
#
# Youngs Moduli (GPa) = 62.71984 66.70013 79.04701
#
# Poissons Ratio (x) = -0.03289 0.52186
# Poissons Ratio (y) = -0.03093 0.58476
# Poissons Ratio (z) = 0.41407 0.49342
#
# Static dielectric constant tensor:
#      x y z
#    x 1.919200 0.000000 0.059570 
#    y 0.000000 1.974310 0.000000 
#    z 0.059570 0.000000 1.876300 
# 
# From -- ./inp_files/30897.got.cif
#   From: 2010.05.17/outbox.cif.g08.bks.cpg/sg9_16_cif.got.tgz:30897.got - 2010.06.03 20:04:27.
