data_PCOD9138715
_publ_section_title
;
Structure prediction by ZEFSAII (Michael W. Deem and Ramdas Pophale) SiO2 
 PCOD9138715
Probable space group: C C
;
_chemical_formula_sum "Si O2"
_cell_formula_units_Z 28
_cell_length_a 8.981938
_cell_length_b 12.076305
_cell_length_c 18.784103
_cell_angle_alpha 90.000000
_cell_angle_beta 37.525240
_cell_angle_gamma 90.000000
_cell_volume 1241.054715
_symmetry_space_group_name_H-M "C C"
_symmetry_group_IT_number 9
_symmetry_cell_setting 'monoclinic'
loop_
_space_group_symop_operation_xyz
x,y,z
x,-y,1/2+z
1/2+x,1/2+y,z
1/2+x,1/2-y,1/2+z
loop_
_atom_site_type_symbol
_atom_site_label
_atom_site_fract_x
_atom_site_fract_y
_atom_site_fract_z
Si Si1 0.460700 0.909224 0.428740
Si Si2 0.508187 0.324657 0.197340
Si Si3 0.490479 0.941210 0.043125
Si Si4 0.253855 0.882643 0.810897
Si Si5 0.054767 0.411737 0.182047
Si Si6 0.389669 0.720477 0.346981
Si Si7 0.075740 0.907893 0.025374
O O1 0.747913 0.887052 0.303837
O O2 0.342383 0.805278 0.431321
O O3 0.462609 0.942328 0.511877
O O4 0.298761 0.009369 0.457189
O O5 0.721058 0.391253 0.153768
O O6 0.481663 0.199387 0.231597
O O7 0.575962 0.321646 0.088842
O O8 0.599050 0.931790 0.081119
O O9 0.658656 0.861153 0.929521
O O10 0.112886 0.852766 0.792530
O O11 0.329465 0.008551 0.784591
O O12 0.100629 0.854956 0.938931
O O13 0.978488 0.292859 0.245285
O O14 0.299758 0.454584 0.128470
#
# Coordination Sequence:
#
# PCOD9138715 Si02
#       7
#     4   4   4   4   4   4   4
#     4  10  23  46  68  97 146 176 237 289 337 424
#     4  10  24  44  65 103 135 183 235 284 357 415
#     4  11  27  42  71 105 135 187 234 286 364 407
#     4  11  23  40  70  98 135 178 234 284 336 426
#     4  12  25  43  68 106 138 180 238 286 349 420
#     4  11  24  48  67 103 144 181 228 297 341 416
#     4  11  20  43  69  94 139 187 224 284 358 396
#
# _framework density 22.561456
#
# number of rings (size 3 to 8) (size 9 to 14) (size 15 to 20)
#    0.000    1.143    5.714    0.000    4.000    5.714 
#    2.571    0.000    0.000    0.000    0.000    0.000 
#    0.000    0.000    0.000    0.000    0.000    0.000 
#
# Total GULP energy -77995.932255 kJ/mol
# GULP energy per Si atom -5571.138018 kJ/mol
# Density = 2.251011 g / cm^3
# Si number density = 22.561456 Si / 1000 Ang^3
#
#
#
# Elastic Constant Matrix: (Units=GPa)
#
#
# Indices 1 2 3 4 5 6 
#
# 1 85.9711 6.3698 4.4210 -0.0001 13.7447 -0.0003
# 2 6.3698 27.5582 4.1549 -0.0001 3.6083 -0.0002
# 3 4.4210 4.1549 28.7178 -0.0015 4.8654 -0.0012
# 4 -0.0001 -0.0001 -0.0015 7.2262 0.0002 0.2151
# 5 13.7447 3.6083 4.8654 0.0002 43.8571 0.0003
# 6 -0.0003 -0.0002 -0.0012 0.2151 0.0003 34.3238
#
#
#
# Elastic Compliance Matrix: (Units=1/GPa)
#
#
# Indices 1 2 3 4 5 6 
#
# 1 0.012425 -0.002253 -0.000977 0.000000 -0.003600 0.000000
# 2 -0.002253 0.037776 -0.004802 0.000000 -0.001869 0.000000
# 3 -0.000977 -0.004802 0.036229 0.000007 -0.003318 0.000001
# 4 0.000000 0.000000 0.000007 0.138411 -0.000001 -0.000867
# 5 -0.003600 -0.001869 -0.003318 -0.000001 0.024451 0.000000
# 6 0.000000 0.000000 0.000001 -0.000867 0.000000 0.029140
#
#
# Mechanical properties :
#
#
# Convention : Reuss Voigt Hill
#
# Bulk Modulus (GPa) = 14.21141 19.12648 16.66894
# Shear Modulus (GPa) = 15.72570 25.56818 20.64694
#
# Velocity S-wave (km/s) = 2.64297 3.37006 3.02841
# Velocity P-wave (km/s) = 3.95302 4.86199 4.43088
#
# Compressibility (1/GPa) = 0.07036601
#
# Stress axis : x y z
#
# Youngs Moduli (GPa) = 80.48579 26.47157 27.60230
#
# Poissons Ratio (x) = 0.05964 0.02696
# Poissons Ratio (y) = 0.18135 0.13255
# Poissons Ratio (z) = 0.07862 0.12712
#
# Static dielectric constant tensor:
#      x y z
#    x 1.871370 0.000000 0.021160 
#    y 0.000000 1.877900 0.000000 
#    z 0.021160 0.000000 1.881050 
# 
# From -- ./inp_files/22943.got.cif
#   From: 2010.05.17/outbox.cif.g08.bks.cpg/sg9_12_cif.got.tgz:22943.got - 2010.06.03 20:04:27.
