data_PCOD9138682
_publ_section_title
;
Structure prediction by ZEFSAII (Michael W. Deem and Ramdas Pophale) SiO2 
 PCOD9138682
Probable space group: C C
;
_chemical_formula_sum "Si O2"
_cell_formula_units_Z 28
_cell_length_a 9.204253
_cell_length_b 16.717089
_cell_length_c 7.956178
_cell_angle_alpha 90.000000
_cell_angle_beta 63.197002
_cell_angle_gamma 90.000000
_cell_volume 1092.677992
_symmetry_space_group_name_H-M "C C"
_symmetry_group_IT_number 9
_symmetry_cell_setting 'monoclinic'
loop_
_space_group_symop_operation_xyz
x,y,z
x,-y,1/2+z
1/2+x,1/2+y,z
1/2+x,1/2-y,1/2+z
loop_
_atom_site_type_symbol
_atom_site_label
_atom_site_fract_x
_atom_site_fract_y
_atom_site_fract_z
Si Si1 0.001030 0.352294 0.180680
Si Si2 0.375590 0.587537 0.842584
Si Si3 0.863314 0.190032 0.357039
Si Si4 0.531388 0.106091 0.063225
Si Si5 0.026692 0.040793 0.082985
Si Si6 0.309197 0.927737 0.985770
Si Si7 0.048347 0.786483 0.102202
O O1 0.005820 0.384218 0.373501
O O2 0.884821 0.272937 0.243170
O O3 0.931007 0.413439 0.077767
O O4 0.181818 0.325888 0.022628
O O5 0.201864 0.561409 0.997213
O O6 0.413384 0.537383 0.657712
O O7 0.517601 0.564886 0.895959
O O8 0.398561 0.680229 0.792431
O O9 0.984522 0.205792 0.447307
O O10 0.940097 0.113428 0.223670
O O11 0.571346 0.193935 0.119746
O O12 0.396729 0.074022 0.259139
O O13 0.202590 0.009179 0.044535
O O14 0.192163 0.849660 0.047316
#
# Coordination Sequence:
#
# PCOD9138682 Si02
#       7
#     4   4   4   4   4   4   4
#     4  11  27  47  83 122 160 212 271 348 400 491
#     4  11  23  47  75 104 156 215 261 323 414 478
#     4  11  25  51  80 117 158 211 276 331 416 486
#     4  11  24  47  79 114 158 205 274 339 394 486
#     4  11  26  48  76 109 155 217 262 325 411 498
#     4  11  26  47  75 122 159 211 271 333 412 482
#     4  10  23  45  76 114 154 203 265 337 393 483
#
# _framework density 25.625115000000001
#
# number of rings (size 3 to 8) (size 9 to 14) (size 15 to 20)
#    0.000    1.143    1.429    3.429   12.000    1.143 
#    7.714   10.000    0.000    0.000    0.000    0.000 
#    0.000    0.000    0.000    0.000    0.000    0.000 
#
# Total GULP energy -78323.141890 kJ/mol
# GULP energy per Si atom -5594.510135 kJ/mol
# Density = 2.556679 g / cm^3
# Si number density = 25.625115 Si / 1000 Ang^3
#
#
#
# Elastic Constant Matrix: (Units=GPa)
#
#
# Indices 1 2 3 4 5 6 
#
# 1 110.9243 42.2993 40.3850 0.0000 11.6858 0.0000
# 2 42.2993 82.0401 48.9588 0.0000 7.9479 0.0000
# 3 40.3850 48.9588 177.0471 0.0000 5.4374 0.0000
# 4 0.0000 0.0000 0.0000 28.2417 0.0000 3.6716
# 5 11.6858 7.9479 5.4374 0.0000 31.7610 0.0000
# 6 0.0000 0.0000 0.0000 3.6716 0.0000 32.3017
#
#
#
# Elastic Compliance Matrix: (Units=1/GPa)
#
#
# Indices 1 2 3 4 5 6 
#
# 1 0.011663 -0.005034 -0.001181 0.000000 -0.002829 0.000000
# 2 -0.005034 0.017057 -0.003513 0.000000 -0.001815 0.000000
# 3 -0.001181 -0.003513 0.006885 0.000000 0.000135 0.000000
# 4 0.000000 0.000000 0.000000 0.035940 0.000000 -0.004085
# 5 -0.002829 -0.001815 0.000135 0.000000 0.032957 0.000000
# 6 0.000000 0.000000 0.000000 -0.004085 0.000000 0.031422
#
#
# Mechanical properties :
#
#
# Convention : Reuss Voigt Hill
#
# Bulk Modulus (GPa) = 61.92656 70.36644 66.14650
# Shear Modulus (GPa) = 31.10160 34.35211 32.72686
#
# Velocity S-wave (km/s) = 3.48762 3.66534 3.57759
# Velocity P-wave (km/s) = 6.35900 6.74037 6.55246
#
# Compressibility (1/GPa) = 0.01614816
#
# Stress axis : x y z
#
# Youngs Moduli (GPa) = 85.74072 58.62745 145.24550
#
# Poissons Ratio (x) = 0.29515 0.17159
# Poissons Ratio (y) = 0.43165 0.51020
# Poissons Ratio (z) = 0.10129 0.20594
#
# Static dielectric constant tensor:
#      x y z
#    x 1.999700 0.000000 -0.017440 
#    y 0.000000 2.373210 0.000000 
#    z -0.017440 0.000000 2.000220 
# 
# From -- ./inp_files/9470.got.cif
#   From: 2010.05.17/outbox.cif.g08.bks.cpg/sg9_5_cif.got.tgz:9470.got - 2010.06.03 20:04:27.
