data_PCOD9138980
_publ_section_title
;
Structure prediction by ZEFSAII (Michael W. Deem and Ramdas Pophale) SiO2 
 PCOD9138980
Probable space group: C C
;
_chemical_formula_sum "Si O2"
_cell_formula_units_Z 32
_cell_length_a 10.779315
_cell_length_b 15.771665
_cell_length_c 16.219399
_cell_angle_alpha 90.000000
_cell_angle_beta 145.530319
_cell_angle_gamma 90.000000
_cell_volume 1560.619110
_symmetry_space_group_name_H-M "C C"
_symmetry_group_IT_number 9
_symmetry_cell_setting 'monoclinic'
loop_
_space_group_symop_operation_xyz
x,y,z
x,-y,1/2+z
1/2+x,1/2+y,z
1/2+x,1/2-y,1/2+z
loop_
_atom_site_type_symbol
_atom_site_label
_atom_site_fract_x
_atom_site_fract_y
_atom_site_fract_z
Si Si1 0.734530 0.388057 0.177600
Si Si2 0.971408 0.941801 0.576314
Si Si3 0.503255 0.212353 0.081489
Si Si4 0.275816 0.791100 0.792508
Si Si5 0.115318 0.598755 0.567359
Si Si6 0.507402 0.288189 0.260824
Si Si7 0.096255 0.618179 0.746749
Si Si8 0.611472 0.916135 0.511963
O O1 0.588380 0.468876 0.122668
O O2 0.588584 0.303462 0.095979
O O3 0.866537 0.401926 0.164858
O O4 0.931370 0.375001 0.352157
O O5 0.792085 0.920614 0.408205
O O6 0.837179 0.931905 0.587681
O O7 0.146163 0.866936 0.678709
O O8 0.503383 0.224794 0.180448
O O9 0.639758 0.139141 0.110023
O O10 0.257313 0.192045 0.917874
O O11 0.409884 0.749543 0.791339
O O12 0.127870 0.719758 0.754706
O O13 0.444659 0.827973 0.951184
O O14 0.348478 0.631034 0.658744
O O15 0.122371 0.585689 0.668577
O O16 0.031388 0.511186 0.484755
#
# Coordination Sequence:
#
# PCOD9138980 Si02
#       8
#     4   4   4   4   4   4   4   4
#     4  11  24  46  67  97 136 182 225 280 350 408
#     4  11  24  43  70  95 135 184 224 285 343 408
#     4  12  24  44  68 100 136 177 231 282 339 413
#     4  11  22  43  70  96 136 182 223 280 346 412
#     4  11  23  44  67 102 135 178 226 284 341 412
#     4  11  24  41  71 100 135 180 229 276 341 413
#     4  10  24  43  66 102 131 172 235 280 337 410
#     4  11  25  44  67  98 138 179 227 285 347 408
#
# _framework density 20.504683
#
# number of rings (size 3 to 8) (size 9 to 14) (size 15 to 20)
#    0.000    1.000    3.750    3.000    1.750    3.000 
#    4.500    0.000    0.000    0.000    0.000    0.000 
#    0.000    0.000    0.000    0.000    0.000    0.000 
#
# Total GULP energy -89348.273140 kJ/mol
# GULP energy per Si atom -5584.267071 kJ/mol
# Density = 2.045801 g / cm^3
# Si number density = 20.504683 Si / 1000 Ang^3
#
#
#
# Elastic Constant Matrix: (Units=GPa)
#
#
# Indices 1 2 3 4 5 6 
#
# 1 128.6668 30.2686 19.3506 0.0004 3.1166 0.0001
# 2 30.2686 82.3479 -8.9537 0.0004 18.9231 0.0001
# 3 19.3506 -8.9537 31.2905 0.0012 10.7598 0.0005
# 4 0.0004 0.0004 0.0012 14.1575 0.0004 -1.8589
# 5 3.1166 18.9231 10.7598 0.0004 32.1131 0.0001
# 6 0.0001 0.0001 0.0005 -1.8589 0.0001 32.1994
#
#
#
# Elastic Compliance Matrix: (Units=1/GPa)
#
#
# Indices 1 2 3 4 5 6 
#
# 1 0.010801 -0.006635 -0.010807 0.000001 0.006483 0.000000
# 2 -0.006635 0.020012 0.015443 -0.000001 -0.016323 0.000000
# 3 -0.010807 0.015443 0.051797 -0.000004 -0.025406 -0.000001
# 4 0.000001 -0.000001 -0.000004 0.071173 0.000001 0.004109
# 5 0.006483 -0.016323 -0.025406 0.000001 0.048642 0.000000
# 6 0.000000 0.000000 -0.000001 0.004109 0.000000 0.031294
#
#
# Mechanical properties :
#
#
# Convention : Reuss Voigt Hill
#
# Bulk Modulus (GPa) = 12.72080 35.95958 24.34019
# Shear Modulus (GPa) = 18.94492 29.13667 24.04079
#
# Velocity S-wave (km/s) = 3.04292 3.77367 3.42783
# Velocity P-wave (km/s) = 4.30850 6.04672 5.25005
#
# Compressibility (1/GPa) = 0.07861140
#
# Stress axis : x y z
#
# Youngs Moduli (GPa) = 92.58210 49.96902 19.30600
#
# Poissons Ratio (x) = 0.33154 0.20865
# Poissons Ratio (y) = 0.61428 -0.29814
# Poissons Ratio (z) = 1.00058 -0.77165
#
# Static dielectric constant tensor:
#      x y z
#    x 1.756950 0.000000 0.007400 
#    y 0.000000 1.750220 0.000000 
#    z 0.007400 0.000000 1.716310 
# 
# From -- ./inp_files/7403.got.cif
#   From: 2010.05.17/outbox.cif.g08.bks.cpg/sg9_4_cif.got.tgz:7403.got - 2010.06.03 20:04:27.
