data_PCOD9138997
_publ_section_title
;
Structure prediction by ZEFSAII (Michael W. Deem and Ramdas Pophale) SiO2 
 PCOD9138997
Probable space group: C C
;
_chemical_formula_sum "Si O2"
_cell_formula_units_Z 20
_cell_length_a 11.534074
_cell_length_b 7.348154
_cell_length_c 24.183884
_cell_angle_alpha 90.000000
_cell_angle_beta 26.336732
_cell_angle_gamma 90.000000
_cell_volume 909.334021
_symmetry_space_group_name_H-M "C C"
_symmetry_group_IT_number 9
_symmetry_cell_setting 'monoclinic'
loop_
_space_group_symop_operation_xyz
x,y,z
x,-y,1/2+z
1/2+x,1/2+y,z
1/2+x,1/2-y,1/2+z
loop_
_atom_site_type_symbol
_atom_site_label
_atom_site_fract_x
_atom_site_fract_y
_atom_site_fract_z
Si Si1 0.648550 0.386052 0.181170
Si Si2 0.883938 0.711296 0.139400
Si Si3 0.683536 0.018789 0.808971
Si Si4 0.136695 0.813157 0.914982
Si Si5 0.416427 0.306633 0.474781
O O1 0.727593 0.526969 0.194191
O O2 0.474156 0.496976 0.210888
O O3 0.445543 0.231234 0.287132
O O4 0.888402 0.298301 0.045529
O O5 0.715443 0.872727 0.238587
O O6 0.001300 0.779038 0.031282
O O7 0.121033 0.664083 0.079669
O O8 0.543586 0.160997 0.910633
O O9 0.547919 0.826920 0.874200
O O10 0.070764 0.009145 0.919058
#
# Coordination Sequence:
#
# PCOD9138997 Si02
#       5
#     4   4   4   4   4
#     4   9  21  45  67  97 139 178 226 286 333 407
#     4  11  23  45  72  98 138 188 222 284 353 396
#     4   9  23  44  67 100 142 172 230 286 332 416
#     4  10  24  43  69  99 138 181 225 287 338 403
#     4  11  23  45  69 102 135 181 235 279 338 414
#
# _framework density 21.994118
#
# number of rings (size 3 to 8) (size 9 to 14) (size 15 to 20)
#    1.200    0.800    2.000    0.000    2.800    4.800 
#    3.600    0.000    0.000    0.000    0.000    0.000 
#    0.000    0.000    0.000    0.000    0.000    0.000 
#
# Total GULP energy -55819.118473 kJ/mol
# GULP energy per Si atom -5581.911847 kJ/mol
# Density = 2.194406 g / cm^3
# Si number density = 21.994118 Si / 1000 Ang^3
#
#
#
# Elastic Constant Matrix: (Units=GPa)
#
#
# Indices 1 2 3 4 5 6 
#
# 1 66.2100 49.0612 34.3372 0.0000 17.4668 -0.0001
# 2 49.0612 162.7752 67.0764 0.0005 -7.6664 -0.0002
# 3 34.3372 67.0764 86.9317 0.0017 21.9523 -0.0013
# 4 0.0000 0.0005 0.0017 16.4025 -0.0014 -14.4520
# 5 17.4668 -7.6664 21.9523 -0.0014 42.0189 0.0000
# 6 -0.0001 -0.0002 -0.0013 -14.4520 0.0000 38.5504
#
#
#
# Elastic Compliance Matrix: (Units=1/GPa)
#
#
# Indices 1 2 3 4 5 6 
#
# 1 0.023853 -0.007200 -0.001187 -0.000001 -0.010609 0.000000
# 2 -0.007200 0.012764 -0.009617 0.000002 0.010346 0.000000
# 3 -0.001187 -0.009617 0.022707 -0.000004 -0.013124 -0.000001
# 4 -0.000001 0.000002 -0.000004 0.091036 0.000006 0.034128
# 5 -0.010609 0.010346 -0.013124 0.000006 0.036953 0.000002
# 6 0.000000 0.000000 -0.000001 0.034128 0.000002 0.038734
#
#
# Mechanical properties :
#
#
# Convention : Reuss Voigt Hill
#
# Bulk Modulus (GPa) = 42.89107 68.54074 55.71590
# Shear Modulus (GPa) = 18.53033 30.42382 24.47707
#
# Velocity S-wave (km/s) = 2.90576 3.72327 3.33962
# Velocity P-wave (km/s) = 5.54990 7.05085 6.34492
#
# Compressibility (1/GPa) = 0.02331488
#
# Stress axis : x y z
#
# Youngs Moduli (GPa) = 41.92371 78.34603 44.03863
#
# Poissons Ratio (x) = 0.56407 0.05230
# Poissons Ratio (y) = 0.30184 0.42354
# Poissons Ratio (z) = 0.04978 0.75349
#
# Static dielectric constant tensor:
#      x y z
#    x 1.837850 0.000000 0.005230 
#    y 0.000000 1.793090 0.000000 
#    z 0.005230 0.000000 1.822180 
# 
# From -- ./inp_files/15779.got.cif
#   From: 2010.05.17/outbox.cif.g08.bks.cpg/sg9_8_cif.got.tgz:15779.got - 2010.06.03 20:04:27.
