data_PCOD9138004
_publ_section_title
;
Structure prediction by ZEFSAII (Michael W. Deem and Ramdas Pophale) SiO2 
 PCOD9138004
Probable space group: C C
;
_chemical_formula_sum "Si O2"
_cell_formula_units_Z 32
_cell_length_a 13.779290
_cell_length_b 5.437721
_cell_length_c 22.014188
_cell_angle_alpha 90.000000
_cell_angle_beta 57.288060
_cell_angle_gamma 90.000000
_cell_volume 1387.867486
_symmetry_space_group_name_H-M "C C"
_symmetry_group_IT_number 9
_symmetry_cell_setting 'monoclinic'
loop_
_space_group_symop_operation_xyz
x,y,z
x,-y,1/2+z
1/2+x,1/2+y,z
1/2+x,1/2-y,1/2+z
loop_
_atom_site_type_symbol
_atom_site_label
_atom_site_fract_x
_atom_site_fract_y
_atom_site_fract_z
Si Si1 0.742120 0.252489 0.210910
Si Si2 0.009618 0.749474 0.615513
Si Si3 0.787656 0.992492 0.818154
Si Si4 0.410164 0.271449 0.877050
Si Si5 0.152297 0.867611 0.838366
Si Si6 0.072217 0.744651 0.457581
Si Si7 0.615429 0.750382 0.626575
Si Si8 0.340498 0.790601 0.966219
O O1 0.874530 0.286565 0.147485
O O2 0.757031 0.047247 0.258119
O O3 0.684642 0.461417 0.271219
O O4 0.665905 0.225197 0.177200
O O5 0.072806 0.761512 0.529161
O O6 0.049640 0.502779 0.635196
O O7 0.039974 0.002939 0.640709
O O8 0.888886 0.840222 0.813618
O O9 0.674418 0.922322 0.896112
O O10 0.777648 0.283041 0.821641
O O11 0.542740 0.218562 0.848766
O O12 0.369344 0.530629 0.922616
O O13 0.341306 0.032911 0.923432
O O14 0.096131 0.000898 0.915249
O O15 0.946656 0.663208 0.476790
O O16 0.722885 0.733079 0.543391
#
# Coordination Sequence:
#
# PCOD9138004 Si02
#       8
#     4   4   4   4   4   4   4   4
#     4  11  29  48  69 108 150 194 243 302 361 441
#     4  12  29  48  78 106 143 198 244 301 367 438
#     4  11  24  44  73 102 142 192 238 297 356 436
#     4  11  25  41  75 105 142 183 243 293 364 420
#     4  10  25  45  71 105 147 190 236 308 359 429
#     4  10  22  46  72 105 143 180 243 301 363 416
#     4  12  28  48  74 106 149 192 244 297 368 433
#     4  11  22  46  70 109 142 183 233 311 352 423
#
# _framework density 23.056956
#
# number of rings (size 3 to 8) (size 9 to 14) (size 15 to 20)
#    0.000    1.000    2.500    2.250   12.250    0.000 
#    0.000    0.000    0.000    0.000    0.000    0.000 
#    0.000    0.000    0.000    0.000    0.000    0.000 
#
# Total GULP energy -89275.198957 kJ/mol
# GULP energy per Si atom -5579.699935 kJ/mol
# Density = 2.300448 g / cm^3
# Si number density = 23.056956 Si / 1000 Ang^3
#
#
#
# Elastic Constant Matrix: (Units=GPa)
#
#
# Indices 1 2 3 4 5 6 
#
# 1 111.1181 42.7506 26.6547 0.0000 38.0202 0.0005
# 2 42.7506 98.0490 23.8052 0.0003 28.9677 0.0009
# 3 26.6547 23.8052 100.2731 -0.0004 26.3750 -0.0004
# 4 0.0000 0.0003 -0.0004 63.1901 0.0002 6.6214
# 5 38.0202 28.9677 26.3750 0.0002 47.9956 0.0003
# 6 0.0005 0.0009 -0.0004 6.6214 0.0003 36.9718
#
#
#
# Elastic Compliance Matrix: (Units=1/GPa)
#
#
# Indices 1 2 3 4 5 6 
#
# 1 0.013165 -0.003178 -0.000592 0.000000 -0.008185 0.000000
# 2 -0.003178 0.013292 -0.001009 0.000000 -0.004951 0.000000
# 3 -0.000592 -0.001009 0.011790 0.000000 -0.005401 0.000000
# 4 0.000000 0.000000 0.000000 0.016128 0.000000 -0.002888
# 5 -0.008185 -0.004951 -0.005401 0.000000 0.033275 0.000000
# 6 0.000000 0.000000 0.000000 -0.002888 0.000000 0.027565
#
#
# Mechanical properties :
#
#
# Convention : Reuss Voigt Hill
#
# Bulk Modulus (GPa) = 34.85551 55.09569 44.97560
# Shear Modulus (GPa) = 37.22004 44.04683 40.63343
#
# Velocity S-wave (km/s) = 4.02215 4.37550 4.20254
# Velocity P-wave (km/s) = 6.05972 7.03377 6.56484
#
# Compressibility (1/GPa) = 0.02868987
#
# Stress axis : x y z
#
# Youngs Moduli (GPa) = 75.96025 75.23230 84.81525
#
# Poissons Ratio (x) = 0.23909 0.05021
# Poissons Ratio (y) = 0.24140 0.08555
# Poissons Ratio (z) = 0.04497 0.07588
#
# Static dielectric constant tensor:
#      x y z
#    x 1.877110 0.000000 0.003970 
#    y 0.000000 2.022130 0.000000 
#    z 0.003970 0.000000 1.851570 
# 
# From -- ./inp_files/30366.got.cif
#   From: 2010.05.17/outbox.cif.g08.bks.cpg/sg9_16_cif.got.tgz:30366.got - 2010.06.03 20:04:27.
