data_PCOD9138602
_publ_section_title
;
Structure prediction by ZEFSAII (Michael W. Deem and Ramdas Pophale) SiO2 
 PCOD9138602
Probable space group: C C
;
_chemical_formula_sum "Si O2"
_cell_formula_units_Z 32
_cell_length_a 9.783726
_cell_length_b 12.980732
_cell_length_c 12.756176
_cell_angle_alpha 90.000000
_cell_angle_beta 130.893305
_cell_angle_gamma 90.000000
_cell_volume 1224.631798
_symmetry_space_group_name_H-M "C C"
_symmetry_group_IT_number 9
_symmetry_cell_setting 'monoclinic'
loop_
_space_group_symop_operation_xyz
x,y,z
x,-y,1/2+z
1/2+x,1/2+y,z
1/2+x,1/2-y,1/2+z
loop_
_atom_site_type_symbol
_atom_site_label
_atom_site_fract_x
_atom_site_fract_y
_atom_site_fract_z
Si Si1 0.485430 0.137055 0.816510
Si Si2 0.273740 0.659537 0.415379
Si Si3 0.880394 0.340870 0.610695
Si Si4 0.120322 0.150895 0.170084
Si Si5 0.356166 0.014950 0.436505
Si Si6 0.252709 0.462017 0.122303
Si Si7 0.784002 0.210139 0.101129
Si Si8 0.340280 0.458037 0.380594
O O1 0.407582 0.057049 0.862543
O O2 0.303626 0.199173 0.693584
O O3 0.637627 0.074961 0.821618
O O4 0.616747 0.219418 0.939595
O O5 0.353104 0.764578 0.498823
O O6 0.275645 0.591512 0.523265
O O7 0.372816 0.580260 0.389762
O O8 0.080223 0.666891 0.260373
O O9 0.759030 0.314960 0.650736
O O10 0.826187 0.449720 0.528136
O O11 0.979513 0.231066 0.146331
O O12 0.212189 0.092282 0.313871
O O13 0.983670 0.081714 0.034416
O O14 0.549300 0.066293 0.552355
O O15 0.272408 0.587602 0.125032
O O16 0.370547 0.419583 0.277474
#
# Coordination Sequence:
#
# PCOD9138602 Si02
#       8
#     4   4   4   4   4   4   4   4
#     4  10  23  45  65  99 130 175 230 279 342 413
#     4  12  26  49  66 104 142 184 241 286 358 422
#     4  12  29  42  73 105 139 189 233 299 348 427
#     4  11  25  45  66 106 136 178 238 279 355 419
#     4  11  24  46  68  96 141 180 234 282 356 412
#     4  11  23  47  69  92 138 186 222 290 355 404
#     4  10  24  42  67  97 133 174 227 282 337 413
#     4  11  24  44  72  93 141 184 219 293 353 406
#
# _framework density 26.130303999999999
#
# number of rings (size 3 to 8) (size 9 to 14) (size 15 to 20)
#    0.000    1.000    6.250    0.000    8.750    3.000 
#    0.000    0.000    0.000    0.000    0.000    0.000 
#    0.000    0.000    0.000    0.000    0.000    0.000 
#
# Total GULP energy -89296.801693 kJ/mol
# GULP energy per Si atom -5581.050106 kJ/mol
# Density = 2.607083 g / cm^3
# Si number density = 26.130304 Si / 1000 Ang^3
#
#
#
# Elastic Constant Matrix: (Units=GPa)
#
#
# Indices 1 2 3 4 5 6 
#
# 1 40.5832 4.3073 13.7548 0.0000 -22.6190 0.0000
# 2 4.3073 64.8640 17.8382 0.0000 0.6325 0.0000
# 3 13.7548 17.8382 125.5520 0.0000 -13.0828 0.0000
# 4 0.0000 0.0000 0.0000 48.4558 0.0000 -10.0128
# 5 -22.6190 0.6325 -13.0828 0.0000 31.3871 0.0000
# 6 0.0000 0.0000 0.0000 -10.0128 0.0000 21.7084
#
#
#
# Elastic Compliance Matrix: (Units=1/GPa)
#
#
# Indices 1 2 3 4 5 6 
#
# 1 0.041920 -0.002774 -0.001092 0.000000 0.029810 0.000000
# 2 -0.002774 0.016281 -0.002354 0.000000 -0.003308 0.000000
# 3 -0.001092 -0.002354 0.008721 0.000000 0.002895 0.000000
# 4 0.000000 0.000000 0.000000 0.022812 0.000000 0.010522
# 5 0.029810 -0.003308 0.002895 0.000000 0.054616 0.000000
# 6 0.000000 0.000000 0.000000 0.010522 0.000000 0.050918
#
#
# Mechanical properties :
#
#
# Convention : Reuss Voigt Hill
#
# Bulk Modulus (GPa) = 18.35499 33.64442 25.99970
# Shear Modulus (GPa) = 22.13684 33.31685 27.72684
#
# Velocity S-wave (km/s) = 2.91378 3.57463 3.26099
# Velocity P-wave (km/s) = 4.28483 5.47182 4.91430
#
# Compressibility (1/GPa) = 0.05448109
#
# Stress axis : x y z
#
# Youngs Moduli (GPa) = 23.85496 61.42242 114.67068
#
# Poissons Ratio (x) = 0.17039 0.12523
# Poissons Ratio (y) = 0.06617 0.26993
# Poissons Ratio (z) = 0.02605 0.14459
#
# Static dielectric constant tensor:
#      x y z
#    x 2.227480 0.000000 -0.097340 
#    y 0.000000 2.239100 0.000000 
#    z -0.097340 0.000000 2.163470 
# 
# From -- ./inp_files/24921.got.cif
#   From: 2010.05.17/outbox.cif.g08.bks.cpg/sg9_13_cif.got.tgz:24921.got - 2010.06.03 20:04:27.
