data_PCOD9138232
_publ_section_title
;
Structure prediction by ZEFSAII (Michael W. Deem and Ramdas Pophale) SiO2 
 PCOD9138232
Probable space group: C C
;
_chemical_formula_sum "Si O2"
_cell_formula_units_Z 24
_cell_length_a 4.908607
_cell_length_b 26.468651
_cell_length_c 7.904506
_cell_angle_alpha 90.000000
_cell_angle_beta 114.606047
_cell_angle_gamma 90.000000
_cell_volume 933.728232
_symmetry_space_group_name_H-M "C C"
_symmetry_group_IT_number 9
_symmetry_cell_setting 'monoclinic'
loop_
_space_group_symop_operation_xyz
x,y,z
x,-y,1/2+z
1/2+x,1/2+y,z
1/2+x,1/2-y,1/2+z
loop_
_atom_site_type_symbol
_atom_site_label
_atom_site_fract_x
_atom_site_fract_y
_atom_site_fract_z
Si Si1 0.452110 0.513184 0.209530
Si Si2 0.852329 0.289506 0.095855
Si Si3 0.220335 0.663565 0.398608
Si Si4 0.246740 0.680272 0.014022
Si Si5 0.652875 0.572466 0.536283
Si Si6 0.214827 0.576429 0.886346
O O1 0.670236 0.555081 0.347154
O O2 0.618558 0.482437 0.109616
O O3 0.341480 0.466193 0.293692
O O4 0.186074 0.545446 0.054150
O O5 0.997404 0.303704 0.312408
O O6 0.965637 0.323373 0.967449
O O7 0.496142 0.298235 0.010050
O O8 0.937707 0.231396 0.079646
O O9 0.365967 0.608651 0.472202
O O10 0.143860 0.668493 0.180176
O O11 0.386556 0.628337 0.975187
O O12 0.916649 0.594543 0.715364
#
# Coordination Sequence:
#
# PCOD9138232 Si02
#       6
#     4   4   4   4   4   4
#     4  10  23  41  68 105 144 187 247 308 374 443
#     4  12  29  48  78 107 155 194 257 313 378 451
#     4  12  28  51  75 113 149 202 250 315 380 454
#     4  12  26  49  75 110 151 204 252 314 383 451
#     4  11  22  43  69 102 145 190 248 307 373 449
#     4  11  22  44  69 103 142 193 244 307 376 442
#
# _framework density 25.703410999999999
#
# number of rings (size 3 to 8) (size 9 to 14) (size 15 to 20)
#    0.000    0.667    5.000    2.000    2.333    1.333 
#    6.000    0.000    0.000    0.000    0.000    0.000 
#    0.000    0.000    0.000    0.000    0.000    0.000 
#
# Total GULP energy -67003.661115 kJ/mol
# GULP energy per Si atom -5583.638426 kJ/mol
# Density = 2.564491 g / cm^3
# Si number density = 25.703411 Si / 1000 Ang^3
#
#
#
# Elastic Constant Matrix: (Units=GPa)
#
#
# Indices 1 2 3 4 5 6 
#
# 1 31.6909 2.7625 18.8211 0.0000 -0.2041 0.0000
# 2 2.7625 153.1397 64.8036 0.0000 2.4364 0.0000
# 3 18.8211 64.8036 177.3710 0.0000 -17.2374 0.0000
# 4 0.0000 0.0000 0.0000 78.4765 0.0000 -13.4255
# 5 -0.2041 2.4364 -17.2374 0.0000 18.7270 0.0000
# 6 0.0000 0.0000 0.0000 -13.4255 0.0000 36.0996
#
#
#
# Elastic Compliance Matrix: (Units=1/GPa)
#
#
# Indices 1 2 3 4 5 6 
#
# 1 0.034079 0.001349 -0.004492 0.000000 -0.003938 0.000000
# 2 0.001349 0.008054 -0.003499 0.000000 -0.004254 0.000000
# 3 -0.004492 -0.003499 0.008163 0.000000 0.007920 0.000000
# 4 0.000000 0.000000 0.000000 0.013608 0.000000 0.005061
# 5 -0.003938 -0.004254 0.007920 0.000000 0.061199 0.000000
# 6 0.000000 0.000000 0.000000 0.005061 0.000000 0.029583
#
#
# Mechanical properties :
#
#
# Convention : Reuss Voigt Hill
#
# Bulk Modulus (GPa) = 27.01843 59.44178 43.23010
# Shear Modulus (GPa) = 27.73022 45.04825 36.38923
#
# Velocity S-wave (km/s) = 3.28815 4.19097 3.76671
# Velocity P-wave (km/s) = 4.99504 6.82607 5.98104
#
# Compressibility (1/GPa) = 0.03701178
#
# Stress axis : x y z
#
# Youngs Moduli (GPa) = 29.34317 124.16127 122.51005
#
# Poissons Ratio (x) = -0.16745 0.55028
# Poissons Ratio (y) = -0.03957 0.42868
# Poissons Ratio (z) = 0.13180 0.43445
#
# Static dielectric constant tensor:
#      x y z
#    x 2.013960 0.000000 -0.008300 
#    y 0.000000 2.019150 0.000000 
#    z -0.008300 0.000000 2.114880 
# 
# From -- ./inp_files/4029.got.cif
#   From: 2010.05.17/outbox.cif.g08.bks.cpg/sg9_3_cif.got.tgz:4029.got - 2010.06.03 20:04:27.
