data_PCOD9138857
_publ_section_title
;
Structure prediction by ZEFSAII (Michael W. Deem and Ramdas Pophale) SiO2 
 PCOD9138857
Probable space group: C C
;
_chemical_formula_sum "Si O2"
_cell_formula_units_Z 28
_cell_length_a 13.134946
_cell_length_b 5.037986
_cell_length_c 17.038326
_cell_angle_alpha 90.000000
_cell_angle_beta 73.530886
_cell_angle_gamma 90.000000
_cell_volume 1081.230814
_symmetry_space_group_name_H-M "C C"
_symmetry_group_IT_number 9
_symmetry_cell_setting 'monoclinic'
loop_
_space_group_symop_operation_xyz
x,y,z
x,-y,1/2+z
1/2+x,1/2+y,z
1/2+x,1/2-y,1/2+z
loop_
_atom_site_type_symbol
_atom_site_label
_atom_site_fract_x
_atom_site_fract_y
_atom_site_fract_z
Si Si1 0.576590 0.441832 0.046420
Si Si2 0.889928 0.295912 0.689695
Si Si3 0.690574 0.505755 0.752700
Si Si4 0.037927 0.499308 0.788924
Si Si5 0.941202 0.215276 0.433655
Si Si6 0.799937 0.108165 0.330547
Si Si7 0.209260 0.451695 0.008882
O O1 0.475273 0.352056 0.118531
O O2 0.532564 0.402384 0.967351
O O3 0.620241 0.735778 0.048863
O O4 0.670744 0.235601 0.046603
O O5 0.792248 0.460788 0.673904
O O6 0.955717 0.482432 0.735060
O O7 0.824694 0.072087 0.751569
O O8 0.613957 0.751534 0.756469
O O9 0.615428 0.252324 0.771231
O O10 0.752778 0.604696 0.817957
O O11 0.979062 0.503093 0.887709
O O12 0.908807 0.908121 0.856496
O O13 0.826519 0.169524 0.500735
O O14 0.716195 0.008244 0.412927
#
# Coordination Sequence:
#
# PCOD9138857 Si02
#       7
#     4   4   4   4   4   4   4
#     4  12  28  48  76 106 156 196 246 310 403 425
#     4  12  28  48  76 116 153 195 258 329 368 466
#     4  12  25  45  71 109 147 188 251 310 367 444
#     4  12  26  42  78 108 142 198 253 297 389 444
#     4  10  25  46  76 106 146 192 252 305 370 454
#     4  10  23  49  78 101 155 191 261 309 369 444
#     4  10  27  46  73 106 149 194 253 304 372 465
#
# _framework density 25.896417
#
# number of rings (size 3 to 8) (size 9 to 14) (size 15 to 20)
#    0.857    0.000    2.857    2.571    6.000    4.571 
#    0.000    0.000    0.000    0.000    0.000    0.000 
#    0.000    0.000    0.000    0.000    0.000    0.000 
#
# Total GULP energy -78129.205016 kJ/mol
# GULP energy per Si atom -5580.657501 kJ/mol
# Density = 2.583748 g / cm^3
# Si number density = 25.896417 Si / 1000 Ang^3
#
#
#
# Elastic Constant Matrix: (Units=GPa)
#
#
# Indices 1 2 3 4 5 6 
#
# 1 161.7510 42.8009 22.6872 0.0000 -22.2613 0.0000
# 2 42.8009 138.6334 14.6724 0.0000 -6.6077 0.0001
# 3 22.6872 14.6724 43.5994 0.0000 -16.8362 0.0001
# 4 0.0000 0.0000 0.0000 25.2132 0.0000 -15.2460
# 5 -22.2613 -6.6077 -16.8362 0.0000 43.0332 0.0000
# 6 0.0000 0.0001 0.0001 -15.2460 0.0000 35.6571
#
#
#
# Elastic Compliance Matrix: (Units=1/GPa)
#
#
# Indices 1 2 3 4 5 6 
#
# 1 0.007359 -0.001917 -0.002153 0.000000 0.002670 0.000000
# 2 -0.001917 0.007980 -0.001882 0.000000 -0.000503 0.000000
# 3 -0.002153 -0.001882 0.028446 0.000000 0.009726 0.000000
# 4 0.000000 0.000000 0.000000 0.053492 0.000000 0.022872
# 5 0.002670 -0.000503 0.009726 0.000000 0.028347 0.000000
# 6 0.000000 0.000000 0.000000 0.022872 0.000000 0.037824
#
#
# Mechanical properties :
#
#
# Convention : Reuss Voigt Hill
#
# Bulk Modulus (GPa) = 31.36701 56.03388 43.70044
# Shear Modulus (GPa) = 26.88465 38.36893 32.62679
#
# Velocity S-wave (km/s) = 3.22555 3.85337 3.55335
# Velocity P-wave (km/s) = 5.10010 6.44070 5.80920
#
# Compressibility (1/GPa) = 0.03188063
#
# Stress axis : x y z
#
# Youngs Moduli (GPa) = 135.88732 125.30832 35.15461
#
# Poissons Ratio (x) = 0.24020 0.07569
# Poissons Ratio (y) = 0.26047 0.06617
# Poissons Ratio (z) = 0.29259 0.23586
#
# Static dielectric constant tensor:
#      x y z
#    x 2.106910 0.000000 -0.008890 
#    y 0.000000 2.121160 0.000000 
#    z -0.008890 0.000000 2.137040 
# 
# From -- ./inp_files/32944.got.cif
#   From: 2010.05.17/outbox.cif.g08.bks.cpg/sg9_17_cif.got.tgz:32944.got - 2010.06.03 20:04:27.
