data_PCOD9138631
_publ_section_title
;
Structure prediction by ZEFSAII (Michael W. Deem and Ramdas Pophale) SiO2 
 PCOD9138631
Probable space group: C C
;
_chemical_formula_sum "Si O2"
_cell_formula_units_Z 32
_cell_length_a 8.380540
_cell_length_b 11.578941
_cell_length_c 14.454115
_cell_angle_alpha 90.000000
_cell_angle_beta 87.863833
_cell_angle_gamma 90.000000
_cell_volume 1401.620492
_symmetry_space_group_name_H-M "C C"
_symmetry_group_IT_number 9
_symmetry_cell_setting 'monoclinic'
loop_
_space_group_symop_operation_xyz
x,y,z
x,-y,1/2+z
1/2+x,1/2+y,z
1/2+x,1/2-y,1/2+z
loop_
_atom_site_type_symbol
_atom_site_label
_atom_site_fract_x
_atom_site_fract_y
_atom_site_fract_z
Si Si1 0.220320 0.240547 0.985120
Si Si2 0.535860 0.251765 0.675055
Si Si3 0.862041 0.471836 0.218332
Si Si4 0.070481 0.798055 0.964391
Si Si5 0.013402 0.036458 0.290509
Si Si6 0.796863 0.507494 0.514764
Si Si7 0.523815 0.884899 0.861955
Si Si8 0.782607 0.176883 0.825762
O O1 0.402271 0.264258 0.011139
O O2 0.179404 0.322404 0.899144
O O3 0.094249 0.262934 0.069300
O O4 0.212711 0.102945 0.969733
O O5 0.399505 0.161863 0.703558
O O6 0.484032 0.380897 0.702498
O O7 0.682802 0.214524 0.738030
O O8 0.691107 0.487028 0.269801
O O9 0.849160 0.525929 0.116611
O O10 0.003931 0.530634 0.274868
O O11 0.031056 0.878409 0.876859
O O12 0.165399 0.689507 0.917590
O O13 0.181265 0.880914 0.023284
O O14 0.878351 0.941316 0.310332
O O15 0.942555 0.545024 0.447367
O O16 0.409848 0.777720 0.840339
#
# Coordination Sequence:
#
# PCOD9138631 Si02
#       8
#     4   4   4   4   4   4   4   4
#     4  12  25  43  71 105 146 188 241 305 363 437
#     4  11  25  44  67 106 142 186 240 295 366 440
#     4  12  24  47  71 101 151 190 239 309 366 440
#     4  10  25  43  68 104 137 188 240 296 358 433
#     4  11  23  46  69  97 140 190 234 301 364 427
#     4  11  23  47  69 102 148 186 240 304 367 432
#     4  11  24  45  72 106 142 196 241 299 373 430
#     4  10  23  45  69  97 138 184 243 291 357 435
#
# _framework density 22.830717
#
# number of rings (size 3 to 8) (size 9 to 14) (size 15 to 20)
#    0.000    1.000    6.250    0.750    7.000    0.000 
#    0.000    0.000    0.000    0.000    0.000    0.000 
#    0.000    0.000    0.000    0.000    0.000    0.000 
#
# Total GULP energy -89475.688048 kJ/mol
# GULP energy per Si atom -5592.230503 kJ/mol
# Density = 2.277875 g / cm^3
# Si number density = 22.830717 Si / 1000 Ang^3
#
#
#
# Elastic Constant Matrix: (Units=GPa)
#
#
# Indices 1 2 3 4 5 6 
#
# 1 84.5400 62.2380 21.8689 0.0000 -0.5822 0.0000
# 2 62.2380 133.1072 40.3254 0.0000 -16.9460 0.0000
# 3 21.8689 40.3254 102.2741 0.0000 5.1629 0.0000
# 4 0.0000 0.0000 0.0000 34.3021 0.0000 -2.9131
# 5 -0.5822 -16.9460 5.1629 0.0000 26.3359 0.0000
# 6 0.0000 0.0000 0.0000 -2.9131 0.0000 50.4793
#
#
#
# Elastic Compliance Matrix: (Units=1/GPa)
#
#
# Indices 1 2 3 4 5 6 
#
# 1 0.018794 -0.009523 0.000025 0.000000 -0.005717 0.000000
# 2 -0.009523 0.014497 -0.004182 0.000000 0.009938 0.000000
# 3 0.000025 -0.004182 0.011672 0.000000 -0.004978 0.000000
# 4 0.000000 0.000000 0.000000 0.029296 0.000000 0.001691
# 5 -0.005717 0.009938 -0.004978 0.000000 0.045215 0.000000
# 6 0.000000 0.000000 0.000000 0.001691 0.000000 0.019908
#
#
# Mechanical properties :
#
#
# Convention : Reuss Voigt Hill
#
# Bulk Modulus (GPa) = 56.80481 63.19843 60.00162
# Shear Modulus (GPa) = 28.96712 35.25609 32.11160
#
# Velocity S-wave (km/s) = 3.56586 3.93394 3.75441
# Velocity P-wave (km/s) = 6.47214 6.95528 6.71806
#
# Compressibility (1/GPa) = 0.01760414
#
# Stress axis : x y z
#
# Youngs Moduli (GPa) = 53.20969 68.97803 85.67212
#
# Poissons Ratio (x) = 0.65686 -0.00212
# Poissons Ratio (y) = 0.50670 0.35824
# Poissons Ratio (z) = -0.00132 0.28844
#
# Static dielectric constant tensor:
#      x y z
#    x 1.855020 0.000000 0.029240 
#    y 0.000000 1.865080 0.000000 
#    z 0.029240 0.000000 1.862260 
# 
# From -- ./inp_files/22911.got.cif
#   From: 2010.05.17/outbox.cif.g08.bks.cpg/sg9_12_cif.got.tgz:22911.got - 2010.06.03 20:04:27.
