data_PCOD9138925
_publ_section_title
;
Structure prediction by ZEFSAII (Michael W. Deem and Ramdas Pophale) SiO2 
 PCOD9138925
Probable space group: C C
;
_chemical_formula_sum "Si O2"
_cell_formula_units_Z 24
_cell_length_a 5.203776
_cell_length_b 9.374384
_cell_length_c 19.830267
_cell_angle_alpha 90.000000
_cell_angle_beta 92.545347
_cell_angle_gamma 90.000000
_cell_volume 966.409526
_symmetry_space_group_name_H-M "C C"
_symmetry_group_IT_number 9
_symmetry_cell_setting 'monoclinic'
loop_
_space_group_symop_operation_xyz
x,y,z
x,-y,1/2+z
1/2+x,1/2+y,z
1/2+x,1/2-y,1/2+z
loop_
_atom_site_type_symbol
_atom_site_label
_atom_site_fract_x
_atom_site_fract_y
_atom_site_fract_z
Si Si1 0.909580 0.896056 0.604110
Si Si2 0.840215 0.625612 0.262798
Si Si3 0.656137 0.103942 0.712047
Si Si4 0.218418 0.439095 0.984813
Si Si5 0.225502 0.125610 0.553360
Si Si6 0.847300 0.939094 0.831345
O O1 0.782856 0.999998 0.658079
O O2 0.846963 0.729464 0.610890
O O3 0.755838 0.921148 0.531017
O O4 0.177753 0.969263 0.586064
O O5 0.887963 0.469265 0.230095
O O6 0.630510 0.616194 0.319252
O O7 0.124188 0.658547 0.294845
O O8 0.718758 0.729466 0.205267
O O9 0.809882 0.078850 0.785140
O O10 0.441529 0.341454 0.021313
O O11 0.935206 0.383810 0.996905
O O12 0.282859 0.459750 0.908079
#
# Coordination Sequence:
#
# PCOD9138925 Si02
#       6
#     4   4   4   4   4   4
#     4  10  24  43  68  99 135 178 227 283 344 412
#     4  10  24  41  68  95 134 176 228 281 346 410
#     4  10  24  43  68  99 135 178 227 283 344 412
#     4  10  24  42  66  96 133 179 226 281 346 409
#     4  10  24  41  68  95 134 176 228 281 346 410
#     4  10  24  42  66  96 133 179 226 281 346 409
#
# _framework density 24.834192999999999
#
# number of rings (size 3 to 8) (size 9 to 14) (size 15 to 20)
#    2.000    0.000    0.000    2.000    4.667    5.333 
#    0.000    0.000    0.000    0.000    0.000    0.000 
#    0.000    0.000    0.000    0.000    0.000    0.000 
#
# Total GULP energy -66860.214299 kJ/mol
# GULP energy per Si atom -5571.684525 kJ/mol
# Density = 2.477767 g / cm^3
# Si number density = 24.834193 Si / 1000 Ang^3
#
#
#
# Elastic Constant Matrix: (Units=GPa)
#
#
# Indices 1 2 3 4 5 6 
#
# 1 151.3786 25.5268 25.4656 0.0000 -34.4265 0.0000
# 2 25.5268 78.6316 6.7232 0.0000 -15.3986 0.0000
# 3 25.4656 6.7232 126.1974 0.0000 -26.7951 0.0000
# 4 0.0000 0.0000 0.0000 18.8213 0.0000 7.4163
# 5 -34.4265 -15.3986 -26.7951 0.0000 49.4009 0.0000
# 6 0.0000 0.0000 0.0000 7.4163 0.0000 30.5097
#
#
#
# Elastic Compliance Matrix: (Units=1/GPa)
#
#
# Indices 1 2 3 4 5 6 
#
# 1 0.008067 -0.001628 -0.000514 0.000000 0.004835 0.000000
# 2 -0.001628 0.013877 0.000301 0.000000 0.003355 0.000000
# 3 -0.000514 0.000301 0.008991 0.000000 0.004612 0.000000
# 4 0.000000 0.000000 0.000000 0.058759 0.000000 -0.014283
# 5 0.004835 0.003355 0.004612 0.000000 0.027159 0.000000
# 6 0.000000 0.000000 0.000000 -0.014283 0.000000 0.036248
#
#
# Mechanical properties :
#
#
# Convention : Reuss Voigt Hill
#
# Bulk Modulus (GPa) = 36.69295 52.40431 44.54863
# Shear Modulus (GPa) = 30.14442 39.64587 34.89515
#
# Velocity S-wave (km/s) = 3.48778 3.99986 3.75257
# Velocity P-wave (km/s) = 5.57017 6.51762 6.06243
#
# Compressibility (1/GPa) = 0.02725319
#
# Stress axis : x y z
#
# Youngs Moduli (GPa) = 123.96844 72.06073 111.22048
#
# Poissons Ratio (x) = 0.11731 0.05722
# Poissons Ratio (y) = 0.20181 -0.03353
# Poissons Ratio (z) = 0.06378 -0.02172
#
# Static dielectric constant tensor:
#      x y z
#    x 1.989070 0.000000 0.111220 
#    y 0.000000 2.172660 0.000000 
#    z 0.111220 0.000000 1.991540 
# 
# From -- ./inp_files/31949.got.cif
#   From: 2010.05.17/outbox.cif.g08.bks.cpg/sg9_16_cif.got.tgz:31949.got - 2010.06.03 20:04:27.
