data_PCOD9138073
_publ_section_title
;
Structure prediction by ZEFSAII (Michael W. Deem and Ramdas Pophale) SiO2 
 PCOD9138073
Probable space group: C C
;
_chemical_formula_sum "Si O2"
_cell_formula_units_Z 20
_cell_length_a 16.679838
_cell_length_b 6.201074
_cell_length_c 8.412365
_cell_angle_alpha 90.000000
_cell_angle_beta 113.746795
_cell_angle_gamma 90.000000
_cell_volume 796.446206
_symmetry_space_group_name_H-M "C C"
_symmetry_group_IT_number 9
_symmetry_cell_setting 'monoclinic'
loop_
_space_group_symop_operation_xyz
x,y,z
x,-y,1/2+z
1/2+x,1/2+y,z
1/2+x,1/2-y,1/2+z
loop_
_atom_site_type_symbol
_atom_site_label
_atom_site_fract_x
_atom_site_fract_y
_atom_site_fract_z
Si Si1 0.975770 0.082825 0.944170
Si Si2 0.084851 0.746574 0.245200
Si Si3 0.357151 0.313977 0.616980
Si Si4 0.679934 0.827770 0.324720
Si Si5 0.216024 0.953458 0.138903
O O1 0.041594 0.208047 0.881083
O O2 0.903005 0.969023 0.777743
O O3 0.926511 0.229260 0.034007
O O4 0.024839 0.891716 0.080389
O O5 0.101087 0.491757 0.242648
O O6 0.182239 0.823350 0.266405
O O7 0.271207 0.420012 0.466354
O O8 0.314687 0.106112 0.668579
O O9 0.702690 0.697380 0.183114
O O10 0.660574 0.654558 0.450254
#
# Coordination Sequence:
#
# PCOD9138073 Si02
#       5
#     4   4   4   4   4
#     4  10  22  47  76 123 158 193 261 319 406 468
#     4  11  23  45  77 110 162 200 249 326 391 466
#     4   9  22  47  74 109 157 199 253 326 375 475
#     4  10  24  46  75 109 149 209 257 319 379 461
#     4  10  23  45  72 107 152 203 270 306 371 484
#
# _framework density 25.111553000000001
#
# number of rings (size 3 to 8) (size 9 to 14) (size 15 to 20)
#    1.200    0.800    0.000    2.400    0.000    3.200 
#    7.200   18.000    0.000    0.000    0.000    0.000 
#    0.000    0.000    0.000    0.000    0.000    0.000 
#
# Total GULP energy -55789.139482 kJ/mol
# GULP energy per Si atom -5578.913948 kJ/mol
# Density = 2.505440 g / cm^3
# Si number density = 25.111553 Si / 1000 Ang^3
#
#
#
# Elastic Constant Matrix: (Units=GPa)
#
#
# Indices 1 2 3 4 5 6 
#
# 1 184.5135 86.8300 101.6998 0.0000 -37.5937 0.0000
# 2 86.8300 125.9919 77.1559 0.0000 -17.1429 0.0000
# 3 101.6998 77.1559 112.8900 0.0000 -26.6364 0.0000
# 4 0.0000 0.0000 0.0000 22.6553 0.0000 -12.5772
# 5 -37.5937 -17.1429 -26.6364 0.0000 63.7704 0.0000
# 6 0.0000 0.0000 0.0000 -12.5772 0.0000 54.0485
#
#
#
# Elastic Compliance Matrix: (Units=1/GPa)
#
#
# Indices 1 2 3 4 5 6 
#
# 1 0.011701 -0.002808 -0.007957 0.000000 0.002820 0.000000
# 2 -0.002808 0.014328 -0.007482 0.000000 -0.000929 0.000000
# 3 -0.007957 -0.007482 0.021697 0.000000 0.002361 0.000000
# 4 0.000000 0.000000 0.000000 0.050688 0.000000 0.011795
# 5 0.002820 -0.000929 0.002361 0.000000 0.018080 0.000000
# 6 0.000000 0.000000 0.000000 0.011795 0.000000 0.021247
#
#
# Mechanical properties :
#
#
# Convention : Reuss Voigt Hill
#
# Bulk Modulus (GPa) = 89.02942 106.08520 97.55731
# Shear Modulus (GPa) = 28.09331 38.60882 33.35107
#
# Velocity S-wave (km/s) = 3.34839 3.92534 3.64829
# Velocity P-wave (km/s) = 7.10489 7.92980 7.52865
#
# Compressibility (1/GPa) = 0.01123224
#
# Stress axis : x y z
#
# Youngs Moduli (GPa) = 85.46160 69.79560 46.08884
#
# Poissons Ratio (x) = 0.19596 0.36673
# Poissons Ratio (y) = 0.23995 0.34484
# Poissons Ratio (z) = 0.68002 0.52222
#
# Static dielectric constant tensor:
#      x y z
#    x 2.000630 0.000000 0.024580 
#    y 0.000000 2.072490 0.000000 
#    z 0.024580 0.000000 2.057200 
# 
# From -- ./inp_files/10251.got.cif
#   From: 2010.05.17/outbox.cif.g08.bks.cpg/sg9_6_cif.got.tgz:10251.got - 2010.06.03 20:04:27.
