data_PCOD9138026
_publ_section_title
;
Structure prediction by ZEFSAII (Michael W. Deem and Ramdas Pophale) SiO2 
 PCOD9138026
Probable space group: C C
;
_chemical_formula_sum "Si O2"
_cell_formula_units_Z 32
_cell_length_a 8.975173
_cell_length_b 16.350839
_cell_length_c 8.251023
_cell_angle_alpha 90.000000
_cell_angle_beta 102.523484
_cell_angle_gamma 90.000000
_cell_volume 1182.041381
_symmetry_space_group_name_H-M "C C"
_symmetry_group_IT_number 9
_symmetry_cell_setting 'monoclinic'
loop_
_space_group_symop_operation_xyz
x,y,z
x,-y,1/2+z
1/2+x,1/2+y,z
1/2+x,1/2-y,1/2+z
loop_
_atom_site_type_symbol
_atom_site_label
_atom_site_fract_x
_atom_site_fract_y
_atom_site_fract_z
Si Si1 0.872470 0.965642 0.807870
Si Si2 0.578143 0.438752 0.132875
Si Si3 0.268616 0.097126 0.159455
Si Si4 0.093706 0.682655 0.500825
Si Si5 0.049543 0.488942 0.880579
Si Si6 0.752497 0.743648 0.355610
Si Si7 0.861037 0.651329 0.852971
Si Si8 0.271125 0.694363 0.196367
O O1 0.716823 0.995906 0.848458
O O2 0.832463 0.895458 0.669667
O O3 0.969859 0.037968 0.756486
O O4 0.965713 0.915415 0.964391
O O5 0.653640 0.524691 0.097004
O O6 0.715904 0.381649 0.215766
O O7 0.427090 0.052418 0.232135
O O8 0.216600 0.149474 0.300759
O O9 0.295644 0.158345 0.018526
O O10 0.937978 0.735862 0.433415
O O11 0.173240 0.686382 0.339927
O O12 0.055391 0.585068 0.514554
O O13 0.194075 0.707038 0.682720
O O14 0.980904 0.578042 0.895262
O O15 0.394966 0.763093 0.276230
O O16 0.190923 0.725149 0.013596
#
# Coordination Sequence:
#
# PCOD9138026 Si02
#       8
#     4   4   4   4   4   4   4   4
#     4  11  26  51  69 119 152 198 261 327 403 459
#     4  11  25  46  78 104 157 202 260 323 389 468
#     4  10  22  46  75 107 151 209 266 311 386 485
#     4  10  24  49  74 116 160 204 265 333 388 475
#     4   9  24  45  75 104 157 209 252 315 395 476
#     4  11  25  47  79 116 161 204 265 326 401 465
#     4  11  23  48  80 109 149 215 262 321 385 484
#     4  11  27  48  82 117 155 209 263 330 399 472
#
# _framework density 27.071809999999999
#
# number of rings (size 3 to 8) (size 9 to 14) (size 15 to 20)
#    0.000    1.500    2.500    0.000    5.250    6.000 
#   11.250    0.000    2.750    0.000    0.000    0.000 
#    0.000    0.000    0.000    0.000    0.000    0.000 
#
# Total GULP energy -89570.523424 kJ/mol
# GULP energy per Si atom -5598.157714 kJ/mol
# Density = 2.701019 g / cm^3
# Si number density = 27.071810 Si / 1000 Ang^3
#
#
#
# Elastic Constant Matrix: (Units=GPa)
#
#
# Indices 1 2 3 4 5 6 
#
# 1 110.7597 30.6300 55.5641 0.0000 12.6862 0.0000
# 2 30.6300 108.5055 49.7708 0.0000 10.6944 0.0000
# 3 55.5641 49.7708 170.9059 0.0000 -2.6526 0.0000
# 4 0.0000 0.0000 0.0000 31.1909 0.0000 10.1723
# 5 12.6862 10.6944 -2.6526 0.0000 36.7955 0.0000
# 6 0.0000 0.0000 0.0000 10.1723 0.0000 6.1165
#
#
#
# Elastic Compliance Matrix: (Units=1/GPa)
#
#
# Indices 1 2 3 4 5 6 
#
# 1 0.011555 -0.001306 -0.003436 0.000000 -0.003852 0.000000
# 2 -0.001306 0.011205 -0.002885 0.000000 -0.003014 0.000000
# 3 -0.003436 -0.002885 0.007849 0.000000 0.002589 0.000000
# 4 0.000000 0.000000 0.000000 0.070061 0.000000 -0.116518
# 5 -0.003852 -0.003014 0.002589 0.000000 0.029568 0.000000
# 6 0.000000 0.000000 0.000000 -0.116518 0.000000 0.357273
#
#
# Mechanical properties :
#
#
# Convention : Reuss Voigt Hill
#
# Bulk Modulus (GPa) = 65.13005 73.56677 69.34841
# Shear Modulus (GPa) = 9.84477 31.76764 20.80621
#
# Velocity S-wave (km/s) = 1.90904 3.42929 2.77529
# Velocity P-wave (km/s) = 5.38235 6.55086 5.99514
#
# Compressibility (1/GPa) = 0.01535390
#
# Stress axis : x y z
#
# Youngs Moduli (GPa) = 86.54522 89.24246 127.40892
#
# Poissons Ratio (x) = 0.11655 0.43778
# Poissons Ratio (y) = 0.11303 0.36763
# Poissons Ratio (z) = 0.29737 0.25750
#
# Static dielectric constant tensor:
#      x y z
#    x 2.152500 0.000000 -0.024540 
#    y 0.000000 2.121430 0.000000 
#    z -0.024540 0.000000 2.082190 
# 
# From -- ./inp_files/15185.got.cif
#   From: 2010.05.17/outbox.cif.g08.bks.cpg/sg9_8_cif.got.tgz:15185.got - 2010.06.03 20:04:27.
