data_PCOD9138237
_publ_section_title
;
Structure prediction by ZEFSAII (Michael W. Deem and Ramdas Pophale) SiO2 
 PCOD9138237
Probable space group: C C
;
_chemical_formula_sum "Si O2"
_cell_formula_units_Z 20
_cell_length_a 9.569427
_cell_length_b 15.301011
_cell_length_c 5.287611
_cell_angle_alpha 90.000000
_cell_angle_beta 71.589051
_cell_angle_gamma 90.000000
_cell_volume 734.594055
_symmetry_space_group_name_H-M "C C"
_symmetry_group_IT_number 9
_symmetry_cell_setting 'monoclinic'
loop_
_space_group_symop_operation_xyz
x,y,z
x,-y,1/2+z
1/2+x,1/2+y,z
1/2+x,1/2-y,1/2+z
loop_
_atom_site_type_symbol
_atom_site_label
_atom_site_fract_x
_atom_site_fract_y
_atom_site_fract_z
Si Si1 0.500000 0.094608 0.008360
Si Si2 0.923900 0.942594 0.701286
Si Si3 0.610290 0.337242 0.912708
Si Si4 0.775088 0.163987 0.641571
Si Si5 0.876351 0.398407 0.077010
O O1 0.479428 0.137469 0.292529
O O2 0.425551 0.999390 0.082641
O O3 0.667973 0.090575 0.824161
O O4 0.413509 0.141676 0.827884
O O5 0.078513 0.896232 0.682584
O O6 0.914460 0.989567 0.442162
O O7 0.801716 0.868397 0.836646
O O8 0.686415 0.249454 0.772539
O O9 0.446136 0.327154 0.122291
O O10 0.716213 0.383754 0.052785
#
# Coordination Sequence:
#
# PCOD9138237 Si02
#       5
#     4   4   4   4   4
#     4  10  23  41  69 101 139 184 240 291 354 427
#     4  10  26  46  76 102 144 190 250 288 362 430
#     4  10  24  47  73 107 149 190 240 303 367 427
#     4  10  24  47  73 107 149 190 240 303 367 427
#     4  10  23  41  69 101 139 184 240 291 354 427
#
# _framework density 27.225923000000002
#
# number of rings (size 3 to 8) (size 9 to 14) (size 15 to 20)
#    1.200    0.800    0.000    1.200   11.200    0.000 
#    3.600    6.000    0.000    0.000    0.000    0.000 
#    0.000    0.000    0.000    0.000    0.000    0.000 
#
# Total GULP energy -55885.177629 kJ/mol
# GULP energy per Si atom -5588.517763 kJ/mol
# Density = 2.716396 g / cm^3
# Si number density = 27.225923 Si / 1000 Ang^3
#
#
#
# Elastic Constant Matrix: (Units=GPa)
#
#
# Indices 1 2 3 4 5 6 
#
# 1 218.7368 53.3429 37.9544 0.0000 -16.1504 0.0000
# 2 53.3429 123.8118 17.1245 0.0000 -4.5468 0.0000
# 3 37.9544 17.1245 122.4637 0.0000 10.1099 0.0000
# 4 0.0000 0.0000 0.0000 25.5240 0.0000 -17.7715
# 5 -16.1504 -4.5468 10.1099 0.0000 56.6445 0.0000
# 6 0.0000 0.0000 0.0000 -17.7715 0.0000 42.0064
#
#
#
# Elastic Compliance Matrix: (Units=1/GPa)
#
#
# Indices 1 2 3 4 5 6 
#
# 1 0.005470 -0.002082 -0.001542 0.000000 0.001668 0.000000
# 2 -0.002082 0.009072 -0.000644 0.000000 0.000249 0.000000
# 3 -0.001542 -0.000644 0.008905 0.000000 -0.002081 0.000000
# 4 0.000000 0.000000 0.000000 0.055539 0.000000 0.023497
# 5 0.001668 0.000249 -0.002081 0.000000 0.018521 0.000000
# 6 0.000000 0.000000 0.000000 0.023497 0.000000 0.033746
#
#
# Mechanical properties :
#
#
# Convention : Reuss Voigt Hill
#
# Bulk Modulus (GPa) = 67.06125 75.76177 71.41151
# Shear Modulus (GPa) = 34.53991 48.60768 41.57380
#
# Velocity S-wave (km/s) = 3.56566 4.22992 3.91192
# Velocity P-wave (km/s) = 6.45266 7.19331 6.83303
#
# Compressibility (1/GPa) = 0.01491174
#
# Stress axis : x y z
#
# Youngs Moduli (GPa) = 182.80966 110.22800 112.29219
#
# Poissons Ratio (x) = 0.22952 0.17314
# Poissons Ratio (y) = 0.38066 0.07230
# Poissons Ratio (z) = 0.28186 0.07097
#
# Static dielectric constant tensor:
#      x y z
#    x 2.137510 0.000000 0.003180 
#    y 0.000000 2.445280 0.000000 
#    z 0.003180 0.000000 2.159480 
# 
# From -- ./inp_files/482.got.cif
#   From: 2010.05.17/outbox.cif.g08.bks.cpg/sg9_1_cif.got.tgz:482.got - 2010.06.03 20:04:27.
