data_PCOD9138600
_publ_section_title
;
Structure prediction by ZEFSAII (Michael W. Deem and Ramdas Pophale) SiO2 
 PCOD9138600
Probable space group: C C
;
_chemical_formula_sum "Si O2"
_cell_formula_units_Z 28
_cell_length_a 9.287425
_cell_length_b 10.731584
_cell_length_c 13.561857
_cell_angle_alpha 90.000000
_cell_angle_beta 120.524035
_cell_angle_gamma 90.000000
_cell_volume 1164.370874
_symmetry_space_group_name_H-M "C C"
_symmetry_group_IT_number 9
_symmetry_cell_setting 'monoclinic'
loop_
_space_group_symop_operation_xyz
x,y,z
x,-y,1/2+z
1/2+x,1/2+y,z
1/2+x,1/2-y,1/2+z
loop_
_atom_site_type_symbol
_atom_site_label
_atom_site_fract_x
_atom_site_fract_y
_atom_site_fract_z
Si Si1 0.860870 0.655183 0.591190
Si Si2 0.082594 0.139979 0.354100
Si Si3 0.109960 0.291903 0.648712
Si Si4 0.041754 0.888665 0.270420
Si Si5 0.122556 0.495218 0.808749
Si Si6 0.373968 0.709769 0.899897
Si Si7 0.938207 0.389509 0.406463
O O1 0.706020 0.584821 0.482621
O O2 0.763606 0.740148 0.637392
O O3 0.935636 0.736801 0.526530
O O4 0.996012 0.573107 0.693781
O O5 0.214742 0.199948 0.323270
O O6 0.999497 0.259718 0.376980
O O7 0.980434 0.029271 0.269026
O O8 0.997097 0.179030 0.652854
O O9 0.157772 0.369644 0.762598
O O10 0.004288 0.378209 0.539462
O O11 0.241424 0.899919 0.331836
O O12 0.990122 0.807316 0.346778
O O13 0.289027 0.574601 0.885749
O O14 0.025361 0.497170 0.878686
#
# Coordination Sequence:
#
# PCOD9138600 Si02
#       7
#     4   4   4   4   4   4   4
#     4   9  20  46  65  95 135 177 216 276 337 390
#     4   8  21  44  63  89 136 163 216 270 329 388
#     4  11  24  38  72 105 122 182 236 251 348 401
#     4  12  23  39  71  97 130 175 219 276 324 399
#     4  11  21  41  73  89 137 177 212 282 330 387
#     4   9  24  41  65 100 129 171 229 266 332 402
#     4  10  23  45  65  95 139 173 214 283 332 385
#
# _framework density 24.047321
#
# number of rings (size 3 to 8) (size 9 to 14) (size 15 to 20)
#    0.857    1.143    2.857    0.857    4.000    1.143 
#    0.000    8.571    0.000    0.000    0.000    0.000 
#    0.000    0.000    0.000    0.000    0.000    0.000 
#
# Total GULP energy -78138.080108 kJ/mol
# GULP energy per Si atom -5581.291436 kJ/mol
# Density = 2.399259 g / cm^3
# Si number density = 24.047321 Si / 1000 Ang^3
#
#
#
# Elastic Constant Matrix: (Units=GPa)
#
#
# Indices 1 2 3 4 5 6 
#
# 1 111.3504 13.7997 0.2638 0.0000 -39.9627 0.0000
# 2 13.7997 95.2288 14.4878 0.0000 -27.4369 0.0000
# 3 0.2638 14.4878 69.3300 0.0000 -26.6350 0.0000
# 4 0.0000 0.0000 0.0000 21.2997 0.0000 -12.8040
# 5 -39.9627 -27.4369 -26.6350 0.0000 42.2474 0.0000
# 6 0.0000 0.0000 0.0000 -12.8040 0.0000 33.9836
#
#
#
# Elastic Compliance Matrix: (Units=1/GPa)
#
#
# Indices 1 2 3 4 5 6 
#
# 1 0.016845 0.002941 0.008151 0.000000 0.022983 0.000000
# 2 0.002941 0.013457 0.002115 0.000000 0.012854 0.000000
# 3 0.008151 0.002115 0.023015 0.000000 0.023594 0.000000
# 4 0.000000 0.000000 0.000000 0.060696 0.000000 0.022868
# 5 0.022983 0.012854 0.023594 0.000000 0.068633 0.000000
# 6 0.000000 0.000000 0.000000 0.022868 0.000000 0.038042
#
#
# Mechanical properties :
#
#
# Convention : Reuss Voigt Hill
#
# Bulk Modulus (GPa) = 12.54234 37.00130 24.77182
# Shear Modulus (GPa) = 22.63969 35.99665 29.31817
#
# Velocity S-wave (km/s) = 3.07166 3.87319 3.49547
# Velocity P-wave (km/s) = 4.21985 5.95167 5.15895
#
# Compressibility (1/GPa) = 0.07972996
#
# Stress axis : x y z
#
# Youngs Moduli (GPa) = 59.36401 74.31278 43.45007
#
# Poissons Ratio (x) = -0.21852 -0.35416
# Poissons Ratio (y) = -0.17456 -0.09190
# Poissons Ratio (z) = -0.48387 -0.15718
#
# Static dielectric constant tensor:
#      x y z
#    x 1.935060 0.000000 0.013640 
#    y 0.000000 1.991910 0.000000 
#    z 0.013640 0.000000 1.980190 
# 
# From -- ./inp_files/22788.got.cif
#   From: 2010.05.17/outbox.cif.g08.bks.cpg/sg9_12_cif.got.tgz:22788.got - 2010.06.03 20:04:27.
