data_PCOD9138811
_publ_section_title
;
Structure prediction by ZEFSAII (Michael W. Deem and Ramdas Pophale) SiO2 
 PCOD9138811
Probable space group: C C
;
_chemical_formula_sum "Si O2"
_cell_formula_units_Z 32
_cell_length_a 17.133903
_cell_length_b 9.888183
_cell_length_c 13.148328
_cell_angle_alpha 90.000000
_cell_angle_beta 146.952102
_cell_angle_gamma 90.000000
_cell_volume 1214.816400
_symmetry_space_group_name_H-M "C C"
_symmetry_group_IT_number 9
_symmetry_cell_setting 'monoclinic'
loop_
_space_group_symop_operation_xyz
x,y,z
x,-y,1/2+z
1/2+x,1/2+y,z
1/2+x,1/2-y,1/2+z
loop_
_atom_site_type_symbol
_atom_site_label
_atom_site_fract_x
_atom_site_fract_y
_atom_site_fract_z
Si Si1 0.577710 0.327794 0.802600
Si Si2 0.414213 0.422059 0.214368
Si Si3 0.821111 0.228880 0.414816
Si Si4 0.308726 0.039397 0.042242
Si Si5 0.126226 0.460729 0.380719
Si Si6 0.110558 0.169841 0.112180
Si Si7 0.853600 0.485872 0.321318
Si Si8 0.183972 0.451096 0.215497
O O1 0.489870 0.436265 0.770390
O O2 0.585601 0.188351 0.873156
O O3 0.527869 0.314591 0.630476
O O4 0.733744 0.393258 0.954925
O O5 0.502391 0.354114 0.401257
O O6 0.415395 0.340129 0.108513
O O7 0.250273 0.454820 0.069600
O O8 0.741003 0.335819 0.405439
O O9 0.863823 0.329555 0.369556
O O10 0.755356 0.098612 0.285035
O O11 0.476710 0.034814 0.196586
O O12 0.311623 0.048528 0.166556
O O13 0.199189 0.430768 0.353116
O O14 0.208533 0.301168 0.201317
O O15 0.221979 0.046117 0.241367
O O16 0.015405 0.532865 0.510240
#
# Coordination Sequence:
#
# PCOD9138811 Si02
#       8
#     4   4   4   4   4   4   4   4
#     4  11  23  45  77 109 153 204 261 330 385 467
#     4  11  25  48  76 113 154 210 254 328 398 464
#     4  11  26  48  74 113 154 198 260 323 385 469
#     4  12  24  46  77 108 155 209 252 324 389 470
#     4  10  23  47  73 109 155 197 261 321 391 457
#     4  11  24  49  78 115 149 204 265 315 396 474
#     4  12  25  46  78 111 154 205 255 319 392 467
#     4  10  24  47  75 108 150 203 252 326 386 456
#
# _framework density 26.341425999999998
#
# number of rings (size 3 to 8) (size 9 to 14) (size 15 to 20)
#    0.000    1.000    3.750    1.500    1.750    6.000 
#   20.250    0.000    0.000    0.000    0.000    0.000 
#    0.000    0.000    0.000    0.000    0.000    0.000 
#
# Total GULP energy -89226.091154 kJ/mol
# GULP energy per Si atom -5576.630697 kJ/mol
# Density = 2.628147 g / cm^3
# Si number density = 26.341426 Si / 1000 Ang^3
#
#
#
# Elastic Constant Matrix: (Units=GPa)
#
#
# Indices 1 2 3 4 5 6 
#
# 1 40.6064 2.9622 -5.9782 0.0000 5.3031 0.0000
# 2 2.9622 150.5968 30.4155 0.0000 8.7563 0.0000
# 3 -5.9782 30.4155 98.1835 0.0000 28.1468 0.0000
# 4 0.0000 0.0000 0.0000 41.9313 0.0000 0.3526
# 5 5.3031 8.7563 28.1468 0.0000 36.8236 0.0000
# 6 0.0000 0.0000 0.0000 0.3526 0.0000 55.2862
#
#
#
# Elastic Compliance Matrix: (Units=1/GPa)
#
#
# Indices 1 2 3 4 5 6 
#
# 1 0.026064 -0.000887 0.003685 0.000000 -0.006359 0.000000
# 2 -0.000887 0.007114 -0.002317 0.000000 0.000207 0.000000
# 3 0.003685 -0.002317 0.014242 0.000000 -0.010866 0.000000
# 4 0.000000 0.000000 0.000000 0.023850 0.000000 -0.000152
# 5 -0.006359 0.000207 -0.010866 0.000000 0.036329 0.000000
# 6 0.000000 0.000000 0.000000 -0.000152 0.000000 0.018089
#
#
# Mechanical properties :
#
#
# Convention : Reuss Voigt Hill
#
# Bulk Modulus (GPa) = 20.66908 38.24286 29.45597
# Shear Modulus (GPa) = 35.49794 44.27404 39.88599
#
# Velocity S-wave (km/s) = 3.67496 4.10417 3.89548
# Velocity P-wave (km/s) = 5.08633 6.08347 5.60711
#
# Compressibility (1/GPa) = 0.04838145
#
# Stress axis : x y z
#
# Youngs Moduli (GPa) = 38.36647 140.57528 70.21398
#
# Poissons Ratio (x) = 0.12471 -0.25873
# Poissons Ratio (y) = 0.03404 0.16270
# Poissons Ratio (z) = -0.14138 0.32573
#
# Static dielectric constant tensor:
#      x y z
#    x 2.208140 0.000000 -0.039420 
#    y 0.000000 2.095970 0.000000 
#    z -0.039420 0.000000 2.119590 
# 
# From -- ./inp_files/27369.got.cif
#   From: 2010.05.17/outbox.cif.g08.bks.cpg/sg9_14_cif.got.tgz:27369.got - 2010.06.03 20:04:27.
