data_PCOD9138591
_publ_section_title
;
Structure prediction by ZEFSAII (Michael W. Deem and Ramdas Pophale) SiO2 
 PCOD9138591
Probable space group: C C
;
_chemical_formula_sum "Si O2"
_cell_formula_units_Z 32
_cell_length_a 9.570360
_cell_length_b 10.536750
_cell_length_c 15.401769
_cell_angle_alpha 90.000000
_cell_angle_beta 115.240729
_cell_angle_gamma 90.000000
_cell_volume 1404.836316
_symmetry_space_group_name_H-M "C C"
_symmetry_group_IT_number 9
_symmetry_cell_setting 'monoclinic'
loop_
_space_group_symop_operation_xyz
x,y,z
x,-y,1/2+z
1/2+x,1/2+y,z
1/2+x,1/2-y,1/2+z
loop_
_atom_site_type_symbol
_atom_site_label
_atom_site_fract_x
_atom_site_fract_y
_atom_site_fract_z
Si Si1 0.443410 0.322416 0.188500
Si Si2 0.402460 0.719971 0.111938
Si Si3 0.647071 0.297321 0.538254
Si Si4 0.144305 0.194189 0.333246
Si Si5 0.980247 0.040815 0.867931
Si Si6 0.448807 0.900216 0.818547
Si Si7 0.229734 0.547456 0.948553
Si Si8 0.725056 0.563047 0.655035
O O1 0.299602 0.285707 0.089702
O O2 0.399908 0.414027 0.257606
O O3 0.492329 0.191128 0.249560
O O4 0.582953 0.384432 0.173215
O O5 0.506647 0.759263 0.057126
O O6 0.520944 0.702964 0.222429
O O7 0.282962 0.828333 0.106181
O O8 0.313284 0.592273 0.058762
O O9 0.586301 0.342309 0.429238
O O10 0.680683 0.433011 0.594869
O O11 0.310549 0.164982 0.335245
O O12 0.158263 0.322380 0.391019
O O13 0.087554 0.077821 0.376135
O O14 0.859264 0.010229 0.911813
O O15 0.594325 0.944895 0.913194
O O16 0.365684 0.023579 0.755093
#
# Coordination Sequence:
#
# PCOD9138591 Si02
#       8
#     4   4   4   4   4   4   4   4
#     4  11  22  43  65  94 129 170 213 263 325 384
#     4  11  22  42  66  96 127 170 218 266 321 388
#     4  10  23  45  63  94 135 165 217 267 322 385
#     4  12  22  45  67  90 136 171 208 272 331 374
#     4  11  23  42  68  96 128 175 213 267 326 384
#     4  11  23  41  64  91 131 167 211 269 317 385
#     4  11  25  42  66  98 129 169 224 261 325 397
#     4  11  22  42  65  91 127 171 214 265 321 381
#
# _framework density 22.778452999999999
#
# number of rings (size 3 to 8) (size 9 to 14) (size 15 to 20)
#    0.000    1.000    6.250    0.750    1.750    1.000 
#    6.750    1.250    0.000    0.000    0.000    0.000 
#    0.000    0.000    0.000    0.000    0.000    0.000 
#
# Total GULP energy -89587.503430 kJ/mol
# GULP energy per Si atom -5599.218964 kJ/mol
# Density = 2.272661 g / cm^3
# Si number density = 22.778453 Si / 1000 Ang^3
#
#
#
# Elastic Constant Matrix: (Units=GPa)
#
#
# Indices 1 2 3 4 5 6 
#
# 1 83.7295 45.9899 31.9848 0.0000 5.1810 0.0000
# 2 45.9899 78.7607 19.7061 0.0000 -3.9884 0.0000
# 3 31.9848 19.7061 122.9320 0.0000 24.3398 0.0000
# 4 0.0000 0.0000 0.0000 43.4805 0.0000 2.7026
# 5 5.1810 -3.9884 24.3398 0.0000 35.2592 0.0000
# 6 0.0000 0.0000 0.0000 2.7026 0.0000 43.5714
#
#
#
# Elastic Compliance Matrix: (Units=1/GPa)
#
#
# Indices 1 2 3 4 5 6 
#
# 1 0.018870 -0.010406 -0.002849 0.000000 -0.001983 0.000000
# 2 -0.010406 0.019334 -0.001306 0.000000 0.004618 0.000000
# 3 -0.002849 -0.001306 0.010461 0.000000 -0.006951 0.000000
# 4 0.000000 0.000000 0.000000 0.023088 0.000000 -0.001432
# 5 -0.001983 0.004618 -0.006951 0.000000 0.033973 0.000000
# 6 0.000000 0.000000 0.000000 -0.001432 0.000000 0.023040
#
#
# Mechanical properties :
#
#
# Convention : Reuss Voigt Hill
#
# Bulk Modulus (GPa) = 51.16917 53.42042 52.29480
# Shear Modulus (GPa) = 30.41324 36.97831 33.69578
#
# Velocity S-wave (km/s) = 3.65797 4.03350 3.85032
# Velocity P-wave (km/s) = 6.35245 6.72274 6.54022
#
# Compressibility (1/GPa) = 0.01954302
#
# Stress axis : x y z
#
# Youngs Moduli (GPa) = 52.99413 51.72326 95.59007
#
# Poissons Ratio (x) = 0.53824 0.27232
# Poissons Ratio (y) = 0.55147 0.12483
# Poissons Ratio (z) = 0.15097 0.06755
#
# Static dielectric constant tensor:
#      x y z
#    x 1.782340 0.000000 0.031320 
#    y 0.000000 1.876460 0.000000 
#    z 0.031320 0.000000 1.898950 
# 
# From -- ./inp_files/22718.got.cif
#   From: 2010.05.17/outbox.cif.g08.bks.cpg/sg9_12_cif.got.tgz:22718.got - 2010.06.03 20:04:27.
