data_PCOD9138144
_publ_section_title
;
Structure prediction by ZEFSAII (Michael W. Deem and Ramdas Pophale) SiO2 
 PCOD9138144
Probable space group: C C
;
_chemical_formula_sum "Si O2"
_cell_formula_units_Z 32
_cell_length_a 12.087515
_cell_length_b 19.148494
_cell_length_c 5.104650
_cell_angle_alpha 90.000000
_cell_angle_beta 98.781185
_cell_angle_gamma 90.000000
_cell_volume 1167.661593
_symmetry_space_group_name_H-M "C C"
_symmetry_group_IT_number 9
_symmetry_cell_setting 'monoclinic'
loop_
_space_group_symop_operation_xyz
x,y,z
x,-y,1/2+z
1/2+x,1/2+y,z
1/2+x,1/2-y,1/2+z
loop_
_atom_site_type_symbol
_atom_site_label
_atom_site_fract_x
_atom_site_fract_y
_atom_site_fract_z
Si Si1 0.970570 0.546145 0.239620
Si Si2 0.845805 0.147102 0.840472
Si Si3 0.225113 0.550141 0.420981
Si Si4 0.519195 0.768703 0.997426
Si Si5 0.140424 0.072965 0.748219
Si Si6 0.834865 0.632637 0.538452
Si Si7 0.167386 0.261726 0.535431
Si Si8 0.043529 0.917417 0.713020
O O1 0.964369 0.482622 0.445611
O O2 0.868671 0.597943 0.270870
O O3 0.095497 0.573645 0.347592
O O4 0.803853 0.112649 0.554908
O O5 0.735743 0.170119 0.961441
O O6 0.921457 0.217158 0.855680
O O7 0.925172 0.095114 0.035914
O O8 0.241269 0.493757 0.661993
O O9 0.457683 0.834335 0.119690
O O10 0.602329 0.775157 0.781206
O O11 0.586827 0.740737 0.268301
O O12 0.262106 0.073893 0.662597
O O13 0.130292 0.109262 0.024457
O O14 0.084979 0.997160 0.772764
O O15 0.058572 0.110273 0.510518
O O16 0.756623 0.698662 0.578816
#
# Coordination Sequence:
#
# PCOD9138144 Si02
#       8
#     4   4   4   4   4   4   4   4
#     4  10  24  42  65 100 139 180 229 280 343 427
#     4  11  25  44  76  99 141 191 229 292 363 405
#     4  10  24  42  65 100 139 180 229 280 343 427
#     4  11  27  48  70 104 138 183 246 294 339 420
#     4  10  23  39  62  99 137 173 220 282 338 417
#     4  11  25  44  76  99 141 191 229 292 363 405
#     4  11  27  48  70 104 138 183 246 294 339 420
#     4  10  23  39  62  99 137 173 220 282 338 417
#
# _framework density 27.405199
#
# number of rings (size 3 to 8) (size 9 to 14) (size 15 to 20)
#    0.000    1.500    0.000    2.250    7.000   13.000 
#    0.000    0.000    0.000    0.000    0.000    0.000 
#    0.000    0.000    0.000    0.000    0.000    0.000 
#
# Total GULP energy -89404.095421 kJ/mol
# GULP energy per Si atom -5587.755964 kJ/mol
# Density = 2.734282 g / cm^3
# Si number density = 27.405199 Si / 1000 Ang^3
#
#
#
# Elastic Constant Matrix: (Units=GPa)
#
#
# Indices 1 2 3 4 5 6 
#
# 1 131.1964 31.2283 11.5378 0.0000 -0.6486 0.0000
# 2 31.2283 97.1609 7.3573 0.0000 -3.6576 0.0000
# 3 11.5378 7.3573 102.1824 0.0000 6.2749 0.0000
# 4 0.0000 0.0000 0.0000 25.7041 0.0000 -19.4366
# 5 -0.6486 -3.6576 6.2749 0.0000 50.5076 0.0000
# 6 0.0000 0.0000 0.0000 -19.4366 0.0000 44.4021
#
#
#
# Elastic Compliance Matrix: (Units=1/GPa)
#
#
# Indices 1 2 3 4 5 6 
#
# 1 0.008310 -0.002614 -0.000751 0.000000 0.000011 0.000000
# 2 -0.002614 0.011207 -0.000564 0.000000 0.000848 0.000000
# 3 -0.000751 -0.000564 0.009991 0.000000 -0.001292 0.000000
# 4 0.000000 0.000000 0.000000 0.058153 0.000000 0.025456
# 5 0.000011 0.000848 -0.001292 0.000000 0.020021 0.000000
# 6 0.000000 0.000000 0.000000 0.025456 0.000000 0.033665
#
#
# Mechanical properties :
#
#
# Convention : Reuss Voigt Hill
#
# Bulk Modulus (GPa) = 46.18612 47.86516 47.02564
# Shear Modulus (GPa) = 31.96490 42.81718 37.39104
#
# Velocity S-wave (km/s) = 3.41894 3.95698 3.69776
# Velocity P-wave (km/s) = 5.69870 6.19520 5.95213
#
# Compressibility (1/GPa) = 0.02165152
#
# Stress axis : x y z
#
# Youngs Moduli (GPa) = 120.33133 89.23062 100.08882
#
# Poissons Ratio (x) = 0.23323 0.07515
# Poissons Ratio (y) = 0.31452 0.05644
# Poissons Ratio (z) = 0.09035 0.05031
#
# Static dielectric constant tensor:
#      x y z
#    x 2.159580 0.000000 -0.011520 
#    y 0.000000 2.539500 0.000000 
#    z -0.011520 0.000000 2.148320 
# 
# From -- ./inp_files/1791.got.cif
#   From: 2010.05.17/outbox.cif.g08.bks.cpg/sg9_1_cif.got.tgz:1791.got - 2010.06.03 20:04:27.
