data_PCOD9138303
_publ_section_title
;
Structure prediction by ZEFSAII (Michael W. Deem and Ramdas Pophale) SiO2 
 PCOD9138303
Probable space group: C C
;
_chemical_formula_sum "Si O2"
_cell_formula_units_Z 32
_cell_length_a 25.715019
_cell_length_b 9.996921
_cell_length_c 10.070357
_cell_angle_alpha 90.000000
_cell_angle_beta 143.829723
_cell_angle_gamma 90.000000
_cell_volume 1527.874176
_symmetry_space_group_name_H-M "C C"
_symmetry_group_IT_number 9
_symmetry_cell_setting 'monoclinic'
loop_
_space_group_symop_operation_xyz
x,y,z
x,-y,1/2+z
1/2+x,1/2+y,z
1/2+x,1/2-y,1/2+z
loop_
_atom_site_type_symbol
_atom_site_label
_atom_site_fract_x
_atom_site_fract_y
_atom_site_fract_z
Si Si1 0.508710 0.721063 0.053080
Si Si2 0.880869 0.741780 0.940833
Si Si3 0.814850 0.691017 0.077109
Si Si4 0.023812 0.915668 0.107254
Si Si5 0.819707 0.373477 0.042701
Si Si6 0.053917 0.599013 0.407778
Si Si7 0.516331 0.801918 0.363020
Si Si8 0.683397 0.720427 0.043060
O O1 0.513790 0.564351 0.033833
O O2 0.408655 0.773737 0.836003
O O3 0.559600 0.806124 0.048022
O O4 0.245346 0.815310 0.794153
O O5 0.820372 0.761010 0.944662
O O6 0.937558 0.870172 0.012208
O O7 0.958692 0.635260 0.143435
O O8 0.826363 0.687841 0.703926
O O9 0.809715 0.532499 0.038565
O O10 0.739783 0.730074 0.025337
O O11 0.035569 0.807205 0.014589
O O12 0.110140 0.895568 0.374642
O O13 0.912840 0.336047 0.167383
O O14 0.060563 0.446732 0.465298
O O15 0.128437 0.646094 0.460246
O O16 0.538133 0.254582 0.763569
#
# Coordination Sequence:
#
# PCOD9138303 Si02
#       8
#     4   4   4   4   4   4   4   4
#     4  11  23  42  71  98 132 185 236 277 333 424
#     4   9  20  40  68  92 132 179 230 271 334 423
#     4  11  21  39  69  97 132 176 228 281 336 406
#     4  10  26  42  65 100 143 178 226 285 353 406
#     4  11  20  40  70 106 128 177 235 284 340 414
#     4  10  23  42  68 100 135 175 232 288 340 405
#     4  11  22  43  76  95 131 190 237 273 340 434
#     4  11  25  42  65 102 145 170 224 303 350 390
#
# _framework density 20.944133000000001
#
# number of rings (size 3 to 8) (size 9 to 14) (size 15 to 20)
#    0.000    1.500    3.750    1.500   10.500    0.000 
#    2.250    3.750    0.000    0.000    0.000    0.000 
#    0.000    0.000    0.000    0.000    0.000    0.000 
#
# Total GULP energy -89437.802076 kJ/mol
# GULP energy per Si atom -5589.862630 kJ/mol
# Density = 2.089646 g / cm^3
# Si number density = 20.944133 Si / 1000 Ang^3
#
#
#
# Elastic Constant Matrix: (Units=GPa)
#
#
# Indices 1 2 3 4 5 6 
#
# 1 160.6114 52.3192 49.3082 0.0000 -10.5141 0.0000
# 2 52.3192 124.3698 21.1347 0.0000 -3.7026 0.0000
# 3 49.3082 21.1347 75.8648 0.0000 -9.7241 0.0000
# 4 0.0000 0.0000 0.0000 13.5047 0.0000 -5.2626
# 5 -10.5141 -3.7026 -9.7241 0.0000 32.7925 0.0000
# 6 0.0000 0.0000 0.0000 -5.2626 0.0000 24.8706
#
#
#
# Elastic Compliance Matrix: (Units=1/GPa)
#
#
# Indices 1 2 3 4 5 6 
#
# 1 0.008656 -0.002810 -0.004707 0.000000 0.001062 0.000000
# 2 -0.002810 0.009354 -0.000790 0.000000 -0.000079 0.000000
# 3 -0.004707 -0.000790 0.016898 0.000000 0.003412 0.000000
# 4 0.000000 0.000000 0.000000 0.080703 0.000000 0.017077
# 5 0.001062 -0.000079 0.003412 0.000000 0.031838 0.000000
# 6 0.000000 0.000000 0.000000 0.017077 0.000000 0.043822
#
#
# Mechanical properties :
#
#
# Convention : Reuss Voigt Hill
#
# Bulk Modulus (GPa) = 54.65942 67.37448 61.01695
# Shear Modulus (GPa) = 23.36624 30.10581 26.73603
#
# Velocity S-wave (km/s) = 3.34375 3.79546 3.57675
# Velocity P-wave (km/s) = 6.40796 7.17258 6.80102
#
# Compressibility (1/GPa) = 0.01829511
#
# Stress axis : x y z
#
# Youngs Moduli (GPa) = 115.52444 106.90081 59.17807
#
# Poissons Ratio (x) = 0.30038 0.27856
# Poissons Ratio (y) = 0.32461 0.04674
# Poissons Ratio (z) = 0.54379 0.08443
#
# Static dielectric constant tensor:
#      x y z
#    x 1.772610 0.000000 -0.012640 
#    y 0.000000 1.718290 0.000000 
#    z -0.012640 0.000000 1.758180 
# 
# From -- ./inp_files/27204.got.cif
#   From: 2010.05.17/outbox.cif.g08.bks.cpg/sg9_14_cif.got.tgz:27204.got - 2010.06.03 20:04:27.
