data_PCOD9138407
_publ_section_title
;
Structure prediction by ZEFSAII (Michael W. Deem and Ramdas Pophale) SiO2 
 PCOD9138407
Probable space group: C C
;
_chemical_formula_sum "Si O2"
_cell_formula_units_Z 32
_cell_length_a 5.661403
_cell_length_b 28.102194
_cell_length_c 8.082387
_cell_angle_alpha 90.000000
_cell_angle_beta 85.221264
_cell_angle_gamma 90.000000
_cell_volume 1281.420404
_symmetry_space_group_name_H-M "C C"
_symmetry_group_IT_number 9
_symmetry_cell_setting 'monoclinic'
loop_
_space_group_symop_operation_xyz
x,y,z
x,-y,1/2+z
1/2+x,1/2+y,z
1/2+x,1/2-y,1/2+z
loop_
_atom_site_type_symbol
_atom_site_label
_atom_site_fract_x
_atom_site_fract_y
_atom_site_fract_z
Si Si1 0.392780 0.543772 0.011750
Si Si2 0.409570 0.863106 0.950400
Si Si3 0.536900 0.706178 0.579722
Si Si4 0.575330 0.991316 0.278410
Si Si5 0.756140 0.541826 0.542386
Si Si6 0.782698 0.140775 0.124566
Si Si7 0.372710 0.264504 0.763018
Si Si8 0.145998 0.664187 0.772670
O O1 0.176758 0.528489 0.142422
O O2 0.569665 0.499763 0.022220
O O3 0.452606 0.595716 0.075934
O O4 0.282714 0.542583 0.834345
O O5 0.254900 0.815162 0.962597
O O6 0.600115 0.865547 0.790638
O O7 0.217706 0.906236 0.970431
O O8 0.531710 0.864223 0.125862
O O9 0.344895 0.720347 0.454669
O O10 0.634450 0.748073 0.686207
O O11 0.422962 0.668448 0.710194
O O12 0.486886 0.025543 0.427324
O O13 0.351143 0.962092 0.223589
O O14 0.935597 0.187908 0.157453
O O15 0.633809 0.147126 0.962317
O O16 0.538423 0.217898 0.765503
#
# Coordination Sequence:
#
# PCOD9138407 Si02
#       8
#     4   4   4   4   4   4   4   4
#     4  11  24  44  73 105 145 201 250 319 386 460
#     4  11  26  49  74 111 151 200 258 326 388 472
#     4  11  26  45  77 109 153 208 251 317 400 459
#     4  10  23  43  68 100 146 184 246 313 380 452
#     4  11  23  44  73 103 146 194 252 319 391 449
#     4  12  25  48  77 111 153 199 268 313 386 472
#     4  11  25  45  73 110 156 201 252 318 384 467
#     4  11  26  48  75 113 154 203 251 323 391 459
#
# _framework density 24.972290000000001
#
# number of rings (size 3 to 8) (size 9 to 14) (size 15 to 20)
#    0.000    1.000    3.750    1.500    3.500    6.000 
#    2.250    0.000    0.000    0.000    0.000    0.000 
#    0.000    0.000    0.000    0.000    0.000    0.000 
#
# Total GULP energy -89307.104983 kJ/mol
# GULP energy per Si atom -5581.694061 kJ/mol
# Density = 2.491545 g / cm^3
# Si number density = 24.972290 Si / 1000 Ang^3
#
#
#
# Elastic Constant Matrix: (Units=GPa)
#
#
# Indices 1 2 3 4 5 6 
#
# 1 35.1407 6.2258 20.4382 0.0000 14.1789 0.0000
# 2 6.2258 77.1817 35.7431 0.0000 -0.8311 0.0000
# 3 20.4382 35.7431 145.5989 0.0000 20.3966 0.0000
# 4 0.0000 0.0000 0.0000 26.0348 0.0000 -5.8306
# 5 14.1789 -0.8311 20.3966 0.0000 39.3030 0.0000
# 6 0.0000 0.0000 0.0000 -5.8306 0.0000 30.9627
#
#
#
# Elastic Compliance Matrix: (Units=1/GPa)
#
#
# Indices 1 2 3 4 5 6 
#
# 1 0.034937 -0.001564 -0.002965 0.000000 -0.011098 0.000000
# 2 -0.001564 0.014891 -0.003838 0.000000 0.002871 0.000000
# 3 -0.002965 -0.003838 0.008722 0.000000 -0.003538 0.000000
# 4 0.000000 0.000000 0.000000 0.040101 0.000000 0.007551
# 5 -0.011098 0.002871 -0.003538 0.000000 0.031344 0.000000
# 6 0.000000 0.000000 0.000000 0.007551 0.000000 0.033719
#
#
# Mechanical properties :
#
#
# Convention : Reuss Voigt Hill
#
# Bulk Modulus (GPa) = 23.91540 42.52617 33.22079
# Shear Modulus (GPa) = 25.72174 32.29441 29.00808
#
# Velocity S-wave (km/s) = 3.21286 3.60002 3.41194
# Velocity P-wave (km/s) = 4.83331 5.86059 5.37156
#
# Compressibility (1/GPa) = 0.04181406
#
# Stress axis : x y z
#
# Youngs Moduli (GPa) = 28.62312 67.15454 114.64851
#
# Poissons Ratio (x) = 0.10505 0.33999
# Poissons Ratio (y) = 0.04478 0.44005
# Poissons Ratio (z) = 0.08488 0.25775
#
# Static dielectric constant tensor:
#      x y z
#    x 1.988110 0.000000 0.044360 
#    y 0.000000 2.087250 0.000000 
#    z 0.044360 0.000000 2.078020 
# 
# From -- ./inp_files/4511.got.cif
#   From: 2010.05.17/outbox.cif.g08.bks.cpg/sg9_3_cif.got.tgz:4511.got - 2010.06.03 20:04:27.
