data_PCOD9138030
_publ_section_title
;
Structure prediction by ZEFSAII (Michael W. Deem and Ramdas Pophale) SiO2 
 PCOD9138030
Probable space group: C C
;
_chemical_formula_sum "Si O2"
_cell_formula_units_Z 20
_cell_length_a 7.518799
_cell_length_b 13.970624
_cell_length_c 7.338167
_cell_angle_alpha 90.000000
_cell_angle_beta 97.188111
_cell_angle_gamma 90.000000
_cell_volume 764.759940
_symmetry_space_group_name_H-M "C C"
_symmetry_group_IT_number 9
_symmetry_cell_setting 'monoclinic'
loop_
_space_group_symop_operation_xyz
x,y,z
x,-y,1/2+z
1/2+x,1/2+y,z
1/2+x,1/2-y,1/2+z
loop_
_atom_site_type_symbol
_atom_site_label
_atom_site_fract_x
_atom_site_fract_y
_atom_site_fract_z
Si Si1 0.411760 0.379771 0.290320
Si Si2 0.996149 0.207231 0.463393
Si Si3 0.567664 0.419162 0.673958
Si Si4 0.947930 0.410557 0.592114
Si Si5 0.641995 0.097746 0.483789
O O1 0.443270 0.368252 0.506240
O O2 0.470306 0.487431 0.240960
O O3 0.209093 0.362849 0.190913
O O4 0.542089 0.317390 0.179023
O O5 0.948356 0.317651 0.464498
O O6 0.822298 0.138489 0.410543
O O7 0.121628 0.159983 0.330205
O O8 0.746436 0.450363 0.587505
O O9 0.082868 0.490414 0.532194
O O10 0.002915 0.382364 0.805428
#
# Coordination Sequence:
#
# PCOD9138030 Si02
#       5
#     4   4   4   4   4
#     4  10  22  46  79 102 151 205 248 306 397 452
#     4  10  27  47  73 110 153 206 250 303 398 463
#     4  12  22  46  78 108 148 205 252 316 384 458
#     4  12  26  48  76 116 151 197 265 322 376 454
#     4  10  25  47  74 108 155 195 247 323 377 449
#
# _framework density 26.151997999999999
#
# number of rings (size 3 to 8) (size 9 to 14) (size 15 to 20)
#    1.200    0.000    2.000    3.600    2.800    1.600 
#    3.600    0.000    0.000    0.000    0.000    0.000 
#    0.000    0.000    0.000    0.000    0.000    0.000 
#
# Total GULP energy -55681.866033 kJ/mol
# GULP energy per Si atom -5568.186603 kJ/mol
# Density = 2.609248 g / cm^3
# Si number density = 26.151998 Si / 1000 Ang^3
#
#
#
# Elastic Constant Matrix: (Units=GPa)
#
#
# Indices 1 2 3 4 5 6 
#
# 1 91.9334 35.7353 18.1636 0.0000 2.8572 0.0000
# 2 35.7353 128.1254 24.3480 0.0000 -24.5625 0.0000
# 3 18.1636 24.3480 133.4218 0.0000 4.0451 0.0000
# 4 0.0000 0.0000 0.0000 27.9189 0.0000 -2.8036
# 5 2.8572 -24.5625 4.0451 0.0000 34.8646 0.0000
# 6 0.0000 0.0000 0.0000 -2.8036 0.0000 12.5495
#
#
#
# Elastic Compliance Matrix: (Units=1/GPa)
#
#
# Indices 1 2 3 4 5 6 
#
# 1 0.012778 -0.004140 -0.000867 0.000000 -0.003863 0.000000
# 2 -0.004140 0.010842 -0.001663 0.000000 0.008170 0.000000
# 3 -0.000867 -0.001663 0.007978 0.000000 -0.002026 0.000000
# 4 0.000000 0.000000 0.000000 0.036640 0.000000 0.008186
# 5 -0.003863 0.008170 -0.002026 0.000000 0.034990 0.000000
# 6 0.000000 0.000000 0.000000 0.008186 0.000000 0.081513
#
#
# Mechanical properties :
#
#
# Convention : Reuss Voigt Hill
#
# Bulk Modulus (GPa) = 54.76781 56.66384 55.71583
# Shear Modulus (GPa) = 24.48992 33.41551 28.95272
#
# Velocity S-wave (km/s) = 3.06346 3.57843 3.33091
# Velocity P-wave (km/s) = 5.78797 6.22798 6.01200
#
# Compressibility (1/GPa) = 0.01825890
#
# Stress axis : x y z
#
# Youngs Moduli (GPa) = 78.25994 92.23645 125.34642
#
# Poissons Ratio (x) = 0.38183 0.10867
# Poissons Ratio (y) = 0.32397 0.20841
# Poissons Ratio (z) = 0.06785 0.15336
#
# Static dielectric constant tensor:
#      x y z
#    x 2.056790 0.000000 -0.032420 
#    y 0.000000 2.000810 0.000000 
#    z -0.032420 0.000000 2.107450 
# 
# From -- ./inp_files/4970.got.cif
#   From: 2010.05.17/outbox.cif.g08.bks.cpg/sg9_3_cif.got.tgz:4970.got - 2010.06.03 20:04:27.
