data_PCOD9138586
_publ_section_title
;
Structure prediction by ZEFSAII (Michael W. Deem and Ramdas Pophale) SiO2 
 PCOD9138586
Probable space group: C C
;
_chemical_formula_sum "Si O2"
_cell_formula_units_Z 32
_cell_length_a 8.136938
_cell_length_b 11.911112
_cell_length_c 13.412419
_cell_angle_alpha 90.000000
_cell_angle_beta 78.559003
_cell_angle_gamma 90.000000
_cell_volume 1274.101084
_symmetry_space_group_name_H-M "C C"
_symmetry_group_IT_number 9
_symmetry_cell_setting 'monoclinic'
loop_
_space_group_symop_operation_xyz
x,y,z
x,-y,1/2+z
1/2+x,1/2+y,z
1/2+x,1/2-y,1/2+z
loop_
_atom_site_type_symbol
_atom_site_label
_atom_site_fract_x
_atom_site_fract_y
_atom_site_fract_z
Si Si1 0.822110 0.271225 0.706610
Si Si2 0.421163 0.972902 0.208134
Si Si3 0.775683 0.061450 0.123595
Si Si4 0.767279 0.288927 0.492511
Si Si5 0.193534 0.809030 0.105327
Si Si6 0.818290 0.924365 0.855937
Si Si7 0.584941 0.480181 0.968015
Si Si8 0.593437 0.128361 0.878166
O O1 0.842814 0.403256 0.724148
O O2 0.726533 0.259949 0.611692
O O3 0.716304 0.211082 0.804618
O O4 0.008026 0.216557 0.673188
O O5 0.599240 0.998197 0.134204
O O6 0.302395 0.885490 0.166890
O O7 0.471147 0.924420 0.309124
O O8 0.773771 0.186862 0.080214
O O9 0.805336 0.078190 0.238680
O O10 0.922971 0.989256 0.059538
O O11 0.752505 0.188322 0.416046
O O12 0.671427 0.399642 0.468520
O O13 0.966800 0.316724 0.470881
O O14 0.191588 0.881541 0.004348
O O15 0.704914 0.027836 0.905094
O O16 0.005604 0.949573 0.871641
#
# Coordination Sequence:
#
# PCOD9138586 Si02
#       8
#     4   4   4   4   4   4   4   4
#     4  11  25  47  73 108 147 191 249 305 370 455
#     4  10  23  44  77  99 140 190 245 296 387 436
#     4  10  26  46  73 109 146 199 242 313 370 455
#     4  12  28  45  72 114 144 196 252 306 371 461
#     4  11  22  43  76 103 139 195 243 300 381 443
#     4  11  27  47  74 107 152 191 256 310 382 442
#     4  12  27  44  76 108 150 195 248 307 379 449
#     4  11  28  46  71 106 150 193 245 317 368 445
#
# _framework density 25.115746000000001
#
# number of rings (size 3 to 8) (size 9 to 14) (size 15 to 20)
#    0.000    1.000    2.500    2.250    7.000    9.000 
#    0.000    0.000    2.750    0.000    0.000    0.000 
#    0.000    0.000    0.000    0.000    0.000    0.000 
#
# Total GULP energy -89799.568982 kJ/mol
# GULP energy per Si atom -5612.473061 kJ/mol
# Density = 2.505858 g / cm^3
# Si number density = 25.115746 Si / 1000 Ang^3
#
#
#
# Elastic Constant Matrix: (Units=GPa)
#
#
# Indices 1 2 3 4 5 6 
#
# 1 82.3582 42.2817 30.6112 0.0000 15.7231 0.0000
# 2 42.2817 157.7525 21.0036 0.0000 2.8910 0.0000
# 3 30.6112 21.0036 74.1148 0.0000 -3.9837 0.0000
# 4 0.0000 0.0000 0.0000 9.0039 0.0000 3.0932
# 5 15.7231 2.8910 -3.9837 0.0000 45.4287 0.0000
# 6 0.0000 0.0000 0.0000 3.0932 0.0000 57.4190
#
#
#
# Elastic Compliance Matrix: (Units=1/GPa)
#
#
# Indices 1 2 3 4 5 6 
#
# 1 0.017776 -0.003763 -0.006624 0.000000 -0.006494 0.000000
# 2 -0.003763 0.007400 -0.000500 0.000000 0.000788 0.000000
# 3 -0.006624 -0.000500 0.016574 0.000000 0.003778 0.000000
# 4 0.000000 0.000000 0.000000 0.113158 0.000000 -0.006096
# 5 -0.006494 0.000788 0.003778 0.000000 0.024541 0.000000
# 6 0.000000 0.000000 0.000000 -0.006096 0.000000 0.017744
#
#
# Mechanical properties :
#
#
# Convention : Reuss Voigt Hill
#
# Bulk Modulus (GPa) = 50.06755 55.77982 52.92369
# Shear Modulus (GPa) = 22.16046 37.05891 29.60968
#
# Velocity S-wave (km/s) = 2.97363 3.84542 3.43728
# Velocity P-wave (km/s) = 5.63631 6.47871 6.07214
#
# Compressibility (1/GPa) = 0.01997301
#
# Stress axis : x y z
#
# Youngs Moduli (GPa) = 56.25517 135.13650 60.33723
#
# Poissons Ratio (x) = 0.50858 0.39970
# Poissons Ratio (y) = 0.21171 0.03019
# Poissons Ratio (z) = 0.37266 0.06761
#
# Static dielectric constant tensor:
#      x y z
#    x 1.985570 0.000000 0.004280 
#    y 0.000000 1.948740 0.000000 
#    z 0.004280 0.000000 1.977060 
# 
# From -- ./inp_files/22871.got.cif
#   From: 2010.05.17/outbox.cif.g08.bks.cpg/sg9_12_cif.got.tgz:22871.got - 2010.06.03 20:04:27.
