data_PCOD9138916
_publ_section_title
;
Structure prediction by ZEFSAII (Michael W. Deem and Ramdas Pophale) SiO2 
 PCOD9138916
Probable space group: C C
;
_chemical_formula_sum "Si O2"
_cell_formula_units_Z 24
_cell_length_a 5.357134
_cell_length_b 20.213289
_cell_length_c 7.807586
_cell_angle_alpha 90.000000
_cell_angle_beta 87.422408
_cell_angle_gamma 90.000000
_cell_volume 844.591381
_symmetry_space_group_name_H-M "C C"
_symmetry_group_IT_number 9
_symmetry_cell_setting 'monoclinic'
loop_
_space_group_symop_operation_xyz
x,y,z
x,-y,1/2+z
1/2+x,1/2+y,z
1/2+x,1/2-y,1/2+z
loop_
_atom_site_type_symbol
_atom_site_label
_atom_site_fract_x
_atom_site_fract_y
_atom_site_fract_z
Si Si1 0.970970 0.989134 0.399480
Si Si2 0.116847 0.455002 0.125664
Si Si3 0.802067 0.574377 0.172482
Si Si4 0.070785 0.806363 0.817864
Si Si5 0.744451 0.338303 0.155068
Si Si6 0.913245 0.782441 0.471373
O O1 0.770486 0.046667 0.447101
O O2 0.208408 0.031591 0.335827
O O3 0.830307 0.946371 0.261972
O O4 0.086073 0.942737 0.541266
O O5 0.041626 0.533159 0.112039
O O6 0.885286 0.407836 0.169537
O O7 0.796464 0.650173 0.225088
O O8 0.882372 0.813742 0.663133
O O9 0.168167 0.732286 0.864000
O O10 0.035136 0.834732 0.010281
O O11 0.622970 0.310329 0.335277
O O12 0.948618 0.291955 0.047527
#
# Coordination Sequence:
#
# PCOD9138916 Si02
#       6
#     4   4   4   4   4   4
#     4  10  24  40  71 113 145 192 243 288 401 454
#     4  11  23  46  71 112 150 192 241 313 379 450
#     4  11  23  46  71 109 150 193 241 314 380 448
#     4  10  25  47  70 102 146 192 255 310 364 449
#     4  10  25  47  71 101 148 191 253 309 365 446
#     4  10  26  44  72 101 137 206 247 302 377 429
#
# _framework density 28.416107
#
# number of rings (size 3 to 8) (size 9 to 14) (size 15 to 20)
#    1.000    0.667    0.000    3.000    7.000    2.667 
#    6.000    0.000    0.000    0.000    0.000    0.000 
#    0.000    0.000    0.000    0.000    0.000    0.000 
#
# Total GULP energy -66804.120226 kJ/mol
# GULP energy per Si atom -5567.010019 kJ/mol
# Density = 2.835143 g / cm^3
# Si number density = 28.416107 Si / 1000 Ang^3
#
#
#
# Elastic Constant Matrix: (Units=GPa)
#
#
# Indices 1 2 3 4 5 6 
#
# 1 93.4399 16.2726 42.1417 0.0000 11.9754 0.0000
# 2 16.2726 59.9656 26.7862 0.0000 -2.5973 0.0000
# 3 42.1417 26.7862 190.2234 0.0000 30.4229 0.0000
# 4 0.0000 0.0000 0.0000 44.0307 0.0000 -3.1095
# 5 11.9754 -2.5973 30.4229 0.0000 54.0806 0.0000
# 6 0.0000 0.0000 0.0000 -3.1095 0.0000 43.6213
#
#
#
# Elastic Compliance Matrix: (Units=1/GPa)
#
#
# Indices 1 2 3 4 5 6 
#
# 1 0.012296 -0.002465 -0.002113 0.000000 -0.001653 0.000000
# 2 -0.002465 0.018600 -0.002531 0.000000 0.002863 0.000000
# 3 -0.002113 -0.002531 0.006622 0.000000 -0.003379 0.000000
# 4 0.000000 0.000000 0.000000 0.022826 0.000000 0.001627
# 5 -0.001653 0.002863 -0.003379 0.000000 0.020895 0.000000
# 6 0.000000 0.000000 0.000000 0.001627 0.000000 0.023041
#
#
# Mechanical properties :
#
#
# Convention : Reuss Voigt Hill
#
# Bulk Modulus (GPa) = 42.91671 57.11443 50.01557
# Shear Modulus (GPa) = 39.60004 45.57508 42.58756
#
# Velocity S-wave (km/s) = 3.73711 4.00915 3.87552
# Velocity P-wave (km/s) = 5.81009 6.44779 6.13723
#
# Compressibility (1/GPa) = 0.02330095
#
# Stress axis : x y z
#
# Youngs Moduli (GPa) = 81.32803 53.76468 151.01671
#
# Poissons Ratio (x) = 0.13251 0.31905
# Poissons Ratio (y) = 0.20044 0.38222
# Poissons Ratio (z) = 0.17182 0.13608
#
# Static dielectric constant tensor:
#      x y z
#    x 2.167600 0.000000 0.055840 
#    y 0.000000 2.329040 0.000000 
#    z 0.055840 0.000000 2.307300 
# 
# From -- ./inp_files/3970.got.cif
#   From: 2010.05.17/outbox.cif.g08.bks.cpg/sg9_2_cif.got.tgz:3970.got - 2010.06.03 20:04:27.
