data_PCOD9138305
_publ_section_title
;
Structure prediction by ZEFSAII (Michael W. Deem and Ramdas Pophale) SiO2 
 PCOD9138305
Probable space group: C C
;
_chemical_formula_sum "Si O2"
_cell_formula_units_Z 32
_cell_length_a 14.911486
_cell_length_b 20.920132
_cell_length_c 5.325517
_cell_angle_alpha 90.000000
_cell_angle_beta 53.420627
_cell_angle_gamma 90.000000
_cell_volume 1334.074277
_symmetry_space_group_name_H-M "C C"
_symmetry_group_IT_number 9
_symmetry_cell_setting 'monoclinic'
loop_
_space_group_symop_operation_xyz
x,y,z
x,-y,1/2+z
1/2+x,1/2+y,z
1/2+x,1/2-y,1/2+z
loop_
_atom_site_type_symbol
_atom_site_label
_atom_site_fract_x
_atom_site_fract_y
_atom_site_fract_z
Si Si1 0.329150 0.159757 0.071430
Si Si2 0.012155 0.856649 0.381448
Si Si3 0.613839 0.026186 0.614532
Si Si4 0.668963 0.455853 0.887383
Si Si5 0.148824 0.780588 0.512306
Si Si6 0.468792 0.769464 0.685865
Si Si7 0.074038 0.657230 0.409469
Si Si8 0.374849 0.531952 0.287538
O O1 0.278883 0.089479 0.193551
O O2 0.244428 0.199861 0.042809
O O3 0.355992 0.197990 0.282323
O O4 0.449382 0.159114 0.736495
O O5 0.116887 0.838199 0.381804
O O6 0.960812 0.788300 0.394064
O O7 0.916334 0.896935 0.674260
O O8 0.068917 0.902863 0.078491
O O9 0.615948 0.090750 0.446081
O O10 0.742893 0.020289 0.486466
O O11 0.562125 0.021073 0.984238
O O12 0.666617 0.500221 0.642770
O O13 0.158311 0.713158 0.354206
O O14 0.035689 0.766400 0.856474
O O15 0.548559 0.825294 0.663329
O O16 0.418552 0.508685 0.480002
#
# Coordination Sequence:
#
# PCOD9138305 Si02
#       8
#     4   4   4   4   4   4   4   4
#     4  11  25  45  69 103 144 180 248 289 362 443
#     4  11  23  43  71 102 142 181 239 291 368 424
#     4  10  24  45  68  98 138 183 234 294 349 427
#     4  12  27  44  72 105 149 200 237 298 363 440
#     4  10  23  44  67 102 140 180 229 303 360 427
#     4  10  24  42  68 102 130 186 230 303 352 418
#     4  10  25  43  71 100 136 187 235 296 365 427
#     4  10  23  42  68 102 137 177 228 286 347 422
#
# _framework density 23.98667
#
# number of rings (size 3 to 8) (size 9 to 14) (size 15 to 20)
#    0.000    1.500    1.250    1.500    8.750    5.000 
#    2.250    0.000    0.000    0.000    0.000    0.000 
#    0.000    0.000    0.000    0.000    0.000    0.000 
#
# Total GULP energy -89310.868571 kJ/mol
# GULP energy per Si atom -5581.929286 kJ/mol
# Density = 2.393207 g / cm^3
# Si number density = 23.986670 Si / 1000 Ang^3
#
#
#
# Elastic Constant Matrix: (Units=GPa)
#
#
# Indices 1 2 3 4 5 6 
#
# 1 136.9210 56.9739 19.5907 0.0000 22.3365 0.0000
# 2 56.9739 111.8180 6.6521 0.0000 4.5521 0.0000
# 3 19.5907 6.6521 43.8454 0.0000 0.5896 0.0000
# 4 0.0000 0.0000 0.0000 38.8030 0.0000 -3.0398
# 5 22.3365 4.5521 0.5896 0.0000 22.4866 0.0000
# 6 0.0000 0.0000 0.0000 -3.0398 0.0000 43.6568
#
#
#
# Elastic Compliance Matrix: (Units=1/GPa)
#
#
# Indices 1 2 3 4 5 6 
#
# 1 0.011891 -0.005368 -0.004356 0.000000 -0.010611 0.000000
# 2 -0.005368 0.011520 0.000610 0.000000 0.002984 0.000000
# 3 -0.004356 0.000610 0.024613 0.000000 0.003558 0.000000
# 4 0.000000 0.000000 0.000000 0.025913 0.000000 0.001804
# 5 -0.010611 0.002984 0.003558 0.000000 0.054314 0.000000
# 6 0.000000 0.000000 0.000000 0.001804 0.000000 0.023032
#
#
# Mechanical properties :
#
#
# Convention : Reuss Voigt Hill
#
# Bulk Modulus (GPa) = 33.55925 51.00198 42.28061
# Shear Modulus (GPa) = 27.86404 34.94712 31.40558
#
# Velocity S-wave (km/s) = 3.41199 3.82113 3.62234
# Velocity P-wave (km/s) = 5.43539 6.38567 5.92960
#
# Compressibility (1/GPa) = 0.02979804
#
# Stress axis : x y z
#
# Youngs Moduli (GPa) = 84.09443 86.80287 40.62836
#
# Poissons Ratio (x) = 0.46594 0.17698
# Poissons Ratio (y) = 0.45140 -0.02480
# Poissons Ratio (z) = 0.36633 -0.05299
#
# Static dielectric constant tensor:
#      x y z
#    x 1.913910 0.000000 0.047580 
#    y 0.000000 1.930600 0.000000 
#    z 0.047580 0.000000 2.071860 
# 
# From -- ./inp_files/1860.got.cif
#   From: 2010.05.17/outbox.cif.g08.bks.cpg/sg9_1_cif.got.tgz:1860.got - 2010.06.03 20:04:27.
