data_PCOD9138065
_publ_section_title
;
Structure prediction by ZEFSAII (Michael W. Deem and Ramdas Pophale) SiO2 
 PCOD9138065
Probable space group: C C
;
_chemical_formula_sum "Si O2"
_cell_formula_units_Z 28
_cell_length_a 8.930747
_cell_length_b 14.146512
_cell_length_c 14.534699
_cell_angle_alpha 90.000000
_cell_angle_beta 38.127417
_cell_angle_gamma 90.000000
_cell_volume 1133.753197
_symmetry_space_group_name_H-M "C C"
_symmetry_group_IT_number 9
_symmetry_cell_setting 'monoclinic'
loop_
_space_group_symop_operation_xyz
x,y,z
x,-y,1/2+z
1/2+x,1/2+y,z
1/2+x,1/2-y,1/2+z
loop_
_atom_site_type_symbol
_atom_site_label
_atom_site_fract_x
_atom_site_fract_y
_atom_site_fract_z
Si Si1 0.161030 0.453903 0.258380
Si Si2 0.469593 0.154897 0.408292
Si Si3 0.530211 0.338998 0.997851
Si Si4 0.138891 0.051077 0.259315
Si Si5 0.764187 0.328537 0.540499
Si Si6 0.850633 0.774438 0.613110
Si Si7 0.686747 0.948584 0.557854
O O1 0.074627 0.551159 0.344947
O O2 0.434846 0.417094 0.117369
O O3 0.124148 0.473132 0.166993
O O4 0.005484 0.375016 0.383233
O O5 0.283371 0.187404 0.419782
O O6 0.352618 0.174907 0.561980
O O7 0.690949 0.224714 0.281741
O O8 0.342258 0.254847 0.072224
O O9 0.580523 0.380311 0.873353
O O10 0.105650 0.097358 0.175823
O O11 0.435395 0.047096 0.122748
O O12 0.929539 0.972653 0.381713
O O13 0.613926 0.297635 0.524406
O O14 0.751068 0.854408 0.588560
#
# Coordination Sequence:
#
# PCOD9138065 Si02
#       7
#     4   4   4   4   4   4   4
#     4  10  24  45  73 103 143 191 244 303 359 440
#     4  11  26  48  74 102 145 194 244 305 369 440
#     4  11  24  47  75 102 145 192 246 298 378 443
#     4  11  23  45  74 108 147 197 246 305 377 444
#     4  12  27  43  74 109 148 189 248 308 379 441
#     4  11  26  45  72 107 149 187 250 308 373 437
#     4  10  22  47  74 107 151 198 252 309 369 443
#
# _framework density 24.696733999999999
#
# number of rings (size 3 to 8) (size 9 to 14) (size 15 to 20)
#    0.000    1.143    2.857    2.571   10.000    3.429 
#    2.571    0.000    0.000    0.000    0.000    0.000 
#    0.000    0.000    0.000    0.000    0.000    0.000 
#
# Total GULP energy -78140.089465 kJ/mol
# GULP energy per Si atom -5581.434962 kJ/mol
# Density = 2.464052 g / cm^3
# Si number density = 24.696734 Si / 1000 Ang^3
#
#
#
# Elastic Constant Matrix: (Units=GPa)
#
#
# Indices 1 2 3 4 5 6 
#
# 1 82.3662 36.8937 38.2627 0.0015 -10.0484 -0.0022
# 2 36.8937 59.7216 32.5585 -0.0034 0.0443 -0.0007
# 3 38.2627 32.5585 93.4234 -0.0072 -2.4019 -0.0006
# 4 0.0015 -0.0034 -0.0072 41.9577 0.0004 16.9305
# 5 -10.0484 0.0443 -2.4019 0.0004 31.5265 0.0019
# 6 -0.0022 -0.0007 -0.0006 16.9305 0.0019 20.3402
#
#
#
# Elastic Compliance Matrix: (Units=1/GPa)
#
#
# Indices 1 2 3 4 5 6 
#
# 1 0.019100 -0.009407 -0.004396 -0.000004 0.005766 0.000005
# 2 -0.009407 0.025315 -0.005058 0.000002 -0.003419 -0.000002
# 3 -0.004396 -0.005058 0.014259 0.000003 -0.000308 -0.000003
# 4 -0.000004 0.000002 0.000003 0.035887 0.000000 -0.029871
# 5 0.005766 -0.003419 -0.000308 0.000000 0.033539 -0.000003
# 6 0.000005 -0.000002 -0.000003 -0.029871 -0.000003 0.074027
#
#
# Mechanical properties :
#
#
# Convention : Reuss Voigt Hill
#
# Bulk Modulus (GPa) = 47.72540 50.10454 48.91497
# Shear Modulus (GPa) = 20.25657 27.28462 23.77060
#
# Velocity S-wave (km/s) = 2.86704 3.32744 3.10578
# Velocity P-wave (km/s) = 5.50694 5.92406 5.71930
#
# Compressibility (1/GPa) = 0.02095320
#
# Stress axis : x y z
#
# Youngs Moduli (GPa) = 52.35568 39.50153 70.13039
#
# Poissons Ratio (x) = 0.37159 0.30830
# Poissons Ratio (y) = 0.49251 0.35470
# Poissons Ratio (z) = 0.23016 0.19979
#
# Static dielectric constant tensor:
#      x y z
#    x 1.933820 0.000000 -0.049380 
#    y 0.000000 2.035120 0.000000 
#    z -0.049380 0.000000 1.938030 
# 
# From -- ./inp_files/23469.got.cif
#   From: 2010.05.17/outbox.cif.g08.bks.cpg/sg9_12_cif.got.tgz:23469.got - 2010.06.03 20:04:27.
