data_PCOD9138819
_publ_section_title
;
Structure prediction by ZEFSAII (Michael W. Deem and Ramdas Pophale) SiO2 
 PCOD9138819
Probable space group: C C
;
_chemical_formula_sum "Si O2"
_cell_formula_units_Z 24
_cell_length_a 21.178702
_cell_length_b 7.276554
_cell_length_c 10.946736
_cell_angle_alpha 90.000000
_cell_angle_beta 149.034313
_cell_angle_gamma 90.000000
_cell_volume 867.992402
_symmetry_space_group_name_H-M "C C"
_symmetry_group_IT_number 9
_symmetry_cell_setting 'monoclinic'
loop_
_space_group_symop_operation_xyz
x,y,z
x,-y,1/2+z
1/2+x,1/2+y,z
1/2+x,1/2-y,1/2+z
loop_
_atom_site_type_symbol
_atom_site_label
_atom_site_fract_x
_atom_site_fract_y
_atom_site_fract_z
Si Si1 0.863480 0.907915 0.878540
Si Si2 0.620340 0.713133 0.045436
Si Si3 0.495346 0.919416 0.327346
Si Si4 0.618628 0.621580 0.688387
Si Si5 0.335020 0.591514 0.579678
Si Si6 0.847201 0.492694 0.833061
O O1 0.819112 0.984171 0.677357
O O2 0.834275 0.020309 0.951843
O O3 0.814439 0.702023 0.811587
O O4 0.010523 0.886559 0.108080
O O5 0.657020 0.588821 0.225467
O O6 0.724082 0.628166 0.128963
O O7 0.604175 0.930717 0.004771
O O8 0.473669 0.667350 0.803702
O O9 0.432774 0.925887 0.089143
O O10 0.548923 0.721959 0.457497
O O11 0.414534 0.984171 0.313190
O O12 0.728650 0.758022 0.899078
#
# Coordination Sequence:
#
# PCOD9138819 Si02
#       6
#     4   4   4   4   4   4
#     4  10  23  47  76 110 162 203 251 331 383 459
#     4  11  23  48  80 107 152 210 252 313 391 462
#     4  11  26  51  77 112 157 206 249 336 383 452
#     4  10  24  47  76 114 156 195 263 314 381 476
#     4  11  23  46  77 114 153 201 256 317 390 455
#     4  11  25  53  74 115 160 197 273 315 388 478
#
# _framework density 27.650012
#
# number of rings (size 3 to 8) (size 9 to 14) (size 15 to 20)
#    0.000    1.333    3.333    0.000    0.000   10.667 
#   27.000    0.000    0.000    0.000    0.000    0.000 
#    0.000    0.000    0.000    0.000    0.000    0.000 
#
# Total GULP energy -67084.047287 kJ/mol
# GULP energy per Si atom -5590.337274 kJ/mol
# Density = 2.758708 g / cm^3
# Si number density = 27.650012 Si / 1000 Ang^3
#
#
#
# Elastic Constant Matrix: (Units=GPa)
#
#
# Indices 1 2 3 4 5 6 
#
# 1 174.6310 27.0927 52.9209 0.0000 -23.0265 0.0000
# 2 27.0927 82.2940 36.6667 0.0000 -21.3780 0.0000
# 3 52.9209 36.6667 165.9542 0.0000 -1.8275 0.0000
# 4 0.0000 0.0000 0.0000 48.4701 0.0000 4.1416
# 5 -23.0265 -21.3780 -1.8275 0.0000 55.9098 0.0000
# 6 0.0000 0.0000 0.0000 4.1416 0.0000 48.3405
#
#
#
# Elastic Compliance Matrix: (Units=1/GPa)
#
#
# Indices 1 2 3 4 5 6 
#
# 1 0.006756 -0.000711 -0.001971 0.000000 0.002446 0.000000
# 2 -0.000711 0.015153 -0.003062 0.000000 0.005401 0.000000
# 3 -0.001971 -0.003062 0.007311 0.000000 -0.001743 0.000000
# 4 0.000000 0.000000 0.000000 0.020783 0.000000 -0.001781
# 5 0.002446 0.005401 -0.001743 0.000000 0.020902 0.000000
# 6 0.000000 0.000000 0.000000 -0.001781 0.000000 0.020839
#
#
# Mechanical properties :
#
#
# Convention : Reuss Voigt Hill
#
# Bulk Modulus (GPa) = 56.38772 72.91553 64.65163
# Shear Modulus (GPa) = 45.81159 50.95735 48.38447
#
# Velocity S-wave (km/s) = 4.07484 4.29761 4.18771
# Velocity P-wave (km/s) = 6.52509 7.14521 6.84218
#
# Compressibility (1/GPa) = 0.01773436
#
# Stress axis : x y z
#
# Youngs Moduli (GPa) = 148.00826 65.99420 136.77215
#
# Poissons Ratio (x) = 0.04691 0.26952
# Poissons Ratio (y) = 0.10521 0.41877
# Poissons Ratio (z) = 0.29166 0.20206
#
# Static dielectric constant tensor:
#      x y z
#    x 2.257730 0.000000 -0.067080 
#    y 0.000000 2.169970 0.000000 
#    z -0.067080 0.000000 2.239540 
# 
# From -- ./inp_files/20836.got.cif
#   From: 2010.05.17/outbox.cif.g08.bks.cpg/sg9_11_cif.got.tgz:20836.got - 2010.06.03 20:04:27.
