data_PCOD9138955
_publ_section_title
;
Structure prediction by ZEFSAII (Michael W. Deem and Ramdas Pophale) SiO2 
 PCOD9138955
Probable space group: C C
;
_chemical_formula_sum "Si O2"
_cell_formula_units_Z 32
_cell_length_a 28.599612
_cell_length_b 5.318958
_cell_length_c 8.975713
_cell_angle_alpha 90.000000
_cell_angle_beta 98.545387
_cell_angle_gamma 90.000000
_cell_volume 1350.228786
_symmetry_space_group_name_H-M "C C"
_symmetry_group_IT_number 9
_symmetry_cell_setting 'monoclinic'
loop_
_space_group_symop_operation_xyz
x,y,z
x,-y,1/2+z
1/2+x,1/2+y,z
1/2+x,1/2-y,1/2+z
loop_
_atom_site_type_symbol
_atom_site_label
_atom_site_fract_x
_atom_site_fract_y
_atom_site_fract_z
Si Si1 0.609500 0.834816 0.449390
Si Si2 0.747641 0.683342 0.223327
Si Si3 0.285067 0.467480 0.502871
Si Si4 0.439836 0.813066 0.368236
Si Si5 0.993266 0.998912 0.144992
Si Si6 0.021028 0.660609 0.405158
Si Si7 0.330907 0.197151 0.768331
Si Si8 0.141273 0.159428 0.134685
O O1 0.625908 0.754791 0.291658
O O2 0.616997 0.590555 0.556258
O O3 0.554683 0.921171 0.419353
O O4 0.633801 0.093796 0.524242
O O5 0.754734 0.768176 0.396269
O O6 0.795220 0.527796 0.215192
O O7 0.696214 0.574561 0.174687
O O8 0.751672 0.911850 0.110190
O O9 0.328907 0.357462 0.615964
O O10 0.305493 0.656410 0.390568
O O11 0.458806 0.655716 0.236312
O O12 0.460764 0.671524 0.522375
O O13 0.384174 0.854793 0.338693
O O14 0.466664 0.076421 0.373079
O O15 0.027443 0.832299 0.264267
O O16 0.024170 0.183976 0.057844
#
# Coordination Sequence:
#
# PCOD9138955 Si02
#       8
#     4   4   4   4   4   4   4   4
#     4  12  31  53  83 117 158 209 269 329 406 474
#     4  11  25  44  74 101 148 191 251 316 381 463
#     4  10  24  42  69 102 144 194 249 304 390 450
#     4  11  24  43  72 106 149 198 252 315 389 469
#     4  10  25  46  73 103 154 197 256 312 397 457
#     4  11  27  46  76 107 150 200 256 323 390 477
#     4  11  24  42  70 107 148 195 253 312 388 465
#     4  12  30  52  83 117 159 206 270 333 405 473
#
# _framework density 23.699687000000001
#
# number of rings (size 3 to 8) (size 9 to 14) (size 15 to 20)
#    0.000    1.000    0.000    3.750   14.000    8.000 
#    0.000    0.000    0.000    0.000    0.000    0.000 
#    0.000    0.000    0.000    0.000    0.000    0.000 
#
# Total GULP energy -89588.000520 kJ/mol
# GULP energy per Si atom -5599.250032 kJ/mol
# Density = 2.364575 g / cm^3
# Si number density = 23.699687 Si / 1000 Ang^3
#
#
#
# Elastic Constant Matrix: (Units=GPa)
#
#
# Indices 1 2 3 4 5 6 
#
# 1 117.0930 31.8408 40.9232 0.0000 25.1374 0.0000
# 2 31.8408 111.9952 53.7253 0.0000 -0.8707 0.0000
# 3 40.9232 53.7253 144.1914 0.0000 -12.1596 0.0000
# 4 0.0000 0.0000 0.0000 -18.6457 0.0000 17.7728
# 5 25.1374 -0.8707 -12.1596 0.0000 26.9153 0.0000
# 6 0.0000 0.0000 0.0000 17.7728 0.0000 24.2442
#
#
#
# Elastic Compliance Matrix: (Units=1/GPa)
#
#
# Indices 1 2 3 4 5 6 
#
# 1 0.013853 -0.001901 -0.004491 0.000000 -0.015028 0.000000
# 2 -0.001901 0.011195 -0.003588 0.000000 0.000517 0.000000
# 3 -0.004491 -0.003588 0.010282 0.000000 0.008723 0.000000
# 4 0.000000 0.000000 0.000000 -0.031571 0.000000 0.023144
# 5 -0.015028 0.000517 0.008723 0.000000 0.055146 0.000000
# 6 0.000000 0.000000 0.000000 0.023144 0.000000 0.024281
#
#
# Mechanical properties :
#
#
# Convention : Reuss Voigt Hill
#
# Bulk Modulus (GPa) = 65.06010 69.58426 67.32218
# Shear Modulus (GPa) = 46.18161 22.95545 34.56853
#
# Velocity S-wave (km/s) = 4.41910 3.11561 3.82331
# Velocity P-wave (km/s) = 7.31775 6.50901 6.92520
#
# Compressibility (1/GPa) = 0.01537040
#
# Stress axis : x y z
#
# Youngs Moduli (GPa) = 72.18768 89.32845 97.25566
#
# Poissons Ratio (x) = 0.16982 0.43673
# Poissons Ratio (y) = 0.13723 0.34895
# Poissons Ratio (z) = 0.32416 0.32051
#
# Static dielectric constant tensor:
#      x y z
#    x 1.881580 0.000000 0.016630 
#    y 0.000000 2.049190 0.000000 
#    z 0.016630 0.000000 1.895520 
# 
# From -- ./inp_files/12569.got.cif
#   From: 2010.05.17/outbox.cif.g08.bks.cpg/sg9_7_cif.got.tgz:12569.got - 2010.06.03 20:04:27.
