data_PCOD9138215
_publ_section_title
;
Structure prediction by ZEFSAII (Michael W. Deem and Ramdas Pophale) SiO2 
 PCOD9138215
Probable space group: C C
;
_chemical_formula_sum "Si O2"
_cell_formula_units_Z 28
_cell_length_a 9.463312
_cell_length_b 21.075110
_cell_length_c 5.555198
_cell_angle_alpha 90.000000
_cell_angle_beta 102.119412
_cell_angle_gamma 90.000000
_cell_volume 1083.237207
_symmetry_space_group_name_H-M "C C"
_symmetry_group_IT_number 9
_symmetry_cell_setting 'monoclinic'
loop_
_space_group_symop_operation_xyz
x,y,z
x,-y,1/2+z
1/2+x,1/2+y,z
1/2+x,1/2-y,1/2+z
loop_
_atom_site_type_symbol
_atom_site_label
_atom_site_fract_x
_atom_site_fract_y
_atom_site_fract_z
Si Si1 0.977300 0.649763 0.641040
Si Si2 0.214063 0.533975 0.298980
Si Si3 0.724291 0.214096 0.501064
Si Si4 0.488476 0.458343 0.701975
Si Si5 0.897178 0.509786 0.718449
Si Si6 0.694474 0.659467 0.260455
Si Si7 0.530597 0.252678 0.041361
O O1 0.864155 0.653024 0.379795
O O2 0.141144 0.660823 0.620457
O O3 0.951151 0.581929 0.746177
O O4 0.953630 0.708291 0.813125
O O5 0.239589 0.518664 0.591236
O O6 0.336183 0.579304 0.224961
O O7 0.038890 0.535541 0.244231
O O8 0.673369 0.285482 0.557305
O O9 0.646417 0.208612 0.216707
O O10 0.892474 0.215307 0.615111
O O11 0.495973 0.499962 0.955440
O O12 0.608686 0.404953 0.696404
O O13 0.817294 0.502318 0.437768
O O14 0.624188 0.690990 0.468713
#
# Coordination Sequence:
#
# PCOD9138215 Si02
#       7
#     4   4   4   4   4   4   4
#     4  11  25  43  69 104 140 185 239 296 358 430
#     4   8  16  36  56  84 128 168 220 276 326 402
#     4  11  24  46  72 100 139 183 236 301 362 422
#     4  10  23  41  65  98 139 183 233 285 350 425
#     4  10  23  41  65  98 139 183 233 285 350 425
#     4  11  25  43  69 104 140 185 239 296 358 430
#     4  11  24  46  72 100 139 183 236 301 362 422
#
# _framework density 25.848448000000001
#
# number of rings (size 3 to 8) (size 9 to 14) (size 15 to 20)
#    0.000    1.714    2.857    0.000    4.000    4.571 
#   10.286    0.000    0.000    0.000    0.000    0.000 
#    0.000    0.000    0.000    0.000    0.000    0.000 
#
# Total GULP energy -78001.935631 kJ/mol
# GULP energy per Si atom -5571.566831 kJ/mol
# Density = 2.578962 g / cm^3
# Si number density = 25.848448 Si / 1000 Ang^3
#
#
#
# Elastic Constant Matrix: (Units=GPa)
#
#
# Indices 1 2 3 4 5 6 
#
# 1 124.9019 15.2778 4.8572 0.0000 -0.0791 0.0000
# 2 15.2778 82.4951 19.9925 0.0000 7.2029 0.0000
# 3 4.8572 19.9925 101.2424 0.0000 -3.3167 0.0000
# 4 0.0000 0.0000 0.0000 16.6820 0.0000 11.9906
# 5 -0.0791 7.2029 -3.3167 0.0000 26.6796 0.0000
# 6 0.0000 0.0000 0.0000 11.9906 0.0000 19.3524
#
#
#
# Elastic Compliance Matrix: (Units=1/GPa)
#
#
# Indices 1 2 3 4 5 6 
#
# 1 0.008198 -0.001537 -0.000076 0.000000 0.000430 0.000000
# 2 -0.001537 0.013408 -0.002704 0.000000 -0.003960 0.000000
# 3 -0.000076 -0.002704 0.010481 0.000000 0.002033 0.000000
# 4 0.000000 0.000000 0.000000 0.108077 0.000000 -0.066964
# 5 0.000430 -0.003960 0.002033 0.000000 0.038805 0.000000
# 6 0.000000 0.000000 0.000000 -0.066964 0.000000 0.093164
#
#
# Mechanical properties :
#
#
# Convention : Reuss Voigt Hill
#
# Bulk Modulus (GPa) = 42.63776 43.21049 42.92412
# Shear Modulus (GPa) = 17.32603 30.44359 23.88481
#
# Velocity S-wave (km/s) = 2.59181 3.43559 3.04309
# Velocity P-wave (km/s) = 5.04854 5.70008 5.38417
#
# Compressibility (1/GPa) = 0.02345339
#
# Stress axis : x y z
#
# Youngs Moduli (GPa) = 121.98775 74.58419 95.40714
#
# Poissons Ratio (x) = 0.11466 0.00721
# Poissons Ratio (y) = 0.18754 0.25794
# Poissons Ratio (z) = 0.00922 0.20165
#
# Static dielectric constant tensor:
#      x y z
#    x 2.153030 0.000000 0.055220 
#    y 0.000000 2.064670 0.000000 
#    z 0.055220 0.000000 2.148260 
# 
# From -- ./inp_files/1800.got.cif
#   From: 2010.05.17/outbox.cif.g08.bks.cpg/sg9_1_cif.got.tgz:1800.got - 2010.06.03 20:04:27.
