data_PCOD9138153
_publ_section_title
;
Structure prediction by ZEFSAII (Michael W. Deem and Ramdas Pophale) SiO2 
 PCOD9138153
Probable space group: C C
;
_chemical_formula_sum "Si O2"
_cell_formula_units_Z 24
_cell_length_a 11.722853
_cell_length_b 8.973678
_cell_length_c 25.644289
_cell_angle_alpha 90.000000
_cell_angle_beta 20.763090
_cell_angle_gamma 90.000000
_cell_volume 956.349044
_symmetry_space_group_name_H-M "C C"
_symmetry_group_IT_number 9
_symmetry_cell_setting 'monoclinic'
loop_
_space_group_symop_operation_xyz
x,y,z
x,-y,1/2+z
1/2+x,1/2+y,z
1/2+x,1/2-y,1/2+z
loop_
_atom_site_type_symbol
_atom_site_label
_atom_site_fract_x
_atom_site_fract_y
_atom_site_fract_z
Si Si1 0.991180 0.827485 0.976620
Si Si2 0.368770 0.640626 0.374607
Si Si3 0.383102 0.989916 0.012764
Si Si4 0.875663 0.771970 0.213208
Si Si5 0.378224 0.876842 0.177753
Si Si6 0.849974 0.648313 0.427615
O O1 0.923145 0.652882 0.018089
O O2 0.225038 0.822618 0.825585
O O3 0.158232 0.885745 0.957065
O O4 0.652424 0.899584 0.104572
O O5 0.590196 0.781658 0.292451
O O6 0.614678 0.504804 0.281133
O O7 0.180519 0.614816 0.402004
O O8 0.080956 0.637007 0.538704
O O9 0.374100 0.995069 0.954123
O O10 0.049058 0.908704 0.168590
O O11 0.166912 0.738343 0.047045
O O12 0.183909 0.725697 0.271399
#
# Coordination Sequence:
#
# PCOD9138153 Si02
#       6
#     4   4   4   4   4   4
#     4  11  23  45  67 104 147 182 244 301 351 431
#     4  11  22  43  69  99 142 184 241 294 358 429
#     4  10  24  39  76  98 141 185 238 294 360 427
#     4   9  24  40  64 107 133 186 247 287 357 430
#     4  11  24  40  72 103 137 196 236 294 364 427
#     4  10  23  39  68 105 136 185 238 290 364 422
#
# _framework density 25.095441999999998
#
# number of rings (size 3 to 8) (size 9 to 14) (size 15 to 20)
#    1.000    0.667    1.667    2.000    4.667    0.000 
#    0.000   10.000    0.000    0.000    0.000    0.000 
#    0.000    0.000    0.000    0.000    0.000    0.000 
#
# Total GULP energy -66947.674917 kJ/mol
# GULP energy per Si atom -5578.972910 kJ/mol
# Density = 2.503832 g / cm^3
# Si number density = 25.095442 Si / 1000 Ang^3
#
#
#
# Elastic Constant Matrix: (Units=GPa)
#
#
# Indices 1 2 3 4 5 6 
#
# 1 170.3939 3.1682 39.0516 -0.0016 -31.9997 0.0016
# 2 3.1682 21.2484 9.4211 -0.0029 -20.7774 -0.0020
# 3 39.0516 9.4211 154.2529 -0.0099 -3.5539 -0.0079
# 4 -0.0016 -0.0029 -0.0099 46.8555 -0.0017 -6.1085
# 5 -31.9997 -20.7774 -3.5539 -0.0017 42.4284 -0.0018
# 6 0.0016 -0.0020 -0.0079 -6.1085 -0.0018 33.2945
#
#
#
# Elastic Compliance Matrix: (Units=1/GPa)
#
#
# Indices 1 2 3 4 5 6 
#
# 1 0.008439 0.011302 -0.002558 0.000001 0.011685 0.000000
# 2 0.011302 0.108677 -0.008092 0.000009 0.061066 0.000009
# 3 -0.002558 -0.008092 0.007503 0.000001 -0.005263 0.000001
# 4 0.000001 0.000009 0.000001 0.021865 0.000006 0.004012
# 5 0.011685 0.061066 -0.005263 0.000006 0.061846 0.000006
# 6 0.000000 0.000009 0.000001 0.004012 0.000006 0.030771
#
#
# Mechanical properties :
#
#
# Convention : Reuss Voigt Hill
#
# Bulk Modulus (GPa) = 7.94124 49.90855 28.92489
# Shear Modulus (GPa) = 17.87170 44.13263 31.00217
#
# Velocity S-wave (km/s) = 2.67151 4.19811 3.51860
# Velocity P-wave (km/s) = 3.56191 6.59010 5.29701
#
# Compressibility (1/GPa) = 0.12592497
#
# Stress axis : x y z
#
# Youngs Moduli (GPa) = 118.49368 9.20155 133.27443
#
# Poissons Ratio (x) = -0.10400 0.34086
# Poissons Ratio (y) = -1.33922 1.07844
# Poissons Ratio (z) = 0.30306 0.07446
#
# Static dielectric constant tensor:
#      x y z
#    x 1.975010 0.000000 0.007920 
#    y 0.000000 2.128140 0.000000 
#    z 0.007920 0.000000 1.991530 
# 
# From -- ./inp_files/10590.got.cif
#   From: 2010.05.17/outbox.cif.g08.bks.cpg/sg9_6_cif.got.tgz:10590.got - 2010.06.03 20:04:27.
