data_PCOD9138947
_publ_section_title
;
Structure prediction by ZEFSAII (Michael W. Deem and Ramdas Pophale) SiO2 
 PCOD9138947
Probable space group: C C
;
_chemical_formula_sum "Si O2"
_cell_formula_units_Z 28
_cell_length_a 18.412478
_cell_length_b 6.882557
_cell_length_c 9.150320
_cell_angle_alpha 90.000000
_cell_angle_beta 79.411597
_cell_angle_gamma 90.000000
_cell_volume 1139.829087
_symmetry_space_group_name_H-M "C C"
_symmetry_group_IT_number 9
_symmetry_cell_setting 'monoclinic'
loop_
_space_group_symop_operation_xyz
x,y,z
x,-y,1/2+z
1/2+x,1/2+y,z
1/2+x,1/2-y,1/2+z
loop_
_atom_site_type_symbol
_atom_site_label
_atom_site_fract_x
_atom_site_fract_y
_atom_site_fract_z
Si Si1 0.733780 0.898603 0.067780
Si Si2 0.188894 0.037008 0.928681
Si Si3 0.335523 0.593937 0.785380
Si Si4 0.221806 0.806580 0.171175
Si Si5 0.452756 0.262818 0.696787
Si Si6 0.458437 0.123312 0.365985
Si Si7 0.072977 0.910803 0.189939
O O1 0.788263 0.815591 0.170860
O O2 0.699684 0.086031 0.162814
O O3 0.678266 0.740345 0.026609
O O4 0.781590 0.001060 0.925001
O O5 0.241902 0.901201 0.014755
O O6 0.114484 0.909354 0.018824
O O7 0.261018 0.120137 0.797940
O O8 0.384319 0.412901 0.705709
O O9 0.391357 0.744096 0.835189
O O10 0.146627 0.921427 0.270148
O O11 0.466258 0.159177 0.536114
O O12 0.519998 0.406644 0.714336
O O13 0.447657 0.097848 0.821573
O O14 0.528710 0.222251 0.257026
#
# Coordination Sequence:
#
# PCOD9138947 Si02
#       7
#     4   4   4   4   4   4   4
#     4  12  24  44  70  99 139 176 223 274 335 401
#     4  10  24  42  66  98 135 177 217 270 329 399
#     4  11  26  46  66  99 137 177 228 276 329 403
#     4  10  24  42  66  99 134 176 218 269 331 399
#     4  11  25  45  72  99 131 178 225 285 335 392
#     4  11  25  45  72  98 132 179 223 285 337 390
#     4   9  24  44  68  98 138 165 230 271 332 400
#
# _framework density 24.565087999999999
#
# number of rings (size 3 to 8) (size 9 to 14) (size 15 to 20)
#    0.857    0.571    2.857    0.857    6.000    4.571 
#    0.000    0.000    0.000    0.000    0.000    0.000 
#    0.000    0.000    0.000    0.000    0.000    0.000 
#
# Total GULP energy -77994.920385 kJ/mol
# GULP energy per Si atom -5571.065742 kJ/mol
# Density = 2.450918 g / cm^3
# Si number density = 24.565088 Si / 1000 Ang^3
#
#
#
# Elastic Constant Matrix: (Units=GPa)
#
#
# Indices 1 2 3 4 5 6 
#
# 1 66.1510 3.5196 25.6844 0.0000 0.5145 0.0000
# 2 3.5196 95.5450 17.7156 0.0000 10.2642 0.0000
# 3 25.6844 17.7156 86.5495 0.0000 18.1486 0.0000
# 4 0.0000 0.0000 0.0000 45.6482 0.0000 4.1836
# 5 0.5145 10.2642 18.1486 0.0000 39.3653 0.0000
# 6 0.0000 0.0000 0.0000 4.1836 0.0000 27.9377
#
#
#
# Elastic Compliance Matrix: (Units=1/GPa)
#
#
# Indices 1 2 3 4 5 6 
#
# 1 0.017285 0.000160 -0.005653 0.000000 0.002338 0.000000
# 2 0.000160 0.011025 -0.001883 0.000000 -0.002009 0.000000
# 3 -0.005653 -0.001883 0.014943 0.000000 -0.006324 0.000000
# 4 0.000000 0.000000 0.000000 0.022212 0.000000 -0.003326
# 5 0.002338 -0.002009 -0.006324 0.000000 0.028812 0.000000
# 6 0.000000 0.000000 0.000000 -0.003326 0.000000 0.036292
#
#
# Mechanical properties :
#
#
# Convention : Reuss Voigt Hill
#
# Bulk Modulus (GPa) = 35.08477 38.00941 36.54709
# Shear Modulus (GPa) = 32.29542 36.01196 34.15369
#
# Velocity S-wave (km/s) = 3.62980 3.83297 3.73276
# Velocity P-wave (km/s) = 5.64629 5.92414 5.78688
#
# Compressibility (1/GPa) = 0.02850239
#
# Stress axis : x y z
#
# Youngs Moduli (GPa) = 57.85379 90.70039 66.92036
#
# Poissons Ratio (x) = -0.01453 0.37827
# Poissons Ratio (y) = -0.00927 0.12602
# Poissons Ratio (z) = 0.32702 0.17079
#
# Static dielectric constant tensor:
#      x y z
#    x 2.180760 0.000000 0.035080 
#    y 0.000000 2.038760 0.000000 
#    z 0.035080 0.000000 1.999600 
# 
# From -- ./inp_files/12304.got.cif
#   From: 2010.05.17/outbox.cif.g08.bks.cpg/sg9_7_cif.got.tgz:12304.got - 2010.06.03 20:04:27.
