data_PCOD9138773
_publ_section_title
;
Structure prediction by ZEFSAII (Michael W. Deem and Ramdas Pophale) SiO2 
 PCOD9138773
Probable space group: C C
;
_chemical_formula_sum "Si O2"
_cell_formula_units_Z 28
_cell_length_a 10.675489
_cell_length_b 10.902815
_cell_length_c 16.938394
_cell_angle_alpha 90.000000
_cell_angle_beta 34.889169
_cell_angle_gamma 90.000000
_cell_volume 1127.684765
_symmetry_space_group_name_H-M "C C"
_symmetry_group_IT_number 9
_symmetry_cell_setting 'monoclinic'
loop_
_space_group_symop_operation_xyz
x,y,z
x,-y,1/2+z
1/2+x,1/2+y,z
1/2+x,1/2-y,1/2+z
loop_
_atom_site_type_symbol
_atom_site_label
_atom_site_fract_x
_atom_site_fract_y
_atom_site_fract_z
Si Si1 0.213430 0.219607 0.368210
Si Si2 0.997932 0.480888 0.196222
Si Si3 0.292928 0.526293 0.901301
Si Si4 0.067689 0.050774 0.126831
Si Si5 0.823697 0.265241 0.188273
Si Si6 0.778876 0.140401 0.678869
Si Si7 0.453164 0.883286 0.967585
O O1 0.310327 0.331322 0.369925
O O2 0.201808 0.265623 0.284678
O O3 0.973127 0.194986 0.525794
O O4 0.367525 0.101635 0.287433
O O5 0.840925 0.393309 0.225776
O O6 0.213674 0.510232 0.031394
O O7 0.084048 0.406983 0.226296
O O8 0.095377 0.468580 0.952133
O O9 0.498244 0.456154 0.755578
O O10 0.036478 0.185398 0.106871
O O11 0.892812 0.970731 0.167682
O O12 0.288426 0.973395 0.008463
O O13 0.615612 0.191580 0.327810
O O14 0.832618 0.290387 0.090449
#
# Coordination Sequence:
#
# PCOD9138773 Si02
#       7
#     4   4   4   4   4   4   4
#     4  11  24  49  71 109 152 195 250 307 373 450
#     4  11  25  46  77 109 150 191 254 310 372 450
#     4   9  22  46  69 106 142 200 245 300 381 432
#     4  10  24  45  73 106 149 193 245 306 372 445
#     4  10  25  46  73 110 140 195 247 303 371 437
#     4  11  27  44  77 110 146 198 249 302 387 438
#     4  10  23  46  76 102 149 190 246 304 364 438
#
# _framework density 24.829633000000001
#
# number of rings (size 3 to 8) (size 9 to 14) (size 15 to 20)
#    0.000    1.714    1.429    0.000    4.000   13.714 
#    0.000    0.000    0.000    0.000    0.000    0.000 
#    0.000    0.000    0.000    0.000    0.000    0.000 
#
# Total GULP energy -78471.512528 kJ/mol
# GULP energy per Si atom -5605.108038 kJ/mol
# Density = 2.477312 g / cm^3
# Si number density = 24.829633 Si / 1000 Ang^3
#
#
#
# Elastic Constant Matrix: (Units=GPa)
#
#
# Indices 1 2 3 4 5 6 
#
# 1 65.0361 9.2038 29.0765 -0.0010 19.4124 -0.0003
# 2 9.2038 88.8310 24.9271 -0.0027 14.0307 -0.0002
# 3 29.0765 24.9271 134.6647 -0.0067 30.1930 0.0001
# 4 -0.0010 -0.0027 -0.0067 42.6762 0.0004 -1.1485
# 5 19.4124 14.0307 30.1930 0.0004 19.5306 -0.0001
# 6 -0.0003 -0.0002 0.0001 -1.1485 -0.0001 37.3796
#
#
#
# Elastic Compliance Matrix: (Units=1/GPa)
#
#
# Indices 1 2 3 4 5 6 
#
# 1 0.022002 0.001317 0.000185 0.000001 -0.023102 0.000000
# 2 0.001317 0.012796 -0.000457 0.000001 -0.009796 0.000000
# 3 0.000185 -0.000457 0.011384 0.000002 -0.017455 0.000000
# 4 0.000001 0.000001 0.000002 0.023452 -0.000005 0.000721
# 5 -0.023102 -0.009796 -0.017455 -0.000005 0.108185 0.000000
# 6 0.000000 0.000000 0.000000 0.000721 0.000000 0.026775
#
#
# Mechanical properties :
#
#
# Convention : Reuss Voigt Hill
#
# Bulk Modulus (GPa) = 20.71516 46.10518 33.41017
# Shear Modulus (GPa) = 22.87347 34.93890 28.90619
#
# Velocity S-wave (km/s) = 3.03845 3.75526 3.41571
# Velocity P-wave (km/s) = 4.54649 6.11650 5.38898
#
# Compressibility (1/GPa) = 0.04827382
#
# Stress axis : x y z
#
# Youngs Moduli (GPa) = 45.44947 78.14772 87.84333
#
# Poissons Ratio (x) = -0.10294 -0.01625
# Poissons Ratio (y) = -0.05987 0.04012
# Poissons Ratio (z) = -0.00841 0.03569
#
# Static dielectric constant tensor:
#      x y z
#    x 1.953640 0.000000 0.003880 
#    y 0.000000 1.967780 0.000000 
#    z 0.003880 0.000000 2.013930 
# 
# From -- ./inp_files/16367.got.cif
#   From: 2010.05.17/outbox.cif.g08.bks.cpg/sg9_9_cif.got.tgz:16367.got - 2010.06.03 20:04:27.
