data_PCOD9138617
_publ_section_title
;
Structure prediction by ZEFSAII (Michael W. Deem and Ramdas Pophale) SiO2 
 PCOD9138617
Probable space group: C C
;
_chemical_formula_sum "Si O2"
_cell_formula_units_Z 20
_cell_length_a 10.784255
_cell_length_b 9.277063
_cell_length_c 14.663843
_cell_angle_alpha 90.000000
_cell_angle_beta 146.227690
_cell_angle_gamma 90.000000
_cell_volume 815.530870
_symmetry_space_group_name_H-M "C C"
_symmetry_group_IT_number 9
_symmetry_cell_setting 'monoclinic'
loop_
_space_group_symop_operation_xyz
x,y,z
x,-y,1/2+z
1/2+x,1/2+y,z
1/2+x,1/2-y,1/2+z
loop_
_atom_site_type_symbol
_atom_site_label
_atom_site_fract_x
_atom_site_fract_y
_atom_site_fract_z
Si Si1 0.366050 0.915352 0.217720
Si Si2 0.650601 0.291305 0.548430
Si Si3 0.042534 0.891875 0.286968
Si Si4 0.410967 0.096420 0.534760
Si Si5 0.492665 0.183251 0.985174
O O1 0.154996 0.049806 0.353001
O O2 0.444959 0.889344 0.162867
O O3 0.513280 0.865219 0.392607
O O4 0.304925 0.083796 0.185360
O O5 0.535948 0.359030 0.390531
O O6 0.485613 0.231193 0.522480
O O7 0.806955 0.160991 0.607820
O O8 0.232954 0.796843 0.353279
O O9 0.640545 0.321850 0.090710
O O10 0.547302 0.955314 0.581982
#
# Coordination Sequence:
#
# PCOD9138617 Si02
#       5
#     4   4   4   4   4
#     4  11  24  44  67 102 136 182 228 282 339 409
#     4  11  21  46  69  98 137 179 230 280 338 408
#     4   9  22  42  69  96 136 177 224 281 343 399
#     4   9  24  43  66 100 133 183 226 278 338 407
#     4  10  23  45  67  98 140 179 220 283 346 399
#
# _framework density 24.523900999999999
#
# number of rings (size 3 to 8) (size 9 to 14) (size 15 to 20)
#    1.200    0.800    0.000    2.400    0.000    6.400 
#   10.800    0.000    0.000    0.000    0.000    0.000 
#    0.000    0.000    0.000    0.000    0.000    0.000 
#
# Total GULP energy -55882.432186 kJ/mol
# GULP energy per Si atom -5588.243219 kJ/mol
# Density = 2.446808 g / cm^3
# Si number density = 24.523901 Si / 1000 Ang^3
#
#
#
# Elastic Constant Matrix: (Units=GPa)
#
#
# Indices 1 2 3 4 5 6 
#
# 1 117.4163 42.2474 27.4026 0.0005 -30.0987 0.0004
# 2 42.2474 74.5204 14.2011 0.0002 2.7226 0.0000
# 3 27.4026 14.2011 53.8118 0.0007 -11.3139 0.0009
# 4 0.0005 0.0002 0.0007 32.1849 0.0008 4.8990
# 5 -30.0987 2.7226 -11.3139 0.0008 30.4633 0.0009
# 6 0.0004 0.0000 0.0009 4.8990 0.0009 43.8213
#
#
#
# Elastic Compliance Matrix: (Units=1/GPa)
#
#
# Indices 1 2 3 4 5 6 
#
# 1 0.016826 -0.009660 -0.002541 0.000000 0.016545 0.000000
# 2 -0.009660 0.019911 -0.002946 0.000000 -0.012418 0.000000
# 3 -0.002541 -0.002946 0.021892 -0.000001 0.005883 0.000000
# 4 0.000000 0.000000 -0.000001 0.031608 -0.000001 -0.003534
# 5 0.016545 -0.012418 0.005883 -0.000001 0.052468 -0.000001
# 6 0.000000 0.000000 0.000000 -0.003534 -0.000001 0.023215
#
#
# Mechanical properties :
#
#
# Convention : Reuss Voigt Hill
#
# Bulk Modulus (GPa) = 35.29181 45.93896 40.61539
# Shear Modulus (GPa) = 24.31219 32.08704 28.19961
#
# Velocity S-wave (km/s) = 3.15201 3.62110 3.39467
# Velocity P-wave (km/s) = 5.26013 6.02131 5.65354
#
# Compressibility (1/GPa) = 0.02833519
#
# Stress axis : x y z
#
# Youngs Moduli (GPa) = 59.43064 50.22469 45.67953
#
# Poissons Ratio (x) = 0.48515 0.11606
# Poissons Ratio (y) = 0.57407 0.13459
# Poissons Ratio (z) = 0.15100 0.14798
#
# Static dielectric constant tensor:
#      x y z
#    x 1.956240 0.000000 0.035100 
#    y 0.000000 1.944310 0.000000 
#    z 0.035100 0.000000 1.985130 
# 
# From -- ./inp_files/14049.got.cif
#   From: 2010.05.17/outbox.cif.g08.bks.cpg/sg9_8_cif.got.tgz:14049.got - 2010.06.03 20:04:27.
