data_PCOD9138136
_publ_section_title
;
Structure prediction by ZEFSAII (Michael W. Deem and Ramdas Pophale) SiO2 
 PCOD9138136
Probable space group: C C
;
_chemical_formula_sum "Si O2"
_cell_formula_units_Z 28
_cell_length_a 12.392171
_cell_length_b 14.221293
_cell_length_c 10.130479
_cell_angle_alpha 90.000000
_cell_angle_beta 131.393401
_cell_angle_gamma 90.000000
_cell_volume 1339.325477
_symmetry_space_group_name_H-M "C C"
_symmetry_group_IT_number 9
_symmetry_cell_setting 'monoclinic'
loop_
_space_group_symop_operation_xyz
x,y,z
x,-y,1/2+z
1/2+x,1/2+y,z
1/2+x,1/2-y,1/2+z
loop_
_atom_site_type_symbol
_atom_site_label
_atom_site_fract_x
_atom_site_fract_y
_atom_site_fract_z
Si Si1 0.936350 0.346223 0.112230
Si Si2 0.004702 0.652832 0.354227
Si Si3 0.297348 0.464344 0.040400
Si Si4 0.444769 0.650081 0.879515
Si Si5 0.239720 0.681057 0.939589
Si Si6 0.771571 0.523660 0.043565
Si Si7 0.076775 0.005640 0.628038
O O1 0.897079 0.449899 0.121412
O O2 0.072327 0.308396 0.298379
O O3 0.975646 0.355977 0.988453
O O4 0.812790 0.273812 0.052855
O O5 0.015379 0.766335 0.353142
O O6 0.859803 0.614891 0.164997
O O7 0.148526 0.596241 0.423722
O O8 0.388509 0.431644 0.240215
O O9 0.417116 0.451071 0.020678
O O10 0.269259 0.576473 0.019297
O O11 0.303441 0.682968 0.842143
O O12 0.544488 0.606484 0.075799
O O13 0.669516 0.477818 0.072528
O O14 0.676120 0.529590 0.833874
#
# Coordination Sequence:
#
# PCOD9138136 Si02
#       7
#     4   4   4   4   4   4   4
#     4  11  23  40  69 101 136 177 243 286 350 417
#     4  11  24  40  72 105 137 182 241 291 347 426
#     4  11  22  41  68  99 140 173 237 296 353 398
#     4  10  23  39  73 100 137 180 244 279 348 429
#     4  10  23  38  66 105 130 183 233 294 337 428
#     4  12  24  43  70  99 143 184 237 293 353 422
#     4  11  25  43  68 101 141 189 229 289 352 422
#
# _framework density 20.906047000000001
#
# number of rings (size 3 to 8) (size 9 to 14) (size 15 to 20)
#    0.000    1.143    5.714    0.000    8.000    0.000 
#    0.000    0.000   22.000    0.000    0.000    0.000 
#    0.000    0.000    0.000    0.000    0.000    0.000 
#
# Total GULP energy -77939.100355 kJ/mol
# GULP energy per Si atom -5567.078597 kJ/mol
# Density = 2.085846 g / cm^3
# Si number density = 20.906047 Si / 1000 Ang^3
#
#
#
# Elastic Constant Matrix: (Units=GPa)
#
#
# Indices 1 2 3 4 5 6 
#
# 1 74.2763 13.4431 31.0135 0.0000 8.0263 0.0000
# 2 13.4431 89.4460 49.5943 0.0000 7.9950 0.0000
# 3 31.0135 49.5943 97.7191 0.0000 14.5618 0.0000
# 4 0.0000 0.0000 0.0000 9.6173 0.0000 0.6936
# 5 8.0263 7.9950 14.5618 0.0000 31.1143 0.0000
# 6 0.0000 0.0000 0.0000 0.6936 0.0000 40.0422
#
#
#
# Elastic Compliance Matrix: (Units=1/GPa)
#
#
# Indices 1 2 3 4 5 6 
#
# 1 0.015638 0.000576 -0.004980 0.000000 -0.001852 0.000000
# 2 0.000576 0.015582 -0.008033 0.000000 -0.000393 0.000000
# 3 -0.004980 -0.008033 0.016545 0.000000 -0.004395 0.000000
# 4 0.000000 0.000000 0.000000 0.104110 0.000000 -0.001803
# 5 -0.001852 -0.000393 -0.004395 0.000000 0.034775 0.000000
# 6 0.000000 0.000000 0.000000 -0.001803 0.000000 0.025005
#
#
# Mechanical properties :
#
#
# Convention : Reuss Voigt Hill
#
# Bulk Modulus (GPa) = 43.67981 49.94924 46.81453
# Shear Modulus (GPa) = 20.47846 27.31412 23.89629
#
# Velocity S-wave (km/s) = 3.13317 3.61850 3.38454
# Velocity P-wave (km/s) = 5.83333 6.43445 6.14125
#
# Compressibility (1/GPa) = 0.02289387
#
# Stress axis : x y z
#
# Youngs Moduli (GPa) = 63.94557 64.17581 60.43973
#
# Poissons Ratio (x) = -0.03698 0.30097
# Poissons Ratio (y) = -0.03685 0.48548
# Poissons Ratio (z) = 0.31843 0.51549
#
# Static dielectric constant tensor:
#      x y z
#    x 1.795500 0.000000 0.034140 
#    y 0.000000 1.826500 0.000000 
#    z 0.034140 0.000000 1.792910 
# 
# From -- ./inp_files/18356.got.cif
#   From: 2010.05.17/outbox.cif.g08.bks.cpg/sg9_10_cif.got.tgz:18356.got - 2010.06.03 20:04:27.
