data_PCOD9138395
_publ_section_title
;
Structure prediction by ZEFSAII (Michael W. Deem and Ramdas Pophale) SiO2 
 PCOD9138395
Probable space group: C C
;
_chemical_formula_sum "Si O2"
_cell_formula_units_Z 24
_cell_length_a 8.889004
_cell_length_b 23.821972
_cell_length_c 4.980626
_cell_angle_alpha 90.000000
_cell_angle_beta 73.040178
_cell_angle_gamma 90.000000
_cell_volume 1008.797623
_symmetry_space_group_name_H-M "C C"
_symmetry_group_IT_number 9
_symmetry_cell_setting 'monoclinic'
loop_
_space_group_symop_operation_xyz
x,y,z
x,-y,1/2+z
1/2+x,1/2+y,z
1/2+x,1/2-y,1/2+z
loop_
_atom_site_type_symbol
_atom_site_label
_atom_site_fract_x
_atom_site_fract_y
_atom_site_fract_z
Si Si1 0.418370 0.855159 0.977150
Si Si2 0.836338 0.102432 0.430063
Si Si3 0.353188 0.756108 0.332555
Si Si4 0.553456 0.034021 0.678372
Si Si5 0.117066 0.175453 0.338281
Si Si6 0.708806 0.837553 0.508577
O O1 0.236845 0.844293 0.003707
O O2 0.524944 0.847130 0.658000
O O3 0.461325 0.801554 0.130936
O O4 0.462164 0.912025 0.107584
O O5 0.740875 0.047134 0.561148
O O6 0.784736 0.114061 0.153797
O O7 0.019556 0.118317 0.328756
O O8 0.758420 0.147223 0.682308
O O9 0.224572 0.791660 0.565000
O O10 0.476773 0.720746 0.449464
O O11 0.276885 0.717310 0.132262
O O12 0.514414 0.982747 0.500351
#
# Coordination Sequence:
#
# PCOD9138395 Si02
#       6
#     4   4   4   4   4   4
#     4  11  26  40  72 104 141 194 240 302 349 429
#     4  10  24  46  71 104 138 187 238 301 356 425
#     4  11  25  42  64 107 151 201 227 281 350 449
#     4  11  25  50  78 102 134 188 253 315 369 416
#     4  11  27  41  68 105 155 193 232 281 353 442
#     4  10  23  43  67 100 149 187 234 278 357 437
#
# _framework density 23.790699
#
# number of rings (size 3 to 8) (size 9 to 14) (size 15 to 20)
#    0.000    1.333    1.667    2.000   18.667    0.000 
#    0.000    1.667    0.000    0.000    0.000    0.000 
#    0.000    0.000    0.000    0.000    0.000    0.000 
#
# Total GULP energy -66909.007207 kJ/mol
# GULP energy per Si atom -5575.750601 kJ/mol
# Density = 2.373655 g / cm^3
# Si number density = 23.790699 Si / 1000 Ang^3
#
#
#
# Elastic Constant Matrix: (Units=GPa)
#
#
# Indices 1 2 3 4 5 6 
#
# 1 126.5389 33.1270 31.6286 0.0000 14.7019 0.0000
# 2 33.1270 89.5926 16.1425 0.0000 8.0114 0.0000
# 3 31.6286 16.1425 63.8635 0.0000 -7.2460 0.0000
# 4 0.0000 0.0000 0.0000 43.1163 0.0000 1.1885
# 5 14.7019 8.0114 -7.2460 0.0000 26.5087 0.0000
# 6 0.0000 0.0000 0.0000 1.1885 0.0000 46.1369
#
#
#
# Elastic Compliance Matrix: (Units=1/GPa)
#
#
# Indices 1 2 3 4 5 6 
#
# 1 0.010657 -0.002363 -0.005439 0.000000 -0.006683 0.000000
# 2 -0.002363 0.012758 -0.002418 0.000000 -0.003206 0.000000
# 3 -0.005439 -0.002418 0.020009 0.000000 0.009217 0.000000
# 4 0.000000 0.000000 0.000000 0.023210 0.000000 -0.000598
# 5 -0.006683 -0.003206 0.009217 0.000000 0.044918 0.000000
# 6 0.000000 0.000000 0.000000 -0.000598 0.000000 0.021690
#
#
# Mechanical properties :
#
#
# Convention : Reuss Voigt Hill
#
# Bulk Modulus (GPa) = 43.50922 49.08792 46.29857
# Shear Modulus (GPa) = 30.98972 36.42551 33.70762
#
# Velocity S-wave (km/s) = 3.61307 3.91715 3.76818
# Velocity P-wave (km/s) = 5.97777 6.41380 6.19962
#
# Compressibility (1/GPa) = 0.02298363
#
# Stress axis : x y z
#
# Youngs Moduli (GPa) = 93.83234 78.38377 49.97722
#
# Poissons Ratio (x) = 0.18522 0.27183
# Poissons Ratio (y) = 0.22172 0.12086
# Poissons Ratio (z) = 0.51036 0.18955
#
# Static dielectric constant tensor:
#      x y z
#    x 1.973220 0.000000 -0.005880 
#    y 0.000000 1.988730 0.000000 
#    z -0.005880 0.000000 1.915850 
# 
# From -- ./inp_files/829.got.cif
#   From: 2010.05.17/outbox.cif.g08.bks.cpg/sg9_1_cif.got.tgz:829.got - 2010.06.03 20:04:27.
