data_PCOD9138396
_publ_section_title
;
Structure prediction by ZEFSAII (Michael W. Deem and Ramdas Pophale) SiO2 
 PCOD9138396
Probable space group: C C
;
_chemical_formula_sum "Si O2"
_cell_formula_units_Z 24
_cell_length_a 10.617013
_cell_length_b 9.598459
_cell_length_c 18.559105
_cell_angle_alpha 90.000000
_cell_angle_beta 28.917882
_cell_angle_gamma 90.000000
_cell_volume 914.549680
_symmetry_space_group_name_H-M "C C"
_symmetry_group_IT_number 9
_symmetry_cell_setting 'monoclinic'
loop_
_space_group_symop_operation_xyz
x,y,z
x,-y,1/2+z
1/2+x,1/2+y,z
1/2+x,1/2-y,1/2+z
loop_
_atom_site_type_symbol
_atom_site_label
_atom_site_fract_x
_atom_site_fract_y
_atom_site_fract_z
Si Si1 0.815320 0.125341 0.919900
Si Si2 0.664616 0.100864 0.601392
Si Si3 0.548063 0.453962 0.511459
Si Si4 0.694342 0.308519 0.853475
Si Si5 0.952168 0.044447 0.709239
Si Si6 0.156153 0.718407 0.366700
O O1 0.986229 0.218363 0.887608
O O2 0.016233 0.050573 0.762058
O O3 0.649563 0.220323 0.949117
O O4 0.644565 0.017855 0.050701
O O5 0.930694 0.180040 0.442045
O O6 0.444393 0.215064 0.719851
O O7 0.781475 0.027262 0.616126
O O8 0.746534 0.535820 0.357500
O O9 0.606246 0.484150 0.564653
O O10 0.536882 0.291791 0.497276
O O11 0.903243 0.206689 0.714393
O O12 0.694330 0.945701 0.841174
#
# Coordination Sequence:
#
# PCOD9138396 Si02
#       6
#     4   4   4   4   4   4
#     4   9  22  45  66 103 133 185 227 284 344 407
#     4   9  21  43  68  96 139 184 220 290 342 403
#     4   9  22  46  66  98 135 190 220 285 352 401
#     4   8  21  45  63  94 136 185 222 276 353 395
#     4  10  23  43  67 102 134 183 233 283 344 413
#     4  11  23  42  70 103 143 175 238 286 341 417
#
# _framework density 26.242425000000001
#
# number of rings (size 3 to 8) (size 9 to 14) (size 15 to 20)
#    2.000    0.667    0.000    0.000    2.333    5.333 
#    9.000    0.000    0.000    0.000    0.000    0.000 
#    0.000    0.000    0.000    0.000    0.000    0.000 
#
# Total GULP energy -66860.058883 kJ/mol
# GULP energy per Si atom -5571.671574 kJ/mol
# Density = 2.618270 g / cm^3
# Si number density = 26.242425 Si / 1000 Ang^3
#
#
#
# Elastic Constant Matrix: (Units=GPa)
#
#
# Indices 1 2 3 4 5 6 
#
# 1 58.0437 32.0055 16.4377 -0.0027 13.5824 0.0007
# 2 32.0055 96.9648 13.0901 -0.0027 9.9950 0.0013
# 3 16.4377 13.0901 48.6550 -0.0148 8.0964 0.0060
# 4 -0.0027 -0.0027 -0.0148 41.2820 0.0039 2.4080
# 5 13.5824 9.9950 8.0964 0.0039 42.6763 -0.0013
# 6 0.0007 0.0013 0.0060 2.4080 -0.0013 41.5084
#
#
#
# Elastic Compliance Matrix: (Units=1/GPa)
#
#
# Indices 1 2 3 4 5 6 
#
# 1 0.023499 -0.006524 -0.005363 0.000000 -0.004934 0.000000
# 2 -0.006524 0.012685 -0.001094 0.000000 -0.000687 0.000000
# 3 -0.005363 -0.001094 0.023060 0.000008 -0.002412 -0.000004
# 4 0.000000 0.000000 0.000008 0.024306 -0.000004 -0.001410
# 5 -0.004934 -0.000687 -0.002412 -0.000004 0.025621 0.000001
# 6 0.000000 0.000000 -0.000004 -0.001410 0.000001 0.024173
#
#
# Mechanical properties :
#
#
# Convention : Reuss Voigt Hill
#
# Bulk Modulus (GPa) = 30.04612 36.30334 33.17473
# Shear Modulus (GPa) = 29.34268 34.56870 31.95569
#
# Velocity S-wave (km/s) = 3.34749 3.63338 3.49336
# Velocity P-wave (km/s) = 5.13957 5.60944 5.37964
#
# Compressibility (1/GPa) = 0.03328217
#
# Stress axis : x y z
#
# Youngs Moduli (GPa) = 42.55528 78.83374 43.36431
#
# Poissons Ratio (x) = 0.51430 0.23255
# Poissons Ratio (y) = 0.27762 0.04746
# Poissons Ratio (z) = 0.22821 0.08628
#
# Static dielectric constant tensor:
#      x y z
#    x 1.971340 0.000000 0.021420 
#    y 0.000000 2.084800 0.000000 
#    z 0.021420 0.000000 2.247320 
# 
# From -- ./inp_files/33262.got.cif
#   From: 2010.05.17/outbox.cif.g08.bks.cpg/sg9_17_cif.got.tgz:33262.got - 2010.06.03 20:04:27.
