data_PCOD9138877
_publ_section_title
;
Structure prediction by ZEFSAII (Michael W. Deem and Ramdas Pophale) SiO2 
 PCOD9138877
Probable space group: C C
;
_chemical_formula_sum "Si O2"
_cell_formula_units_Z 20
_cell_length_a 21.860151
_cell_length_b 7.914658
_cell_length_c 5.541938
_cell_angle_alpha 90.000000
_cell_angle_beta 54.082046
_cell_angle_gamma 90.000000
_cell_volume 776.525593
_symmetry_space_group_name_H-M "C C"
_symmetry_group_IT_number 9
_symmetry_cell_setting 'monoclinic'
loop_
_space_group_symop_operation_xyz
x,y,z
x,-y,1/2+z
1/2+x,1/2+y,z
1/2+x,1/2-y,1/2+z
loop_
_atom_site_type_symbol
_atom_site_label
_atom_site_fract_x
_atom_site_fract_y
_atom_site_fract_z
Si Si1 0.638110 0.409465 0.141880
Si Si2 0.306518 0.115263 0.427704
Si Si3 0.379554 0.751208 0.363277
Si Si4 0.527871 0.108367 0.344442
Si Si5 0.757461 0.041391 0.199778
O O1 0.617109 0.476519 0.458020
O O2 0.599048 0.232277 0.184165
O O3 0.729631 0.402097 0.945564
O O4 0.277894 0.262111 0.673329
O O5 0.338743 0.929814 0.392705
O O6 0.380168 0.211843 0.148044
O O7 0.329502 0.581685 0.480258
O O8 0.456453 0.763074 0.042585
O O9 0.525353 0.994426 0.596980
O O10 0.717179 0.013216 0.037044
#
# Coordination Sequence:
#
# PCOD9138877 Si02
#       5
#     4   4   4   4   4
#     4  12  28  49  77 108 154 203 253 312 386 458
#     4  11  22  44  77 107 146 191 249 307 374 437
#     4  11  22  44  77 107 146 191 249 307 374 437
#     4  12  28  49  77 108 154 203 253 312 386 458
#     4  10  24  36  64 106 138 178 234 300 354 434
#
# _framework density 25.755751
#
# number of rings (size 3 to 8) (size 9 to 14) (size 15 to 20)
#    0.000    0.800    4.000    2.400    0.000    6.400 
#    0.000    0.000    0.000    0.000    0.000    0.000 
#    0.000    0.000    0.000    0.000    0.000    0.000 
#
# Total GULP energy -55729.131481 kJ/mol
# GULP energy per Si atom -5572.913148 kJ/mol
# Density = 2.569713 g / cm^3
# Si number density = 25.755751 Si / 1000 Ang^3
#
#
#
# Elastic Constant Matrix: (Units=GPa)
#
#
# Indices 1 2 3 4 5 6 
#
# 1 81.5983 42.9167 40.2433 0.0000 13.7866 0.0000
# 2 42.9167 109.2679 -0.3255 0.0000 7.6600 0.0000
# 3 40.2433 -0.3255 48.6075 0.0000 28.4815 0.0000
# 4 0.0000 0.0000 0.0000 42.9952 0.0000 5.5204
# 5 13.7866 7.6600 28.4815 0.0000 60.7222 0.0000
# 6 0.0000 0.0000 0.0000 5.5204 0.0000 44.2641
#
#
#
# Elastic Compliance Matrix: (Units=1/GPa)
#
#
# Indices 1 2 3 4 5 6 
#
# 1 0.036517 -0.015211 -0.036683 0.000000 0.010834 0.000000
# 2 -0.015211 0.015607 0.016311 0.000000 -0.006166 0.000000
# 3 -0.036683 0.016311 0.065335 0.000000 -0.024374 0.000000
# 4 0.000000 0.000000 0.000000 0.023637 0.000000 -0.002948
# 5 0.010834 -0.006166 -0.024374 0.000000 0.026219 0.000000
# 6 0.000000 0.000000 0.000000 -0.002948 0.000000 0.022959
#
#
# Mechanical properties :
#
#
# Convention : Reuss Voigt Hill
#
# Bulk Modulus (GPa) = 21.60180 45.01584 33.30882
# Shear Modulus (GPa) = 18.05892 40.03891 29.04891
#
# Velocity S-wave (km/s) = 2.65082 3.94707 3.36201
# Velocity P-wave (km/s) = 4.21598 6.18776 5.29447
#
# Compressibility (1/GPa) = 0.04629243
#
# Stress axis : x y z
#
# Youngs Moduli (GPa) = 27.38470 64.07328 15.30572
#
# Poissons Ratio (x) = 0.97464 0.56146
# Poissons Ratio (y) = 0.41656 -0.24965
# Poissons Ratio (z) = 1.00456 -1.04511
#
# Static dielectric constant tensor:
#      x y z
#    x 2.472740 0.000000 0.497200 
#    y 0.000000 2.025360 0.000000 
#    z 0.497200 0.000000 2.606190 
# 
# From -- ./inp_files/2838.got.cif
#   From: 2010.05.17/outbox.cif.g08.bks.cpg/sg9_2_cif.got.tgz:2838.got - 2010.06.03 20:04:27.
