data_PCOD9138203
_publ_section_title
;
Structure prediction by ZEFSAII (Michael W. Deem and Ramdas Pophale) SiO2 
 PCOD9138203
Probable space group: C C
;
_chemical_formula_sum "Si O2"
_cell_formula_units_Z 32
_cell_length_a 9.046593
_cell_length_b 17.991090
_cell_length_c 10.285527
_cell_angle_alpha 90.000000
_cell_angle_beta 54.489080
_cell_angle_gamma 90.000000
_cell_volume 1362.686826
_symmetry_space_group_name_H-M "C C"
_symmetry_group_IT_number 9
_symmetry_cell_setting 'monoclinic'
loop_
_space_group_symop_operation_xyz
x,y,z
x,-y,1/2+z
1/2+x,1/2+y,z
1/2+x,1/2-y,1/2+z
loop_
_atom_site_type_symbol
_atom_site_label
_atom_site_fract_x
_atom_site_fract_y
_atom_site_fract_z
Si Si1 0.740640 0.692684 0.941320
Si Si2 0.094206 0.283319 0.792756
Si Si3 0.633231 0.957451 0.776732
Si Si4 0.218883 0.955233 0.923744
Si Si5 0.155311 0.304215 0.227035
Si Si6 0.874480 0.070415 0.741815
Si Si7 0.199204 0.778926 0.975645
Si Si8 0.992447 0.929636 0.448893
O O1 0.728481 0.737643 0.812906
O O2 0.591398 0.627619 0.996654
O O3 0.948932 0.664950 0.834198
O O4 0.699122 0.748640 0.083886
O O5 0.134756 0.369421 0.796809
O O6 0.079094 0.259064 0.649423
O O7 0.892661 0.269488 0.946146
O O8 0.426693 0.975163 0.844608
O O9 0.799568 0.964425 0.590113
O O10 0.709383 0.012696 0.847592
O O11 0.200569 0.866131 0.936625
O O12 0.140041 0.005041 0.847630
O O13 0.056846 0.973188 0.107793
O O14 0.299920 0.371012 0.173315
O O15 0.166176 0.260915 0.357487
O O16 0.937725 0.109856 0.841787
#
# Coordination Sequence:
#
# PCOD9138203 Si02
#       8
#     4   4   4   4   4   4   4   4
#     4  12  25  41  65  97 133 170 215 269 325 383
#     4  11  22  41  66  93 127 169 215 262 316 381
#     4  10  23  41  64  93 125 165 215 266 318 380
#     4  10  23  41  64  93 125 165 215 266 318 380
#     4  12  25  41  65  97 133 170 215 269 325 383
#     4  11  24  43  65  92 130 172 215 264 322 386
#     4  11  22  41  66  93 127 169 215 262 316 381
#     4  11  24  43  65  92 130 172 215 264 322 386
#
# _framework density 23.483018000000001
#
# number of rings (size 3 to 8) (size 9 to 14) (size 15 to 20)
#    0.000    1.000    0.000    7.500    0.000    8.000 
#    0.000    0.000    0.000    0.000    0.000    0.000 
#    0.000    0.000    0.000    0.000    0.000    0.000 
#
# Total GULP energy -89141.649571 kJ/mol
# GULP energy per Si atom -5571.353098 kJ/mol
# Density = 2.342957 g / cm^3
# Si number density = 23.483018 Si / 1000 Ang^3
#
#
#
# Elastic Constant Matrix: (Units=GPa)
#
#
# Indices 1 2 3 4 5 6 
#
# 1 173.4062 61.9674 61.9239 0.0000 -25.6563 0.0000
# 2 61.9674 125.6985 17.4034 0.0000 2.3010 0.0000
# 3 61.9239 17.4034 74.3335 0.0000 -2.1390 0.0000
# 4 0.0000 0.0000 0.0000 19.2090 0.0000 -5.2265
# 5 -25.6563 2.3010 -2.1390 0.0000 55.3059 0.0000
# 6 0.0000 0.0000 0.0000 -5.2265 0.0000 40.1025
#
#
#
# Elastic Compliance Matrix: (Units=1/GPa)
#
#
# Indices 1 2 3 4 5 6 
#
# 1 0.010870 -0.004356 -0.007894 0.000000 0.004919 0.000000
# 2 -0.004356 0.009977 0.001224 0.000000 -0.002388 0.000000
# 3 -0.007894 0.001224 0.019658 0.000000 -0.002953 0.000000
# 4 0.000000 0.000000 0.000000 0.053973 0.000000 0.007034
# 5 0.004919 -0.002388 -0.002953 0.000000 0.020348 0.000000
# 6 0.000000 0.000000 0.000000 0.007034 0.000000 0.025853
#
#
# Mechanical properties :
#
#
# Convention : Reuss Voigt Hill
#
# Bulk Modulus (GPa) = 54.19161 72.89197 63.54179
# Shear Modulus (GPa) = 29.60660 38.39972 34.00316
#
# Velocity S-wave (km/s) = 3.55458 4.04816 3.80937
# Velocity P-wave (km/s) = 6.32248 7.27721 6.81658
#
# Compressibility (1/GPa) = 0.01845304
#
# Stress axis : x y z
#
# Youngs Moduli (GPa) = 91.99535 100.22883 50.87110
#
# Poissons Ratio (x) = 0.43658 0.40158
# Poissons Ratio (y) = 0.40072 -0.06227
# Poissons Ratio (z) = 0.72622 -0.12268
#
# Static dielectric constant tensor:
#      x y z
#    x 1.921910 0.000000 0.038140 
#    y 0.000000 2.006960 0.000000 
#    z 0.038140 0.000000 1.960680 
# 
# From -- ./inp_files/15158.got.cif
#   From: 2010.05.17/outbox.cif.g08.bks.cpg/sg9_8_cif.got.tgz:15158.got - 2010.06.03 20:04:27.
