data_PCOD9138620
_publ_section_title
;
Structure prediction by ZEFSAII (Michael W. Deem and Ramdas Pophale) SiO2 
 PCOD9138620
Probable space group: C C
;
_chemical_formula_sum "Si O2"
_cell_formula_units_Z 32
_cell_length_a 19.992571
_cell_length_b 7.958157
_cell_length_c 11.239162
_cell_angle_alpha 90.000000
_cell_angle_beta 129.286180
_cell_angle_gamma 90.000000
_cell_volume 1384.050996
_symmetry_space_group_name_H-M "C C"
_symmetry_group_IT_number 9
_symmetry_cell_setting 'monoclinic'
loop_
_space_group_symop_operation_xyz
x,y,z
x,-y,1/2+z
1/2+x,1/2+y,z
1/2+x,1/2-y,1/2+z
loop_
_atom_site_type_symbol
_atom_site_label
_atom_site_fract_x
_atom_site_fract_y
_atom_site_fract_z
Si Si1 0.267350 0.399688 0.682170
Si Si2 0.097105 0.812781 0.567446
Si Si3 0.721986 0.468576 0.088539
Si Si4 0.942548 0.000599 0.310942
Si Si5 0.218215 0.428238 0.873713
Si Si6 0.360177 0.173112 0.110828
Si Si7 0.561215 0.689413 0.290397
Si Si8 0.045882 0.436624 0.798222
O O1 0.232539 0.212948 0.656393
O O2 0.370850 0.395244 0.797727
O O3 0.234258 0.502617 0.759997
O O4 0.241266 0.464857 0.519948
O O5 0.078261 0.749676 0.676555
O O6 0.071185 0.680412 0.437979
O O7 0.030407 0.969788 0.480286
O O8 0.190316 0.888859 0.643444
O O9 0.808554 0.528908 0.122119
O O10 0.641082 0.434712 0.908817
O O11 0.898212 0.820580 0.238092
O O12 0.974331 0.087833 0.224644
O O13 0.117764 0.388575 0.781043
O O14 0.284997 0.272334 0.956306
O O15 0.446895 0.099555 0.149068
O O16 0.555287 0.868957 0.349368
#
# Coordination Sequence:
#
# PCOD9138620 Si02
#       8
#     4   4   4   4   4   4   4   4
#     4  11  25  45  73 105 143 191 239 298 363 436
#     4  10  24  43  70 101 142 184 233 303 361 424
#     4  11  23  43  67 108 139 185 244 292 362 432
#     4   9  23  45  67 100 140 180 237 288 361 423
#     4  11  25  46  72 106 144 192 238 305 363 429
#     4  10  23  45  68 102 144 184 237 300 357 430
#     4  11  24  43  72 102 142 188 238 298 357 431
#     4  11  23  46  69 100 142 192 240 288 366 429
#
# _framework density 23.120535
#
# number of rings (size 3 to 8) (size 9 to 14) (size 15 to 20)
#    0.000    1.500    2.500    0.750    7.000    0.000 
#    9.000    0.000    0.000    0.000    0.000    0.000 
#    0.000    0.000    0.000    0.000    0.000    0.000 
#
# Total GULP energy -89278.293718 kJ/mol
# GULP energy per Si atom -5579.893357 kJ/mol
# Density = 2.306791 g / cm^3
# Si number density = 23.120535 Si / 1000 Ang^3
#
#
#
# Elastic Constant Matrix: (Units=GPa)
#
#
# Indices 1 2 3 4 5 6 
#
# 1 183.9346 32.7940 58.9203 0.0000 14.4524 0.0000
# 2 32.7940 85.9281 22.1868 0.0000 -2.1949 0.0000
# 3 58.9203 22.1868 47.2639 0.0000 -7.1270 0.0000
# 4 0.0000 0.0000 0.0000 30.2284 0.0000 9.2204
# 5 14.4524 -2.1949 -7.1270 0.0000 48.2580 0.0000
# 6 0.0000 0.0000 0.0000 9.2204 0.0000 37.4333
#
#
#
# Elastic Compliance Matrix: (Units=1/GPa)
#
#
# Indices 1 2 3 4 5 6 
#
# 1 0.010135 -0.000613 -0.013101 0.000000 -0.004998 0.000000
# 2 -0.000613 0.013285 -0.005475 0.000000 -0.000021 0.000000
# 3 -0.013101 -0.005475 0.041539 0.000000 0.009809 0.000000
# 4 0.000000 0.000000 0.000000 0.035769 0.000000 -0.008810
# 5 -0.004998 -0.000021 0.009809 0.000000 0.023666 0.000000
# 6 0.000000 0.000000 0.000000 -0.008810 0.000000 0.028884
#
#
# Mechanical properties :
#
#
# Convention : Reuss Voigt Hill
#
# Bulk Modulus (GPa) = 37.62076 60.54764 49.08420
# Shear Modulus (GPa) = 24.93556 36.73232 30.83394
#
# Velocity S-wave (km/s) = 3.28762 3.99021 3.65583
# Velocity P-wave (km/s) = 5.54240 6.89012 6.25268
#
# Compressibility (1/GPa) = 0.02658107
#
# Stress axis : x y z
#
# Youngs Moduli (GPa) = 98.66449 75.27421 24.07386
#
# Poissons Ratio (x) = 0.04615 0.31539
# Poissons Ratio (y) = 0.06049 0.13180
# Poissons Ratio (z) = 1.29259 0.41213
#
# Static dielectric constant tensor:
#      x y z
#    x 1.902800 0.000000 -0.003630 
#    y 0.000000 1.927990 0.000000 
#    z -0.003630 0.000000 1.950650 
# 
# From -- ./inp_files/19152.got.cif
#   From: 2010.05.17/outbox.cif.g08.bks.cpg/sg9_10_cif.got.tgz:19152.got - 2010.06.03 20:04:27.
