data_PCOD9138032
_publ_section_title
;
Structure prediction by ZEFSAII (Michael W. Deem and Ramdas Pophale) SiO2 
 PCOD9138032
Probable space group: C C
;
_chemical_formula_sum "Si O2"
_cell_formula_units_Z 28
_cell_length_a 15.678421
_cell_length_b 6.311219
_cell_length_c 20.105539
_cell_angle_alpha 90.000000
_cell_angle_beta 37.456688
_cell_angle_gamma 90.000000
_cell_volume 1209.902120
_symmetry_space_group_name_H-M "C C"
_symmetry_group_IT_number 9
_symmetry_cell_setting 'monoclinic'
loop_
_space_group_symop_operation_xyz
x,y,z
x,-y,1/2+z
1/2+x,1/2+y,z
1/2+x,1/2-y,1/2+z
loop_
_atom_site_type_symbol
_atom_site_label
_atom_site_fract_x
_atom_site_fract_y
_atom_site_fract_z
Si Si1 0.678360 0.629695 0.178740
Si Si2 0.188150 0.093948 0.421904
Si Si3 0.401045 0.521500 0.804410
Si Si4 0.088085 0.496115 0.830137
Si Si5 0.981183 0.547022 0.039689
Si Si6 0.293529 0.827787 0.471832
Si Si7 0.821879 0.283228 0.232932
O O1 0.562401 0.460602 0.227101
O O2 0.824201 0.540311 0.111303
O O3 0.635693 0.787517 0.264433
O O4 0.718390 0.746948 0.085332
O O5 0.311537 0.268196 0.351763
O O6 0.041365 0.218716 0.514201
O O7 0.195229 0.952876 0.482691
O O8 0.228191 0.954625 0.332546
O O9 0.343467 0.374721 0.899651
O O10 0.379546 0.385352 0.750857
O O11 0.217105 0.330236 0.744323
O O12 0.924859 0.509825 0.906503
O O13 0.073829 0.482380 0.919165
O O14 0.959426 0.399379 0.116802
#
# Coordination Sequence:
#
# PCOD9138032 Si02
#       7
#     4   4   4   4   4   4   4
#     4  10  23  43  70  95 136 178 229 283 347 403
#     4  11  24  44  67  99 142 176 235 287 344 419
#     4  10  23  44  67  94 139 176 228 291 336 421
#     4  10  22  47  63 101 140 174 231 287 333 421
#     4  11  24  42  68 102 130 185 228 275 360 395
#     4   9  23  44  68 101 132 182 229 280 357 405
#     4  11  25  42  69 100 137 183 230 283 353 410
#
# _framework density 23.142368999999999
#
# number of rings (size 3 to 8) (size 9 to 14) (size 15 to 20)
#    0.000    1.714    1.429    0.857    6.000    1.143 
#    5.143    0.000    0.000    0.000    0.000    0.000 
#    0.000    0.000    0.000    0.000    0.000    0.000 
#
# Total GULP energy -78031.965842 kJ/mol
# GULP energy per Si atom -5573.711846 kJ/mol
# Density = 2.308970 g / cm^3
# Si number density = 23.142369 Si / 1000 Ang^3
#
#
#
# Elastic Constant Matrix: (Units=GPa)
#
#
# Indices 1 2 3 4 5 6 
#
# 1 86.4107 32.6604 16.4030 0.0000 -17.8654 0.0000
# 2 32.6604 63.3833 15.3657 -0.0002 -0.8290 0.0001
# 3 16.4030 15.3657 81.9525 0.0000 9.3613 0.0000
# 4 0.0000 -0.0002 0.0000 1.0164 0.0001 -18.7932
# 5 -17.8654 -0.8290 9.3613 0.0001 45.0647 -0.0001
# 6 0.0000 0.0001 0.0000 -18.7932 -0.0001 38.5322
#
#
#
# Elastic Compliance Matrix: (Units=1/GPa)
#
#
# Indices 1 2 3 4 5 6 
#
# 1 0.016425 -0.007736 -0.002627 0.000000 0.006915 0.000000
# 2 -0.007736 0.020214 -0.001981 0.000000 -0.002284 0.000000
# 3 -0.002627 -0.001981 0.013544 0.000000 -0.003891 0.000000
# 4 0.000000 0.000000 0.000000 -0.122706 0.000000 -0.059847
# 5 0.006915 -0.002284 -0.003891 0.000000 0.025698 0.000000
# 6 0.000000 0.000000 0.000000 -0.059847 0.000000 -0.003237
#
#
# Mechanical properties :
#
#
# Convention : Reuss Voigt Hill
#
# Bulk Modulus (GPa) = 39.22355 40.06719 39.64537
# Shear Modulus (GPa) = -296.27459 28.07715 -134.09872
#
# Velocity S-wave (km/s) = -11.32698 3.48693 -7.62043
# Velocity P-wave (km/s) = 12.41297 5.79332 7.76271
#
# Compressibility (1/GPa) = 0.02549489
#
# Stress axis : x y z
#
# Youngs Moduli (GPa) = 60.88281 49.47139 73.83441
#
# Poissons Ratio (x) = 0.38272 0.19395
# Poissons Ratio (y) = 0.47101 0.14624
# Poissons Ratio (z) = 0.15993 0.09799
#
# Static dielectric constant tensor:
#      x y z
#    x 1.908540 0.000000 0.013920 
#    y 0.000000 1.897350 0.000000 
#    z 0.013920 0.000000 1.986190 
# 
# From -- ./inp_files/18827.got.cif
#   From: 2010.05.17/outbox.cif.g08.bks.cpg/sg9_10_cif.got.tgz:18827.got - 2010.06.03 20:04:27.
