data_PCOD9138815
_publ_section_title
;
Structure prediction by ZEFSAII (Michael W. Deem and Ramdas Pophale) SiO2 
 PCOD9138815
Probable space group: C C
;
_chemical_formula_sum "Si O2"
_cell_formula_units_Z 32
_cell_length_a 7.624098
_cell_length_b 14.787167
_cell_length_c 11.905599
_cell_angle_alpha 90.000000
_cell_angle_beta 108.014687
_cell_angle_gamma 90.000000
_cell_volume 1276.423632
_symmetry_space_group_name_H-M "C C"
_symmetry_group_IT_number 9
_symmetry_cell_setting 'monoclinic'
loop_
_space_group_symop_operation_xyz
x,y,z
x,-y,1/2+z
1/2+x,1/2+y,z
1/2+x,1/2-y,1/2+z
loop_
_atom_site_type_symbol
_atom_site_label
_atom_site_fract_x
_atom_site_fract_y
_atom_site_fract_z
Si Si1 0.840860 0.425067 0.162150
Si Si2 0.989938 0.679982 0.900879
Si Si3 0.090757 0.149866 0.431248
Si Si4 0.157439 0.891117 0.685171
Si Si5 0.402775 0.677910 0.932742
Si Si6 0.299145 0.486269 0.954694
Si Si7 0.626798 0.936663 0.623059
Si Si8 0.565605 0.169467 0.310287
O O1 0.700007 0.502588 0.176158
O O2 0.892458 0.359023 0.274369
O O3 0.017621 0.483669 0.160891
O O4 0.773379 0.365695 0.044291
O O5 0.925638 0.776290 0.930753
O O6 0.199837 0.722364 0.919878
O O7 0.002356 0.606452 0.999154
O O8 0.099863 0.129343 0.300474
O O9 0.981844 0.062266 0.456806
O O10 0.360899 0.847435 0.719048
O O11 0.029511 0.843775 0.565734
O O12 0.314886 0.579393 0.885357
O O13 0.523239 0.737721 0.870620
O O14 0.129169 0.417007 0.899056
O O15 0.287403 0.519042 0.081227
O O16 0.677960 0.855069 0.717183
#
# Coordination Sequence:
#
# PCOD9138815 Si02
#       8
#     4   4   4   4   4   4   4   4
#     4  11  24  50  77 102 154 213 258 324 402 484
#     4  11  26  45  74 112 155 198 259 340 391 474
#     4  12  26  44  73 114 151 207 258 331 399 475
#     4  11  24  47  77 109 153 204 273 319 400 497
#     4  11  24  50  75 115 156 200 270 334 393 478
#     4  11  26  47  73 114 160 205 263 330 402 476
#     4  10  23  47  75 108 146 211 260 316 408 477
#     4  11  25  48  80 110 159 212 265 332 411 485
#
# _framework density 25.070046000000001
#
# number of rings (size 3 to 8) (size 9 to 14) (size 15 to 20)
#    0.000    1.000    2.500    4.500    5.250    2.000 
#   11.250    0.000    0.000    0.000    0.000    0.000 
#    0.000    0.000    0.000    0.000    0.000    0.000 
#
# Total GULP energy -89194.783986 kJ/mol
# GULP energy per Si atom -5574.673999 kJ/mol
# Density = 2.501299 g / cm^3
# Si number density = 25.070046 Si / 1000 Ang^3
#
#
#
# Elastic Constant Matrix: (Units=GPa)
#
#
# Indices 1 2 3 4 5 6 
#
# 1 53.3594 6.4194 50.1003 0.0000 -4.1371 0.0000
# 2 6.4194 127.0971 71.0425 0.0000 -2.6524 0.0000
# 3 50.1003 71.0425 172.4692 0.0000 15.4823 0.0000
# 4 0.0000 0.0000 0.0000 55.3808 0.0000 -7.4451
# 5 -4.1371 -2.6524 15.4823 0.0000 35.6052 0.0000
# 6 0.0000 0.0000 0.0000 -7.4451 0.0000 16.4904
#
#
#
# Elastic Compliance Matrix: (Units=1/GPa)
#
#
# Indices 1 2 3 4 5 6 
#
# 1 0.029607 0.005117 -0.011500 0.000000 0.008822 0.000000
# 2 0.005117 0.011361 -0.006551 0.000000 0.004290 0.000000
# 3 -0.011500 -0.006551 0.012489 0.000000 -0.007255 0.000000
# 4 0.000000 0.000000 0.000000 0.019224 0.000000 0.008679
# 5 0.008822 0.004290 -0.007255 0.000000 0.032585 0.000000
# 6 0.000000 0.000000 0.000000 0.008679 0.000000 0.064560
#
#
# Mechanical properties :
#
#
# Convention : Reuss Voigt Hill
#
# Bulk Modulus (GPa) = 36.24819 67.56112 51.90466
# Shear Modulus (GPa) = 24.40339 36.51950 30.46145
#
# Velocity S-wave (km/s) = 3.12333 3.82081 3.48954
# Velocity P-wave (km/s) = 5.24377 6.81706 6.08150
#
# Compressibility (1/GPa) = 0.02758758
#
# Stress axis : x y z
#
# Youngs Moduli (GPa) = 33.77582 88.02082 80.07322
#
# Poissons Ratio (x) = -0.45039 0.92085
# Poissons Ratio (y) = -0.17283 0.52458
# Poissons Ratio (z) = 0.38843 0.57664
#
# Static dielectric constant tensor:
#      x y z
#    x 2.227930 0.000000 0.069480 
#    y 0.000000 2.178680 0.000000 
#    z 0.069480 0.000000 2.011660 
# 
# From -- ./inp_files/14672.got.cif
#   From: 2010.05.17/outbox.cif.g08.bks.cpg/sg9_8_cif.got.tgz:14672.got - 2010.06.03 20:04:27.
