data_PCOD9138780
_publ_section_title
;
Structure prediction by ZEFSAII (Michael W. Deem and Ramdas Pophale) SiO2 
 PCOD9138780
Probable space group: C C
;
_chemical_formula_sum "Si O2"
_cell_formula_units_Z 28
_cell_length_a 18.479662
_cell_length_b 9.197872
_cell_length_c 13.390696
_cell_angle_alpha 90.000000
_cell_angle_beta 27.219871
_cell_angle_gamma 90.000000
_cell_volume 1041.086312
_symmetry_space_group_name_H-M "C C"
_symmetry_group_IT_number 9
_symmetry_cell_setting 'monoclinic'
loop_
_space_group_symop_operation_xyz
x,y,z
x,-y,1/2+z
1/2+x,1/2+y,z
1/2+x,1/2-y,1/2+z
loop_
_atom_site_type_symbol
_atom_site_label
_atom_site_fract_x
_atom_site_fract_y
_atom_site_fract_z
Si Si1 0.841160 0.527286 0.372950
Si Si2 0.866096 0.822855 0.224966
Si Si3 0.687799 0.322855 0.419300
Si Si4 0.373967 0.436171 0.888149
Si Si5 0.179928 0.063828 0.256117
Si Si6 0.026947 0.570940 0.822133
Si Si7 0.712735 0.972714 0.771316
O O1 0.833781 0.667934 0.313327
O O2 0.824107 0.388725 0.322278
O O3 0.696317 0.512311 0.628392
O O4 0.987532 0.521458 0.270528
O O5 0.853769 0.640547 0.051501
O O6 0.729787 0.888725 0.321989
O O7 0.880817 0.935715 0.298756
O O8 0.700125 0.140547 0.592766
O O9 0.673078 0.435715 0.345510
O O10 0.720114 0.167935 0.330937
O O11 0.522659 0.335255 0.683033
O O12 0.357577 0.512310 0.015874
O O13 0.031235 0.164745 0.461233
O O14 0.066363 0.478543 0.873739
#
# Coordination Sequence:
#
# PCOD9138780 Si02
#       7
#     4   4   4   4   4   4   4
#     4  10  23  46  78 117 156 216 264 347 393 507
#     4  11  22  44  81 116 159 213 280 318 427 482
#     4  11  22  44  81 116 159 213 280 318 427 482
#     4   9  22  44  74 114 158 211 261 344 394 491
#     4   9  22  44  74 114 158 211 261 344 394 491
#     4   8  22  44  72 112 164 204 262 336 420 458
#     4  10  23  46  78 117 156 216 264 347 393 507
#
# _framework density 26.894985999999999
#
# number of rings (size 3 to 8) (size 9 to 14) (size 15 to 20)
#    1.714    0.571    0.000    1.714    0.000    5.714 
#    0.000    4.286    6.286    1.714    0.000    0.000 
#    0.000    0.000    0.000    0.000    0.000    0.000 
#
# Total GULP energy -78352.061650 kJ/mol
# GULP energy per Si atom -5596.575832 kJ/mol
# Density = 2.683377 g / cm^3
# Si number density = 26.894986 Si / 1000 Ang^3
#
#
#
# Elastic Constant Matrix: (Units=GPa)
#
#
# Indices 1 2 3 4 5 6 
#
# 1 184.3344 95.3631 67.0417 0.0000 14.8430 0.0000
# 2 95.3631 156.5406 64.8390 0.0000 7.0375 0.0000
# 3 67.0417 64.8390 234.5916 0.0000 6.4463 0.0000
# 4 0.0000 0.0000 0.0000 46.0435 0.0000 9.7452
# 5 14.8430 7.0375 6.4463 0.0000 46.9028 0.0000
# 6 0.0000 0.0000 0.0000 9.7452 0.0000 43.2698
#
#
#
# Elastic Compliance Matrix: (Units=1/GPa)
#
#
# Indices 1 2 3 4 5 6 
#
# 1 0.008306 -0.004535 -0.001071 0.000000 -0.001801 0.000000
# 2 -0.004535 0.009721 -0.001395 0.000000 0.000168 0.000000
# 3 -0.001071 -0.001395 0.004958 0.000000 -0.000133 0.000000
# 4 0.000000 0.000000 0.000000 0.022806 0.000000 -0.005136
# 5 -0.001801 0.000168 -0.000133 0.000000 0.021884 0.000000
# 6 0.000000 0.000000 0.000000 -0.005136 0.000000 0.024268
#
#
# Mechanical properties :
#
#
# Convention : Reuss Voigt Hill
#
# Bulk Modulus (GPa) = 111.32895 114.43935 112.88415
# Shear Modulus (GPa) = 45.89742 50.45808 48.17775
#
# Velocity S-wave (km/s) = 4.13551 4.33611 4.23700
# Velocity P-wave (km/s) = 8.01792 8.22873 8.12401
#
# Compressibility (1/GPa) = 0.00898239
#
# Stress axis : x y z
#
# Youngs Moduli (GPa) = 120.40128 102.86589 201.69322
#
# Poissons Ratio (x) = 0.46653 0.21593
# Poissons Ratio (y) = 0.54605 0.28145
# Poissons Ratio (z) = 0.12890 0.14354
#
# Static dielectric constant tensor:
#      x y z
#    x 2.143540 0.000000 -0.001240 
#    y 0.000000 2.017240 0.000000 
#    z -0.001240 0.000000 2.142810 
# 
# From -- ./inp_files/17865.got.cif
#   From: 2010.05.17/outbox.cif.g08.bks.cpg/sg9_9_cif.got.tgz:17865.got - 2010.06.03 20:04:27.
