data_PCOD9138383
_publ_section_title
;
Structure prediction by ZEFSAII (Michael W. Deem and Ramdas Pophale) SiO2 
 PCOD9138383
Probable space group: C C
;
_chemical_formula_sum "Si O2"
_cell_formula_units_Z 32
_cell_length_a 5.582937
_cell_length_b 15.946910
_cell_length_c 15.818194
_cell_angle_alpha 90.000000
_cell_angle_beta 111.541769
_cell_angle_gamma 90.000000
_cell_volume 1309.933423
_symmetry_space_group_name_H-M "C C"
_symmetry_group_IT_number 9
_symmetry_cell_setting 'monoclinic'
loop_
_space_group_symop_operation_xyz
x,y,z
x,-y,1/2+z
1/2+x,1/2+y,z
1/2+x,1/2-y,1/2+z
loop_
_atom_site_type_symbol
_atom_site_label
_atom_site_fract_x
_atom_site_fract_y
_atom_site_fract_z
Si Si1 0.238710 0.696026 0.044670
Si Si2 0.277971 0.684196 0.793336
Si Si3 0.172502 0.928582 0.608524
Si Si4 0.257649 0.095195 0.932709
Si Si5 0.353474 0.170546 0.426485
Si Si6 0.937335 0.464378 0.279158
Si Si7 0.551933 0.225289 0.199360
Si Si8 0.797323 0.887484 0.871062
O O1 0.385353 0.607617 0.073200
O O2 0.198885 0.735560 0.131074
O O3 0.386326 0.761115 0.004492
O O4 0.965684 0.670784 0.968180
O O5 0.483132 0.636213 0.878662
O O6 0.261797 0.776163 0.832009
O O7 0.027811 0.627577 0.763891
O O8 0.403961 0.695375 0.718012
O O9 0.246494 0.949830 0.521887
O O10 0.344240 0.847471 0.653680
O O11 0.238487 0.997157 0.686727
O O12 0.330947 0.042105 0.860190
O O13 0.621092 0.128709 0.431613
O O14 0.104140 0.116001 0.420477
O O15 0.182196 0.527602 0.315488
O O16 0.725820 0.186851 0.296351
#
# Coordination Sequence:
#
# PCOD9138383 Si02
#       8
#     4   4   4   4   4   4   4   4
#     4  11  21  40  71 100 139 188 240 307 364 434
#     4  11  23  43  72 103 137 189 249 293 365 439
#     4  10  23  43  66 103 143 189 242 299 371 446
#     4  11  22  43  71  98 142 197 242 292 379 440
#     4  11  22  43  71  98 135 183 248 292 352 433
#     4  11  25  43  71 102 147 196 234 306 371 446
#     4   9  23  37  67  98 133 177 242 298 356 426
#     4  10  25  42  67 102 134 187 237 295 360 432
#
# _framework density 24.428722
#
# number of rings (size 3 to 8) (size 9 to 14) (size 15 to 20)
#    0.000    1.500    2.500    1.500    8.750    2.000 
#    2.250    1.250    0.000    0.000    0.000    0.000 
#    0.000    0.000    0.000    0.000    0.000    0.000 
#
# Total GULP energy -89575.041358 kJ/mol
# GULP energy per Si atom -5598.440085 kJ/mol
# Density = 2.437312 g / cm^3
# Si number density = 24.428722 Si / 1000 Ang^3
#
#
#
# Elastic Constant Matrix: (Units=GPa)
#
#
# Indices 1 2 3 4 5 6 
#
# 1 111.8476 27.8343 48.3799 0.0000 -15.7289 0.0000
# 2 27.8343 62.1215 35.9696 0.0000 -8.3325 0.0000
# 3 48.3799 35.9696 136.4415 0.0000 -34.6599 0.0000
# 4 0.0000 0.0000 0.0000 47.1078 0.0000 -5.3805
# 5 -15.7289 -8.3325 -34.6599 0.0000 51.6635 0.0000
# 6 0.0000 0.0000 0.0000 -5.3805 0.0000 35.4533
#
#
#
# Elastic Compliance Matrix: (Units=1/GPa)
#
#
# Indices 1 2 3 4 5 6 
#
# 1 0.011104 -0.003196 -0.002853 0.000000 0.000951 0.000000
# 2 -0.003196 0.019922 -0.004279 0.000000 -0.000630 0.000000
# 3 -0.002853 -0.004279 0.010937 0.000000 0.005778 0.000000
# 4 0.000000 0.000000 0.000000 0.021602 0.000000 0.003278
# 5 0.000951 -0.000630 0.005778 0.000000 0.023421 0.000000
# 6 0.000000 0.000000 0.000000 0.003278 0.000000 0.028704
#
#
# Mechanical properties :
#
#
# Convention : Reuss Voigt Hill
#
# Bulk Modulus (GPa) = 46.93239 59.41979 53.17609
# Shear Modulus (GPa) = 34.85582 40.06005 37.45794
#
# Velocity S-wave (km/s) = 3.78145 4.05393 3.92006
# Velocity P-wave (km/s) = 6.19027 6.80360 6.50417
#
# Compressibility (1/GPa) = 0.02130725
#
# Stress axis : x y z
#
# Youngs Moduli (GPa) = 90.05842 50.19462 91.43406
#
# Poissons Ratio (x) = 0.16040 0.26088
# Poissons Ratio (y) = 0.28779 0.39126
# Poissons Ratio (z) = 0.25696 0.21479
#
# Static dielectric constant tensor:
#      x y z
#    x 1.973630 0.000000 -0.001110 
#    y 0.000000 1.954800 0.000000 
#    z -0.001110 0.000000 1.920730 
# 
# From -- ./inp_files/22097.got.cif
#   From: 2010.05.17/outbox.cif.g08.bks.cpg/sg9_12_cif.got.tgz:22097.got - 2010.06.03 20:04:27.
