data_PCOD9138989
_publ_section_title
;
Structure prediction by ZEFSAII (Michael W. Deem and Ramdas Pophale) SiO2 
 PCOD9138989
Probable space group: C C
;
_chemical_formula_sum "Si O2"
_cell_formula_units_Z 32
_cell_length_a 8.860920
_cell_length_b 27.934908
_cell_length_c 5.068213
_cell_angle_alpha 90.000000
_cell_angle_beta 86.489089
_cell_angle_gamma 90.000000
_cell_volume 1252.175062
_symmetry_space_group_name_H-M "C C"
_symmetry_group_IT_number 9
_symmetry_cell_setting 'monoclinic'
loop_
_space_group_symop_operation_xyz
x,y,z
x,-y,1/2+z
1/2+x,1/2+y,z
1/2+x,1/2-y,1/2+z
loop_
_atom_site_type_symbol
_atom_site_label
_atom_site_fract_x
_atom_site_fract_y
_atom_site_fract_z
Si Si1 0.642070 0.594171 0.785480
Si Si2 0.616045 0.032091 0.109361
Si Si3 0.209454 0.172911 0.134219
Si Si4 0.982776 0.270169 0.692738
Si Si5 0.450598 0.333281 0.026532
Si Si6 0.099564 0.675310 0.676169
Si Si7 0.401875 0.097675 0.454139
Si Si8 0.453719 0.532052 0.172354
O O1 0.504925 0.615461 0.630033
O O2 0.774996 0.566767 0.620588
O O3 0.721432 0.643615 0.866439
O O4 0.579178 0.567535 0.047290
O O5 0.491349 0.068619 0.223630
O O6 0.785269 0.052199 0.140981
O O7 0.604665 0.986930 0.313212
O O8 0.306114 0.220958 0.137281
O O9 0.302023 0.138518 0.323416
O O10 0.034896 0.173397 0.238110
O O11 0.020628 0.288545 0.978442
O O12 0.014266 0.214191 0.665692
O O13 0.073491 0.302812 0.470103
O O14 0.272508 0.330612 0.072178
O O15 0.020879 0.623998 0.632552
O O16 0.466157 0.512884 0.467111
#
# Coordination Sequence:
#
# PCOD9138989 Si02
#       8
#     4   4   4   4   4   4   4   4
#     4  11  25  44  69 102 142 183 234 286 352 416
#     4  10  24  43  69 102 135 176 228 287 348 420
#     4  10  24  45  64 100 141 181 230 293 342 415
#     4  11  25  46  67  97 143 181 233 290 348 406
#     4  11  27  40  71 101 135 187 234 287 347 413
#     4  11  26  44  69 100 133 184 234 284 344 410
#     4  10  24  44  67  98 139 182 226 289 346 417
#     4  10  25  46  70 102 140 180 227 290 351 419
#
# _framework density 25.555531999999999
#
# number of rings (size 3 to 8) (size 9 to 14) (size 15 to 20)
#    0.000    1.500    1.250    0.750   12.250    4.000 
#    0.000    0.000    0.000    0.000    0.000    0.000 
#    0.000    0.000    0.000    0.000    0.000    0.000 
#
# Total GULP energy -89575.521720 kJ/mol
# GULP energy per Si atom -5598.470108 kJ/mol
# Density = 2.549737 g / cm^3
# Si number density = 25.555532 Si / 1000 Ang^3
#
#
#
# Elastic Constant Matrix: (Units=GPa)
#
#
# Indices 1 2 3 4 5 6 
#
# 1 104.3776 18.6535 19.4982 0.0000 -42.8320 0.0000
# 2 18.6535 57.8602 17.1053 0.0000 -7.2735 0.0000
# 3 19.4982 17.1053 95.0838 0.0000 -21.8970 0.0000
# 4 0.0000 0.0000 0.0000 38.0569 0.0000 -5.5029
# 5 -42.8320 -7.2735 -21.8970 0.0000 48.1692 0.0000
# 6 0.0000 0.0000 0.0000 -5.5029 0.0000 20.7120
#
#
#
# Elastic Compliance Matrix: (Units=1/GPa)
#
#
# Indices 1 2 3 4 5 6 
#
# 1 0.015731 -0.003514 0.000565 0.000000 0.013714 0.000000
# 2 -0.003514 0.019125 -0.003099 0.000000 -0.001646 0.000000
# 3 0.000565 -0.003099 0.012249 0.000000 0.005602 0.000000
# 4 0.000000 0.000000 0.000000 0.027326 0.000000 0.007260
# 5 0.013714 -0.001646 0.005602 0.000000 0.035253 0.000000
# 6 0.000000 0.000000 0.000000 0.007260 0.000000 0.050210
#
#
# Mechanical properties :
#
#
# Convention : Reuss Voigt Hill
#
# Bulk Modulus (GPa) = 28.56539 40.87062 34.71800
# Shear Modulus (GPa) = 27.22413 34.85859 31.04136
#
# Velocity S-wave (km/s) = 3.26742 3.69729 3.48898
# Velocity P-wave (km/s) = 5.04349 5.85271 5.46310
#
# Compressibility (1/GPa) = 0.03500740
#
# Stress axis : x y z
#
# Youngs Moduli (GPa) = 63.56997 52.28680 81.63992
#
# Poissons Ratio (x) = 0.18376 -0.04609
# Poissons Ratio (y) = 0.22341 0.25300
# Poissons Ratio (z) = -0.03589 0.16203
#
# Static dielectric constant tensor:
#      x y z
#    x 2.029090 0.000000 0.008100 
#    y 0.000000 2.018300 0.000000 
#    z 0.008100 0.000000 2.016050 
# 
# From -- ./inp_files/1234.got.cif
#   From: 2010.05.17/outbox.cif.g08.bks.cpg/sg9_1_cif.got.tgz:1234.got - 2010.06.03 20:04:27.
