data_PCOD9138563
_publ_section_title
;
Structure prediction by ZEFSAII (Michael W. Deem and Ramdas Pophale) SiO2 
 PCOD9138563
Probable space group: C C
;
_chemical_formula_sum "Si O2"
_cell_formula_units_Z 28
_cell_length_a 10.813335
_cell_length_b 11.420841
_cell_length_c 11.414408
_cell_angle_alpha 90.000000
_cell_angle_beta 118.003334
_cell_angle_gamma 90.000000
_cell_volume 1244.608103
_symmetry_space_group_name_H-M "C C"
_symmetry_group_IT_number 9
_symmetry_cell_setting 'monoclinic'
loop_
_space_group_symop_operation_xyz
x,y,z
x,-y,1/2+z
1/2+x,1/2+y,z
1/2+x,1/2-y,1/2+z
loop_
_atom_site_type_symbol
_atom_site_label
_atom_site_fract_x
_atom_site_fract_y
_atom_site_fract_z
Si Si1 0.796110 0.561814 0.545770
Si Si2 0.179966 0.848745 0.785002
Si Si3 0.503960 0.332701 0.012291
Si Si4 0.241916 0.566836 0.484069
Si Si5 0.482210 0.426418 0.245104
Si Si6 0.024659 0.636072 0.835395
Si Si7 0.169308 0.828627 0.505617
O O1 0.813308 0.626097 0.428145
O O2 0.645139 0.608397 0.526051
O O3 0.780953 0.424869 0.510478
O O4 0.902128 0.590943 0.696168
O O5 0.110105 0.730797 0.798465
O O6 0.194800 0.836793 0.654416
O O7 0.076430 0.959624 0.759994
O O8 0.368205 0.418326 0.944985
O O9 0.518844 0.329133 0.160436
O O10 0.481598 0.213447 0.930186
O O11 0.324123 0.540997 0.642516
O O12 0.126283 0.529213 0.910810
O O13 0.186097 0.697840 0.470285
O O14 0.522785 0.374626 0.387759
#
# Coordination Sequence:
#
# PCOD9138563 Si02
#       7
#     4   4   4   4   4   4   4
#     4  10  23  44  72  98 140 190 242 291 378 431
#     4  10  23  45  68 102 137 189 240 305 361 443
#     4   9  22  45  71 101 145 184 235 303 360 434
#     4  10  25  44  67 112 140 187 245 296 367 441
#     4   9  22  44  70  97 140 189 232 299 371 426
#     4  11  25  45  72 111 141 193 244 306 363 445
#     4  11  22  45  68  99 139 188 236 300 374 430
#
# _framework density 22.497042
#
# number of rings (size 3 to 8) (size 9 to 14) (size 15 to 20)
#    0.857    1.143    1.429    0.000    8.000    1.143 
#   12.857    0.000    0.000    0.000    0.000    0.000 
#    0.000    0.000    0.000    0.000    0.000    0.000 
#
# Total GULP energy -78076.854021 kJ/mol
# GULP energy per Si atom -5576.918144 kJ/mol
# Density = 2.244584 g / cm^3
# Si number density = 22.497042 Si / 1000 Ang^3
#
#
#
# Elastic Constant Matrix: (Units=GPa)
#
#
# Indices 1 2 3 4 5 6 
#
# 1 42.5658 34.5297 53.3664 0.0000 10.6380 0.0000
# 2 34.5297 135.3371 70.6090 0.0000 14.9655 0.0000
# 3 53.3664 70.6090 175.5234 0.0000 23.0375 0.0000
# 4 0.0000 0.0000 0.0000 33.7605 0.0000 -4.1407
# 5 10.6380 14.9655 23.0375 0.0000 34.6243 0.0000
# 6 0.0000 0.0000 0.0000 -4.1407 0.0000 26.2061
#
#
#
# Elastic Compliance Matrix: (Units=1/GPa)
#
#
# Indices 1 2 3 4 5 6 
#
# 1 0.040868 -0.004788 -0.009996 0.000000 -0.003836 0.000000
# 2 -0.004788 0.010003 -0.002404 0.000000 -0.001253 0.000000
# 3 -0.009996 -0.002404 0.010041 0.000000 -0.002571 0.000000
# 4 0.000000 0.000000 0.000000 0.030206 0.000000 0.004773
# 5 -0.003836 -0.001253 -0.002571 0.000000 0.032312 0.000000
# 6 0.000000 0.000000 0.000000 0.004773 0.000000 0.038913
#
#
# Mechanical properties :
#
#
# Convention : Reuss Voigt Hill
#
# Bulk Modulus (GPa) = 37.68357 74.49293 56.08825
# Shear Modulus (GPa) = 24.32332 31.91292 28.11812
#
# Velocity S-wave (km/s) = 3.29170 3.77044 3.53917
# Velocity P-wave (km/s) = 5.58872 7.22074 6.45651
#
# Compressibility (1/GPa) = 0.02653677
#
# Stress axis : x y z
#
# Youngs Moduli (GPa) = 24.46906 99.96753 99.59232
#
# Poissons Ratio (x) = 0.47860 0.99554
# Poissons Ratio (y) = 0.11715 0.23942
# Poissons Ratio (z) = 0.24460 0.24032
#
# Static dielectric constant tensor:
#      x y z
#    x 1.904200 0.000000 -0.009510 
#    y 0.000000 1.851550 0.000000 
#    z -0.009510 0.000000 1.898830 
# 
# From -- ./inp_files/16724.got.cif
#   From: 2010.05.17/outbox.cif.g08.bks.cpg/sg9_9_cif.got.tgz:16724.got - 2010.06.03 20:04:27.
