data_PCOD9138406
_publ_section_title
;
Structure prediction by ZEFSAII (Michael W. Deem and Ramdas Pophale) SiO2 
 PCOD9138406
Probable space group: C C
;
_chemical_formula_sum "Si O2"
_cell_formula_units_Z 32
_cell_length_a 12.418306
_cell_length_b 6.421084
_cell_length_c 18.601327
_cell_angle_alpha 90.000000
_cell_angle_beta 114.656178
_cell_angle_gamma 90.000000
_cell_volume 1348.019274
_symmetry_space_group_name_H-M "C C"
_symmetry_group_IT_number 9
_symmetry_cell_setting 'monoclinic'
loop_
_space_group_symop_operation_xyz
x,y,z
x,-y,1/2+z
1/2+x,1/2+y,z
1/2+x,1/2-y,1/2+z
loop_
_atom_site_type_symbol
_atom_site_label
_atom_site_fract_x
_atom_site_fract_y
_atom_site_fract_z
Si Si1 0.159810 0.889845 0.678460
Si Si2 0.401877 0.485863 0.572405
Si Si3 0.189333 0.226304 0.584071
Si Si4 0.517891 0.065371 0.360790
Si Si5 0.433822 0.826839 0.475754
Si Si6 0.377806 0.360694 0.213114
Si Si7 0.063849 0.172906 0.301290
Si Si8 0.181889 0.079536 0.958214
O O1 0.240709 0.695091 0.679645
O O2 0.147276 0.899635 0.760480
O O3 0.211006 0.112702 0.665819
O O4 0.024964 0.864334 0.613548
O O5 0.290655 0.353977 0.570643
O O6 0.398033 0.590362 0.492436
O O7 0.411474 0.665644 0.637945
O O8 0.064383 0.346356 0.546940
O O9 0.169445 0.014664 0.532723
O O10 0.435492 0.216299 0.290630
O O11 0.619901 0.197569 0.429302
O O12 0.452214 0.916053 0.400357
O O13 0.571772 0.915942 0.315404
O O14 0.318875 0.940355 0.474680
O O15 0.432894 0.586304 0.246577
O O16 0.107749 0.069055 0.385952
#
# Coordination Sequence:
#
# PCOD9138406 Si02
#       8
#     4   4   4   4   4   4   4   4
#     4  10  23  43  68 100 133 186 228 280 358 408
#     4  10  24  45  68 107 140 181 242 292 350 425
#     4  11  24  45  71 103 144 180 237 296 346 424
#     4  11  24  45  71  99 144 182 233 299 345 428
#     4  11  23  42  72 101 135 188 230 285 362 412
#     4  10  23  44  68 100 136 181 234 284 351 416
#     4  10  23  46  65 101 138 176 234 290 344 428
#     4  11  24  44  69 101 138 180 236 284 358 419
#
# _framework density 23.738531999999999
#
# number of rings (size 3 to 8) (size 9 to 14) (size 15 to 20)
#    0.000    1.500    1.250    2.250    3.500    4.000 
#   11.250    0.000    0.000    0.000    0.000    0.000 
#    0.000    0.000    0.000    0.000    0.000    0.000 
#
# Total GULP energy -89231.974167 kJ/mol
# GULP energy per Si atom -5576.998385 kJ/mol
# Density = 2.368450 g / cm^3
# Si number density = 23.738532 Si / 1000 Ang^3
#
#
#
# Elastic Constant Matrix: (Units=GPa)
#
#
# Indices 1 2 3 4 5 6 
#
# 1 165.3502 50.7965 30.3011 0.0000 9.2836 0.0000
# 2 50.7965 75.0629 43.4280 0.0000 -2.2190 0.0000
# 3 30.3011 43.4280 70.7087 0.0000 -13.0133 0.0000
# 4 0.0000 0.0000 0.0000 38.6260 0.0000 -5.0684
# 5 9.2836 -2.2190 -13.0133 0.0000 38.6965 0.0000
# 6 0.0000 0.0000 0.0000 -5.0684 0.0000 48.2056
#
#
#
# Elastic Compliance Matrix: (Units=1/GPa)
#
#
# Indices 1 2 3 4 5 6 
#
# 1 0.007840 -0.004925 -0.000781 0.000000 -0.002426 0.000000
# 2 -0.004925 0.024159 -0.013064 0.000000 -0.001826 0.000000
# 3 -0.000781 -0.013064 0.023875 0.000000 0.007467 0.000000
# 4 0.000000 0.000000 0.000000 0.026251 0.000000 0.002760
# 5 -0.002426 -0.001826 0.007467 0.000000 0.028831 0.000000
# 6 0.000000 0.000000 0.000000 0.002760 0.000000 0.021035
#
#
# Mechanical properties :
#
#
# Convention : Reuss Voigt Hill
#
# Bulk Modulus (GPa) = 54.54302 62.24141 58.39222
# Shear Modulus (GPa) = 28.46684 37.54538 33.00611
#
# Velocity S-wave (km/s) = 3.46668 3.98128 3.73286
# Velocity P-wave (km/s) = 6.24902 6.88553 6.57498
#
# Compressibility (1/GPa) = 0.01833415
#
# Stress axis : x y z
#
# Youngs Moduli (GPa) = 127.54694 41.39200 41.88482
#
# Poissons Ratio (x) = 0.20387 0.03272
# Poissons Ratio (y) = 0.62822 0.54716
# Poissons Ratio (z) = 0.09964 0.54073
#
# Static dielectric constant tensor:
#      x y z
#    x 1.881340 0.000000 0.010330 
#    y 0.000000 1.997540 0.000000 
#    z 0.010330 0.000000 1.951410 
# 
# From -- ./inp_files/33045.got.cif
#   From: 2010.05.17/outbox.cif.g08.bks.cpg/sg9_17_cif.got.tgz:33045.got - 2010.06.03 20:04:27.
