data_PCOD9138294
_publ_section_title
;
Structure prediction by ZEFSAII (Michael W. Deem and Ramdas Pophale) SiO2 
 PCOD9138294
Probable space group: C C
;
_chemical_formula_sum "Si O2"
_cell_formula_units_Z 28
_cell_length_a 5.182318
_cell_length_b 12.583159
_cell_length_c 16.563797
_cell_angle_alpha 90.000000
_cell_angle_beta 71.487162
_cell_angle_gamma 90.000000
_cell_volume 1024.230383
_symmetry_space_group_name_H-M "C C"
_symmetry_group_IT_number 9
_symmetry_cell_setting 'monoclinic'
loop_
_space_group_symop_operation_xyz
x,y,z
x,-y,1/2+z
1/2+x,1/2+y,z
1/2+x,1/2-y,1/2+z
loop_
_atom_site_type_symbol
_atom_site_label
_atom_site_fract_x
_atom_site_fract_y
_atom_site_fract_z
Si Si1 0.971550 0.705720 0.378010
Si Si2 0.100255 0.902034 0.706213
Si Si3 0.951448 0.330190 0.165420
Si Si4 0.154107 0.741557 0.050105
Si Si5 0.942580 0.323579 0.416298
Si Si6 0.830115 0.499365 0.817324
Si Si7 0.719941 0.970725 0.604854
O O1 0.806324 0.675888 0.475473
O O2 0.760733 0.795667 0.365620
O O3 0.998463 0.609254 0.314512
O O4 0.250601 0.750219 0.382070
O O5 0.057917 0.778652 0.692804
O O6 0.419427 0.923700 0.655450
O O7 0.922667 0.966685 0.659902
O O8 0.066368 0.948406 0.800165
O O9 0.158484 0.405857 0.093313
O O10 0.698901 0.293511 0.133561
O O11 0.897589 0.406990 0.247012
O O12 0.312478 0.625873 0.037499
O O13 0.910484 0.706354 0.013937
O O14 0.857161 0.441335 0.399552
#
# Coordination Sequence:
#
# PCOD9138294 Si02
#       7
#     4   4   4   4   4   4   4
#     4  10  25  44  66  98 137 173 228 281 333 399
#     4  10  24  42  64  99 131 168 225 277 328 399
#     4  10  23  44  69  99 137 176 227 283 331 398
#     4   9  24  44  68 101 134 178 228 281 331 400
#     4  10  25  45  68  94 137 175 224 279 336 398
#     4  11  24  45  70  99 134 186 224 274 344 401
#     4  10  23  42  67  96 130 174 220 273 341 391
#
# _framework density 27.337602
#
# number of rings (size 3 to 8) (size 9 to 14) (size 15 to 20)
#    0.857    1.143    0.000    0.857    6.000   16.000 
#    0.000    1.429    0.000    0.000    0.000    0.000 
#    0.000    0.000    0.000    0.000    0.000    0.000 
#
# Total GULP energy -78018.087864 kJ/mol
# GULP energy per Si atom -5572.720562 kJ/mol
# Density = 2.727538 g / cm^3
# Si number density = 27.337602 Si / 1000 Ang^3
#
#
#
# Elastic Constant Matrix: (Units=GPa)
#
#
# Indices 1 2 3 4 5 6 
#
# 1 137.0473 43.1708 58.3168 0.0000 56.7516 0.0000
# 2 43.1708 221.3469 71.8623 0.0000 40.9500 0.0000
# 3 58.3168 71.8623 118.0244 0.0000 39.2829 0.0000
# 4 0.0000 0.0000 0.0000 65.9904 0.0000 12.8273
# 5 56.7516 40.9500 39.2829 0.0000 60.5239 0.0000
# 6 0.0000 0.0000 0.0000 12.8273 0.0000 42.1778
#
#
#
# Elastic Compliance Matrix: (Units=1/GPa)
#
#
# Indices 1 2 3 4 5 6 
#
# 1 0.012714 0.000426 -0.003160 0.000000 -0.010159 0.000000
# 2 0.000426 0.005846 -0.002960 0.000000 -0.002433 0.000000
# 3 -0.003160 -0.002960 0.012990 0.000000 -0.003465 0.000000
# 4 0.000000 0.000000 0.000000 0.016106 0.000000 -0.004898
# 5 -0.010159 -0.002433 -0.003465 0.000000 0.029943 0.000000
# 6 0.000000 0.000000 0.000000 -0.004898 0.000000 0.025199
#
#
# Mechanical properties :
#
#
# Convention : Reuss Voigt Hill
#
# Bulk Modulus (GPa) = 49.60059 91.45759 70.52909
# Shear Modulus (GPa) = 41.35420 53.94298 47.64859
#
# Velocity S-wave (km/s) = 3.89359 4.44691 4.17942
# Velocity P-wave (km/s) = 6.19649 7.73913 7.01037
#
# Compressibility (1/GPa) = 0.02016105
#
# Stress axis : x y z
#
# Youngs Moduli (GPa) = 78.65308 171.06022 76.98343
#
# Poissons Ratio (x) = -0.07281 0.24328
# Poissons Ratio (y) = -0.03348 0.22786
# Poissons Ratio (z) = 0.24855 0.50631
#
# Static dielectric constant tensor:
#      x y z
#    x 2.281760 0.000000 -0.224290 
#    y 0.000000 2.183620 0.000000 
#    z -0.224290 0.000000 2.421780 
# 
# From -- ./inp_files/31961.got.cif
#   From: 2010.05.17/outbox.cif.g08.bks.cpg/sg9_16_cif.got.tgz:31961.got - 2010.06.03 20:04:27.
