data_PCOD9138979
_publ_section_title
;
Structure prediction by ZEFSAII (Michael W. Deem and Ramdas Pophale) SiO2 
 PCOD9138979
Probable space group: C C
;
_chemical_formula_sum "Si O2"
_cell_formula_units_Z 28
_cell_length_a 4.909707
_cell_length_b 20.788031
_cell_length_c 12.389052
_cell_angle_alpha 90.000000
_cell_angle_beta 71.592393
_cell_angle_gamma 90.000000
_cell_volume 1199.768041
_symmetry_space_group_name_H-M "C C"
_symmetry_group_IT_number 9
_symmetry_cell_setting 'monoclinic'
loop_
_space_group_symop_operation_xyz
x,y,z
x,-y,1/2+z
1/2+x,1/2+y,z
1/2+x,1/2-y,1/2+z
loop_
_atom_site_type_symbol
_atom_site_label
_atom_site_fract_x
_atom_site_fract_y
_atom_site_fract_z
Si Si1 0.879660 0.187473 0.151610
Si Si2 0.473393 0.115866 0.052045
Si Si3 0.690332 0.578680 0.485621
Si Si4 0.481994 0.122327 0.797452
Si Si5 0.224511 0.497248 0.648304
Si Si6 0.563845 0.322009 0.192307
Si Si7 0.308900 0.407392 0.836027
O O1 0.753638 0.151152 0.063268
O O2 0.755765 0.258684 0.156615
O O3 0.751755 0.158573 0.279094
O O4 0.210344 0.164074 0.114311
O O5 0.502876 0.048303 0.112214
O O6 0.472124 0.106474 0.924433
O O7 0.495798 0.517876 0.542266
O O8 0.624326 0.633461 0.581220
O O9 0.576805 0.597737 0.381512
O O10 0.030265 0.571289 0.438028
O O11 0.579892 0.060964 0.714824
O O12 0.182226 0.143486 0.784705
O O13 0.720037 0.178619 0.748066
O O14 0.341734 0.458308 0.736355
#
# Coordination Sequence:
#
# PCOD9138979 Si02
#       7
#     4   4   4   4   4   4   4
#     4  11  25  45  66  99 137 175 230 285 332 405
#     4  11  24  43  71 101 134 177 224 281 348 404
#     4  11  24  42  65  97 133 178 222 272 342 404
#     4  11  24  42  67  98 133 178 220 273 344 402
#     4  10  24  43  66 100 137 169 221 282 334 411
#     4  11  25  44  65  96 135 174 227 279 327 403
#     4  11  24  41  66  95 131 177 222 276 341 401
#
# _framework density 23.337841999999998
#
# number of rings (size 3 to 8) (size 9 to 14) (size 15 to 20)
#    0.000    1.143    0.000    6.000    0.000   17.143 
#    0.000    0.000    0.000    0.000    0.000    0.000 
#    0.000    0.000    0.000    0.000    0.000    0.000 
#
# Total GULP energy -78324.501302 kJ/mol
# GULP energy per Si atom -5594.607236 kJ/mol
# Density = 2.328472 g / cm^3
# Si number density = 23.337842 Si / 1000 Ang^3
#
#
#
# Elastic Constant Matrix: (Units=GPa)
#
#
# Indices 1 2 3 4 5 6 
#
# 1 99.9928 20.0520 11.3329 0.0000 4.1062 0.0000
# 2 20.0520 91.2774 21.8742 0.0000 1.3533 0.0000
# 3 11.3329 21.8742 102.4914 0.0000 11.4232 0.0000
# 4 0.0000 0.0000 0.0000 21.2056 0.0000 -19.4651
# 5 4.1062 1.3533 11.4232 0.0000 46.0699 0.0000
# 6 0.0000 0.0000 0.0000 -19.4651 0.0000 230.8887
#
#
#
# Elastic Compliance Matrix: (Units=1/GPa)
#
#
# Indices 1 2 3 4 5 6 
#
# 1 0.010533 -0.002154 -0.000625 0.000000 -0.000721 0.000000
# 2 -0.002154 0.011990 -0.002368 0.000000 0.000427 0.000000
# 3 -0.000625 -0.002368 0.010611 0.000000 -0.002506 0.000000
# 4 0.000000 0.000000 0.000000 0.051113 0.000000 0.004309
# 5 -0.000721 0.000427 -0.002506 0.000000 0.022379 0.000000
# 6 0.000000 0.000000 0.000000 0.004309 0.000000 0.004694
#
#
# Mechanical properties :
#
#
# Convention : Reuss Voigt Hill
#
# Bulk Modulus (GPa) = 43.78218 44.47552 44.12885
# Shear Modulus (GPa) = 38.69172 75.66634 57.17903
#
# Velocity S-wave (km/s) = 4.07614 5.70022 4.95517
# Velocity P-wave (km/s) = 6.39954 7.90076 7.18944
#
# Compressibility (1/GPa) = 0.02284034
#
# Stress axis : x y z
#
# Youngs Moduli (GPa) = 94.93996 83.40314 94.24401
#
# Poissons Ratio (x) = 0.17961 0.05888
# Poissons Ratio (y) = 0.20445 0.22321
# Poissons Ratio (z) = 0.05931 0.19753
#
# Static dielectric constant tensor:
#      x y z
#    x 1.845150 0.000000 -0.036900 
#    y 0.000000 1.926860 0.000000 
#    z -0.036900 0.000000 1.851150 
# 
# From -- ./inp_files/13449.got.cif
#   From: 2010.05.17/outbox.cif.g08.bks.cpg/sg9_7_cif.got.tgz:13449.got - 2010.06.03 20:04:27.
