data_PCOD9138418
_publ_section_title
;
Structure prediction by ZEFSAII (Michael W. Deem and Ramdas Pophale) SiO2 
 PCOD9138418
Probable space group: C C
;
_chemical_formula_sum "Si O2"
_cell_formula_units_Z 32
_cell_length_a 11.421135
_cell_length_b 9.118466
_cell_length_c 14.094185
_cell_angle_alpha 90.000000
_cell_angle_beta 72.086264
_cell_angle_gamma 90.000000
_cell_volume 1396.655360
_symmetry_space_group_name_H-M "C C"
_symmetry_group_IT_number 9
_symmetry_cell_setting 'monoclinic'
loop_
_space_group_symop_operation_xyz
x,y,z
x,-y,1/2+z
1/2+x,1/2+y,z
1/2+x,1/2-y,1/2+z
loop_
_atom_site_type_symbol
_atom_site_label
_atom_site_fract_x
_atom_site_fract_y
_atom_site_fract_z
Si Si1 0.769000 0.861854 0.310010
Si Si2 0.398569 0.934805 0.409156
Si Si3 0.698583 0.651478 0.488078
Si Si4 0.792448 0.135604 0.437045
Si Si5 0.529730 0.043286 0.559428
Si Si6 0.420272 0.405584 0.106736
Si Si7 0.822197 0.769719 0.641794
Si Si8 0.595066 0.923907 0.741680
O O1 0.710299 0.734615 0.386076
O O2 0.873797 0.816890 0.209997
O O3 0.666344 0.936862 0.269266
O O4 0.815416 0.989355 0.369863
O O5 0.369650 0.773425 0.376539
O O6 0.465489 0.056539 0.326509
O O7 0.264086 0.995455 0.465463
O O8 0.475128 0.943741 0.488453
O O9 0.560825 0.626971 0.553793
O O10 0.778007 0.741648 0.544980
O O11 0.642961 0.136844 0.485858
O O12 0.843335 0.126297 0.531265
O O13 0.420468 0.141137 0.631071
O O14 0.581858 0.950397 0.633408
O O15 0.392437 0.576536 0.135034
O O16 0.692446 0.790344 0.731049
#
# Coordination Sequence:
#
# PCOD9138418 Si02
#       8
#     4   4   4   4   4   4   4   4
#     4  11  23  44  73 102 137 193 236 285 367 419
#     4  11  27  41  71 101 139 186 232 295 352 416
#     4  11  24  47  65 105 141 180 238 293 349 426
#     4  12  23  45  70 103 143 184 238 295 351 430
#     4  11  23  44  69  98 143 179 236 285 356 411
#     4  11  24  42  73 100 144 185 234 291 354 417
#     4  10  23  43  68  99 135 185 223 297 345 411
#     4  11  23  42  67 100 130 186 229 285 346 424
#
# _framework density 22.91188
#
# number of rings (size 3 to 8) (size 9 to 14) (size 15 to 20)
#    0.000    1.000    5.000    1.500    7.000    0.000 
#    0.000    2.500    0.000    0.000    0.000    0.000 
#    0.000    0.000    0.000    0.000    0.000    0.000 
#
# Total GULP energy -89395.548315 kJ/mol
# GULP energy per Si atom -5587.221770 kJ/mol
# Density = 2.285973 g / cm^3
# Si number density = 22.911880 Si / 1000 Ang^3
#
#
#
# Elastic Constant Matrix: (Units=GPa)
#
#
# Indices 1 2 3 4 5 6 
#
# 1 110.3675 29.5195 32.9395 0.0000 -21.5909 0.0000
# 2 29.5195 43.9210 0.6046 0.0000 2.1384 0.0000
# 3 32.9395 0.6046 97.3695 0.0000 -14.5387 0.0000
# 4 0.0000 0.0000 0.0000 26.8753 0.0000 -7.0022
# 5 -21.5909 2.1384 -14.5387 0.0000 46.7197 0.0000
# 6 0.0000 0.0000 0.0000 -7.0022 0.0000 37.7736
#
#
#
# Elastic Compliance Matrix: (Units=1/GPa)
#
#
# Indices 1 2 3 4 5 6 
#
# 1 0.013844 -0.009528 -0.003779 0.000000 0.005658 0.000000
# 2 -0.009528 0.029386 0.002289 0.000000 -0.005036 0.000000
# 3 -0.003779 0.002289 0.011807 0.000000 0.001823 0.000000
# 4 0.000000 0.000000 0.000000 0.039097 0.000000 0.007248
# 5 0.005658 -0.005036 0.001823 0.000000 0.024817 0.000000
# 6 0.000000 0.000000 0.000000 0.007248 0.000000 0.027817
#
#
# Mechanical properties :
#
#
# Convention : Reuss Voigt Hill
#
# Bulk Modulus (GPa) = 30.30378 41.97612 36.13995
# Shear Modulus (GPa) = 27.80817 34.84667 31.32742
#
# Velocity S-wave (km/s) = 3.48760 3.90410 3.70171
# Velocity P-wave (km/s) = 5.42888 6.21958 5.83763
#
# Compressibility (1/GPa) = 0.03299918
#
# Stress axis : x y z
#
# Youngs Moduli (GPa) = 72.23470 34.03036 84.69819
#
# Poissons Ratio (x) = 0.32424 0.32010
# Poissons Ratio (y) = 0.68824 -0.19386
# Poissons Ratio (z) = 0.27300 -0.07789
#
# Static dielectric constant tensor:
#      x y z
#    x 1.869490 0.000000 -0.052270 
#    y 0.000000 1.878320 0.000000 
#    z -0.052270 0.000000 1.913640 
# 
# From -- ./inp_files/24364.got.cif
#   From: 2010.05.17/outbox.cif.g08.bks.cpg/sg9_13_cif.got.tgz:24364.got - 2010.06.03 20:04:27.
