data_PCOD9138926
_publ_section_title
;
Structure prediction by ZEFSAII (Michael W. Deem and Ramdas Pophale) SiO2 
 PCOD9138926
Probable space group: C C
;
_chemical_formula_sum "Si O2"
_cell_formula_units_Z 28
_cell_length_a 25.873122
_cell_length_b 5.156194
_cell_length_c 8.776672
_cell_angle_alpha 90.000000
_cell_angle_beta 85.070694
_cell_angle_gamma 90.000000
_cell_volume 1166.537563
_symmetry_space_group_name_H-M "C C"
_symmetry_group_IT_number 9
_symmetry_cell_setting 'monoclinic'
loop_
_space_group_symop_operation_xyz
x,y,z
x,-y,1/2+z
1/2+x,1/2+y,z
1/2+x,1/2-y,1/2+z
loop_
_atom_site_type_symbol
_atom_site_label
_atom_site_fract_x
_atom_site_fract_y
_atom_site_fract_z
Si Si1 0.871470 0.318302 0.185930
Si Si2 0.331756 0.672648 0.527200
Si Si3 0.990553 0.223880 0.124964
Si Si4 0.183330 0.092379 0.858707
Si Si5 0.719219 0.077608 0.686251
Si Si6 0.134333 0.237868 0.601650
Si Si7 0.528264 0.778624 0.447914
O O1 0.842887 0.249791 0.350733
O O2 0.855224 0.599140 0.127207
O O3 0.932862 0.289524 0.196048
O O4 0.857342 0.101943 0.063630
O O5 0.271636 0.634730 0.584435
O O6 0.026644 0.238870 0.266618
O O7 0.005694 0.442606 0.999148
O O8 0.995834 0.947448 0.041014
O O9 0.221280 0.319867 0.792798
O O10 0.130157 0.172790 0.781651
O O11 0.206623 0.822767 0.791937
O O12 0.167713 0.000945 0.028671
O O13 0.671294 0.987872 0.591281
O O14 0.084625 0.268522 0.511887
#
# Coordination Sequence:
#
# PCOD9138926 Si02
#       7
#     4   4   4   4   4   4   4
#     4  12  26  48  77 104 150 184 253 302 371 426
#     4  12  27  48  77 108 141 198 239 303 370 439
#     4  12  26  48  71 112 141 195 240 314 357 440
#     4  10  24  41  68  95 146 178 232 287 342 412
#     4  10  26  42  70 101 144 181 238 287 349 433
#     4  10  26  43  71 100 146 183 237 286 353 432
#     4  12  27  44  78 104 152 187 249 289 382 426
#
# _framework density 24.002654
#
# number of rings (size 3 to 8) (size 9 to 14) (size 15 to 20)
#    0.857    0.000    0.000    6.000    8.000    1.143 
#    0.000    0.000    0.000    0.000    0.000    0.000 
#    0.000    0.000    0.000    0.000    0.000    0.000 
#
# Total GULP energy -78321.665420 kJ/mol
# GULP energy per Si atom -5594.404673 kJ/mol
# Density = 2.394802 g / cm^3
# Si number density = 24.002654 Si / 1000 Ang^3
#
#
#
# Elastic Constant Matrix: (Units=GPa)
#
#
# Indices 1 2 3 4 5 6 
#
# 1 72.7676 21.5950 -23.7082 0.0000 -2.3667 0.0000
# 2 21.5950 127.3726 -4.0095 0.0000 -4.4849 0.0000
# 3 -23.7082 -4.0095 57.2728 0.0000 7.3895 0.0000
# 4 0.0000 0.0000 0.0000 21.2594 0.0000 -4.4717
# 5 -2.3667 -4.4849 7.3895 0.0000 28.9190 0.0000
# 6 0.0000 0.0000 0.0000 -4.4717 0.0000 25.6218
#
#
#
# Elastic Compliance Matrix: (Units=1/GPa)
#
#
# Indices 1 2 3 4 5 6 
#
# 1 0.016732 -0.002649 0.006843 0.000000 -0.000790 0.000000
# 2 -0.002649 0.008323 -0.000675 0.000000 0.001246 0.000000
# 3 0.006843 -0.000675 0.020875 0.000000 -0.004879 0.000000
# 4 0.000000 0.000000 0.000000 0.048831 0.000000 0.008522
# 5 -0.000790 0.001246 -0.004879 0.000000 0.035955 0.000000
# 6 0.000000 0.000000 0.000000 0.008522 0.000000 0.040517
#
#
# Mechanical properties :
#
#
# Convention : Reuss Voigt Hill
#
# Bulk Modulus (GPa) = 18.87936 27.24083 23.06010
# Shear Modulus (GPa) = 27.49511 32.72908 30.11210
#
# Velocity S-wave (km/s) = 3.38820 3.69665 3.54578
# Velocity P-wave (km/s) = 4.81551 5.44004 5.13727
#
# Compressibility (1/GPa) = 0.05296788
#
# Stress axis : x y z
#
# Youngs Moduli (GPa) = 59.76448 120.15210 47.90384
#
# Poissons Ratio (x) = 0.31831 -0.32780
# Poissons Ratio (y) = 0.15833 0.03233
# Poissons Ratio (z) = -0.40896 0.08108
#
# Static dielectric constant tensor:
#      x y z
#    x 1.960520 0.000000 0.067820 
#    y 0.000000 1.933700 0.000000 
#    z 0.067820 0.000000 1.991800 
# 
# From -- ./inp_files/12305.got.cif
#   From: 2010.05.17/outbox.cif.g08.bks.cpg/sg9_7_cif.got.tgz:12305.got - 2010.06.03 20:04:27.
