data_PCOD9138282
_publ_section_title
;
Structure prediction by ZEFSAII (Michael W. Deem and Ramdas Pophale) SiO2 
 PCOD9138282
Probable space group: C C
;
_chemical_formula_sum "Si O2"
_cell_formula_units_Z 32
_cell_length_a 15.686229
_cell_length_b 11.734147
_cell_length_c 17.697543
_cell_angle_alpha 90.000000
_cell_angle_beta 25.247500
_cell_angle_gamma 90.000000
_cell_volume 1389.414722
_symmetry_space_group_name_H-M "C C"
_symmetry_group_IT_number 9
_symmetry_cell_setting 'monoclinic'
loop_
_space_group_symop_operation_xyz
x,y,z
x,-y,1/2+z
1/2+x,1/2+y,z
1/2+x,1/2-y,1/2+z
loop_
_atom_site_type_symbol
_atom_site_label
_atom_site_fract_x
_atom_site_fract_y
_atom_site_fract_z
Si Si1 0.928710 0.914867 0.502800
Si Si2 0.384801 0.420849 0.894397
Si Si3 0.120900 0.494216 0.969836
Si Si4 0.999805 0.686470 0.864002
Si Si5 0.398865 0.809065 0.602896
Si Si6 0.277677 0.006931 0.497935
Si Si7 0.529386 0.574608 0.557060
Si Si8 0.021197 0.656350 0.410190
O O1 0.713677 0.886617 0.710311
O O2 0.024391 0.792705 0.409670
O O3 0.905936 0.992173 0.446998
O O4 0.037271 0.987597 0.480885
O O5 0.208578 0.447821 0.977581
O O6 0.371957 0.293448 0.937918
O O7 0.591268 0.434669 0.681366
O O8 0.314873 0.552402 0.771819
O O9 0.038330 0.395792 0.980688
O O10 0.951834 0.590759 0.117725
O O11 0.200353 0.746116 0.732935
O O12 0.961025 0.582129 0.839396
O O13 0.944460 0.627269 0.987621
O O14 0.531590 0.701846 0.521759
O O15 0.198628 0.056929 0.483313
O O16 0.337549 0.105597 0.508932
#
# Coordination Sequence:
#
# PCOD9138282 Si02
#       8
#     4   4   4   4   4   4   4   4
#     4  11  24  43  65  92 133 173 213 268 327 393
#     4  11  24  42  67  97 129 171 221 269 329 391
#     4  10  23  43  66  93 130 171 218 271 323 393
#     4  12  22  40  70  94 126 171 219 274 328 384
#     4  12  21  43  67  94 127 172 219 272 328 385
#     4  11  24  43  66  95 132 172 218 273 325 391
#     4  10  23  42  66  95 128 170 219 268 328 389
#     4  11  23  44  63  92 133 174 211 267 330 388
#
# _framework density 23.031279000000001
#
# number of rings (size 3 to 8) (size 9 to 14) (size 15 to 20)
#    0.000    1.000    5.000    1.500    3.500    0.000 
#    2.250    0.000    0.000    0.000    0.000    0.000 
#    0.000    0.000    0.000    0.000    0.000    0.000 
#
# Total GULP energy -89368.449928 kJ/mol
# GULP energy per Si atom -5585.528120 kJ/mol
# Density = 2.297886 g / cm^3
# Si number density = 23.031279 Si / 1000 Ang^3
#
#
#
# Elastic Constant Matrix: (Units=GPa)
#
#
# Indices 1 2 3 4 5 6 
#
# 1 224.0749 94.8186 30.5893 -0.0058 -20.8645 0.0066
# 2 94.8186 167.8988 17.1461 0.0117 -9.4084 0.0073
# 3 30.5893 17.1461 43.0023 0.0140 -10.1663 -0.0041
# 4 -0.0058 0.0117 0.0140 32.3890 -0.0007 -7.5785
# 5 -20.8645 -9.4084 -10.1663 -0.0007 36.0411 -0.0006
# 6 0.0066 0.0073 -0.0041 -7.5785 -0.0006 51.2141
#
#
#
# Elastic Compliance Matrix: (Units=1/GPa)
#
#
# Indices 1 2 3 4 5 6 
#
# 1 0.006394 -0.003211 -0.002776 0.000004 0.002080 0.000000
# 2 -0.003211 0.007854 -0.000860 -0.000003 -0.000051 -0.000001
# 3 -0.002776 -0.000860 0.026936 -0.000011 0.005766 0.000001
# 4 0.000004 -0.000003 -0.000011 0.031982 -0.000001 0.004733
# 5 0.002080 -0.000051 0.005766 -0.000001 0.030564 0.000000
# 6 0.000000 -0.000001 0.000001 0.004733 0.000000 0.020226
#
#
# Mechanical properties :
#
#
# Convention : Reuss Voigt Hill
#
# Bulk Modulus (GPa) = 36.37688 80.00934 58.19311
# Shear Modulus (GPa) = 34.05687 43.42362 38.74024
#
# Velocity S-wave (km/s) = 3.84959 4.34685 4.10576
# Velocity P-wave (km/s) = 5.96556 7.74651 6.91362
#
# Compressibility (1/GPa) = 0.02748998
#
# Stress axis : x y z
#
# Youngs Moduli (GPa) = 156.39038 127.31962 37.12572
#
# Poissons Ratio (x) = 0.40882 0.10308
# Poissons Ratio (y) = 0.50216 0.03192
# Poissons Ratio (z) = 0.43420 0.10945
#
# Static dielectric constant tensor:
#      x y z
#    x 1.829410 0.000100 0.001340 
#    y 0.000100 1.163790 -0.000030 
#    z 0.001340 -0.000030 2.122960 
# 
# From -- ./inp_files/9096.got.cif
#   From: 2010.05.17/outbox.cif.g08.bks.cpg/sg9_5_cif.got.tgz:9096.got - 2010.06.03 20:04:27.
