data_PCOD9138958
_publ_section_title
;
Structure prediction by ZEFSAII (Michael W. Deem and Ramdas Pophale) SiO2 
 PCOD9138958
Probable space group: C C
;
_chemical_formula_sum "Si O2"
_cell_formula_units_Z 28
_cell_length_a 8.563833
_cell_length_b 14.488676
_cell_length_c 12.554373
_cell_angle_alpha 90.000000
_cell_angle_beta 55.480425
_cell_angle_gamma 90.000000
_cell_volume 1283.463788
_symmetry_space_group_name_H-M "C C"
_symmetry_group_IT_number 9
_symmetry_cell_setting 'monoclinic'
loop_
_space_group_symop_operation_xyz
x,y,z
x,-y,1/2+z
1/2+x,1/2+y,z
1/2+x,1/2-y,1/2+z
loop_
_atom_site_type_symbol
_atom_site_label
_atom_site_fract_x
_atom_site_fract_y
_atom_site_fract_z
Si Si1 0.184290 0.892084 0.587390
Si Si2 0.382438 0.423563 0.885419
Si Si3 0.656713 0.263888 0.213183
Si Si4 0.548756 0.787644 0.532044
Si Si5 0.058849 0.067316 0.529542
Si Si6 0.822003 0.098536 0.802403
Si Si7 0.586667 0.226980 0.483779
O O1 0.351637 0.838931 0.584651
O O2 0.137903 0.829289 0.503384
O O3 0.007612 0.892842 0.736546
O O4 0.199094 0.997385 0.536891
O O5 0.265304 0.512730 0.895972
O O6 0.241653 0.342465 0.972794
O O7 0.524091 0.457809 0.921708
O O8 0.606843 0.195596 0.133207
O O9 0.522439 0.354432 0.256561
O O10 0.609767 0.221749 0.346993
O O11 0.875473 0.290468 0.108976
O O12 0.585006 0.677473 0.515536
O O13 0.674373 0.823196 0.385249
O O14 0.858285 0.061712 0.670590
#
# Coordination Sequence:
#
# PCOD9138958 Si02
#       7
#     4   4   4   4   4   4   4
#     4  11  25  45  70 108 148 191 254 313 372 459
#     4  11  24  42  71 103 146 192 248 311 382 447
#     4  11  24  42  71 102 146 196 245 307 371 448
#     4  11  24  43  73  99 145 194 245 300 383 438
#     4  10  24  42  70 100 142 188 246 311 367 445
#     4  10  24  43  64 100 145 186 244 307 370 438
#     4  12  23  43  75 106 146 199 248 307 383 443
#
# _framework density 21.815964999999998
#
# number of rings (size 3 to 8) (size 9 to 14) (size 15 to 20)
#    0.000    1.143    4.286    0.857    4.000    4.571 
#    0.000    1.429    0.000    0.000    0.000    0.000 
#    0.000    0.000    0.000    0.000    0.000    0.000 
#
# Total GULP energy -77995.819095 kJ/mol
# GULP energy per Si atom -5571.129935 kJ/mol
# Density = 2.176631 g / cm^3
# Si number density = 21.815965 Si / 1000 Ang^3
#
#
#
# Elastic Constant Matrix: (Units=GPa)
#
#
# Indices 1 2 3 4 5 6 
#
# 1 60.3591 16.2446 9.9400 0.0000 -10.3787 0.0000
# 2 16.2446 97.3593 -1.0968 0.0000 -14.5530 0.0000
# 3 9.9400 -1.0968 63.1920 0.0000 -2.3543 0.0000
# 4 0.0000 0.0000 0.0000 26.4914 0.0000 -2.1972
# 5 -10.3787 -14.5530 -2.3543 0.0000 38.4371 0.0000
# 6 0.0000 0.0000 0.0000 -2.1972 0.0000 12.1324
#
#
#
# Elastic Compliance Matrix: (Units=1/GPa)
#
#
# Indices 1 2 3 4 5 6 
#
# 1 0.018365 -0.002523 -0.002790 0.000000 0.003833 0.000000
# 2 -0.002523 0.011241 0.000727 0.000000 0.003620 0.000000
# 3 -0.002790 0.000727 0.016296 0.000000 0.000520 0.000000
# 4 0.000000 0.000000 0.000000 0.038324 0.000000 0.006941
# 5 0.003833 0.003620 0.000520 0.000000 0.028454 0.000000
# 6 0.000000 0.000000 0.000000 0.006941 0.000000 0.083681
#
#
# Mechanical properties :
#
#
# Convention : Reuss Voigt Hill
#
# Bulk Modulus (GPa) = 27.22531 30.12065 28.67298
# Shear Modulus (GPa) = 22.95944 28.46700 25.71322
#
# Velocity S-wave (km/s) = 3.24761 3.61622 3.43686
# Velocity P-wave (km/s) = 5.15454 5.59220 5.37782
#
# Compressibility (1/GPa) = 0.03673053
#
# Stress axis : x y z
#
# Youngs Moduli (GPa) = 54.45161 88.95701 61.36624
#
# Poissons Ratio (x) = 0.22441 0.17120
# Poissons Ratio (y) = 0.13737 -0.04460
# Poissons Ratio (z) = 0.15191 -0.06465
#
# Static dielectric constant tensor:
#      x y z
#    x 1.846880 0.000000 0.048270 
#    y 0.000000 1.869280 0.000000 
#    z 0.048270 0.000000 1.821360 
# 
# From -- ./inp_files/14699.got.cif
#   From: 2010.05.17/outbox.cif.g08.bks.cpg/sg9_8_cif.got.tgz:14699.got - 2010.06.03 20:04:27.
