data_PCOD9138789
_publ_section_title
;
Structure prediction by ZEFSAII (Michael W. Deem and Ramdas Pophale) SiO2 
 PCOD9138789
Probable space group: C C
;
_chemical_formula_sum "Si O2"
_cell_formula_units_Z 28
_cell_length_a 13.377456
_cell_length_b 9.692241
_cell_length_c 9.484119
_cell_angle_alpha 90.000000
_cell_angle_beta 110.533350
_cell_angle_gamma 90.000000
_cell_volume 1151.563148
_symmetry_space_group_name_H-M "C C"
_symmetry_group_IT_number 9
_symmetry_cell_setting 'monoclinic'
loop_
_space_group_symop_operation_xyz
x,y,z
x,-y,1/2+z
1/2+x,1/2+y,z
1/2+x,1/2-y,1/2+z
loop_
_atom_site_type_symbol
_atom_site_label
_atom_site_fract_x
_atom_site_fract_y
_atom_site_fract_z
Si Si1 0.182290 0.753829 0.508000
Si Si2 0.605671 0.016009 0.137040
Si Si3 0.219870 0.391169 0.448482
Si Si4 0.535493 0.582356 0.762535
Si Si5 0.410677 0.568491 0.420608
Si Si6 0.722492 0.602420 0.307626
Si Si7 0.880760 0.641036 0.936832
O O1 0.143630 0.614788 0.561702
O O2 0.098250 0.782302 0.342144
O O3 0.177322 0.861854 0.632422
O O4 0.301509 0.783715 0.510087
O O5 0.624690 0.954724 0.302521
O O6 0.686057 0.122371 0.095705
O O7 0.487940 0.075243 0.053770
O O8 0.311943 0.500240 0.455433
O O9 0.253189 0.243032 0.401664
O O10 0.500176 0.584683 0.585016
O O11 0.438457 0.542620 0.815177
O O12 0.622667 0.464873 0.836484
O O13 0.402633 0.723459 0.352465
O O14 0.813795 0.486724 0.342745
#
# Coordination Sequence:
#
# PCOD9138789 Si02
#       7
#     4   4   4   4   4   4   4
#     4  10  23  47  69 106 141 185 231 304 352 431
#     4  11  25  45  72 102 146 188 239 298 361 425
#     4  11  25  46  68 104 144 188 239 298 361 434
#     4  11  24  45  71  98 141 183 233 289 366 423
#     4  12  25  44  72 105 140 187 235 295 365 430
#     4  10  24  47  69 102 142 183 239 296 358 439
#     4  11  26  42  73 107 138 190 240 292 365 432
#
# _framework density 24.314775999999998
#
# number of rings (size 3 to 8) (size 9 to 14) (size 15 to 20)
#    0.000    1.143    2.857    1.714    8.000    0.000 
#   10.286    0.000    0.000    0.000    0.000    0.000 
#    0.000    0.000    0.000    0.000    0.000    0.000 
#
# Total GULP energy -78161.314530 kJ/mol
# GULP energy per Si atom -5582.951038 kJ/mol
# Density = 2.425943 g / cm^3
# Si number density = 24.314776 Si / 1000 Ang^3
#
#
#
# Elastic Constant Matrix: (Units=GPa)
#
#
# Indices 1 2 3 4 5 6 
#
# 1 66.1429 15.3436 1.8598 0.0000 12.4711 0.0000
# 2 15.3436 114.6100 22.8667 0.0000 23.3348 0.0000
# 3 1.8598 22.8667 71.8899 0.0000 2.3024 0.0000
# 4 0.0000 0.0000 0.0000 36.2343 0.0000 -1.7182
# 5 12.4711 23.3348 2.3024 0.0000 40.1046 0.0000
# 6 0.0000 0.0000 0.0000 -1.7182 0.0000 28.0683
#
#
#
# Elastic Compliance Matrix: (Units=1/GPa)
#
#
# Indices 1 2 3 4 5 6 
#
# 1 0.016230 -0.001329 0.000140 0.000000 -0.004282 0.000000
# 2 -0.001329 0.010682 -0.003184 0.000000 -0.005620 0.000000
# 3 0.000140 -0.003184 0.014889 0.000000 0.000954 0.000000
# 4 0.000000 0.000000 0.000000 0.027678 0.000000 0.001694
# 5 -0.004282 -0.005620 0.000954 0.000000 0.029481 0.000000
# 6 0.000000 0.000000 0.000000 0.001694 0.000000 0.035731
#
#
# Mechanical properties :
#
#
# Convention : Reuss Voigt Hill
#
# Bulk Modulus (GPa) = 30.25127 36.97589 33.61358
# Shear Modulus (GPa) = 32.37161 35.05296 33.71229
#
# Velocity S-wave (km/s) = 3.65273 3.80100 3.72760
# Velocity P-wave (km/s) = 5.50077 5.87398 5.69044
#
# Compressibility (1/GPa) = 0.03305647
#
# Stress axis : x y z
#
# Youngs Moduli (GPa) = 61.61245 93.61115 67.16545
#
# Poissons Ratio (x) = 0.12441 -0.00940
# Poissons Ratio (y) = 0.08188 0.21382
# Poissons Ratio (z) = -0.00863 0.29801
#
# Static dielectric constant tensor:
#      x y z
#    x 1.997800 0.000000 0.008610 
#    y 0.000000 2.080740 0.000000 
#    z 0.008610 0.000000 1.935250 
# 
# From -- ./inp_files/10605.got.cif
#   From: 2010.05.17/outbox.cif.g08.bks.cpg/sg9_6_cif.got.tgz:10605.got - 2010.06.03 20:04:27.
