data_PCOD9138190
_publ_section_title
;
Structure prediction by ZEFSAII (Michael W. Deem and Ramdas Pophale) SiO2 
 PCOD9138190
Probable space group: C C
;
_chemical_formula_sum "Si O2"
_cell_formula_units_Z 28
_cell_length_a 18.425613
_cell_length_b 13.750995
_cell_length_c 8.156999
_cell_angle_alpha 90.000000
_cell_angle_beta 33.450892
_cell_angle_gamma 90.000000
_cell_volume 1139.234347
_symmetry_space_group_name_H-M "C C"
_symmetry_group_IT_number 9
_symmetry_cell_setting 'monoclinic'
loop_
_space_group_symop_operation_xyz
x,y,z
x,-y,1/2+z
1/2+x,1/2+y,z
1/2+x,1/2-y,1/2+z
loop_
_atom_site_type_symbol
_atom_site_label
_atom_site_fract_x
_atom_site_fract_y
_atom_site_fract_z
Si Si1 0.438090 0.853217 0.200200
Si Si2 0.281774 0.537967 0.264527
Si Si3 0.681922 0.703286 0.685217
Si Si4 0.616062 0.901652 0.363787
Si Si5 0.868972 0.440426 0.976874
Si Si6 0.173354 0.201021 0.339525
Si Si7 0.405361 0.634545 0.743971
O O1 0.308853 0.792744 0.487118
O O2 0.399343 0.944723 0.396125
O O3 0.562064 0.776610 0.968445
O O4 0.426549 0.900689 0.040314
O O5 0.174480 0.497158 0.338842
O O6 0.196620 0.603738 0.546180
O O7 0.353115 0.449179 0.221903
O O8 0.387570 0.594879 0.961554
O O9 0.728461 0.612931 0.713731
O O10 0.663739 0.656380 0.538712
O O11 0.807177 0.774652 0.427005
O O12 0.460466 0.903914 0.653514
O O13 0.644135 0.813302 0.429307
O O14 0.057562 0.161834 0.440694
#
# Coordination Sequence:
#
# PCOD9138190 Si02
#       7
#     4   4   4   4   4   4   4
#     4  12  28  50  75 112 150 197 250 315 378 448
#     4  10  23  40  75 104 139 193 242 306 375 446
#     4  12  25  47  75 107 147 195 246 303 372 452
#     4  11  21  43  71 106 142 187 243 305 372 445
#     4  12  25  49  77 105 151 195 252 306 378 450
#     4  12  27  45  69 105 150 186 242 307 369 445
#     4  11  23  46  68 105 141 183 245 298 364 444
#
# _framework density 24.577911
#
# number of rings (size 3 to 8) (size 9 to 14) (size 15 to 20)
#    0.000    0.571    4.286    3.429    4.000    4.571 
#    2.571    0.000    0.000    0.000    0.000    0.000 
#    0.000    0.000    0.000    0.000    0.000    0.000 
#
# Total GULP energy -78055.832393 kJ/mol
# GULP energy per Si atom -5575.416600 kJ/mol
# Density = 2.452197 g / cm^3
# Si number density = 24.577911 Si / 1000 Ang^3
#
#
#
# Elastic Constant Matrix: (Units=GPa)
#
#
# Indices 1 2 3 4 5 6 
#
# 1 85.8633 29.3993 48.4315 0.0000 -5.1110 0.0000
# 2 29.3993 54.9108 39.7057 0.0000 -10.2518 0.0000
# 3 48.4315 39.7057 101.9935 0.0000 -16.8320 0.0000
# 4 0.0000 0.0000 0.0000 33.4013 0.0000 -4.9713
# 5 -5.1110 -10.2518 -16.8320 0.0000 35.1833 0.0000
# 6 0.0000 0.0000 0.0000 -4.9713 0.0000 26.8194
#
#
#
# Elastic Compliance Matrix: (Units=1/GPa)
#
#
# Indices 1 2 3 4 5 6 
#
# 1 0.016784 -0.004676 -0.006484 0.000000 -0.002026 0.000000
# 2 -0.004676 0.026923 -0.007685 0.000000 0.003489 0.000000
# 3 -0.006484 -0.007685 0.016666 0.000000 0.004792 0.000000
# 4 0.000000 0.000000 0.000000 0.030788 0.000000 0.005707
# 5 -0.002026 0.003489 0.004792 0.000000 0.031437 0.000000
# 6 0.000000 0.000000 0.000000 0.005707 0.000000 0.038344
#
#
# Mechanical properties :
#
#
# Convention : Reuss Voigt Hill
#
# Bulk Modulus (GPa) = 44.08478 53.09341 48.58909
# Shear Modulus (GPa) = 24.24894 27.42954 25.83924
#
# Velocity S-wave (km/s) = 3.14445 3.34432 3.24592
# Velocity P-wave (km/s) = 5.58203 6.04662 5.81897
#
# Compressibility (1/GPa) = 0.02268357
#
# Stress axis : x y z
#
# Youngs Moduli (GPa) = 59.57989 37.14262 60.00250
#
# Poissons Ratio (x) = 0.17368 0.38906
# Poissons Ratio (y) = 0.27860 0.46111
# Poissons Ratio (z) = 0.38631 0.28544
#
# Static dielectric constant tensor:
#      x y z
#    x 2.062850 0.000000 -0.070990 
#    y 0.000000 2.010460 0.000000 
#    z -0.070990 0.000000 1.993200 
# 
# From -- ./inp_files/11751.got.cif
#   From: 2010.05.17/outbox.cif.g08.bks.cpg/sg9_6_cif.got.tgz:11751.got - 2010.06.03 20:04:27.
