data_PCOD9138304
_publ_section_title
;
Structure prediction by ZEFSAII (Michael W. Deem and Ramdas Pophale) SiO2 
 PCOD9138304
Probable space group: C C
;
_chemical_formula_sum "Si O2"
_cell_formula_units_Z 28
_cell_length_a 14.189767
_cell_length_b 7.916291
_cell_length_c 10.924170
_cell_angle_alpha 90.000000
_cell_angle_beta 107.320222
_cell_angle_gamma 90.000000
_cell_volume 1171.472972
_symmetry_space_group_name_H-M "C C"
_symmetry_group_IT_number 9
_symmetry_cell_setting 'monoclinic'
loop_
_space_group_symop_operation_xyz
x,y,z
x,-y,1/2+z
1/2+x,1/2+y,z
1/2+x,1/2-y,1/2+z
loop_
_atom_site_type_symbol
_atom_site_label
_atom_site_fract_x
_atom_site_fract_y
_atom_site_fract_z
Si Si1 0.122790 0.574094 0.625000
Si Si2 0.762610 0.476303 0.839065
Si Si3 0.776628 0.095314 0.863533
Si Si4 0.455638 0.868782 0.448740
Si Si5 0.471649 0.513966 0.334817
Si Si6 0.574955 0.430929 0.627103
Si Si7 0.792727 0.221175 0.523711
O O1 0.180470 0.508292 0.765647
O O2 0.054232 0.730372 0.635058
O O3 0.210734 0.675019 0.590959
O O4 0.062197 0.441899 0.522198
O O5 0.749675 0.286875 0.887939
O O6 0.688951 0.481808 0.696277
O O7 0.879761 0.495231 0.862834
O O8 0.740813 0.638938 0.914650
O O9 0.869782 0.088872 0.807707
O O10 0.811148 0.968028 0.980439
O O11 0.451838 0.711791 0.355202
O O12 0.401233 0.808509 0.554826
O O13 0.539700 0.471425 0.477956
O O14 0.519806 0.488493 0.222074
#
# Coordination Sequence:
#
# PCOD9138304 Si02
#       7
#     4   4   4   4   4   4   4
#     4  11  23  44  71 102 142 192 248 306 371 449
#     4   9  21  44  66 104 138 187 242 297 365 442
#     4  10  23  42  68 101 139 191 236 308 365 449
#     4   9  23  43  66 106 139 196 238 303 369 454
#     4  11  25  44  71 106 145 190 247 298 375 441
#     4  11  25  45  70 107 139 193 243 301 371 445
#     4   9  22  44  66 100 144 185 246 295 374 436
#
# _framework density 23.901533000000001
#
# number of rings (size 3 to 8) (size 9 to 14) (size 15 to 20)
#    0.857    1.143    0.000    1.714   10.000    0.000 
#    5.143    2.857    0.000    0.000    0.000    0.000 
#    0.000    0.000    0.000    0.000    0.000    0.000 
#
# Total GULP energy -77947.583757 kJ/mol
# GULP energy per Si atom -5567.684554 kJ/mol
# Density = 2.384713 g / cm^3
# Si number density = 23.901533 Si / 1000 Ang^3
#
#
#
# Elastic Constant Matrix: (Units=GPa)
#
#
# Indices 1 2 3 4 5 6 
#
# 1 70.6999 15.9308 32.7076 0.0000 7.2870 0.0000
# 2 15.9308 93.6980 23.1301 0.0000 17.0188 0.0000
# 3 32.7076 23.1301 67.3905 0.0000 22.8856 0.0000
# 4 0.0000 0.0000 0.0000 26.3174 0.0000 10.8649
# 5 7.2870 17.0188 22.8856 0.0000 40.0001 0.0000
# 6 0.0000 0.0000 0.0000 10.8649 0.0000 28.2266
#
#
#
# Elastic Compliance Matrix: (Units=1/GPa)
#
#
# Indices 1 2 3 4 5 6 
#
# 1 0.018529 -0.001290 -0.009421 0.000000 0.002563 0.000000
# 2 -0.001290 0.012116 -0.002310 0.000000 -0.003598 0.000000
# 3 -0.009421 -0.002310 0.023939 0.000000 -0.010997 0.000000
# 4 0.000000 0.000000 0.000000 0.045177 0.000000 -0.017389
# 5 0.002563 -0.003598 -0.010997 0.000000 0.032356 0.000000
# 6 0.000000 0.000000 0.000000 -0.017389 0.000000 0.042121
#
#
# Mechanical properties :
#
#
# Convention : Reuss Voigt Hill
#
# Bulk Modulus (GPa) = 35.03737 41.70282 38.37010
# Shear Modulus (GPa) = 23.83302 29.57682 26.70492
#
# Velocity S-wave (km/s) = 3.16117 3.52155 3.34621
# Velocity P-wave (km/s) = 5.29291 5.83273 5.56936
#
# Compressibility (1/GPa) = 0.02854095
#
# Stress axis : x y z
#
# Youngs Moduli (GPa) = 53.96931 82.53674 41.77354
#
# Poissons Ratio (x) = 0.10651 0.39353
# Poissons Ratio (y) = 0.06964 0.09651
# Poissons Ratio (z) = 0.50842 0.19068
#
# Static dielectric constant tensor:
#      x y z
#    x 2.056950 0.000000 -0.049250 
#    y 0.000000 2.059960 0.000000 
#    z -0.049250 0.000000 1.972580 
# 
# From -- ./inp_files/17809.got.cif
#   From: 2010.05.17/outbox.cif.g08.bks.cpg/sg9_9_cif.got.tgz:17809.got - 2010.06.03 20:04:27.
