data_PCOD9138104
_publ_section_title
;
Structure prediction by ZEFSAII (Michael W. Deem and Ramdas Pophale) SiO2 
 PCOD9138104
Probable space group: C C
;
_chemical_formula_sum "Si O2"
_cell_formula_units_Z 32
_cell_length_a 12.008016
_cell_length_b 15.006579
_cell_length_c 13.946929
_cell_angle_alpha 90.000000
_cell_angle_beta 30.586470
_cell_angle_gamma 90.000000
_cell_volume 1278.825260
_symmetry_space_group_name_H-M "C C"
_symmetry_group_IT_number 9
_symmetry_cell_setting 'monoclinic'
loop_
_space_group_symop_operation_xyz
x,y,z
x,-y,1/2+z
1/2+x,1/2+y,z
1/2+x,1/2-y,1/2+z
loop_
_atom_site_type_symbol
_atom_site_label
_atom_site_fract_x
_atom_site_fract_y
_atom_site_fract_z
Si Si1 0.219510 0.182737 0.190940
Si Si2 0.261339 0.340935 0.522373
Si Si3 0.395922 0.122962 0.759506
Si Si4 0.652386 0.122965 0.759675
Si Si5 0.666258 0.071927 0.296815
Si Si6 0.966234 0.817261 0.690768
Si Si7 0.807700 0.571929 0.296714
Si Si8 0.200177 0.128783 0.583586
O O1 0.275375 0.283483 0.180599
O O2 0.021564 0.189435 0.262159
O O3 0.425693 0.142005 0.983564
O O4 0.172666 0.119981 0.314500
O O5 0.475507 0.374635 0.308222
O O6 0.255513 0.377096 0.635600
O O7 0.540769 0.122958 0.135508
O O8 0.257578 0.233497 0.526169
O O9 0.587666 0.109384 0.696085
O O10 0.431120 0.216508 0.680385
O O11 0.357214 0.030208 0.736459
O O12 0.174775 0.141999 0.983407
O O13 0.737154 0.030224 0.736689
O O14 0.405412 0.082625 0.483506
O O15 0.765944 0.120008 0.314371
O O16 0.695257 0.582592 0.483386
#
# Coordination Sequence:
#
# PCOD9138104 Si02
#       8
#     4   4   4   4   4   4   4   4
#     4  10  25  46  75 105 154 200 244 310 381 446
#     4  11  23  44  77 119 149 198 245 330 382 431
#     4  10  22  49  70 107 150 197 253 306 374 458
#     4  10  22  49  70 107 150 197 253 306 374 458
#     4  11  24  48  78 113 154 196 260 311 374 462
#     4  10  25  46  75 105 154 200 244 310 381 446
#     4  11  24  48  78 113 154 196 260 311 374 462
#     4  11  23  44  77 115 157 186 261 318 386 435
#
# _framework density 25.022964999999999
#
# number of rings (size 3 to 8) (size 9 to 14) (size 15 to 20)
#    0.000    1.500    5.000    0.000    3.500    2.000 
#    9.000    0.000    5.500    0.000    0.000    0.000 
#    0.000    0.000    0.000    0.000    0.000    0.000 
#
# Total GULP energy -89748.504068 kJ/mol
# GULP energy per Si atom -5609.281504 kJ/mol
# Density = 2.496601 g / cm^3
# Si number density = 25.022965 Si / 1000 Ang^3
#
#
#
# Elastic Constant Matrix: (Units=GPa)
#
#
# Indices 1 2 3 4 5 6 
#
# 1 82.5610 61.3918 23.6858 -0.0043 4.2038 0.0200
# 2 61.3918 222.1185 11.2887 -0.0071 14.1803 0.0150
# 3 23.6858 11.2887 104.9303 -0.0128 -10.5555 0.0243
# 4 -0.0043 -0.0071 -0.0128 33.3971 0.0026 -21.8268
# 5 4.2038 14.1803 -10.5555 0.0026 26.2132 -0.0362
# 6 0.0200 0.0150 0.0243 -21.8268 -0.0362 -43.7639
#
#
#
# Elastic Compliance Matrix: (Units=1/GPa)
#
#
# Indices 1 2 3 4 5 6 
#
# 1 0.016319 -0.004229 -0.003399 0.000003 -0.001698 0.000004
# 2 -0.004229 0.005822 0.000083 0.000002 -0.002438 0.000001
# 3 -0.003399 0.000083 0.010775 0.000003 0.004839 -0.000001
# 4 0.000003 0.000002 0.000003 0.022582 -0.000018 -0.011263
# 5 -0.001698 -0.002438 0.004839 -0.000018 0.041689 -0.000024
# 6 0.000004 0.000001 -0.000001 -0.011263 -0.000024 -0.017233
#
#
# Mechanical properties :
#
#
# Convention : Reuss Voigt Hill
#
# Bulk Modulus (GPa) = 56.10004 66.92691 61.51348
# Shear Modulus (GPa) = 49.51108 24.05219 36.78164
#
# Velocity S-wave (km/s) = 4.45300 3.10369 3.83811
# Velocity P-wave (km/s) = 6.99336 6.29668 6.65414
#
# Compressibility (1/GPa) = 0.01782530
#
# Stress axis : x y z
#
# Youngs Moduli (GPa) = 61.27909 171.74917 92.80423
#
# Poissons Ratio (x) = 0.72636 0.31548
# Poissons Ratio (y) = 0.25916 -0.00770
# Poissons Ratio (z) = 0.20832 -0.01426
#
# Static dielectric constant tensor:
#      x y z
#    x 1.977850 0.000000 -0.002400 
#    y 0.000000 1.912600 0.000000 
#    z -0.002400 0.000000 1.987060 
# 
# From -- ./inp_files/16869.got.cif
#   From: 2010.05.17/outbox.cif.g08.bks.cpg/sg9_9_cif.got.tgz:16869.got - 2010.06.03 20:04:27.
