data_PCOD9138582
_publ_section_title
;
Structure prediction by ZEFSAII (Michael W. Deem and Ramdas Pophale) SiO2 
 PCOD9138582
Probable space group: C C
;
_chemical_formula_sum "Si O2"
_cell_formula_units_Z 24
_cell_length_a 5.119797
_cell_length_b 18.190403
_cell_length_c 11.224559
_cell_angle_alpha 90.000000
_cell_angle_beta 69.601936
_cell_angle_gamma 90.000000
_cell_volume 979.805963
_symmetry_space_group_name_H-M "C C"
_symmetry_group_IT_number 9
_symmetry_cell_setting 'monoclinic'
loop_
_space_group_symop_operation_xyz
x,y,z
x,-y,1/2+z
1/2+x,1/2+y,z
1/2+x,1/2-y,1/2+z
loop_
_atom_site_type_symbol
_atom_site_label
_atom_site_fract_x
_atom_site_fract_y
_atom_site_fract_z
Si Si1 0.601670 0.345787 0.391740
Si Si2 0.692352 0.084677 0.782261
Si Si3 0.833101 0.796480 0.825633
Si Si4 0.346193 0.811958 0.614003
Si Si5 0.015026 0.416455 0.786264
Si Si6 0.559488 0.336845 0.028351
O O1 0.334310 0.390283 0.386332
O O2 0.604564 0.264154 0.337140
O O3 0.693091 0.332202 0.514675
O O4 0.890915 0.381294 0.300556
O O5 0.923504 0.112850 0.651460
O O6 0.610953 0.999097 0.789599
O O7 0.789406 0.869120 0.759705
O O8 0.131505 0.769137 0.735270
O O9 0.832683 0.821915 0.961254
O O10 0.414842 0.887040 0.673866
O O11 0.593207 0.750180 0.560395
O O12 0.800928 0.382681 0.920282
#
# Coordination Sequence:
#
# PCOD9138582 Si02
#       6
#     4   4   4   4   4   4
#     4  11  27  46  76 110 151 204 254 307 383 455
#     4  12  28  49  73 113 157 200 244 319 393 450
#     4  10  23  44  75 111 145 206 257 316 370 459
#     4  10  23  47  77 112 147 204 263 317 372 463
#     4  11  27  45  79 109 153 202 254 319 387 458
#     4  10  24  47  74 109 155 200 264 316 375 459
#
# _framework density 24.494644000000001
#
# number of rings (size 3 to 8) (size 9 to 14) (size 15 to 20)
#    0.000    1.333    1.667    1.000   14.000    4.000 
#    0.000    0.000    0.000    0.000    0.000    0.000 
#    0.000    0.000    0.000    0.000    0.000    0.000 
#
# Total GULP energy -66888.019322 kJ/mol
# GULP energy per Si atom -5574.001610 kJ/mol
# Density = 2.443889 g / cm^3
# Si number density = 24.494644 Si / 1000 Ang^3
#
#
#
# Elastic Constant Matrix: (Units=GPa)
#
#
# Indices 1 2 3 4 5 6 
#
# 1 104.8059 51.1571 33.1992 0.0000 4.4797 0.0000
# 2 51.1571 201.7100 46.9822 0.0000 -5.5395 0.0000
# 3 33.1992 46.9822 126.7637 0.0000 -4.9639 0.0000
# 4 0.0000 0.0000 0.0000 27.1820 0.0000 4.8797
# 5 4.4797 -5.5395 -4.9639 0.0000 47.8411 0.0000
# 6 0.0000 0.0000 0.0000 4.8797 0.0000 45.5557
#
#
#
# Elastic Compliance Matrix: (Units=1/GPa)
#
#
# Indices 1 2 3 4 5 6 
#
# 1 0.011492 -0.002455 -0.002162 0.000000 -0.001585 0.000000
# 2 -0.002455 0.005959 -0.001536 0.000000 0.000760 0.000000
# 3 -0.002162 -0.001536 0.009062 0.000000 0.000965 0.000000
# 4 0.000000 0.000000 0.000000 0.037510 0.000000 -0.004018
# 5 -0.001585 0.000760 0.000965 0.000000 0.021239 0.000000
# 6 0.000000 0.000000 0.000000 -0.004018 0.000000 0.022382
#
#
# Mechanical properties :
#
#
# Convention : Reuss Voigt Hill
#
# Bulk Modulus (GPa) = 70.38359 77.32851 73.85605
# Shear Modulus (GPa) = 40.10113 44.24517 42.17315
#
# Velocity S-wave (km/s) = 4.05055 4.25469 4.15387
# Velocity P-wave (km/s) = 7.11847 7.46824 7.29545
#
# Compressibility (1/GPa) = 0.01420786
#
# Stress axis : x y z
#
# Youngs Moduli (GPa) = 87.01595 167.82073 110.35132
#
# Poissons Ratio (x) = 0.41192 0.23859
# Poissons Ratio (y) = 0.21358 0.16948
# Poissons Ratio (z) = 0.18814 0.25775
#
# Static dielectric constant tensor:
#      x y z
#    x 1.983390 0.000000 0.002730 
#    y 0.000000 1.921960 0.000000 
#    z 0.002730 0.000000 2.163240 
# 
# From -- ./inp_files/13003.got.cif
#   From: 2010.05.17/outbox.cif.g08.bks.cpg/sg9_7_cif.got.tgz:13003.got - 2010.06.03 20:04:27.
