data_PCOD9138897
_publ_section_title
;
Structure prediction by ZEFSAII (Michael W. Deem and Ramdas Pophale) SiO2 
 PCOD9138897
Probable space group: C C
;
_chemical_formula_sum "Si O2"
_cell_formula_units_Z 20
_cell_length_a 4.992060
_cell_length_b 18.705697
_cell_length_c 8.821591
_cell_angle_alpha 90.000000
_cell_angle_beta 85.903508
_cell_angle_gamma 90.000000
_cell_volume 821.655255
_symmetry_space_group_name_H-M "C C"
_symmetry_group_IT_number 9
_symmetry_cell_setting 'monoclinic'
loop_
_space_group_symop_operation_xyz
x,y,z
x,-y,1/2+z
1/2+x,1/2+y,z
1/2+x,1/2-y,1/2+z
loop_
_atom_site_type_symbol
_atom_site_label
_atom_site_fract_x
_atom_site_fract_y
_atom_site_fract_z
Si Si1 0.092870 0.940330 0.059580
Si Si2 0.371066 0.949896 0.355416
Si Si3 0.696990 0.238140 0.194904
Si Si4 0.173919 0.302721 0.352329
Si Si5 0.597947 0.904796 0.879039
O O1 0.160540 0.935635 0.231171
O O2 0.307816 0.890288 0.963637
O O3 0.806335 0.918918 0.006738
O O4 0.193228 0.019231 0.001263
O O5 0.560436 0.882887 0.375911
O O6 0.555781 0.018187 0.301711
O O7 0.474568 0.287671 0.284411
O O8 0.677138 0.158639 0.266767
O O9 0.985615 0.267276 0.232348
O O10 0.646283 0.232493 0.018844
#
# Coordination Sequence:
#
# PCOD9138897 Si02
#       5
#     4   4   4   4   4
#     4  10  24  39  76 100 140 182 238 302 358 429
#     4  10  26  44  74 105 139 187 247 298 368 428
#     4  12  28  49  71 111 146 200 238 311 362 450
#     4  12  29  47  76 105 153 190 254 293 380 434
#     4  10  25  45  71  99 146 179 245 298 364 421
#
# _framework density 24.341107000000001
#
# number of rings (size 3 to 8) (size 9 to 14) (size 15 to 20)
#    1.200    0.000    0.000    3.600   14.000    0.000 
#    0.000    0.000    0.000    0.000    0.000    0.000 
#    0.000    0.000    0.000    0.000    0.000    0.000 
#
# Total GULP energy -55989.987291 kJ/mol
# GULP energy per Si atom -5598.998729 kJ/mol
# Density = 2.428571 g / cm^3
# Si number density = 24.341107 Si / 1000 Ang^3
#
#
#
# Elastic Constant Matrix: (Units=GPa)
#
#
# Indices 1 2 3 4 5 6 
#
# 1 82.2214 17.7759 -1.6464 0.0000 9.0517 0.0000
# 2 17.7759 160.4108 29.9096 0.0000 9.9171 0.0000
# 3 -1.6464 29.9096 86.1333 0.0000 5.6167 0.0000
# 4 0.0000 0.0000 0.0000 26.0630 0.0000 -2.6731
# 5 9.0517 9.9171 5.6167 0.0000 27.2838 0.0000
# 6 0.0000 0.0000 0.0000 -2.6731 0.0000 33.2501
#
#
#
# Elastic Compliance Matrix: (Units=1/GPa)
#
#
# Indices 1 2 3 4 5 6 
#
# 1 0.012917 -0.001368 0.000982 0.000000 -0.003990 0.000000
# 2 -0.001368 0.006917 -0.002325 0.000000 -0.001582 0.000000
# 3 0.000982 -0.002325 0.012571 0.000000 -0.002069 0.000000
# 4 0.000000 0.000000 0.000000 0.038688 0.000000 0.003110
# 5 -0.003990 -0.001582 -0.002069 0.000000 0.038976 0.000000
# 6 0.000000 0.000000 0.000000 0.003110 0.000000 0.030325
#
#
# Mechanical properties :
#
#
# Convention : Reuss Voigt Hill
#
# Bulk Modulus (GPa) = 37.05967 46.76040 41.91004
# Shear Modulus (GPa) = 32.29777 36.16781 34.23279
#
# Velocity S-wave (km/s) = 3.64659 3.85889 3.75424
# Velocity P-wave (km/s) = 5.74355 6.25355 6.00396
#
# Compressibility (1/GPa) = 0.02698351
#
# Stress axis : x y z
#
# Youngs Moduli (GPa) = 77.41755 144.57466 79.54891
#
# Poissons Ratio (x) = 0.19775 -0.07812
# Poissons Ratio (y) = 0.10589 0.18494
# Poissons Ratio (z) = -0.07603 0.33612
#
# Static dielectric constant tensor:
#      x y z
#    x 1.876580 0.000000 -0.058580 
#    y 0.000000 1.987180 0.000000 
#    z -0.058580 0.000000 1.911250 
# 
# From -- ./inp_files/3630.got.cif
#   From: 2010.05.17/outbox.cif.g08.bks.cpg/sg9_2_cif.got.tgz:3630.got - 2010.06.03 20:04:27.
