data_PCOD9138859
_publ_section_title
;
Structure prediction by ZEFSAII (Michael W. Deem and Ramdas Pophale) SiO2 
 PCOD9138859
Probable space group: C C
;
_chemical_formula_sum "Si O2"
_cell_formula_units_Z 16
_cell_length_a 11.437444
_cell_length_b 10.619225
_cell_length_c 7.536642
_cell_angle_alpha 90.000000
_cell_angle_beta 36.858684
_cell_angle_gamma 90.000000
_cell_volume 549.082480
_symmetry_space_group_name_H-M "C C"
_symmetry_group_IT_number 9
_symmetry_cell_setting 'monoclinic'
loop_
_space_group_symop_operation_xyz
x,y,z
x,-y,1/2+z
1/2+x,1/2+y,z
1/2+x,1/2-y,1/2+z
loop_
_atom_site_type_symbol
_atom_site_label
_atom_site_fract_x
_atom_site_fract_y
_atom_site_fract_z
Si Si1 0.840750 0.154768 0.637230
Si Si2 0.626819 0.563933 0.828988
Si Si3 0.232428 0.400457 0.640219
Si Si4 0.378866 0.886541 0.337580
O O1 0.749818 0.053820 0.608729
O O2 0.027512 0.073902 0.479567
O O3 0.715513 0.162621 0.968925
O O4 0.382450 0.783179 0.487461
O O5 0.445482 0.635088 0.961404
O O6 0.819875 0.475359 0.986238
O O7 0.198115 0.129179 0.919886
O O8 0.066938 0.383228 0.985989
#
# Coordination Sequence:
#
# PCOD9138859 Si02
#       4
#     4   4   4   4
#     4  10  24  51  84 125 174 227 285 365 436 514
#     4  10  23  49  79 124 177 214 296 364 404 549
#     4  10  23  52  80 128 179 215 299 366 413 551
#     4  12  24  48  91 125 170 244 278 353 469 492
#
# _framework density 29.139520000000001
#
# number of rings (size 3 to 8) (size 9 to 14) (size 15 to 20)
#    1.500    0.000    2.500    1.500    0.000    4.000 
#    4.500   12.500    0.000    0.000    0.000    0.000 
#    0.000    0.000    0.000    0.000    0.000    0.000 
#
# Total GULP energy -44824.913866 kJ/mol
# GULP energy per Si atom -5603.114233 kJ/mol
# Density = 2.907320 g / cm^3
# Si number density = 29.139520 Si / 1000 Ang^3
#
#
#
# Elastic Constant Matrix: (Units=GPa)
#
#
# Indices 1 2 3 4 5 6 
#
# 1 144.3142 61.2446 85.0756 -0.0004 30.4326 0.0005
# 2 61.2446 114.2578 67.1460 -0.0001 -12.1580 0.0003
# 3 85.0756 67.1460 254.0299 -0.0001 7.0489 0.0004
# 4 -0.0004 -0.0001 -0.0001 53.5558 0.0002 7.1642
# 5 30.4326 -12.1580 7.0489 0.0002 40.3572 -0.0003
# 6 0.0005 0.0003 0.0004 7.1642 -0.0003 40.7001
#
#
#
# Elastic Compliance Matrix: (Units=1/GPa)
#
#
# Indices 1 2 3 4 5 6 
#
# 1 0.014192 -0.007522 -0.002417 0.000000 -0.012546 0.000000
# 2 -0.007522 0.014902 -0.001710 0.000000 0.010460 0.000000
# 3 -0.002417 -0.001710 0.005187 0.000000 0.000401 0.000000
# 4 0.000000 0.000000 0.000000 0.019122 0.000000 -0.003366
# 5 -0.012546 0.010460 0.000401 0.000000 0.037320 0.000000
# 6 0.000000 0.000000 0.000000 -0.003366 0.000000 0.025162
#
#
# Mechanical properties :
#
#
# Convention : Reuss Voigt Hill
#
# Bulk Modulus (GPa) = 91.04603 104.39269 97.71936
# Shear Modulus (GPa) = 35.00328 46.86500 40.93414
#
# Velocity S-wave (km/s) = 3.46964 4.01471 3.75208
# Velocity P-wave (km/s) = 6.88214 7.57584 7.23731
#
# Compressibility (1/GPa) = 0.01098346
#
# Stress axis : x y z
#
# Youngs Moduli (GPa) = 70.46394 67.10483 192.79952
#
# Poissons Ratio (x) = 0.50475 0.46590
# Poissons Ratio (y) = 0.53002 0.32971
# Poissons Ratio (z) = 0.17028 0.11476
#
# Static dielectric constant tensor:
#      x y z
#    x 2.343790 0.000000 -0.061240 
#    y 0.000000 2.294580 0.000000 
#    z -0.061240 0.000000 2.341500 
# 
# From -- ./inp_files/6626.got.cif
#   From: 2010.05.17/outbox.cif.g08.bks.cpg/sg9_4_cif.got.tgz:6626.got - 2010.06.03 20:04:27.
