data_PCOD9138259
_publ_section_title
;
Structure prediction by ZEFSAII (Michael W. Deem and Ramdas Pophale) SiO2 
 PCOD9138259
Probable space group: C C
;
_chemical_formula_sum "Si O2"
_cell_formula_units_Z 28
_cell_length_a 19.320008
_cell_length_b 13.027071
_cell_length_c 9.347908
_cell_angle_alpha 90.000000
_cell_angle_beta 30.690509
_cell_angle_gamma 90.000000
_cell_volume 1200.824619
_symmetry_space_group_name_H-M "C C"
_symmetry_group_IT_number 9
_symmetry_cell_setting 'monoclinic'
loop_
_space_group_symop_operation_xyz
x,y,z
x,-y,1/2+z
1/2+x,1/2+y,z
1/2+x,1/2-y,1/2+z
loop_
_atom_site_type_symbol
_atom_site_label
_atom_site_fract_x
_atom_site_fract_y
_atom_site_fract_z
Si Si1 0.170060 0.214348 0.939850
Si Si2 0.123067 0.925613 0.165641
Si Si3 0.877904 0.545607 0.672542
Si Si4 0.218732 0.550775 0.822495
Si Si5 0.986567 0.033760 0.172969
Si Si6 0.645035 0.810573 0.699883
Si Si7 0.587185 0.893656 0.267295
O O1 0.288089 0.133138 0.758041
O O2 0.210915 0.288901 0.736833
O O3 0.042989 0.146698 0.112999
O O4 0.121298 0.277973 0.163813
O O5 0.003630 0.974409 0.474206
O O6 0.116170 0.804454 0.196941
O O7 0.088986 0.955322 0.065600
O O8 0.261509 0.983603 0.969499
O O9 0.014515 0.614406 0.462940
O O10 0.943624 0.445321 0.480040
O O11 0.340917 0.525650 0.499996
O O12 0.106338 0.585734 0.903076
O O13 0.231863 0.639591 0.918262
O O14 0.182904 0.457379 0.990053
#
# Coordination Sequence:
#
# PCOD9138259 Si02
#       7
#     4   4   4   4   4   4   4
#     4  10  24  42  68  98 138 184 226 292 350 405
#     4  10  23  43  67  93 138 181 222 288 344 400
#     4  10  24  45  69 101 139 179 239 281 343 424
#     4  11  24  42  66 102 135 179 234 281 355 415
#     4  10  23  42  62 100 129 177 232 273 351 414
#     4  10  24  43  66 105 133 181 232 288 349 410
#     4  11  24  43  68  99 136 185 223 291 350 402
#
# _framework density 23.317309000000002
#
# number of rings (size 3 to 8) (size 9 to 14) (size 15 to 20)
#    0.000    1.714    0.000    2.571    8.000   12.571 
#    0.000    0.000    0.000    0.000    0.000    0.000 
#    0.000    0.000    0.000    0.000    0.000    0.000 
#
# Total GULP energy -77944.495443 kJ/mol
# GULP energy per Si atom -5567.463960 kJ/mol
# Density = 2.326424 g / cm^3
# Si number density = 23.317309 Si / 1000 Ang^3
#
#
#
# Elastic Constant Matrix: (Units=GPa)
#
#
# Indices 1 2 3 4 5 6 
#
# 1 31.2918 15.6474 -9.9687 0.0000 7.5355 0.0000
# 2 15.6474 77.1204 4.8617 0.0000 5.6060 0.0000
# 3 -9.9687 4.8617 100.9099 0.0000 -11.0533 0.0000
# 4 0.0000 0.0000 0.0000 242.4034 0.0000 343.8455
# 5 7.5355 5.6060 -11.0533 0.0000 31.6936 0.0000
# 6 0.0000 0.0000 0.0000 343.8455 0.0000 615.4128
#
#
#
# Elastic Compliance Matrix: (Units=1/GPa)
#
#
# Indices 1 2 3 4 5 6 
#
# 1 0.038406 -0.007529 0.003434 0.000000 -0.006602 0.000000
# 2 -0.007529 0.014695 -0.001602 0.000000 -0.001368 0.000000
# 3 0.003434 -0.001602 0.010676 0.000000 0.003190 0.000000
# 4 0.000000 0.000000 0.000000 0.019885 0.000000 -0.011110
# 5 -0.006602 -0.001368 0.003190 0.000000 0.034476 0.000000
# 6 0.000000 0.000000 0.000000 -0.011110 0.000000 0.007832
#
#
# Mechanical properties :
#
#
# Convention : Reuss Voigt Hill
#
# Bulk Modulus (GPa) = 19.09035 25.60030 22.34533
# Shear Modulus (GPa) = 32.29459 191.15406 111.72433
#
# Velocity S-wave (km/s) = 3.72560 9.06407 6.92956
# Velocity P-wave (km/s) = 5.16835 10.97935 8.58073
#
# Compressibility (1/GPa) = 0.05238248
#
# Stress axis : x y z
#
# Youngs Moduli (GPa) = 26.03768 68.05172 93.67138
#
# Poissons Ratio (x) = 0.51236 -0.32163
# Poissons Ratio (y) = 0.19604 0.15002
# Poissons Ratio (z) = -0.08940 0.10899
#
# Static dielectric constant tensor:
#      x y z
#    x 1.976500 0.000000 -0.038040 
#    y 0.000000 1.366730 0.000000 
#    z -0.038040 0.000000 1.925340 
# 
# From -- ./inp_files/11764.got.cif
#   From: 2010.05.17/outbox.cif.g08.bks.cpg/sg9_6_cif.got.tgz:11764.got - 2010.06.03 20:04:27.
