data_PCOD9138199
_publ_section_title
;
Structure prediction by ZEFSAII (Michael W. Deem and Ramdas Pophale) SiO2 
 PCOD9138199
Probable space group: C C
;
_chemical_formula_sum "Si O2"
_cell_formula_units_Z 32
_cell_length_a 12.546983
_cell_length_b 23.177857
_cell_length_c 5.081533
_cell_angle_alpha 90.000000
_cell_angle_beta 116.089074
_cell_angle_gamma 90.000000
_cell_volume 1327.203670
_symmetry_space_group_name_H-M "C C"
_symmetry_group_IT_number 9
_symmetry_cell_setting 'monoclinic'
loop_
_space_group_symop_operation_xyz
x,y,z
x,-y,1/2+z
1/2+x,1/2+y,z
1/2+x,1/2-y,1/2+z
loop_
_atom_site_type_symbol
_atom_site_label
_atom_site_fract_x
_atom_site_fract_y
_atom_site_fract_z
Si Si1 0.099070 0.960801 0.341640
Si Si2 0.970131 0.541787 0.638402
Si Si3 0.289017 0.876415 0.674882
Si Si4 0.343074 0.538107 0.483330
Si Si5 0.169460 0.613388 0.091945
Si Si6 0.493415 0.797018 0.665636
Si Si7 0.684827 0.740322 0.190072
Si Si8 0.814624 0.785749 0.815706
O O1 0.212355 0.921056 0.424278
O O2 0.103346 0.987384 0.637517
O O3 0.969599 0.931526 0.169339
O O4 0.963673 0.496104 0.394771
O O5 0.863728 0.587407 0.472242
O O6 0.093185 0.577963 0.798931
O O7 0.387017 0.839253 0.628886
O O8 0.194975 0.827943 0.660190
O O9 0.342785 0.485519 0.686461
O O10 0.219922 0.571686 0.372939
O O11 0.289995 0.650338 0.174862
O O12 0.081994 0.661824 0.106233
O O13 0.443603 0.742609 0.449873
O O14 0.560292 0.770030 0.989129
O O15 0.732733 0.748980 0.532633
O O16 0.770238 0.773489 0.067558
#
# Coordination Sequence:
#
# PCOD9138199 Si02
#       8
#     4   4   4   4   4   4   4   4
#     4  10  23  43  66  96 132 173 224 270 324 402
#     4  12  25  40  64 100 132 168 217 276 332 400
#     4  11  23  42  71  95 139 175 221 273 351 385
#     4  10  23  43  66  96 132 173 224 270 324 402
#     4  11  23  42  71  95 139 175 221 273 351 385
#     4  10  23  44  68 104 138 174 233 282 340 410
#     4  10  23  41  63  93 133 174 219 271 327 403
#     4  10  23  41  63  93 133 174 219 271 327 403
#
# _framework density 24.110842999999999
#
# number of rings (size 3 to 8) (size 9 to 14) (size 15 to 20)
#    0.000    1.500    0.000    3.750    1.750   11.000 
#    0.000    0.000    0.000    0.000    0.000    0.000 
#    0.000    0.000    0.000    0.000    0.000    0.000 
#
# Total GULP energy -89366.443993 kJ/mol
# GULP energy per Si atom -5585.402750 kJ/mol
# Density = 2.405597 g / cm^3
# Si number density = 24.110843 Si / 1000 Ang^3
#
#
#
# Elastic Constant Matrix: (Units=GPa)
#
#
# Indices 1 2 3 4 5 6 
#
# 1 56.3307 10.9396 31.7912 0.0000 7.0228 0.0000
# 2 10.9396 73.8879 32.1946 0.0000 14.9405 0.0000
# 3 31.7912 32.1946 112.5685 0.0000 23.5587 0.0000
# 4 0.0000 0.0000 0.0000 57.9893 0.0000 32.0846
# 5 7.0228 14.9405 23.5587 0.0000 34.2021 0.0000
# 6 0.0000 0.0000 0.0000 32.0846 0.0000 36.0938
#
#
#
# Elastic Compliance Matrix: (Units=1/GPa)
#
#
# Indices 1 2 3 4 5 6 
#
# 1 0.021142 -0.000591 -0.005781 0.000000 -0.000101 0.000000
# 2 -0.000591 0.016047 -0.003483 0.000000 -0.004489 0.000000
# 3 -0.005781 -0.003483 0.012789 0.000000 -0.006101 0.000000
# 4 0.000000 0.000000 0.000000 0.033934 0.000000 -0.030165
# 5 -0.000101 -0.004489 -0.006101 0.000000 0.035422 0.000000
# 6 0.000000 0.000000 0.000000 -0.030165 0.000000 0.054520
#
#
# Mechanical properties :
#
#
# Convention : Reuss Voigt Hill
#
# Bulk Modulus (GPa) = 33.03748 43.62642 38.33195
# Shear Modulus (GPa) = 24.55152 36.84782 30.69967
#
# Velocity S-wave (km/s) = 3.19451 3.91355 3.57217
# Velocity P-wave (km/s) = 5.22863 6.20923 5.73991
#
# Compressibility (1/GPa) = 0.03026865
#
# Stress axis : x y z
#
# Youngs Moduli (GPa) = 47.29899 62.31738 78.19251
#
# Poissons Ratio (x) = 0.03683 0.45200
# Poissons Ratio (y) = 0.02795 0.27234
# Poissons Ratio (z) = 0.27342 0.21705
#
# Static dielectric constant tensor:
#      x y z
#    x 2.044490 0.000000 0.029400 
#    y 0.000000 1.999280 0.000000 
#    z 0.029400 0.000000 1.883490 
# 
# From -- ./inp_files/2047.got.cif
#   From: 2010.05.17/outbox.cif.g08.bks.cpg/sg9_2_cif.got.tgz:2047.got - 2010.06.03 20:04:27.
