data_PCOD9138238
_publ_section_title
;
Structure prediction by ZEFSAII (Michael W. Deem and Ramdas Pophale) SiO2 
 PCOD9138238
Probable space group: C C
;
_chemical_formula_sum "Si O2"
_cell_formula_units_Z 32
_cell_length_a 11.980606
_cell_length_b 8.217527
_cell_length_c 17.880414
_cell_angle_alpha 90.000000
_cell_angle_beta 40.879119
_cell_angle_gamma 90.000000
_cell_volume 1152.083945
_symmetry_space_group_name_H-M "C C"
_symmetry_group_IT_number 9
_symmetry_cell_setting 'monoclinic'
loop_
_space_group_symop_operation_xyz
x,y,z
x,-y,1/2+z
1/2+x,1/2+y,z
1/2+x,1/2-y,1/2+z
loop_
_atom_site_type_symbol
_atom_site_label
_atom_site_fract_x
_atom_site_fract_y
_atom_site_fract_z
Si Si1 0.141720 0.517455 0.463780
Si Si2 0.241279 0.461267 0.147994
Si Si3 0.148918 0.076573 0.595967
Si Si4 0.996539 0.818277 0.772345
Si Si5 0.507465 0.821993 0.886530
Si Si6 0.955453 0.630019 0.236856
Si Si7 0.335866 0.213753 0.696396
Si Si8 0.110753 0.134519 0.456370
O O1 0.326567 0.595990 0.392676
O O2 0.108035 0.561134 0.393017
O O3 0.140825 0.321549 0.467778
O O4 0.973424 0.598051 0.586996
O O5 0.114949 0.323074 0.248359
O O6 0.305101 0.615521 0.165890
O O7 0.416138 0.381199 0.031795
O O8 0.126544 0.527529 0.137260
O O9 0.320972 0.179584 0.516647
O O10 0.139316 0.019076 0.515192
O O11 0.988294 0.193370 0.687740
O O12 0.130843 0.945650 0.669405
O O13 0.913871 0.743939 0.738479
O O14 0.467786 0.869360 0.821189
O O15 0.634945 0.671643 0.810851
O O16 0.759733 0.592596 0.322904
#
# Coordination Sequence:
#
# PCOD9138238 Si02
#       8
#     4   4   4   4   4   4   4   4
#     4  11  23  44  71 103 144 196 252 307 372 460
#     4  11  24  41  69 105 138 195 241 296 387 444
#     4  11  21  44  69 100 144 184 244 308 362 447
#     4  11  24  43  73 102 145 196 244 307 378 451
#     4   9  20  38  68  95 136 185 230 298 372 421
#     4  10  23  41  69 102 143 185 245 306 374 447
#     4  10  23  43  65 104 146 184 245 310 365 444
#     4  11  24  44  72 101 146 197 247 314 378 446
#
# _framework density 27.775753999999999
#
# number of rings (size 3 to 8) (size 9 to 14) (size 15 to 20)
#    0.000    1.500    2.500    2.250    3.500    1.000 
#    0.000    1.250    0.000    0.000    0.000    0.000 
#    0.000    0.000    0.000    0.000    0.000    0.000 
#
# Total GULP energy -89279.498657 kJ/mol
# GULP energy per Si atom -5579.968666 kJ/mol
# Density = 2.771254 g / cm^3
# Si number density = 27.775754 Si / 1000 Ang^3
#
#
#
# Elastic Constant Matrix: (Units=GPa)
#
#
# Indices 1 2 3 4 5 6 
#
# 1 91.3313 19.7431 25.7147 0.0000 -24.4922 0.0000
# 2 19.7431 92.9054 44.1483 0.0000 -34.5894 0.0000
# 3 25.7147 44.1483 171.1248 0.0000 -60.8175 0.0000
# 4 0.0000 0.0000 0.0000 36.3779 0.0000 -13.4842
# 5 -24.4922 -34.5894 -60.8175 0.0000 57.0350 0.0000
# 6 0.0000 0.0000 0.0000 -13.4842 0.0000 51.6195
#
#
#
# Elastic Compliance Matrix: (Units=1/GPa)
#
#
# Indices 1 2 3 4 5 6 
#
# 1 0.012426 -0.000855 0.000105 0.000000 0.004930 0.000000
# 2 -0.000855 0.014058 -0.000964 0.000000 0.007130 0.000000
# 3 0.000105 -0.000964 0.009476 0.000000 0.009565 0.000000
# 4 0.000000 0.000000 0.000000 0.030436 0.000000 0.007951
# 5 0.004930 0.007130 0.009565 0.000000 0.034174 0.000000
# 6 0.000000 0.000000 0.000000 0.007951 0.000000 0.021449
#
#
# Mechanical properties :
#
#
# Convention : Reuss Voigt Hill
#
# Bulk Modulus (GPa) = 30.73869 59.39706 45.06787
# Shear Modulus (GPa) = 36.68585 46.72351 41.70468
#
# Velocity S-wave (km/s) = 3.63821 4.10587 3.87909
# Velocity P-wave (km/s) = 5.36092 6.62635 6.02694
#
# Compressibility (1/GPa) = 0.03253230
#
# Stress axis : x y z
#
# Youngs Moduli (GPa) = 80.47375 71.13249 105.53009
#
# Poissons Ratio (x) = 0.06084 -0.01113
# Poissons Ratio (y) = 0.06884 0.10176
# Poissons Ratio (z) = -0.00849 0.06859
#
# Static dielectric constant tensor:
#      x y z
#    x 2.141090 0.000000 -0.001340 
#    y 0.000000 2.293490 0.000000 
#    z -0.001340 0.000000 2.348780 
# 
# From -- ./inp_files/27732.got.cif
#   From: 2010.05.17/outbox.cif.g08.bks.cpg/sg9_14_cif.got.tgz:27732.got - 2010.06.03 20:04:27.
