data_PCOD9138376
_publ_section_title
;
Structure prediction by ZEFSAII (Michael W. Deem and Ramdas Pophale) SiO2 
 PCOD9138376
Probable space group: C C
;
_chemical_formula_sum "Si O2"
_cell_formula_units_Z 32
_cell_length_a 10.325192
_cell_length_b 9.536811
_cell_length_c 21.713731
_cell_angle_alpha 90.000000
_cell_angle_beta 46.755555
_cell_angle_gamma 90.000000
_cell_volume 1557.499799
_symmetry_space_group_name_H-M "C C"
_symmetry_group_IT_number 9
_symmetry_cell_setting 'monoclinic'
loop_
_space_group_symop_operation_xyz
x,y,z
x,-y,1/2+z
1/2+x,1/2+y,z
1/2+x,1/2-y,1/2+z
loop_
_atom_site_type_symbol
_atom_site_label
_atom_site_fract_x
_atom_site_fract_y
_atom_site_fract_z
Si Si1 0.412970 0.409819 0.016970
Si Si2 0.685292 0.831608 0.211233
Si Si3 0.931450 0.395148 0.685730
Si Si4 0.480264 0.730649 0.970062
Si Si5 0.820819 0.691489 0.771671
Si Si6 0.119231 0.646838 0.242277
Si Si7 0.630515 0.959063 0.008937
Si Si8 0.766407 0.760933 0.421168
O O1 0.307033 0.363644 0.112162
O O2 0.284771 0.388192 0.999924
O O3 0.453382 0.575279 0.005189
O O4 0.595458 0.324786 0.955596
O O5 0.793329 0.728421 0.219519
O O6 0.503134 0.765321 0.245185
O O7 0.637168 0.983452 0.254892
O O8 0.841363 0.527048 0.749464
O O9 0.092775 0.348291 0.677516
O O10 0.008972 0.454133 0.596620
O O11 0.656534 0.720560 0.869908
O O12 0.320896 0.767287 0.974812
O O13 0.221697 0.573875 0.934704
O O14 0.780304 0.770875 0.721117
O O15 0.937771 0.715072 0.326848
O O16 0.517023 0.847124 0.008764
#
# Coordination Sequence:
#
# PCOD9138376 Si02
#       8
#     4   4   4   4   4   4   4   4
#     4  11  21  41  64  95 129 164 208 271 318 374
#     4  11  23  39  64  95 128 164 217 262 322 381
#     4  11  23  42  65  96 130 166 213 271 320 379
#     4  10  25  42  66  92 131 170 217 265 323 386
#     4  10  23  44  63  93 128 170 215 265 323 385
#     4  10  23  43  65  92 132 170 212 263 324 384
#     4  11  23  42  66  97 129 167 216 267 318 383
#     4  10  23  43  65  94 131 169 214 262 322 384
#
# _framework density 20.545746999999999
#
# number of rings (size 3 to 8) (size 9 to 14) (size 15 to 20)
#    0.000    1.500    3.750    1.500    1.750    8.000 
#    2.250    0.000    0.000    0.000    0.000    0.000 
#    0.000    0.000    0.000    0.000    0.000    0.000 
#
# Total GULP energy -89431.140654 kJ/mol
# GULP energy per Si atom -5589.446291 kJ/mol
# Density = 2.049898 g / cm^3
# Si number density = 20.545747 Si / 1000 Ang^3
#
#
#
# Elastic Constant Matrix: (Units=GPa)
#
#
# Indices 1 2 3 4 5 6 
#
# 1 115.7437 56.3583 -20.0324 0.0000 -3.7134 0.0000
# 2 56.3583 48.2666 -13.9029 0.0000 11.1826 0.0000
# 3 -20.0324 -13.9029 35.5396 0.0000 4.5466 0.0000
# 4 0.0000 0.0000 0.0000 36.2514 0.0000 -1.8117
# 5 -3.7134 11.1826 4.5466 0.0000 23.0319 0.0000
# 6 0.0000 0.0000 0.0000 -1.8117 0.0000 31.8661
#
#
#
# Elastic Compliance Matrix: (Units=1/GPa)
#
#
# Indices 1 2 3 4 5 6 
#
# 1 0.027820 -0.038714 -0.002505 0.000000 0.023776 0.000000
# 2 -0.038714 0.082167 0.016644 0.000000 -0.049421 0.000000
# 3 -0.002505 0.016644 0.035211 0.000000 -0.015436 0.000000
# 4 0.000000 0.000000 0.000000 0.027664 0.000000 0.001573
# 5 0.023776 -0.049421 -0.015436 0.000000 0.074294 0.000000
# 6 0.000000 0.000000 0.000000 0.001573 0.000000 0.031471
#
#
# Mechanical properties :
#
#
# Convention : Reuss Voigt Hill
#
# Bulk Modulus (GPa) = 10.41151 27.15509 18.78330
# Shear Modulus (GPa) = 13.89694 30.03834 21.96764
#
# Velocity S-wave (km/s) = 2.60357 3.82779 3.27342
# Velocity P-wave (km/s) = 3.75721 5.72552 4.84242
#
# Compressibility (1/GPa) = 0.09604750
#
# Stress axis : x y z
#
# Youngs Moduli (GPa) = 35.94599 12.17041 28.39998
#
# Poissons Ratio (x) = 0.47116 0.07116
# Poissons Ratio (y) = 1.39160 -0.47270
# Poissons Ratio (z) = 0.09006 -0.20257
#
# Static dielectric constant tensor:
#      x y z
#    x 1.730090 0.000000 0.014660 
#    y 0.000000 1.706730 0.000000 
#    z 0.014660 0.000000 1.764190 
# 
# From -- ./inp_files/32487.got.cif
#   From: 2010.05.17/outbox.cif.g08.bks.cpg/sg9_17_cif.got.tgz:32487.got - 2010.06.03 20:04:27.
