data_PCOD9138156
_publ_section_title
;
Structure prediction by ZEFSAII (Michael W. Deem and Ramdas Pophale) SiO2 
 PCOD9138156
Probable space group: C C
;
_chemical_formula_sum "Si O2"
_cell_formula_units_Z 32
_cell_length_a 12.386570
_cell_length_b 8.047776
_cell_length_c 22.656825
_cell_angle_alpha 90.000000
_cell_angle_beta 43.559729
_cell_angle_gamma 90.000000
_cell_volume 1556.376926
_symmetry_space_group_name_H-M "C C"
_symmetry_group_IT_number 9
_symmetry_cell_setting 'monoclinic'
loop_
_space_group_symop_operation_xyz
x,y,z
x,-y,1/2+z
1/2+x,1/2+y,z
1/2+x,1/2-y,1/2+z
loop_
_atom_site_type_symbol
_atom_site_label
_atom_site_fract_x
_atom_site_fract_y
_atom_site_fract_z
Si Si1 0.756060 0.373510 0.281150
Si Si2 0.189317 0.771366 0.810714
Si Si3 0.190020 0.916223 0.601521
Si Si4 0.400192 0.621020 0.494046
Si Si5 0.376798 0.069822 0.137726
Si Si6 0.398885 0.367372 0.398816
Si Si7 0.118504 0.850182 0.019993
Si Si8 0.862104 0.045827 0.295621
O O1 0.752463 0.554212 0.313709
O O2 0.874556 0.407487 0.180001
O O3 0.584458 0.339293 0.321955
O O4 0.791144 0.223441 0.309315
O O5 0.238497 0.815401 0.723563
O O6 0.272565 0.604563 0.798015
O O7 0.011043 0.774738 0.904036
O O8 0.153621 0.015959 0.556394
O O9 0.332045 0.974579 0.588555
O O10 0.245401 0.728238 0.566923
O O11 0.036634 0.943534 0.701385
O O12 0.369968 0.447111 0.474284
O O13 0.501722 0.598071 0.513434
O O14 0.529000 0.185149 0.080218
O O15 0.287474 0.212832 0.431644
O O16 0.357719 0.501838 0.365654
#
# Coordination Sequence:
#
# PCOD9138156 Si02
#       8
#     4   4   4   4   4   4   4   4
#     4   9  22  39  65  93 122 164 216 260 308 388
#     4   9  19  42  61  88 135 160 207 276 306 372
#     4  11  22  40  66  94 123 172 214 258 330 378
#     4  10  23  40  58  93 128 161 211 270 308 378
#     4   9  20  43  60  87 133 160 207 276 305 378
#     4  11  24  43  63  93 131 167 216 263 320 389
#     4  11  23  39  62  90 130 166 206 269 328 368
#     4  12  21  42  71  92 122 180 215 256 329 383
#
# _framework density 20.560570999999999
#
# number of rings (size 3 to 8) (size 9 to 14) (size 15 to 20)
#    0.750    1.000    3.750    0.000    3.500    2.000 
#    2.250    1.250    0.000    0.000    0.000    0.000 
#    0.000    0.000    0.000    0.000    0.000    0.000 
#
# Total GULP energy -89091.271757 kJ/mol
# GULP energy per Si atom -5568.204485 kJ/mol
# Density = 2.051377 g / cm^3
# Si number density = 20.560571 Si / 1000 Ang^3
#
#
#
# Elastic Constant Matrix: (Units=GPa)
#
#
# Indices 1 2 3 4 5 6 
#
# 1 80.1966 23.1560 10.5466 0.0000 27.1836 0.0000
# 2 23.1560 55.2161 -4.3892 0.0000 13.8980 0.0000
# 3 10.5466 -4.3892 22.1085 0.0000 11.2966 0.0000
# 4 0.0000 0.0000 0.0000 16.5704 0.0000 1.7114
# 5 27.1836 13.8980 11.2966 0.0000 24.1124 0.0000
# 6 0.0000 0.0000 0.0000 1.7114 0.0000 31.0289
#
#
#
# Elastic Compliance Matrix: (Units=1/GPa)
#
#
# Indices 1 2 3 4 5 6 
#
# 1 0.020683 -0.003127 0.000665 0.000000 -0.021827 0.000000
# 2 -0.003127 0.025386 0.016048 0.000000 -0.018625 0.000000
# 3 0.000665 0.016048 0.069956 0.000000 -0.042774 0.000000
# 4 0.000000 0.000000 0.000000 0.060694 0.000000 -0.003348
# 5 -0.021827 -0.018625 -0.042774 0.000000 0.096853 0.000000
# 6 0.000000 0.000000 0.000000 -0.003348 0.000000 0.032413
#
#
# Mechanical properties :
#
#
# Convention : Reuss Voigt Hill
#
# Bulk Modulus (GPa) = 6.98340 24.01643 15.49991
# Shear Modulus (GPa) = 15.31180 22.88954 19.10067
#
# Velocity S-wave (km/s) = 2.73191 3.34019 3.05125
# Velocity P-wave (km/s) = 3.65445 5.15578 4.46861
#
# Compressibility (1/GPa) = 0.14319681
#
# Stress axis : x y z
#
# Youngs Moduli (GPa) = 48.34823 39.39216 14.29472
#
# Poissons Ratio (x) = 0.12319 -0.00951
# Poissons Ratio (y) = 0.15120 -0.22940
# Poissons Ratio (z) = -0.03215 -0.63217
#
# Static dielectric constant tensor:
#      x y z
#    x 1.754870 0.000000 -0.000070 
#    y 0.000000 1.727600 0.000000 
#    z -0.000070 0.000000 1.789470 
# 
# From -- ./inp_files/36665.got.cif
#   From: 2010.05.17/outbox.cif.g08.bks.cpg/sg9_19_cif.got.tgz:36665.got - 2010.06.03 20:04:27.
