data_PCOD9138083
_publ_section_title
;
Structure prediction by ZEFSAII (Michael W. Deem and Ramdas Pophale) SiO2 
 PCOD9138083
Probable space group: C C
;
_chemical_formula_sum "Si O2"
_cell_formula_units_Z 32
_cell_length_a 14.401174
_cell_length_b 13.686983
_cell_length_c 9.229476
_cell_angle_alpha 90.000000
_cell_angle_beta 123.486639
_cell_angle_gamma 90.000000
_cell_volume 1517.246958
_symmetry_space_group_name_H-M "C C"
_symmetry_group_IT_number 9
_symmetry_cell_setting 'monoclinic'
loop_
_space_group_symop_operation_xyz
x,y,z
x,-y,1/2+z
1/2+x,1/2+y,z
1/2+x,1/2-y,1/2+z
loop_
_atom_site_type_symbol
_atom_site_label
_atom_site_fract_x
_atom_site_fract_y
_atom_site_fract_z
Si Si1 0.187980 0.711360 0.151600
Si Si2 0.074526 0.908776 0.045493
Si Si3 0.115008 0.787735 0.599731
Si Si4 0.762061 0.155633 0.530936
Si Si5 0.972682 0.600144 0.530918
Si Si6 0.590949 0.977316 0.414277
Si Si7 0.498677 0.559083 0.792495
Si Si8 0.245440 0.142536 0.485789
O O1 0.244003 0.699134 0.355340
O O2 0.087261 0.791632 0.073833
O O3 0.140896 0.610539 0.051386
O O4 0.269784 0.761554 0.104721
O O5 0.188408 0.929528 0.053683
O O6 0.981942 0.956463 0.861820
O O7 0.059790 0.952044 0.191455
O O8 0.218610 0.733791 0.610654
O O9 0.071292 0.874772 0.462645
O O10 0.153732 0.824295 0.789710
O O11 0.017483 0.707191 0.527785
O O12 0.885251 0.116669 0.663709
O O13 0.681186 0.062361 0.474707
O O14 0.850656 0.603809 0.492056
O O15 0.988218 0.527392 0.409942
O O16 0.054300 0.562391 0.727739
#
# Coordination Sequence:
#
# PCOD9138083 Si02
#       8
#     4   4   4   4   4   4   4   4
#     4  10  22  48  66  96 145 181 227 305 350 421
#     4  10  25  45  64 101 142 181 242 295 355 431
#     4  11  22  45  68  99 143 172 243 292 358 433
#     4  11  25  43  71 105 137 187 234 299 356 435
#     4  11  23  41  68 103 130 186 224 294 362 423
#     4  11  23  42  67 102 142 172 242 293 350 436
#     4  12  25  44  72 101 138 196 234 301 367 430
#     4  10  23  44  68  97 137 183 228 291 356 425
#
# _framework density 21.090831999999999
#
# number of rings (size 3 to 8) (size 9 to 14) (size 15 to 20)
#    0.750    0.500    3.750    1.500    1.750    4.000 
#    2.250    2.500    0.000    0.000    0.000    0.000 
#    0.000    0.000    0.000    0.000    0.000    0.000 
#
# Total GULP energy -89345.565100 kJ/mol
# GULP energy per Si atom -5584.097819 kJ/mol
# Density = 2.104283 g / cm^3
# Si number density = 21.090832 Si / 1000 Ang^3
#
#
#
# Elastic Constant Matrix: (Units=GPa)
#
#
# Indices 1 2 3 4 5 6 
#
# 1 79.7275 26.6943 24.7403 0.0000 -13.8486 0.0000
# 2 26.6943 80.1948 39.8618 0.0000 -3.9499 0.0000
# 3 24.7403 39.8618 95.2438 0.0000 -22.8123 0.0000
# 4 0.0000 0.0000 0.0000 36.6517 0.0000 -3.8854
# 5 -13.8486 -3.9499 -22.8123 0.0000 31.8579 0.0000
# 6 0.0000 0.0000 0.0000 -3.8854 0.0000 14.0098
#
#
#
# Elastic Compliance Matrix: (Units=1/GPa)
#
#
# Indices 1 2 3 4 5 6 
#
# 1 0.015218 -0.004400 -0.000794 0.000000 0.005501 0.000000
# 2 -0.004400 0.017317 -0.007301 0.000000 -0.004993 0.000000
# 3 -0.000794 -0.007301 0.016248 0.000000 0.010385 0.000000
# 4 0.000000 0.000000 0.000000 0.028110 0.000000 0.007796
# 5 0.005501 -0.004993 0.010385 0.000000 0.040598 0.000000
# 6 0.000000 0.000000 0.000000 0.007796 0.000000 0.073541
#
#
# Mechanical properties :
#
#
# Convention : Reuss Voigt Hill
#
# Bulk Modulus (GPa) = 42.02682 48.63989 45.33335
# Shear Modulus (GPa) = 22.32615 27.42852 24.87734
#
# Velocity S-wave (km/s) = 3.25710 3.61015 3.43816
# Velocity P-wave (km/s) = 5.84078 6.36316 6.10756
#
# Compressibility (1/GPa) = 0.02379433
#
# Stress axis : x y z
#
# Youngs Moduli (GPa) = 65.71250 57.74602 61.54459
#
# Poissons Ratio (x) = 0.25408 0.04886
# Poissons Ratio (y) = 0.28913 0.44932
# Poissons Ratio (z) = 0.05216 0.42159
#
# Static dielectric constant tensor:
#      x y z
#    x 1.766850 0.000000 -0.007790 
#    y 0.000000 1.773760 0.000000 
#    z -0.007790 0.000000 1.722740 
# 
# From -- ./inp_files/9613.got.cif
#   From: 2010.05.17/outbox.cif.g08.bks.cpg/sg9_5_cif.got.tgz:9613.got - 2010.06.03 20:04:27.
