data_PCOD9138667
_publ_section_title
;
Structure prediction by ZEFSAII (Michael W. Deem and Ramdas Pophale) SiO2 
 PCOD9138667
Probable space group: C C
;
_chemical_formula_sum "Si O2"
_cell_formula_units_Z 28
_cell_length_a 8.017949
_cell_length_b 18.867779
_cell_length_c 10.518868
_cell_angle_alpha 90.000000
_cell_angle_beta 140.569525
_cell_angle_gamma 90.000000
_cell_volume 1010.702917
_symmetry_space_group_name_H-M "C C"
_symmetry_group_IT_number 9
_symmetry_cell_setting 'monoclinic'
loop_
_space_group_symop_operation_xyz
x,y,z
x,-y,1/2+z
1/2+x,1/2+y,z
1/2+x,1/2-y,1/2+z
loop_
_atom_site_type_symbol
_atom_site_label
_atom_site_fract_x
_atom_site_fract_y
_atom_site_fract_z
Si Si1 0.793450 0.020012 0.791040
Si Si2 0.980984 0.065607 0.156437
Si Si3 0.419282 0.100576 0.093768
Si Si4 0.441672 0.851904 0.333660
Si Si5 0.208712 0.234262 0.078752
Si Si6 0.933289 0.646429 0.549513
Si Si7 0.731237 0.771323 0.840909
O O1 0.920001 0.983671 0.742635
O O2 0.526152 0.977667 0.673883
O O3 0.691223 0.097100 0.690632
O O4 0.977721 0.021973 0.023127
O O5 0.232853 0.112188 0.333792
O O6 0.732696 0.117591 0.997555
O O7 0.327620 0.111076 0.893898
O O8 0.684237 0.147389 0.274589
O O9 0.220688 0.148588 0.059396
O O10 0.421134 0.770009 0.356364
O O11 0.323155 0.862628 0.126182
O O12 0.506323 0.241269 0.333821
O O13 0.434199 0.261483 0.089952
O O14 0.029719 0.274601 0.076488
#
# Coordination Sequence:
#
# PCOD9138667 Si02
#       7
#     4   4   4   4   4   4   4
#     4  10  23  45  73 110 147 200 257 307 378 460
#     4  10  24  46  74 111 148 200 248 316 381 452
#     4   8  19  42  73 102 139 191 257 296 373 456
#     4   9  20  45  71 102 145 194 250 302 376 453
#     4   9  21  42  68 105 139 193 242 316 380 437
#     4  11  24  46  71 109 156 188 251 323 378 447
#     4   9  19  42  70 103 136 188 251 302 366 457
#
# _framework density 27.703492000000001
#
# number of rings (size 3 to 8) (size 9 to 14) (size 15 to 20)
#    0.857    1.714    0.000    0.000    2.000    5.714 
#   15.429    0.000    0.000    0.000    0.000    0.000 
#    0.000    0.000    0.000    0.000    0.000    0.000 
#
# Total GULP energy -78207.920062 kJ/mol
# GULP energy per Si atom -5586.280004 kJ/mol
# Density = 2.764044 g / cm^3
# Si number density = 27.703492 Si / 1000 Ang^3
#
#
#
# Elastic Constant Matrix: (Units=GPa)
#
#
# Indices 1 2 3 4 5 6 
#
# 1 109.5925 54.3783 79.7738 0.0000 -19.3542 0.0000
# 2 54.3783 76.0968 18.4321 0.0000 -3.7864 0.0000
# 3 79.7738 18.4321 180.6059 0.0000 -24.0862 0.0000
# 4 0.0000 0.0000 0.0000 48.5539 0.0000 8.8093
# 5 -19.3542 -3.7864 -24.0862 0.0000 51.8232 0.0000
# 6 0.0000 0.0000 0.0000 8.8093 0.0000 50.8712
#
#
#
# Elastic Compliance Matrix: (Units=1/GPa)
#
#
# Indices 1 2 3 4 5 6 
#
# 1 0.022589 -0.014007 -0.008059 0.000000 0.003667 0.000000
# 2 -0.014007 0.022167 0.003671 0.000000 -0.001906 0.000000
# 3 -0.008059 0.003671 0.008908 0.000000 0.001399 0.000000
# 4 0.000000 0.000000 0.000000 0.021264 0.000000 -0.003682
# 5 0.003667 -0.001906 0.001399 0.000000 0.021177 0.000000
# 6 0.000000 0.000000 0.000000 -0.003682 0.000000 0.020295
#
#
# Mechanical properties :
#
#
# Convention : Reuss Voigt Hill
#
# Bulk Modulus (GPa) = 59.26660 74.60708 66.93684
# Shear Modulus (GPa) = 31.48319 44.49706 37.99012
#
# Velocity S-wave (km/s) = 3.37476 4.01208 3.70714
# Velocity P-wave (km/s) = 6.05186 6.96070 6.52213
#
# Compressibility (1/GPa) = 0.01687291
#
# Stress axis : x y z
#
# Youngs Moduli (GPa) = 44.26997 45.11261 112.25271
#
# Poissons Ratio (x) = 0.63190 0.90463
# Poissons Ratio (y) = 0.62010 -0.41204
# Poissons Ratio (z) = 0.35676 -0.16559
#
# Static dielectric constant tensor:
#      x y z
#    x 2.148910 0.000000 0.009250 
#    y 0.000000 2.039150 0.000000 
#    z 0.009250 0.000000 2.259880 
# 
# From -- ./inp_files/15503.got.cif
#   From: 2010.05.17/outbox.cif.g08.bks.cpg/sg9_8_cif.got.tgz:15503.got - 2010.06.03 20:04:27.
