data_PCOD9138917
_publ_section_title
;
Structure prediction by ZEFSAII (Michael W. Deem and Ramdas Pophale) SiO2 
 PCOD9138917
Probable space group: C C
;
_chemical_formula_sum "Si O2"
_cell_formula_units_Z 20
_cell_length_a 5.336012
_cell_length_b 9.019376
_cell_length_c 18.422060
_cell_angle_alpha 90.000000
_cell_angle_beta 77.910691
_cell_angle_gamma 90.000000
_cell_volume 866.944777
_symmetry_space_group_name_H-M "C C"
_symmetry_group_IT_number 9
_symmetry_cell_setting 'monoclinic'
loop_
_space_group_symop_operation_xyz
x,y,z
x,-y,1/2+z
1/2+x,1/2+y,z
1/2+x,1/2-y,1/2+z
loop_
_atom_site_type_symbol
_atom_site_label
_atom_site_fract_x
_atom_site_fract_y
_atom_site_fract_z
Si Si1 0.927940 0.936546 0.258830
Si Si2 0.653911 0.093959 0.384895
Si Si3 0.415281 0.400436 0.615194
Si Si4 0.955303 0.436270 0.059725
Si Si5 0.397899 0.127618 0.800762
O O1 0.886290 0.988826 0.344522
O O2 0.689491 0.826392 0.261686
O O3 0.217442 0.885424 0.242071
O O4 0.888193 0.064418 0.202495
O O5 0.448780 0.029127 0.338926
O O6 0.262014 0.755766 0.361748
O O7 0.555078 0.072268 0.470875
O O8 0.165757 0.470515 0.591767
O O9 0.441149 0.231125 0.590101
O O10 0.676060 0.487475 0.577829
#
# Coordination Sequence:
#
# PCOD9138917 Si02
#       5
#     4   4   4   4   4
#     4  10  26  42  72  97 140 177 239 278 347 408
#     4  10  26  42  72  98 138 179 236 282 343 412
#     4  12  28  47  72 104 146 189 230 293 355 419
#     4  12  28  47  72 104 147 186 234 289 359 415
#     4  10  24  40  72  97 133 173 237 284 340 398
#
# _framework density 23.069519
#
# number of rings (size 3 to 8) (size 9 to 14) (size 15 to 20)
#    1.200    0.000    0.000    3.600   14.000    0.000 
#    0.000    0.000    0.000    0.000    0.000    0.000 
#    0.000    0.000    0.000    0.000    0.000    0.000 
#
# Total GULP energy -55806.105844 kJ/mol
# GULP energy per Si atom -5580.610584 kJ/mol
# Density = 2.301701 g / cm^3
# Si number density = 23.069519 Si / 1000 Ang^3
#
#
#
# Elastic Constant Matrix: (Units=GPa)
#
#
# Indices 1 2 3 4 5 6 
#
# 1 173.9333 54.8077 21.4776 0.0000 -0.5270 0.0000
# 2 54.8077 107.3420 25.3549 0.0000 -16.6494 0.0000
# 3 21.4776 25.3549 85.5414 0.0000 -19.9151 0.0000
# 4 0.0000 0.0000 0.0000 34.9100 0.0000 -9.2553
# 5 -0.5270 -16.6494 -19.9151 0.0000 24.8410 0.0000
# 6 0.0000 0.0000 0.0000 -9.2553 0.0000 42.8335
#
#
#
# Elastic Compliance Matrix: (Units=1/GPa)
#
#
# Indices 1 2 3 4 5 6 
#
# 1 0.007137 -0.003854 -0.001495 0.000000 -0.003630 0.000000
# 2 -0.003854 0.012707 -0.001027 0.000000 0.007612 0.000000
# 3 -0.001495 -0.001027 0.015002 0.000000 0.011308 0.000000
# 4 0.000000 0.000000 0.000000 0.030386 0.000000 0.006566
# 5 -0.003630 0.007612 0.011308 0.000000 0.054346 0.000000
# 6 0.000000 0.000000 0.000000 0.006566 0.000000 0.024765
#
#
# Mechanical properties :
#
#
# Convention : Reuss Voigt Hill
#
# Bulk Modulus (GPa) = 45.25761 63.34411 54.30086
# Shear Modulus (GPa) = 30.40241 38.19531 34.29886
#
# Velocity S-wave (km/s) = 3.63417 4.07340 3.86004
# Velocity P-wave (km/s) = 6.10493 7.04563 6.59208
#
# Compressibility (1/GPa) = 0.02209573
#
# Stress axis : x y z
#
# Youngs Moduli (GPa) = 140.10644 78.69595 66.65592
#
# Poissons Ratio (x) = 0.30332 0.09964
# Poissons Ratio (y) = 0.54001 0.06842
# Poissons Ratio (z) = 0.20943 0.08078
#
# Static dielectric constant tensor:
#      x y z
#    x 1.947460 0.000000 -0.033840 
#    y 0.000000 1.863630 0.000000 
#    z -0.033840 0.000000 1.846440 
# 
# From -- ./inp_files/31904.got.cif
#   From: 2010.05.17/outbox.cif.g08.bks.cpg/sg9_16_cif.got.tgz:31904.got - 2010.06.03 20:04:27.
