data_PCOD9138492
_publ_section_title
;
Structure prediction by ZEFSAII (Michael W. Deem and Ramdas Pophale) SiO2 
 PCOD9138492
Probable space group: C C
;
_chemical_formula_sum "Si O2"
_cell_formula_units_Z 32
_cell_length_a 9.244372
_cell_length_b 11.456152
_cell_length_c 13.739731
_cell_angle_alpha 90.000000
_cell_angle_beta 98.855037
_cell_angle_gamma 90.000000
_cell_volume 1437.761818
_symmetry_space_group_name_H-M "C C"
_symmetry_group_IT_number 9
_symmetry_cell_setting 'monoclinic'
loop_
_space_group_symop_operation_xyz
x,y,z
x,-y,1/2+z
1/2+x,1/2+y,z
1/2+x,1/2-y,1/2+z
loop_
_atom_site_type_symbol
_atom_site_label
_atom_site_fract_x
_atom_site_fract_y
_atom_site_fract_z
Si Si1 0.889260 0.958389 0.081460
Si Si2 0.967683 0.210115 0.072362
Si Si3 0.474727 0.305917 0.920911
Si Si4 0.262691 0.227950 0.726737
Si Si5 0.871941 0.514081 0.235967
Si Si6 0.972167 0.701009 0.120730
Si Si7 0.794184 0.718083 0.368149
Si Si8 0.164328 0.611086 0.695199
O O1 0.742197 0.979690 0.129009
O O2 0.930508 0.835985 0.135378
O O3 0.985680 0.073662 0.096888
O O4 0.900880 0.915314 0.970473
O O5 0.840560 0.253692 0.131436
O O6 0.103902 0.288704 0.116030
O O7 0.906776 0.232750 0.959011
O O8 0.368663 0.270731 0.822914
O O9 0.639044 0.322361 0.899007
O O10 0.489489 0.205639 0.005925
O O11 0.115503 0.301656 0.703164
O O12 0.251772 0.087498 0.734610
O O13 0.861768 0.605417 0.322384
O O14 0.864514 0.598774 0.141275
O O15 0.025788 0.446721 0.235972
O O16 0.754240 0.820651 0.287688
#
# Coordination Sequence:
#
# PCOD9138492 Si02
#       8
#     4   4   4   4   4   4   4   4
#     4  10  24  46  70  97 147 181 228 298 337 413
#     4  11  24  41  70 101 131 184 227 281 348 410
#     4  10  23  45  63 102 136 177 231 288 340 411
#     4  11  23  43  70  99 136 185 229 282 350 410
#     4  11  25  44  73  98 141 187 225 290 346 414
#     4  10  23  44  66 101 133 183 230 278 355 401
#     4  12  23  46  64 105 139 175 241 279 349 413
#     4  11  25  47  70 101 141 182 235 284 347 416
#
# _framework density 22.256816000000001
#
# number of rings (size 3 to 8) (size 9 to 14) (size 15 to 20)
#    0.750    0.500    5.000    0.750    1.750    6.000 
#    4.500    0.000    0.000    0.000    0.000    0.000 
#    0.000    0.000    0.000    0.000    0.000    0.000 
#
# Total GULP energy -89154.538497 kJ/mol
# GULP energy per Si atom -5572.158656 kJ/mol
# Density = 2.220616 g / cm^3
# Si number density = 22.256816 Si / 1000 Ang^3
#
#
#
# Elastic Constant Matrix: (Units=GPa)
#
#
# Indices 1 2 3 4 5 6 
#
# 1 60.4205 16.9477 37.1248 0.0000 -4.7707 0.0000
# 2 16.9477 119.2476 25.8776 0.0000 -0.1956 0.0000
# 3 37.1248 25.8776 118.4631 0.0000 4.0590 0.0000
# 4 0.0000 0.0000 0.0000 25.4455 0.0000 -12.4629
# 5 -4.7707 -0.1956 4.0590 0.0000 37.8026 0.0000
# 6 0.0000 0.0000 0.0000 -12.4629 0.0000 37.2256
#
#
#
# Elastic Compliance Matrix: (Units=1/GPa)
#
#
# Indices 1 2 3 4 5 6 
#
# 1 0.021206 -0.001618 -0.006407 0.000000 0.003356 0.000000
# 2 -0.001618 0.008929 -0.001443 0.000000 -0.000003 0.000000
# 3 -0.006407 -0.001443 0.010833 0.000000 -0.001979 0.000000
# 4 0.000000 0.000000 0.000000 0.047008 0.000000 0.015738
# 5 0.003356 -0.000003 -0.001979 0.000000 0.027089 0.000000
# 6 0.000000 0.000000 0.000000 0.015738 0.000000 0.032132
#
#
# Mechanical properties :
#
#
# Convention : Reuss Voigt Hill
#
# Bulk Modulus (GPa) = 45.39124 50.89238 48.14181
# Shear Modulus (GPa) = 28.82209 34.64015 31.73112
#
# Velocity S-wave (km/s) = 3.60248 3.94938 3.77992
# Velocity P-wave (km/s) = 6.14349 6.61154 6.38181
#
# Compressibility (1/GPa) = 0.02203068
#
# Stress axis : x y z
#
# Youngs Moduli (GPa) = 47.15556 111.99367 92.31447
#
# Poissons Ratio (x) = 0.18120 0.59149
# Poissons Ratio (y) = 0.07630 0.13324
# Poissons Ratio (z) = 0.30214 0.16165
#
# Static dielectric constant tensor:
#      x y z
#    x 1.945790 0.000000 -0.036140 
#    y 0.000000 1.845360 0.000000 
#    z -0.036140 0.000000 1.794080 
# 
# From -- ./inp_files/16492.got.cif
#   From: 2010.05.17/outbox.cif.g08.bks.cpg/sg9_9_cif.got.tgz:16492.got - 2010.06.03 20:04:27.
