data_PCOD9138769
_publ_section_title
;
Structure prediction by ZEFSAII (Michael W. Deem and Ramdas Pophale) SiO2 
 PCOD9138769
Probable space group: C C
;
_chemical_formula_sum "Si O2"
_cell_formula_units_Z 28
_cell_length_a 9.416942
_cell_length_b 12.427700
_cell_length_c 15.059026
_cell_angle_alpha 90.000000
_cell_angle_beta 36.886467
_cell_angle_gamma 90.000000
_cell_volume 1057.830775
_symmetry_space_group_name_H-M "C C"
_symmetry_group_IT_number 9
_symmetry_cell_setting 'monoclinic'
loop_
_space_group_symop_operation_xyz
x,y,z
x,-y,1/2+z
1/2+x,1/2+y,z
1/2+x,1/2-y,1/2+z
loop_
_atom_site_type_symbol
_atom_site_label
_atom_site_fract_x
_atom_site_fract_y
_atom_site_fract_z
Si Si1 0.335400 0.676711 0.413580
Si Si2 0.324646 0.217922 0.731898
Si Si3 0.654502 0.475976 0.212771
Si Si4 0.771280 0.449756 0.950964
Si Si5 0.775170 0.058825 0.150060
Si Si6 0.266751 0.248213 0.317186
Si Si7 0.101445 0.380827 0.546692
O O1 0.287352 0.749690 0.351707
O O2 0.528015 0.729046 0.381913
O O3 0.089708 0.673730 0.587802
O O4 0.441733 0.563034 0.326157
O O5 0.159128 0.126299 0.775168
O O6 0.288803 0.326362 0.693113
O O7 0.724093 0.438401 0.079118
O O8 0.245991 0.355126 0.385429
O O9 0.879000 0.546711 0.132828
O O10 0.531400 0.506517 0.037049
O O11 0.796835 0.346990 0.874014
O O12 0.036914 0.500468 0.806544
O O13 0.728430 0.073074 0.069298
O O14 0.480193 0.230935 0.142133
#
# Coordination Sequence:
#
# PCOD9138769 Si02
#       7
#     4   4   4   4   4   4   4
#     4  11  25  49  77 125 161 221 278 357 427 500
#     4  12  26  50  85 113 171 217 284 350 430 503
#     4  11  25  48  77 122 163 214 282 343 418 510
#     4  11  25  50  80 121 165 214 280 345 423 508
#     4  11  26  51  80 121 163 221 279 351 432 500
#     4  10  23  46  75 110 161 209 279 336 423 489
#     4  10  24  48  72 116 158 212 276 340 419 496
#
# _framework density 26.469260999999999
#
# number of rings (size 3 to 8) (size 9 to 14) (size 15 to 20)
#    0.000    1.143    1.429    3.429    2.000    5.714 
#    7.714    0.000    0.000    0.000    0.000    0.000 
#    0.000    0.000    0.000    0.000    0.000    0.000 
#
# Total GULP energy -78546.359550 kJ/mol
# GULP energy per Si atom -5610.454254 kJ/mol
# Density = 2.640902 g / cm^3
# Si number density = 26.469261 Si / 1000 Ang^3
#
#
#
# Elastic Constant Matrix: (Units=GPa)
#
#
# Indices 1 2 3 4 5 6 
#
# 1 150.0699 29.3519 23.7040 -0.0011 -4.3123 0.0009
# 2 29.3519 74.5360 6.0974 -0.0005 -8.3652 0.0003
# 3 23.7040 6.0974 140.7586 -0.0031 -19.8880 0.0019
# 4 -0.0011 -0.0005 -0.0031 36.6174 0.0014 5.1423
# 5 -4.3123 -8.3652 -19.8880 0.0014 57.4079 -0.0008
# 6 0.0009 0.0003 0.0019 5.1423 -0.0008 43.2851
#
#
#
# Elastic Compliance Matrix: (Units=1/GPa)
#
#
# Indices 1 2 3 4 5 6 
#
# 1 0.007396 -0.002847 -0.001159 0.000000 -0.000261 0.000000
# 2 -0.002847 0.014750 0.000120 0.000000 0.001977 0.000000
# 3 -0.001159 0.000120 0.007659 0.000001 0.002584 0.000000
# 4 0.000000 0.000000 0.000001 0.027773 -0.000001 -0.003299
# 5 -0.000261 0.001977 0.002584 -0.000001 0.018583 0.000000
# 6 0.000000 0.000000 0.000000 -0.003299 0.000000 0.023495
#
#
# Mechanical properties :
#
#
# Convention : Reuss Voigt Hill
#
# Bulk Modulus (GPa) = 45.38721 53.74122 49.56422
# Shear Modulus (GPa) = 43.56478 47.87616 45.72047
#
# Velocity S-wave (km/s) = 4.06133 4.25755 4.16059
# Velocity P-wave (km/s) = 6.25914 6.67205 6.46889
#
# Compressibility (1/GPa) = 0.02203264
#
# Stress axis : x y z
#
# Youngs Moduli (GPa) = 135.20879 67.79883 130.55799
#
# Poissons Ratio (x) = 0.19302 0.15132
# Poissons Ratio (y) = 0.38493 -0.01565
# Poissons Ratio (z) = 0.15671 -0.00812
#
# Static dielectric constant tensor:
#      x y z
#    x 2.011110 0.000000 -0.070560 
#    y 0.000000 2.161280 0.000000 
#    z -0.070560 0.000000 2.102330 
# 
# From -- ./inp_files/23470.got.cif
#   From: 2010.05.17/outbox.cif.g08.bks.cpg/sg9_12_cif.got.tgz:23470.got - 2010.06.03 20:04:27.
