data_PCOD9138516
_publ_section_title
;
Structure prediction by ZEFSAII (Michael W. Deem and Ramdas Pophale) SiO2 
 PCOD9138516
Probable space group: C C
;
_chemical_formula_sum "Si O2"
_cell_formula_units_Z 32
_cell_length_a 8.832325
_cell_length_b 25.660137
_cell_length_c 13.453520
_cell_angle_alpha 90.000000
_cell_angle_beta 148.621717
_cell_angle_gamma 90.000000
_cell_volume 1587.617583
_symmetry_space_group_name_H-M "C C"
_symmetry_group_IT_number 9
_symmetry_cell_setting 'monoclinic'
loop_
_space_group_symop_operation_xyz
x,y,z
x,-y,1/2+z
1/2+x,1/2+y,z
1/2+x,1/2-y,1/2+z
loop_
_atom_site_type_symbol
_atom_site_label
_atom_site_fract_x
_atom_site_fract_y
_atom_site_fract_z
Si Si1 0.779690 0.610539 0.685380
Si Si2 0.251973 0.623124 0.634642
Si Si3 0.214986 0.100919 0.067411
Si Si4 0.377190 0.571452 0.071173
Si Si5 0.128603 0.681195 0.191366
Si Si6 0.189976 0.878973 0.924714
Si Si7 0.182532 0.801435 0.266320
Si Si8 0.224212 0.453623 0.941349
O O1 0.846098 0.598090 0.608944
O O2 0.738723 0.670937 0.692022
O O3 0.488014 0.579755 0.545315
O O4 0.049377 0.591434 0.900881
O O5 0.407335 0.668199 0.658149
O O6 0.167645 0.575113 0.515115
O O7 0.957364 0.646349 0.515749
O O8 0.481616 0.602312 0.846552
O O9 0.444033 0.146802 0.166984
O O10 0.436207 0.052498 0.211853
O O11 0.035595 0.103136 0.070424
O O12 0.544613 0.580736 0.267570
O O13 0.339689 0.511597 0.020038
O O14 0.433795 0.655994 0.328302
O O15 0.157405 0.739834 0.246328
O O16 0.939573 0.684674 0.985579
#
# Coordination Sequence:
#
# PCOD9138516 Si02
#       8
#     4   4   4   4   4   4   4   4
#     4  11  23  43  65  96 137 170 218 279 322 398
#     4  10  24  44  66  98 136 168 225 273 323 402
#     4  11  23  46  65  93 135 174 218 271 331 393
#     4  12  25  41  64 100 131 176 224 269 331 389
#     4  11  23  43  71  96 134 174 221 274 337 401
#     4  12  23  43  66  98 137 172 218 281 322 392
#     4  10  23  44  68  99 130 178 218 270 341 397
#     4  11  24  42  67  92 134 178 218 271 331 392
#
# _framework density 20.155988000000001
#
# number of rings (size 3 to 8) (size 9 to 14) (size 15 to 20)
#    0.000    1.000    5.000    1.500    1.750    2.000 
#    2.250    1.250    0.000    0.000    0.000    0.000 
#    0.000    0.000    0.000    0.000    0.000    0.000 
#
# Total GULP energy -89234.299860 kJ/mol
# GULP energy per Si atom -5577.143741 kJ/mol
# Density = 2.011011 g / cm^3
# Si number density = 20.155988 Si / 1000 Ang^3
#
#
#
# Elastic Constant Matrix: (Units=GPa)
#
#
# Indices 1 2 3 4 5 6 
#
# 1 69.9107 25.1732 19.1534 0.0000 0.6454 0.0000
# 2 25.1732 103.2542 26.9184 0.0000 -6.0679 0.0000
# 3 19.1534 26.9184 91.8641 0.0000 8.6946 0.0000
# 4 0.0000 0.0000 0.0000 19.8436 0.0000 -3.0683
# 5 0.6454 -6.0679 8.6946 0.0000 37.9037 0.0000
# 6 0.0000 0.0000 0.0000 -3.0683 0.0000 10.1347
#
#
#
# Elastic Compliance Matrix: (Units=1/GPa)
#
#
# Indices 1 2 3 4 5 6 
#
# 1 0.016156 -0.003338 -0.002365 0.000000 -0.000267 0.000000
# 2 -0.003338 0.011400 -0.002885 0.000000 0.002544 0.000000
# 3 -0.002365 -0.002885 0.012536 0.000000 -0.003297 0.000000
# 4 0.000000 0.000000 0.000000 0.052869 0.000000 0.016006
# 5 -0.000267 0.002544 -0.003297 0.000000 0.027551 0.000000
# 6 0.000000 0.000000 0.000000 0.016006 0.000000 0.103517
#
#
# Mechanical properties :
#
#
# Convention : Reuss Voigt Hill
#
# Bulk Modulus (GPa) = 43.63767 45.27987 44.45877
# Shear Modulus (GPa) = 20.09277 26.49532 23.29405
#
# Velocity S-wave (km/s) = 3.16074 3.62956 3.40323
# Velocity P-wave (km/s) = 5.91755 6.33075 6.12763
#
# Compressibility (1/GPa) = 0.02291598
#
# Stress axis : x y z
#
# Youngs Moduli (GPa) = 61.89518 87.71675 79.76809
#
# Poissons Ratio (x) = 0.29280 0.18867
# Poissons Ratio (y) = 0.20660 0.23016
# Poissons Ratio (z) = 0.14639 0.25310
#
# Static dielectric constant tensor:
#      x y z
#    x 1.759780 0.000000 -0.013200 
#    y 0.000000 1.699940 0.000000 
#    z -0.013200 0.000000 1.746710 
# 
# From -- ./inp_files/6333.got.cif
#   From: 2010.05.17/outbox.cif.g08.bks.cpg/sg9_4_cif.got.tgz:6333.got - 2010.06.03 20:04:27.
