data_PCOD9138271
_publ_section_title
;
Structure prediction by ZEFSAII (Michael W. Deem and Ramdas Pophale) SiO2 
 PCOD9138271
Probable space group: C C
;
_chemical_formula_sum "Si O2"
_cell_formula_units_Z 32
_cell_length_a 5.001649
_cell_length_b 24.069132
_cell_length_c 12.604194
_cell_angle_alpha 90.000000
_cell_angle_beta 111.652622
_cell_angle_gamma 90.000000
_cell_volume 1410.292326
_symmetry_space_group_name_H-M "C C"
_symmetry_group_IT_number 9
_symmetry_cell_setting 'monoclinic'
loop_
_space_group_symop_operation_xyz
x,y,z
x,-y,1/2+z
1/2+x,1/2+y,z
1/2+x,1/2-y,1/2+z
loop_
_atom_site_type_symbol
_atom_site_label
_atom_site_fract_x
_atom_site_fract_y
_atom_site_fract_z
Si Si1 0.242190 0.212607 0.092920
Si Si2 0.130001 0.433250 0.955626
Si Si3 0.158442 0.912423 0.520627
Si Si4 0.710170 0.339032 0.810561
Si Si5 0.771258 0.588156 0.600843
Si Si6 0.684137 0.287078 0.028377
Si Si7 0.297384 0.433816 0.665092
Si Si8 0.215943 0.025686 0.810600
O O1 0.183585 0.154151 0.025810
O O2 0.312449 0.196227 0.224668
O O3 0.464389 0.250154 0.062041
O O4 0.961006 0.249373 0.058280
O O5 0.472746 0.431571 0.001229
O O6 0.030037 0.431599 0.063767
O O7 0.974290 0.378523 0.885379
O O8 0.979982 0.485034 0.877944
O O9 0.454813 0.932965 0.620183
O O10 0.145728 0.937528 0.402580
O O11 0.897412 0.931558 0.556952
O O12 0.448183 0.378798 0.735366
O O13 0.606013 0.304283 0.896562
O O14 0.751636 0.654809 0.596814
O O15 0.784845 0.562886 0.718889
O O16 0.451487 0.485256 0.742845
#
# Coordination Sequence:
#
# PCOD9138271 Si02
#       8
#     4   4   4   4   4   4   4   4
#     4  11  24  42  65  94 126 169 224 274 322 386
#     4  10  23  42  65  93 129 177 219 256 328 419
#     4  11  24  42  63  97 131 169 224 269 323 403
#     4   9  22  42  66  88 128 176 214 265 332 398
#     4  11  24  42  63  97 131 169 224 269 323 403
#     4  11  24  42  65  94 126 169 224 274 322 386
#     4  10  23  42  65  93 129 177 219 256 328 419
#     4  11  24  40  68  98 136 172 210 285 340 372
#
# _framework density 22.690331
#
# number of rings (size 3 to 8) (size 9 to 14) (size 15 to 20)
#    0.000    1.500    0.000    4.500    0.000   19.000 
#    0.000    0.000    0.000    0.000    0.000    0.000 
#    0.000    0.000    0.000    0.000    0.000    0.000 
#
# Total GULP energy -89728.418405 kJ/mol
# GULP energy per Si atom -5608.026150 kJ/mol
# Density = 2.263869 g / cm^3
# Si number density = 22.690331 Si / 1000 Ang^3
#
#
#
# Elastic Constant Matrix: (Units=GPa)
#
#
# Indices 1 2 3 4 5 6 
#
# 1 81.5873 23.0938 7.3670 0.0000 -13.0337 0.0000
# 2 23.0938 152.4611 67.9607 0.0000 -15.2640 0.0000
# 3 7.3670 67.9607 129.8700 0.0000 -36.8084 0.0000
# 4 0.0000 0.0000 0.0000 40.4600 0.0000 -9.2139
# 5 -13.0337 -15.2640 -36.8084 0.0000 37.7095 0.0000
# 6 0.0000 0.0000 0.0000 -9.2139 0.0000 33.6821
#
#
#
# Elastic Compliance Matrix: (Units=1/GPa)
#
#
# Indices 1 2 3 4 5 6 
#
# 1 0.013691 -0.002453 0.002166 0.000000 0.005853 0.000000
# 2 -0.002453 0.009037 -0.005244 0.000000 -0.002309 0.000000
# 3 0.002166 -0.005244 0.013731 0.000000 0.012028 0.000000
# 4 0.000000 0.000000 0.000000 0.026358 0.000000 0.007210
# 5 0.005853 -0.002309 0.012028 0.000000 0.039348 0.000000
# 6 0.000000 0.000000 0.000000 0.007210 0.000000 0.031662
#
#
# Mechanical properties :
#
#
# Convention : Reuss Voigt Hill
#
# Bulk Modulus (GPa) = 39.37707 62.30683 50.84195
# Shear Modulus (GPa) = 32.60417 40.07011 36.33714
#
# Velocity S-wave (km/s) = 3.79478 4.20689 4.00614
# Velocity P-wave (km/s) = 6.04916 7.14958 6.62226
#
# Compressibility (1/GPa) = 0.02539549
#
# Stress axis : x y z
#
# Youngs Moduli (GPa) = 73.04216 110.65315 72.82943
#
# Poissons Ratio (x) = 0.27147 -0.15776
# Poissons Ratio (y) = 0.17920 0.38195
# Poissons Ratio (z) = -0.15822 0.58031
#
# Static dielectric constant tensor:
#      x y z
#    x 1.862190 0.000000 -0.009340 
#    y 0.000000 1.820910 0.000000 
#    z -0.009340 0.000000 1.843600 
# 
# From -- ./inp_files/13781.got.cif
#   From: 2010.05.17/outbox.cif.g08.bks.cpg/sg9_7_cif.got.tgz:13781.got - 2010.06.03 20:04:27.
