data_PCOD9138920
_publ_section_title
;
Structure prediction by ZEFSAII (Michael W. Deem and Ramdas Pophale) SiO2 
 PCOD9138920
Probable space group: C C
;
_chemical_formula_sum "Si O2"
_cell_formula_units_Z 32
_cell_length_a 5.435151
_cell_length_b 30.094008
_cell_length_c 8.057690
_cell_angle_alpha 90.000000
_cell_angle_beta 80.367928
_cell_angle_gamma 90.000000
_cell_volume 1299.380016
_symmetry_space_group_name_H-M "C C"
_symmetry_group_IT_number 9
_symmetry_cell_setting 'monoclinic'
loop_
_space_group_symop_operation_xyz
x,y,z
x,-y,1/2+z
1/2+x,1/2+y,z
1/2+x,1/2-y,1/2+z
loop_
_atom_site_type_symbol
_atom_site_label
_atom_site_fract_x
_atom_site_fract_y
_atom_site_fract_z
Si Si1 0.182710 0.881336 0.159810
Si Si2 0.295880 0.086471 0.103917
Si Si3 0.086716 0.252261 0.450095
Si Si4 0.024554 0.158248 0.320596
Si Si5 0.604661 0.100282 0.401591
Si Si6 0.718476 0.062343 0.843951
Si Si7 0.613259 0.711660 0.816158
Si Si8 0.871798 0.970520 0.692280
O O1 0.205595 0.837606 0.265960
O O2 0.944025 0.907743 0.251598
O O3 0.118730 0.863616 0.981363
O O4 0.440489 0.905847 0.082836
O O5 0.109203 0.128750 0.152090
O O6 0.459943 0.093435 0.247692
O O7 0.167638 0.038093 0.141246
O O8 0.453993 0.085453 0.918001
O O9 0.111679 0.208629 0.327570
O O10 0.321908 0.285130 0.399946
O O11 0.111248 0.236965 0.638267
O O12 0.813680 0.269568 0.425445
O O13 0.728803 0.149006 0.374414
O O14 0.808708 0.061637 0.355718
O O15 0.741807 0.016932 0.739475
O O16 0.790499 0.047310 0.022849
#
# Coordination Sequence:
#
# PCOD9138920 Si02
#       8
#     4   4   4   4   4   4   4   4
#     4  10  24  41  68  96 141 179 230 287 358 415
#     4   9  21  42  61  97 130 168 226 278 344 415
#     4  11  25  46  73 108 147 194 241 304 361 441
#     4   9  21  41  74  93 132 185 231 276 357 419
#     4   9  20  41  67  93 126 173 228 277 339 425
#     4  11  25  41  65  96 135 172 227 285 345 415
#     4  11  26  47  72 110 147 192 245 299 369 435
#     4  10  24  41  64  95 130 177 226 276 349 411
#
# _framework density 24.627129
#
# number of rings (size 3 to 8) (size 9 to 14) (size 15 to 20)
#    0.000    2.000    0.000    0.750   15.750    3.000 
#   11.250    0.000    0.000    0.000    0.000    0.000 
#    0.000    0.000    0.000    0.000    0.000    0.000 
#
# Total GULP energy -89272.704374 kJ/mol
# GULP energy per Si atom -5579.544023 kJ/mol
# Density = 2.457108 g / cm^3
# Si number density = 24.627129 Si / 1000 Ang^3
#
#
#
# Elastic Constant Matrix: (Units=GPa)
#
#
# Indices 1 2 3 4 5 6 
#
# 1 82.9369 10.7118 33.5878 0.0000 -19.3040 0.0000
# 2 10.7118 67.2667 25.3910 0.0000 -12.9571 0.0000
# 3 33.5878 25.3910 143.3184 0.0000 -23.1264 0.0000
# 4 0.0000 0.0000 0.0000 27.9291 0.0000 -7.0970
# 5 -19.3040 -12.9571 -23.1264 0.0000 46.2578 0.0000
# 6 0.0000 0.0000 0.0000 -7.0970 0.0000 32.6938
#
#
#
# Elastic Compliance Matrix: (Units=1/GPa)
#
#
# Indices 1 2 3 4 5 6 
#
# 1 0.014189 -0.000435 -0.002515 0.000000 0.004542 0.000000
# 2 -0.000435 0.016428 -0.002279 0.000000 0.003280 0.000000
# 3 -0.002515 -0.002279 0.008374 0.000000 0.002498 0.000000
# 4 0.000000 0.000000 0.000000 0.037895 0.000000 0.008226
# 5 0.004542 0.003280 0.002498 0.000000 0.025681 0.000000
# 6 0.000000 0.000000 0.000000 0.008226 0.000000 0.032373
#
#
# Mechanical properties :
#
#
# Convention : Reuss Voigt Hill
#
# Bulk Modulus (GPa) = 35.04881 48.10036 41.57458
# Shear Modulus (GPa) = 32.27682 36.29823 34.28753
#
# Velocity S-wave (km/s) = 3.62418 3.84332 3.73536
# Velocity P-wave (km/s) = 5.63698 6.26647 5.96004
#
# Compressibility (1/GPa) = 0.02853164
#
# Stress axis : x y z
#
# Youngs Moduli (GPa) = 70.47507 60.87293 119.41872
#
# Poissons Ratio (x) = 0.02649 0.30038
# Poissons Ratio (y) = 0.03067 0.27216
# Poissons Ratio (z) = 0.17727 0.13873
#
# Static dielectric constant tensor:
#      x y z
#    x 2.277760 0.000000 -0.067180 
#    y 0.000000 2.021460 0.000000 
#    z -0.067180 0.000000 1.945060 
# 
# From -- ./inp_files/4316.got.cif
#   From: 2010.05.17/outbox.cif.g08.bks.cpg/sg9_3_cif.got.tgz:4316.got - 2010.06.03 20:04:27.
