data_PCOD9138233
_publ_section_title
;
Structure prediction by ZEFSAII (Michael W. Deem and Ramdas Pophale) SiO2 
 PCOD9138233
Probable space group: C C
;
_chemical_formula_sum "Si O2"
_cell_formula_units_Z 28
_cell_length_a 5.159930
_cell_length_b 23.217329
_cell_length_c 9.488417
_cell_angle_alpha 90.000000
_cell_angle_beta 96.657701
_cell_angle_gamma 90.000000
_cell_volume 1129.044994
_symmetry_space_group_name_H-M "C C"
_symmetry_group_IT_number 9
_symmetry_cell_setting 'monoclinic'
loop_
_space_group_symop_operation_xyz
x,y,z
x,-y,1/2+z
1/2+x,1/2+y,z
1/2+x,1/2-y,1/2+z
loop_
_atom_site_type_symbol
_atom_site_label
_atom_site_fract_x
_atom_site_fract_y
_atom_site_fract_z
Si Si1 0.243190 0.084686 0.108210
Si Si2 0.511695 0.613417 0.365442
Si Si3 0.982088 0.920318 0.191523
Si Si4 0.754233 0.042576 0.141124
Si Si5 0.294397 0.789243 0.489733
Si Si6 0.487268 0.143356 0.740843
Si Si7 0.764472 0.719434 0.488263
O O1 0.463967 0.042368 0.069054
O O2 0.216540 0.080418 0.277115
O O3 0.961722 0.063191 0.038882
O O4 0.276504 0.150539 0.069614
O O5 0.476329 0.592079 0.521775
O O6 0.261934 0.594790 0.256552
O O7 0.596945 0.680265 0.368525
O O8 0.783905 0.875904 0.252055
O O9 0.278990 0.907836 0.254651
O O10 0.860997 0.982985 0.205181
O O11 0.420547 0.807608 0.348638
O O12 0.531287 0.749630 0.562866
O O13 0.007792 0.760341 0.461708
O O14 0.410845 0.170380 0.586804
#
# Coordination Sequence:
#
# PCOD9138233 Si02
#       7
#     4   4   4   4   4   4   4
#     4  10  24  42  64 103 124 170 219 265 318 390
#     4   9  25  41  71  93 138 162 228 263 323 403
#     4  11  23  45  66  99 130 174 215 269 338 380
#     4  10  23  41  68  96 129 172 212 267 322 391
#     4  12  26  42  68  94 135 172 215 278 322 388
#     4  11  26  42  64  99 132 168 223 273 321 395
#     4  11  25  41  67  94 130 178 212 267 334 383
#
# _framework density 24.799721000000002
#
# number of rings (size 3 to 8) (size 9 to 14) (size 15 to 20)
#    0.857    0.571    0.000    4.286   10.000    2.286 
#    0.000    0.000    0.000    0.000    0.000    0.000 
#    0.000    0.000    0.000    0.000    0.000    0.000 
#
# Total GULP energy -78106.877043 kJ/mol
# GULP energy per Si atom -5579.062646 kJ/mol
# Density = 2.474328 g / cm^3
# Si number density = 24.799721 Si / 1000 Ang^3
#
#
#
# Elastic Constant Matrix: (Units=GPa)
#
#
# Indices 1 2 3 4 5 6 
#
# 1 141.3531 29.2311 18.5816 0.0000 -32.1261 0.0000
# 2 29.2311 110.3100 15.2127 0.0000 -10.4183 0.0000
# 3 18.5816 15.2127 47.9616 0.0000 2.9899 0.0000
# 4 0.0000 0.0000 0.0000 25.0983 0.0000 11.5973
# 5 -32.1261 -10.4183 2.9899 0.0000 16.1167 0.0000
# 6 0.0000 0.0000 0.0000 11.5973 0.0000 26.6148
#
#
#
# Elastic Compliance Matrix: (Units=1/GPa)
#
#
# Indices 1 2 3 4 5 6 
#
# 1 0.015478 0.000065 -0.008036 0.000000 0.032386 0.000000
# 2 0.000065 0.010270 -0.003748 0.000000 0.007465 0.000000
# 3 -0.008036 -0.003748 0.026610 0.000000 -0.023378 0.000000
# 4 0.000000 0.000000 0.000000 0.049888 0.000000 -0.021739
# 5 0.032386 0.007465 -0.023378 0.000000 0.135765 0.000000
# 6 0.000000 0.000000 0.000000 -0.021739 0.000000 0.047046
#
#
# Mechanical properties :
#
#
# Convention : Reuss Voigt Hill
#
# Bulk Modulus (GPa) = 34.57856 47.29728 40.93792
# Shear Modulus (GPa) = 15.71667 29.33924 22.52796
#
# Velocity S-wave (km/s) = 2.52016 3.44328 3.01723
# Velocity P-wave (km/s) = 4.73726 5.90943 5.35551
#
# Compressibility (1/GPa) = 0.02891965
#
# Stress axis : x y z
#
# Youngs Moduli (GPa) = 64.60880 97.37180 37.58031
#
# Poissons Ratio (x) = -0.00638 0.30200
# Poissons Ratio (y) = -0.00423 0.14086
# Poissons Ratio (z) = 0.51921 0.36497
#
# Static dielectric constant tensor:
#      x y z
#    x 2.055630 0.000000 0.027400 
#    y 0.000000 2.061250 0.000000 
#    z 0.027400 0.000000 2.026620 
# 
# From -- ./inp_files/13214.got.cif
#   From: 2010.05.17/outbox.cif.g08.bks.cpg/sg9_7_cif.got.tgz:13214.got - 2010.06.03 20:04:27.
