data_PCOD9138797
_publ_section_title
;
Structure prediction by ZEFSAII (Michael W. Deem and Ramdas Pophale) SiO2 
 PCOD9138797
Probable space group: C C
;
_chemical_formula_sum "Si O2"
_cell_formula_units_Z 32
_cell_length_a 8.391218
_cell_length_b 15.912399
_cell_length_c 10.135439
_cell_angle_alpha 90.000000
_cell_angle_beta 104.784769
_cell_angle_gamma 90.000000
_cell_volume 1308.521500
_symmetry_space_group_name_H-M "C C"
_symmetry_group_IT_number 9
_symmetry_cell_setting 'monoclinic'
loop_
_space_group_symop_operation_xyz
x,y,z
x,-y,1/2+z
1/2+x,1/2+y,z
1/2+x,1/2-y,1/2+z
loop_
_atom_site_type_symbol
_atom_site_label
_atom_site_fract_x
_atom_site_fract_y
_atom_site_fract_z
Si Si1 0.197790 0.912197 0.183380
Si Si2 0.028465 0.592543 0.611393
Si Si3 0.619251 0.001546 0.885504
Si Si4 0.734366 0.833744 0.532092
Si Si5 0.778441 0.762483 0.260914
Si Si6 0.085494 0.898432 0.698042
Si Si7 0.166485 0.756237 0.298529
Si Si8 0.412705 0.380271 0.939950
O O1 0.345245 0.885934 0.117858
O O2 0.227329 0.852908 0.314835
O O3 0.168383 0.010862 0.194791
O O4 0.025593 0.879445 0.090467
O O5 0.024926 0.563093 0.459942
O O6 0.170011 0.662094 0.670463
O O7 0.067890 0.517611 0.724537
O O8 0.618164 0.089719 0.962010
O O9 0.800649 0.962921 0.917695
O O10 0.737293 0.772852 0.407417
O O11 0.686939 0.787354 0.657252
O O12 0.914609 0.876824 0.587097
O O13 0.709592 0.675811 0.190875
O O14 0.975501 0.758973 0.295383
O O15 0.028430 0.888940 0.837543
O O16 0.291125 0.698772 0.407588
#
# Coordination Sequence:
#
# PCOD9138797 Si02
#       8
#     4   4   4   4   4   4   4   4
#     4  12  27  45  74 110 149 198 252 316 380 455
#     4  11  26  46  74 112 155 196 254 316 383 461
#     4  11  24  46  74 109 144 199 247 320 374 450
#     4  10  23  47  71 103 152 194 254 311 378 453
#     4  11  26  46  76 108 154 198 253 311 391 453
#     4  11  25  45  72 110 146 196 254 313 376 458
#     4  11  26  46  74 107 146 199 251 316 385 453
#     4  11  25  45  75 103 154 196 249 311 383 451
#
# _framework density 24.455079999999999
#
# number of rings (size 3 to 8) (size 9 to 14) (size 15 to 20)
#    0.000    1.000    1.250    4.500    8.750    4.000 
#    0.000    0.000    0.000    0.000    0.000    0.000 
#    0.000    0.000    0.000    0.000    0.000    0.000 
#
# Total GULP energy -89534.919872 kJ/mol
# GULP energy per Si atom -5595.932492 kJ/mol
# Density = 2.439942 g / cm^3
# Si number density = 24.455080 Si / 1000 Ang^3
#
#
#
# Elastic Constant Matrix: (Units=GPa)
#
#
# Indices 1 2 3 4 5 6 
#
# 1 125.3383 50.1056 7.4932 0.0000 5.3493 0.0000
# 2 50.1056 140.3924 30.5760 0.0000 8.9453 0.0000
# 3 7.4932 30.5760 65.3563 0.0000 2.2011 0.0000
# 4 0.0000 0.0000 0.0000 39.1773 0.0000 7.1208
# 5 5.3493 8.9453 2.2011 0.0000 30.6106 0.0000
# 6 0.0000 0.0000 0.0000 7.1208 0.0000 38.8299
#
#
#
# Elastic Compliance Matrix: (Units=1/GPa)
#
#
# Indices 1 2 3 4 5 6 
#
# 1 0.009337 -0.003408 0.000547 0.000000 -0.000675 0.000000
# 2 -0.003408 0.009306 -0.003901 0.000000 -0.001843 0.000000
# 3 0.000547 -0.003901 0.017069 0.000000 -0.000183 0.000000
# 4 0.000000 0.000000 0.000000 0.026405 0.000000 -0.004842
# 5 -0.000675 -0.001843 -0.000183 0.000000 0.033338 0.000000
# 6 0.000000 0.000000 0.000000 -0.004842 0.000000 0.026641
#
#
# Mechanical properties :
#
#
# Convention : Reuss Voigt Hill
#
# Bulk Modulus (GPa) = 45.07049 56.38182 50.72615
# Shear Modulus (GPa) = 34.96051 37.91772 36.43911
#
# Velocity S-wave (km/s) = 3.78508 3.94192 3.86429
# Velocity P-wave (km/s) = 6.12963 6.61994 6.37950
#
# Compressibility (1/GPa) = 0.02218747
#
# Stress axis : x y z
#
# Youngs Moduli (GPa) = 107.09965 107.45273 58.58495
#
# Poissons Ratio (x) = 0.36625 -0.03204
# Poissons Ratio (y) = 0.36505 0.22854
# Poissons Ratio (z) = -0.05856 0.41917
#
# Static dielectric constant tensor:
#      x y z
#    x 1.942280 0.000000 0.010190 
#    y 0.000000 1.962530 0.000000 
#    z 0.010190 0.000000 1.971010 
# 
# From -- ./inp_files/14673.got.cif
#   From: 2010.05.17/outbox.cif.g08.bks.cpg/sg9_8_cif.got.tgz:14673.got - 2010.06.03 20:04:27.
