data_PCOD9138608
_publ_section_title
;
Structure prediction by ZEFSAII (Michael W. Deem and Ramdas Pophale) SiO2 
 PCOD9138608
Probable space group: C C
;
_chemical_formula_sum "Si O2"
_cell_formula_units_Z 24
_cell_length_a 5.580288
_cell_length_b 21.753855
_cell_length_c 8.481545
_cell_angle_alpha 90.000000
_cell_angle_beta 80.988725
_cell_angle_gamma 90.000000
_cell_volume 1016.890514
_symmetry_space_group_name_H-M "C C"
_symmetry_group_IT_number 9
_symmetry_cell_setting 'monoclinic'
loop_
_space_group_symop_operation_xyz
x,y,z
x,-y,1/2+z
1/2+x,1/2+y,z
1/2+x,1/2-y,1/2+z
loop_
_atom_site_type_symbol
_atom_site_label
_atom_site_fract_x
_atom_site_fract_y
_atom_site_fract_z
Si Si1 0.962700 0.069179 0.778920
Si Si2 0.755575 0.669478 0.849099
Si Si3 0.747279 0.533074 0.432601
Si Si4 0.329383 0.141709 0.187414
Si Si5 0.101689 0.404089 0.098025
Si Si6 0.302643 0.313316 0.829255
O O1 0.690317 0.062344 0.747845
O O2 0.996216 0.138189 0.840335
O O3 0.088280 0.057207 0.596221
O O4 0.104643 0.026104 0.885085
O O5 0.757523 0.741968 0.868342
O O6 0.907271 0.645337 0.683633
O O7 0.858339 0.640389 0.998186
O O8 0.769059 0.577463 0.278953
O O9 0.007542 0.542886 0.490367
O O10 0.578148 0.166738 0.239165
O O11 0.079200 0.180082 0.240138
O O12 0.276754 0.359355 0.980213
#
# Coordination Sequence:
#
# PCOD9138608 Si02
#       6
#     4   4   4   4   4   4
#     4  11  23  44  69  99 140 185 237 289 360 418
#     4  11  26  40  70 105 141 184 239 284 356 423
#     4  10  23  45  67 100 140 181 241 291 355 420
#     4  11  25  46  71 103 139 189 234 295 356 415
#     4  10  24  46  69 104 144 187 233 299 356 421
#     4  11  25  45  72 101 148 186 236 290 353 423
#
# _framework density 23.601361000000001
#
# number of rings (size 3 to 8) (size 9 to 14) (size 15 to 20)
#    0.000    1.333    1.667    2.000    7.000    2.667 
#    3.000    0.000    0.000    0.000    0.000    0.000 
#    0.000    0.000    0.000    0.000    0.000    0.000 
#
# Total GULP energy -66888.699202 kJ/mol
# GULP energy per Si atom -5574.058267 kJ/mol
# Density = 2.354764 g / cm^3
# Si number density = 23.601361 Si / 1000 Ang^3
#
#
#
# Elastic Constant Matrix: (Units=GPa)
#
#
# Indices 1 2 3 4 5 6 
#
# 1 80.7619 47.5134 27.7566 0.0000 27.4743 0.0000
# 2 47.5134 116.1982 39.8823 0.0000 34.5214 0.0000
# 3 27.7566 39.8823 99.5136 0.0000 13.0714 0.0000
# 4 0.0000 0.0000 0.0000 20.9810 0.0000 0.7565
# 5 27.4743 34.5214 13.0714 0.0000 42.7087 0.0000
# 6 0.0000 0.0000 0.0000 0.7565 0.0000 12.0695
#
#
#
# Elastic Compliance Matrix: (Units=1/GPa)
#
#
# Indices 1 2 3 4 5 6 
#
# 1 0.018369 -0.004487 -0.002344 0.000000 -0.007473 0.000000
# 2 -0.004487 0.013707 -0.003298 0.000000 -0.007183 0.000000
# 3 -0.002344 -0.003298 0.011957 0.000000 0.000514 0.000000
# 4 0.000000 0.000000 0.000000 0.047770 0.000000 -0.002994
# 5 -0.007473 -0.007183 0.000514 0.000000 0.033871 0.000000
# 6 0.000000 0.000000 0.000000 -0.002994 0.000000 0.083041
#
#
# Mechanical properties :
#
#
# Convention : Reuss Voigt Hill
#
# Bulk Modulus (GPa) = 42.06005 58.53090 50.29548
# Shear Modulus (GPa) = 21.10609 27.23993 24.17301
#
# Velocity S-wave (km/s) = 2.99369 3.40099 3.20382
# Velocity P-wave (km/s) = 5.45979 6.34633 5.91968
#
# Compressibility (1/GPa) = 0.02377553
#
# Stress axis : x y z
#
# Youngs Moduli (GPa) = 54.43822 72.95675 83.63323
#
# Poissons Ratio (x) = 0.32733 0.19603
# Poissons Ratio (y) = 0.24424 0.27585
# Poissons Ratio (z) = 0.12760 0.24063
#
# Static dielectric constant tensor:
#      x y z
#    x 2.286370 0.000000 0.005600 
#    y 0.000000 1.879370 0.000000 
#    z 0.005600 0.000000 1.861720 
# 
# From -- ./inp_files/3806.got.cif
#   From: 2010.05.17/outbox.cif.g08.bks.cpg/sg9_2_cif.got.tgz:3806.got - 2010.06.03 20:04:27.
