data_PCOD9138685
_publ_section_title
;
Structure prediction by ZEFSAII (Michael W. Deem and Ramdas Pophale) SiO2 
 PCOD9138685
Probable space group: C C
;
_chemical_formula_sum "Si O2"
_cell_formula_units_Z 20
_cell_length_a 9.396228
_cell_length_b 10.643795
_cell_length_c 7.733811
_cell_angle_alpha 90.000000
_cell_angle_beta 114.582276
_cell_angle_gamma 90.000000
_cell_volume 703.366630
_symmetry_space_group_name_H-M "C C"
_symmetry_group_IT_number 9
_symmetry_cell_setting 'monoclinic'
loop_
_space_group_symop_operation_xyz
x,y,z
x,-y,1/2+z
1/2+x,1/2+y,z
1/2+x,1/2-y,1/2+z
loop_
_atom_site_type_symbol
_atom_site_label
_atom_site_fract_x
_atom_site_fract_y
_atom_site_fract_z
Si Si1 0.762980 0.120578 0.326270
Si Si2 0.536100 0.111267 0.772883
Si Si3 0.829855 0.543209 0.361970
Si Si4 0.467838 0.281125 0.243160
Si Si5 0.512159 0.376151 0.653060
O O1 0.637096 0.232442 0.267436
O O2 0.862573 0.114469 0.201359
O O3 0.667381 0.991442 0.302246
O O4 0.874815 0.854350 0.047404
O O5 0.387886 0.100409 0.569712
O O6 0.595630 0.249810 0.771334
O O7 0.447618 0.074488 0.901893
O O8 0.878468 0.649745 0.246673
O O9 0.646781 0.520737 0.250914
O O10 0.481120 0.353260 0.434877
#
# Coordination Sequence:
#
# PCOD9138685 Si02
#       5
#     4   4   4   4   4
#     4  11  25  47  80 115 153 205 257 317 393 454
#     4  10  26  47  76 112 153 201 256 319 379 466
#     4  10  23  48  76 111 153 200 258 314 387 457
#     4  10  23  45  77 114 154 196 257 322 374 465
#     4  11  25  49  83 108 157 206 250 324 389 454
#
# _framework density 28.434670000000001
#
# number of rings (size 3 to 8) (size 9 to 14) (size 15 to 20)
#    0.000    1.600    2.000    0.000   11.200    0.000 
#    0.000   14.000    0.000    0.000    0.000    0.000 
#    0.000    0.000    0.000    0.000    0.000    0.000 
#
# Total GULP energy -56164.931831 kJ/mol
# GULP energy per Si atom -5616.493183 kJ/mol
# Density = 2.836995 g / cm^3
# Si number density = 28.434670 Si / 1000 Ang^3
#
#
#
# Elastic Constant Matrix: (Units=GPa)
#
#
# Indices 1 2 3 4 5 6 
#
# 1 248.1571 69.9177 88.7157 0.0000 -5.6563 0.0000
# 2 69.9177 130.3426 47.0717 0.0000 4.4827 0.0000
# 3 88.7157 47.0717 191.7515 0.0000 1.0242 0.0000
# 4 0.0000 0.0000 0.0000 52.7428 0.0000 15.5294
# 5 -5.6563 4.4827 1.0242 0.0000 56.2482 0.0000
# 6 0.0000 0.0000 0.0000 15.5294 0.0000 48.6359
#
#
#
# Elastic Compliance Matrix: (Units=1/GPa)
#
#
# Indices 1 2 3 4 5 6 
#
# 1 0.005362 -0.002200 -0.001945 0.000000 0.000750 0.000000
# 2 -0.002200 0.009343 -0.001271 0.000000 -0.000943 0.000000
# 3 -0.001945 -0.001271 0.006428 0.000000 -0.000211 0.000000
# 4 0.000000 0.000000 0.000000 0.020927 0.000000 -0.006682
# 5 0.000750 -0.000943 -0.000211 0.000000 0.017933 0.000000
# 6 0.000000 0.000000 0.000000 -0.006682 0.000000 0.022695
#
#
# Mechanical properties :
#
#
# Convention : Reuss Voigt Hill
#
# Bulk Modulus (GPa) = 97.06301 109.07351 103.06826
# Shear Modulus (GPa) = 51.57166 55.82844 53.70005
#
# Velocity S-wave (km/s) = 4.26336 4.43583 4.35045
# Velocity P-wave (km/s) = 7.64490 8.04226 7.84610
#
# Compressibility (1/GPa) = 0.01030259
#
# Stress axis : x y z
#
# Youngs Moduli (GPa) = 186.50573 107.02740 155.57072
#
# Poissons Ratio (x) = 0.23542 0.30254
# Poissons Ratio (y) = 0.41024 0.19772
# Poissons Ratio (z) = 0.36270 0.13603
#
# Static dielectric constant tensor:
#      x y z
#    x 2.166700 0.000000 -0.051020 
#    y 0.000000 2.355080 0.000000 
#    z -0.051020 0.000000 2.171840 
# 
# From -- ./inp_files/4800.got.cif
#   From: 2010.05.17/outbox.cif.g08.bks.cpg/sg9_3_cif.got.tgz:4800.got - 2010.06.03 20:04:27.
