data_PCOD9138280
_publ_section_title
;
Structure prediction by ZEFSAII (Michael W. Deem and Ramdas Pophale) SiO2 
 PCOD9138280
Probable space group: C C
;
_chemical_formula_sum "Si O2"
_cell_formula_units_Z 32
_cell_length_a 21.928132
_cell_length_b 13.977387
_cell_length_c 8.098362
_cell_angle_alpha 90.000000
_cell_angle_beta 149.144131
_cell_angle_gamma 90.000000
_cell_volume 1273.036157
_symmetry_space_group_name_H-M "C C"
_symmetry_group_IT_number 9
_symmetry_cell_setting 'monoclinic'
loop_
_space_group_symop_operation_xyz
x,y,z
x,-y,1/2+z
1/2+x,1/2+y,z
1/2+x,1/2-y,1/2+z
loop_
_atom_site_type_symbol
_atom_site_label
_atom_site_fract_x
_atom_site_fract_y
_atom_site_fract_z
Si Si1 0.483020 0.471482 0.075720
Si Si2 0.432652 0.075533 0.861910
Si Si3 0.707464 0.626197 0.122524
Si Si4 0.461864 0.873982 0.794198
Si Si5 0.425110 0.647306 0.111326
Si Si6 0.343043 0.680085 0.462633
Si Si7 0.126263 0.282397 0.673433
Si Si8 0.207942 0.294617 0.314567
O O1 0.625488 0.467316 0.426055
O O2 0.432736 0.577582 0.974162
O O3 0.460035 0.417169 0.851752
O O4 0.417813 0.409049 0.066485
O O5 0.335514 0.106919 0.499186
O O6 0.440211 0.960971 0.866725
O O7 0.404354 0.096930 0.985526
O O8 0.551161 0.139195 0.102667
O O9 0.648323 0.695834 0.122177
O O10 0.686185 0.690984 0.909124
O O11 0.412778 0.767740 0.710820
O O12 0.604289 0.868826 0.105183
O O13 0.521828 0.730878 0.325297
O O14 0.294543 0.679826 0.862772
O O15 0.225832 0.664018 0.299865
O O16 0.288732 0.717799 0.161510
#
# Coordination Sequence:
#
# PCOD9138280 Si02
#       8
#     4   4   4   4   4   4   4   4
#     4  10  23  42  66  95 127 169 218 267 329 393
#     4  12  27  45  68 101 138 178 227 277 338 402
#     4  11  22  46  69  86 135 181 212 273 334 386
#     4  12  27  45  68 101 138 178 227 277 338 402
#     4  10  23  42  66  95 127 169 218 267 329 393
#     4  11  25  44  66  99 134 174 224 271 333 401
#     4  11  25  44  66  99 134 174 224 271 333 401
#     4  11  22  46  69  86 135 181 212 273 334 386
#
# _framework density 25.136755999999998
#
# number of rings (size 3 to 8) (size 9 to 14) (size 15 to 20)
#    0.000    1.000    5.000    0.750    7.000    4.000 
#    0.000    0.000    0.000    0.000    0.000    0.000 
#    0.000    0.000    0.000    0.000    0.000    0.000 
#
# Total GULP energy -89421.522319 kJ/mol
# GULP energy per Si atom -5588.845145 kJ/mol
# Density = 2.507954 g / cm^3
# Si number density = 25.136756 Si / 1000 Ang^3
#
#
#
# Elastic Constant Matrix: (Units=GPa)
#
#
# Indices 1 2 3 4 5 6 
#
# 1 56.1363 -5.0040 13.9013 0.0000 1.2312 0.0000
# 2 -5.0040 79.1051 15.3505 0.0000 2.4200 0.0000
# 3 13.9013 15.3505 91.8632 0.0000 14.9273 0.0000
# 4 0.0000 0.0000 0.0000 24.1599 0.0000 -2.8657
# 5 1.2312 2.4200 14.9273 0.0000 31.3109 0.0000
# 6 0.0000 0.0000 0.0000 -2.8657 0.0000 32.2030
#
#
#
# Elastic Compliance Matrix: (Units=1/GPa)
#
#
# Indices 1 2 3 4 5 6 
#
# 1 0.018764 0.001797 -0.003249 0.000000 0.000672 0.000000
# 2 0.001797 0.013237 -0.002500 0.000000 0.000098 0.000000
# 3 -0.003249 -0.002500 0.012729 0.000000 -0.005748 0.000000
# 4 0.000000 0.000000 0.000000 0.041833 0.000000 0.003723
# 5 0.000672 0.000098 -0.005748 0.000000 0.034644 0.000000
# 6 0.000000 0.000000 0.000000 0.003723 0.000000 0.031384
#
#
# Mechanical properties :
#
#
# Convention : Reuss Voigt Hill
#
# Bulk Modulus (GPa) = 27.15457 30.62225 28.88841
# Shear Modulus (GPa) = 28.94025 31.05856 29.99940
#
# Velocity S-wave (km/s) = 3.39678 3.51890 3.45838
# Velocity P-wave (km/s) = 5.11960 5.35900 5.24067
#
# Compressibility (1/GPa) = 0.03682622
#
# Stress axis : x y z
#
# Youngs Moduli (GPa) = 53.29427 75.54495 78.56031
#
# Poissons Ratio (x) = -0.13574 0.25524
# Poissons Ratio (y) = -0.09576 0.19638
# Poissons Ratio (z) = 0.17315 0.18885
#
# Static dielectric constant tensor:
#      x y z
#    x 1.980110 0.000000 -0.029250 
#    y 0.000000 1.949160 0.000000 
#    z -0.029250 0.000000 2.012410 
# 
# From -- ./inp_files/7423.got.cif
#   From: 2010.05.17/outbox.cif.g08.bks.cpg/sg9_4_cif.got.tgz:7423.got - 2010.06.03 20:04:27.
