data_PCOD9138949
_publ_section_title
;
Structure prediction by ZEFSAII (Michael W. Deem and Ramdas Pophale) SiO2 
 PCOD9138949
Probable space group: C C
;
_chemical_formula_sum "Si O2"
_cell_formula_units_Z 28
_cell_length_a 27.347077
_cell_length_b 5.515752
_cell_length_c 22.911928
_cell_angle_alpha 90.000000
_cell_angle_beta 162.627244
_cell_angle_gamma 90.000000
_cell_volume 1031.925167
_symmetry_space_group_name_H-M "C C"
_symmetry_group_IT_number 9
_symmetry_cell_setting 'monoclinic'
loop_
_space_group_symop_operation_xyz
x,y,z
x,-y,1/2+z
1/2+x,1/2+y,z
1/2+x,1/2-y,1/2+z
loop_
_atom_site_type_symbol
_atom_site_label
_atom_site_fract_x
_atom_site_fract_y
_atom_site_fract_z
Si Si1 0.317510 0.409894 0.332830
Si Si2 0.023910 0.732085 0.016207
Si Si3 0.746945 0.436891 0.650115
Si Si4 0.193355 0.485196 0.807065
Si Si5 0.611189 0.230136 0.836031
Si Si6 0.817421 0.601274 0.028507
Si Si7 0.378977 0.441372 0.204370
O O1 0.486464 0.500590 0.497006
O O2 0.244201 0.206042 0.208502
O O3 0.309383 0.374556 0.393115
O O4 0.199802 0.650102 0.192335
O O5 0.032398 0.572251 0.085646
O O6 0.887232 0.638729 0.816110
O O7 0.562980 0.523629 0.428330
O O8 0.807726 0.237803 0.672458
O O9 0.147352 0.607806 0.814741
O O10 0.279337 0.235830 0.924949
O O11 0.647004 0.509378 0.863041
O O12 0.438831 0.125495 0.659888
O O13 0.745673 0.144289 0.036512
O O14 0.893116 0.782958 0.161468
#
# Coordination Sequence:
#
# PCOD9138949 Si02
#       7
#     4   4   4   4   4   4   4
#     4  10  24  42  68  97 135 181 228 283 347 408
#     4  10  24  42  67  98 134 181 227 285 345 413
#     4  12  24  46  68 102 137 184 232 288 346 414
#     4   9  23  45  67  98 139 177 229 289 340 408
#     4  11  25  43  71 102 134 189 231 283 349 412
#     4  11  25  43  70 102 137 185 230 291 344 409
#     4  11  25  45  67  95 146 175 237 287 341 406
#
# _framework density 27.133749999999999
#
# number of rings (size 3 to 8) (size 9 to 14) (size 15 to 20)
#    0.857    0.571    2.857    0.857    4.000    8.000 
#    0.000    0.000    0.000    0.000    0.000    0.000 
#    0.000    0.000    0.000    0.000    0.000    0.000 
#
# Total GULP energy -78424.922862 kJ/mol
# GULP energy per Si atom -5601.780204 kJ/mol
# Density = 2.707199 g / cm^3
# Si number density = 27.133750 Si / 1000 Ang^3
#
#
#
# Elastic Constant Matrix: (Units=GPa)
#
#
# Indices 1 2 3 4 5 6 
#
# 1 144.1002 29.6685 41.6661 0.0000 -2.6615 0.0001
# 2 29.6685 38.3219 25.7873 0.0000 -2.9943 -0.0001
# 3 41.6661 25.7873 158.3902 0.0001 -9.6800 0.0000
# 4 0.0000 0.0000 0.0001 34.3803 0.0001 12.2045
# 5 -2.6615 -2.9943 -9.6800 0.0001 45.8390 0.0000
# 6 0.0001 -0.0001 0.0000 12.2045 0.0000 51.7327
#
#
#
# Elastic Compliance Matrix: (Units=1/GPa)
#
#
# Indices 1 2 3 4 5 6 
#
# 1 0.008491 -0.005701 -0.001315 0.000000 -0.000157 0.000000
# 2 -0.005701 0.033171 -0.003838 0.000000 0.001025 0.000000
# 3 -0.001315 -0.003838 0.007359 0.000000 0.001227 0.000000
# 4 0.000000 0.000000 0.000000 0.031745 0.000000 -0.007489
# 5 -0.000157 0.001025 0.001227 0.000000 0.022132 0.000000
# 6 0.000000 0.000000 0.000000 -0.007489 0.000000 0.021097
#
#
# Mechanical properties :
#
#
# Convention : Reuss Voigt Hill
#
# Bulk Modulus (GPa) = 36.61249 59.45069 48.03159
# Shear Modulus (GPa) = 32.29806 42.63640 37.46723
#
# Velocity S-wave (km/s) = 3.45386 3.96832 3.71999
# Velocity P-wave (km/s) = 5.42477 6.55397 6.01592
#
# Compressibility (1/GPa) = 0.02731308
#
# Stress axis : x y z
#
# Youngs Moduli (GPa) = 117.77625 30.14663 135.88173
#
# Poissons Ratio (x) = 0.17186 0.17869
# Poissons Ratio (y) = 0.67142 0.52155
# Poissons Ratio (z) = 0.15488 0.11571
#
# Static dielectric constant tensor:
#      x y z
#    x 2.105560 0.000000 0.011530 
#    y 0.000000 2.176200 0.000000 
#    z 0.011530 0.000000 2.081840 
# 
# From -- ./inp_files/36193.got.cif
#   From: 2010.05.17/outbox.cif.g08.bks.cpg/sg9_19_cif.got.tgz:36193.got - 2010.06.03 20:04:27.
