data_PCOD9138446
_publ_section_title
;
Structure prediction by ZEFSAII (Michael W. Deem and Ramdas Pophale) SiO2 
 PCOD9138446
Probable space group: C C
;
_chemical_formula_sum "Si O2"
_cell_formula_units_Z 32
_cell_length_a 11.854599
_cell_length_b 13.383187
_cell_length_c 9.682354
_cell_angle_alpha 90.000000
_cell_angle_beta 130.309558
_cell_angle_gamma 90.000000
_cell_volume 1171.390324
_symmetry_space_group_name_H-M "C C"
_symmetry_group_IT_number 9
_symmetry_cell_setting 'monoclinic'
loop_
_space_group_symop_operation_xyz
x,y,z
x,-y,1/2+z
1/2+x,1/2+y,z
1/2+x,1/2-y,1/2+z
loop_
_atom_site_type_symbol
_atom_site_label
_atom_site_fract_x
_atom_site_fract_y
_atom_site_fract_z
Si Si1 0.919950 0.196772 0.163570
Si Si2 0.362202 0.193619 0.220803
Si Si3 0.675821 0.829309 0.279674
Si Si4 0.871909 0.478998 0.193081
Si Si5 0.958920 0.025741 0.688305
Si Si6 0.573153 0.597686 0.511373
Si Si7 0.199958 0.328550 0.913818
Si Si8 0.068087 0.538673 0.099502
O O1 0.970800 0.182906 0.362122
O O2 0.012052 0.283800 0.164412
O O3 0.751013 0.190400 0.987123
O O4 0.969871 0.088083 0.143139
O O5 0.282962 0.267503 0.263519
O O6 0.311505 0.081803 0.210852
O O7 0.540845 0.190421 0.361594
O O8 0.301980 0.234080 0.026279
O O9 0.664476 0.941088 0.213495
O O10 0.927623 0.515030 0.088372
O O11 0.010232 0.452127 0.399202
O O12 0.742917 0.398800 0.098026
O O13 0.058208 0.090521 0.663261
O O14 0.799576 0.078018 0.547895
O O15 0.009530 0.003238 0.884306
O O16 0.151689 0.364959 0.724571
#
# Coordination Sequence:
#
# PCOD9138446 Si02
#       8
#     4   4   4   4   4   4   4   4
#     4  10  25  38  72 104 147 189 250 308 374 448
#     4  11  26  43  77 114 149 198 269 314 372 463
#     4  12  22  44  71 113 145 199 253 317 370 461
#     4  11  24  44  75 115 151 200 256 322 380 461
#     4  10  23  43  72 102 143 199 248 304 388 454
#     4  10  23  43  71 105 148 199 248 311 381 469
#     4  11  25  46  71 112 148 199 246 328 378 450
#     4  11  24  45  75 111 157 201 252 318 397 454
#
# _framework density 27.317964
#
# number of rings (size 3 to 8) (size 9 to 14) (size 15 to 20)
#    0.750    0.500    1.250    4.500    7.000    3.000 
#    0.000    3.750    0.000    0.000    0.000    0.000 
#    0.000    0.000    0.000    0.000    0.000    0.000 
#
# Total GULP energy -89495.107802 kJ/mol
# GULP energy per Si atom -5593.444238 kJ/mol
# Density = 2.725579 g / cm^3
# Si number density = 27.317964 Si / 1000 Ang^3
#
#
#
# Elastic Constant Matrix: (Units=GPa)
#
#
# Indices 1 2 3 4 5 6 
#
# 1 112.6514 8.5406 21.9306 0.0000 13.6630 0.0000
# 2 8.5406 74.7059 40.6479 0.0000 -4.1709 0.0000
# 3 21.9306 40.6479 136.1423 0.0000 18.0742 0.0000
# 4 0.0000 0.0000 0.0000 46.6702 0.0000 4.7635
# 5 13.6630 -4.1709 18.0742 0.0000 47.6325 0.0000
# 6 0.0000 0.0000 0.0000 4.7635 0.0000 39.5403
#
#
#
# Elastic Compliance Matrix: (Units=1/GPa)
#
#
# Indices 1 2 3 4 5 6 
#
# 1 0.009411 -0.000663 -0.001002 0.000000 -0.002377 0.000000
# 2 -0.000663 0.016563 -0.005324 0.000000 0.003661 0.000000
# 3 -0.001002 -0.005324 0.009604 0.000000 -0.003823 0.000000
# 4 0.000000 0.000000 0.000000 0.021694 0.000000 -0.002613
# 5 -0.002377 0.003661 -0.003823 0.000000 0.023447 0.000000
# 6 0.000000 0.000000 0.000000 -0.002613 0.000000 0.025605
#
#
# Mechanical properties :
#
#
# Convention : Reuss Voigt Hill
#
# Bulk Modulus (GPa) = 46.30099 51.74863 49.02481
# Shear Modulus (GPa) = 39.21472 43.59398 41.40435
#
# Velocity S-wave (km/s) = 3.79290 3.99908 3.89735
# Velocity P-wave (km/s) = 6.01391 6.34884 6.18364
#
# Compressibility (1/GPa) = 0.02159781
#
# Stress axis : x y z
#
# Youngs Moduli (GPa) = 106.26243 60.37522 104.12375
#
# Poissons Ratio (x) = 0.04004 0.10437
# Poissons Ratio (y) = 0.07047 0.55440
# Poissons Ratio (z) = 0.10651 0.32146
#
# Static dielectric constant tensor:
#      x y z
#    x 2.130930 0.000000 -0.021420 
#    y 0.000000 2.092790 0.000000 
#    z -0.021420 0.000000 2.151730 
# 
# From -- ./inp_files/18401.got.cif
#   From: 2010.05.17/outbox.cif.g08.bks.cpg/sg9_10_cif.got.tgz:18401.got - 2010.06.03 20:04:27.
