data_PCOD9138462
_publ_section_title
;
Structure prediction by ZEFSAII (Michael W. Deem and Ramdas Pophale) SiO2 
 PCOD9138462
Probable space group: C C
;
_chemical_formula_sum "Si O2"
_cell_formula_units_Z 24
_cell_length_a 19.360514
_cell_length_b 8.308816
_cell_length_c 10.020250
_cell_angle_alpha 90.000000
_cell_angle_beta 146.434233
_cell_angle_gamma 90.000000
_cell_volume 891.202303
_symmetry_space_group_name_H-M "C C"
_symmetry_group_IT_number 9
_symmetry_cell_setting 'monoclinic'
loop_
_space_group_symop_operation_xyz
x,y,z
x,-y,1/2+z
1/2+x,1/2+y,z
1/2+x,1/2-y,1/2+z
loop_
_atom_site_type_symbol
_atom_site_label
_atom_site_fract_x
_atom_site_fract_y
_atom_site_fract_z
Si Si1 0.405920 0.297118 0.672730
Si Si2 0.626485 0.676441 0.133967
Si Si3 0.542661 0.080120 0.700060
Si Si4 0.173554 0.925636 0.431252
Si Si5 0.344134 0.822435 0.350919
Si Si6 0.781349 0.881182 0.987254
O O1 0.272331 0.235261 0.393643
O O2 0.516618 0.219102 0.766560
O O3 0.419643 0.240117 0.845615
O O4 0.390500 0.487949 0.660224
O O5 0.540531 0.814328 0.060586
O O6 0.617000 0.514398 0.210151
O O7 0.601485 0.660360 0.936564
O O8 0.437639 0.949657 0.567561
O O9 0.669412 0.980546 0.878421
O O10 0.272222 0.791509 0.543106
O O11 0.238993 0.067642 0.617048
O O12 0.283202 0.680034 0.337140
#
# Coordination Sequence:
#
# PCOD9138462 Si02
#       6
#     4   4   4   4   4   4
#     4  10  24  44  68 105 141 185 241 296 358 431
#     4  10  23  43  72  99 146 186 239 299 356 426
#     4  11  25  46  69 108 141 193 239 298 364 434
#     4  11  21  47  70 102 143 190 235 300 357 421
#     4  11  23  46  75 102 144 188 243 298 359 429
#     4  11  26  44  74 104 147 190 237 303 366 423
#
# _framework density 26.929912000000002
#
# number of rings (size 3 to 8) (size 9 to 14) (size 15 to 20)
#    0.000    1.333    3.333    1.000    7.000    4.000 
#    6.000    0.000    0.000    0.000    0.000    0.000 
#    0.000    0.000    0.000    0.000    0.000    0.000 
#
# Total GULP energy -67050.346049 kJ/mol
# GULP energy per Si atom -5587.528837 kJ/mol
# Density = 2.686862 g / cm^3
# Si number density = 26.929912 Si / 1000 Ang^3
#
#
#
# Elastic Constant Matrix: (Units=GPa)
#
#
# Indices 1 2 3 4 5 6 
#
# 1 175.8074 58.9815 33.4918 0.0000 -5.0249 0.0000
# 2 58.9815 167.6482 40.6330 0.0000 5.7555 0.0000
# 3 33.4918 40.6330 68.5013 0.0000 22.3550 0.0000
# 4 0.0000 0.0000 0.0000 13.5024 0.0000 15.5832
# 5 -5.0249 5.7555 22.3550 0.0000 36.7379 0.0000
# 6 0.0000 0.0000 0.0000 15.5832 0.0000 85.8755
#
#
#
# Elastic Compliance Matrix: (Units=1/GPa)
#
#
# Indices 1 2 3 4 5 6 
#
# 1 0.007037 -0.001741 -0.003507 0.000000 0.003369 0.000000
# 2 -0.001741 0.007491 -0.003908 0.000000 0.000966 0.000000
# 3 -0.003507 -0.003908 0.023193 0.000000 -0.013981 0.000000
# 4 0.000000 0.000000 0.000000 0.093680 0.000000 -0.016999
# 5 0.003369 0.000966 -0.013981 0.000000 0.036036 0.000000
# 6 0.000000 0.000000 0.000000 -0.016999 0.000000 0.014730
#
#
# Mechanical properties :
#
#
# Convention : Reuss Voigt Hill
#
# Bulk Modulus (GPa) = 51.52103 75.35216 63.43659
# Shear Modulus (GPa) = 24.16061 45.81322 34.98692
#
# Velocity S-wave (km/s) = 2.99852 4.12904 3.60833
# Velocity P-wave (km/s) = 5.58223 7.12555 6.40058
#
# Compressibility (1/GPa) = 0.01940955
#
# Stress axis : x y z
#
# Youngs Moduli (GPa) = 142.11375 133.48640 43.11596
#
# Poissons Ratio (x) = 0.23244 0.15121
# Poissons Ratio (y) = 0.24746 0.16848
# Poissons Ratio (z) = 0.49840 0.52161
#
# Static dielectric constant tensor:
#      x y z
#    x 2.144820 0.000000 0.020280 
#    y 0.000000 2.170950 0.000000 
#    z 0.020280 0.000000 2.141210 
# 
# From -- ./inp_files/18990.got.cif
#   From: 2010.05.17/outbox.cif.g08.bks.cpg/sg9_10_cif.got.tgz:18990.got - 2010.06.03 20:04:27.
