data_PCOD9138778
_publ_section_title
;
Structure prediction by ZEFSAII (Michael W. Deem and Ramdas Pophale) SiO2 
 PCOD9138778
Probable space group: C C
;
_chemical_formula_sum "Si O2"
_cell_formula_units_Z 24
_cell_length_a 17.164440
_cell_length_b 5.175849
_cell_length_c 10.060383
_cell_angle_alpha 90.000000
_cell_angle_beta 103.236869
_cell_angle_gamma 90.000000
_cell_volume 870.024061
_symmetry_space_group_name_H-M "C C"
_symmetry_group_IT_number 9
_symmetry_cell_setting 'monoclinic'
loop_
_space_group_symop_operation_xyz
x,y,z
x,-y,1/2+z
1/2+x,1/2+y,z
1/2+x,1/2-y,1/2+z
loop_
_atom_site_type_symbol
_atom_site_label
_atom_site_fract_x
_atom_site_fract_y
_atom_site_fract_z
Si Si1 0.292790 0.464321 0.648420
Si Si2 0.742399 0.281136 0.872300
Si Si3 0.046095 0.534996 0.525953
Si Si4 0.092245 0.024046 0.682472
Si Si5 0.885059 0.628960 0.015216
Si Si6 0.455971 0.739274 0.286988
O O1 0.253469 0.556133 0.768529
O O2 0.235430 0.351287 0.513136
O O3 0.337149 0.715353 0.605573
O O4 0.365344 0.263628 0.695444
O O5 0.669412 0.460256 0.800653
O O6 0.822879 0.450558 0.912518
O O7 0.089801 0.801784 0.567548
O O8 0.963375 0.540501 0.581825
O O9 0.014802 0.469091 0.365901
O O10 0.090867 0.297545 0.611640
O O11 0.013362 0.969450 0.740889
O O12 0.926789 0.835977 0.930165
#
# Coordination Sequence:
#
# PCOD9138778 Si02
#       6
#     4   4   4   4   4   4
#     4  12  25  50  73 112 152 203 265 310 385 466
#     4  12  30  45  79 111 158 202 252 329 389 455
#     4  10  26  45  76 108 148 201 252 314 374 466
#     4  12  27  48  74 114 156 195 255 320 396 447
#     4  10  25  44  76 109 146 202 260 305 379 459
#     4  10  23  46  78 104 152 199 266 306 383 457
#
# _framework density 27.585442
#
# number of rings (size 3 to 8) (size 9 to 14) (size 15 to 20)
#    1.000    0.000    3.333    1.000   11.667    2.667 
#    0.000    0.000    0.000    0.000    0.000    0.000 
#    0.000    0.000    0.000    0.000    0.000    0.000 
#
# Total GULP energy -67181.557262 kJ/mol
# GULP energy per Si atom -5598.463105 kJ/mol
# Density = 2.752266 g / cm^3
# Si number density = 27.585442 Si / 1000 Ang^3
#
#
#
# Elastic Constant Matrix: (Units=GPa)
#
#
# Indices 1 2 3 4 5 6 
#
# 1 124.1534 41.9148 52.2507 0.0000 20.4675 0.0000
# 2 41.9148 133.6279 48.4467 0.0000 10.2466 0.0000
# 3 52.2507 48.4467 141.6450 0.0000 32.4499 0.0000
# 4 0.0000 0.0000 0.0000 43.5342 0.0000 19.1857
# 5 20.4675 10.2466 32.4499 0.0000 51.4204 0.0000
# 6 0.0000 0.0000 0.0000 19.1857 0.0000 16.2560
#
#
#
# Elastic Compliance Matrix: (Units=1/GPa)
#
#
# Indices 1 2 3 4 5 6 
#
# 1 0.010180 -0.002106 -0.002575 0.000000 -0.002007 0.000000
# 2 -0.002106 0.008980 -0.002428 0.000000 0.000581 0.000000
# 3 -0.002575 -0.002428 0.009930 0.000000 -0.004758 0.000000
# 4 0.000000 0.000000 0.000000 0.047868 0.000000 -0.056495
# 5 -0.002007 0.000581 -0.004758 0.000000 0.023133 0.000000
# 6 0.000000 0.000000 0.000000 -0.056495 0.000000 0.128192
#
#
# Mechanical properties :
#
#
# Convention : Reuss Voigt Hill
#
# Bulk Modulus (GPa) = 67.23602 76.07230 71.65416
# Shear Modulus (GPa) = 20.20546 39.36305 29.78426
#
# Velocity S-wave (km/s) = 2.70935 3.78160 3.28946
# Velocity P-wave (km/s) = 5.84928 6.83404 6.36075
#
# Compressibility (1/GPa) = 0.01487298
#
# Stress axis : x y z
#
# Youngs Moduli (GPa) = 98.23034 111.36459 100.70324
#
# Poissons Ratio (x) = 0.23449 0.25934
# Poissons Ratio (y) = 0.20683 0.24446
# Poissons Ratio (z) = 0.25297 0.27035
#
# Static dielectric constant tensor:
#      x y z
#    x 2.171660 0.000000 -0.093960 
#    y 0.000000 2.276610 0.000000 
#    z -0.093960 0.000000 2.640870 
# 
# From -- ./inp_files/18788.got.cif
#   From: 2010.05.17/outbox.cif.g08.bks.cpg/sg9_10_cif.got.tgz:18788.got - 2010.06.03 20:04:27.
