data_PCOD9138043
_publ_section_title
;
Structure prediction by ZEFSAII (Michael W. Deem and Ramdas Pophale) SiO2 
 PCOD9138043
Probable space group: C C
;
_chemical_formula_sum "Si O2"
_cell_formula_units_Z 28
_cell_length_a 19.013113
_cell_length_b 6.568669
_cell_length_c 10.794089
_cell_angle_alpha 90.000000
_cell_angle_beta 57.697242
_cell_angle_gamma 90.000000
_cell_volume 1139.448353
_symmetry_space_group_name_H-M "C C"
_symmetry_group_IT_number 9
_symmetry_cell_setting 'monoclinic'
loop_
_space_group_symop_operation_xyz
x,y,z
x,-y,1/2+z
1/2+x,1/2+y,z
1/2+x,1/2-y,1/2+z
loop_
_atom_site_type_symbol
_atom_site_label
_atom_site_fract_x
_atom_site_fract_y
_atom_site_fract_z
Si Si1 0.672850 0.193396 0.151470
Si Si2 0.769134 0.519840 0.374745
Si Si3 0.920067 0.660417 0.383582
Si Si4 0.815000 0.851326 0.692908
Si Si5 0.123167 0.939577 0.837349
Si Si6 0.556715 0.137254 0.701460
Si Si7 0.975677 0.006347 0.655325
O O1 0.741550 0.077798 0.170810
O O2 0.618673 0.323783 0.299670
O O3 0.622969 0.040332 0.110288
O O4 0.715975 0.373543 0.033017
O O5 0.860887 0.590979 0.325549
O O6 0.776843 0.277406 0.343198
O O7 0.715317 0.589412 0.306768
O O8 0.866291 0.697699 0.555815
O O9 0.986552 0.485459 0.341708
O O10 0.961843 0.868971 0.295119
O O11 0.885950 0.001556 0.673580
O O12 0.105555 0.794795 0.740125
O O13 0.049949 0.899847 0.005036
O O14 0.507575 0.276681 0.650790
#
# Coordination Sequence:
#
# PCOD9138043 Si02
#       7
#     4   4   4   4   4   4   4
#     4  10  24  45  67 104 138 182 245 288 344 431
#     4  10  22  47  69  97 142 185 233 294 346 413
#     4  11  25  43  69 106 141 181 244 283 348 431
#     4  10  23  46  68 102 142 186 232 291 354 413
#     4  11  25  43  69 101 142 185 235 292 351 419
#     4  12  24  43  71 101 140 185 233 294 344 415
#     4  12  25  45  69 105 143 190 234 292 349 420
#
# _framework density 24.573295999999999
#
# number of rings (size 3 to 8) (size 9 to 14) (size 15 to 20)
#    0.000    1.143    1.429    4.286    4.000    3.429 
#   12.857    0.000    0.000    0.000    0.000    0.000 
#    0.000    0.000    0.000    0.000    0.000    0.000 
#
# Total GULP energy -78190.377353 kJ/mol
# GULP energy per Si atom -5585.026954 kJ/mol
# Density = 2.451737 g / cm^3
# Si number density = 24.573296 Si / 1000 Ang^3
#
#
#
# Elastic Constant Matrix: (Units=GPa)
#
#
# Indices 1 2 3 4 5 6 
#
# 1 139.3833 27.5336 -14.8354 0.0000 1.0291 0.0000
# 2 27.5336 65.5923 13.6937 0.0000 -5.7633 0.0000
# 3 -14.8354 13.6937 35.4829 0.0000 -5.4317 0.0000
# 4 0.0000 0.0000 0.0000 13.9621 0.0000 10.4649
# 5 1.0291 -5.7633 -5.4317 0.0000 26.5667 0.0000
# 6 0.0000 0.0000 0.0000 10.4649 0.0000 40.2999
#
#
#
# Elastic Compliance Matrix: (Units=1/GPa)
#
#
# Indices 1 2 3 4 5 6 
#
# 1 0.008710 -0.004819 0.005461 0.000000 -0.000266 0.000000
# 2 -0.004819 0.019393 -0.009112 0.000000 0.002531 0.000000
# 3 0.005461 -0.009112 0.034734 0.000000 0.004913 0.000000
# 4 0.000000 0.000000 0.000000 0.088932 0.000000 -0.023093
# 5 -0.000266 0.002531 0.004913 0.000000 0.039205 0.000000
# 6 0.000000 0.000000 0.000000 -0.023093 0.000000 0.030811
#
#
# Mechanical properties :
#
#
# Convention : Reuss Voigt Hill
#
# Bulk Modulus (GPa) = 21.78847 32.58248 27.18548
# Shear Modulus (GPa) = 19.68309 30.43686 25.05998
#
# Velocity S-wave (km/s) = 2.83326 3.52321 3.19690
# Velocity P-wave (km/s) = 4.42596 5.46249 4.97131
#
# Compressibility (1/GPa) = 0.04589584
#
# Stress axis : x y z
#
# Youngs Moduli (GPa) = 114.81483 51.56383 28.78995
#
# Poissons Ratio (x) = 0.24851 -0.15721
# Poissons Ratio (y) = 0.55335 0.26233
# Poissons Ratio (z) = -0.62697 0.46985
#
# Static dielectric constant tensor:
#      x y z
#    x 1.966460 0.000000 -0.000160 
#    y 0.000000 1.943630 0.000000 
#    z -0.000160 0.000000 1.944050 
# 
# From -- ./inp_files/19645.got.cif
#   From: 2010.05.17/outbox.cif.g08.bks.cpg/sg9_10_cif.got.tgz:19645.got - 2010.06.03 20:04:27.
