data_PCOD9138965
_publ_section_title
;
Structure prediction by ZEFSAII (Michael W. Deem and Ramdas Pophale) SiO2 
 PCOD9138965
Probable space group: C C
;
_chemical_formula_sum "Si O2"
_cell_formula_units_Z 32
_cell_length_a 10.924883
_cell_length_b 9.433333
_cell_length_c 21.751021
_cell_angle_alpha 90.000000
_cell_angle_beta 146.888085
_cell_angle_gamma 90.000000
_cell_volume 1224.542475
_symmetry_space_group_name_H-M "C C"
_symmetry_group_IT_number 9
_symmetry_cell_setting 'monoclinic'
loop_
_space_group_symop_operation_xyz
x,y,z
x,-y,1/2+z
1/2+x,1/2+y,z
1/2+x,1/2-y,1/2+z
loop_
_atom_site_type_symbol
_atom_site_label
_atom_site_fract_x
_atom_site_fract_y
_atom_site_fract_z
Si Si1 0.394580 0.869810 0.574260
Si Si2 0.659889 0.750795 0.305971
Si Si3 0.255790 0.268411 0.487261
Si Si4 0.361970 0.353042 0.895377
Si Si5 0.174507 0.070088 0.848385
Si Si6 0.218593 0.386127 0.208534
Si Si7 0.962414 0.052602 0.577433
Si Si8 0.372118 0.002219 0.686718
O O1 0.425650 0.702085 0.594167
O O2 0.274514 0.925981 0.585276
O O3 0.279864 0.915133 0.461636
O O4 0.635461 0.950848 0.676165
O O5 0.673814 0.582431 0.316361
O O6 0.795368 0.818805 0.306172
O O7 0.722123 0.793847 0.400922
O O8 0.420741 0.829851 0.195725
O O9 0.497114 0.195724 0.596047
O O10 0.295117 0.428828 0.529029
O O11 0.716461 0.491269 0.680869
O O12 0.568540 0.341268 0.933901
O O13 0.120683 0.433233 0.793848
O O14 0.304357 0.187231 0.866258
O O15 0.440073 0.399607 0.996248
O O16 0.920329 0.121096 0.747414
#
# Coordination Sequence:
#
# PCOD9138965 Si02
#       8
#     4   4   4   4   4   4   4   4
#     4  10  24  42  72 108 145 191 242 309 365 434
#     4  11  25  43  75 106 145 193 241 303 367 432
#     4  12  26  48  73 107 150 193 246 306 367 444
#     4  11  26  46  67 108 148 190 247 305 370 440
#     4  11  25  47  72 103 151 191 243 307 368 441
#     4  11  25  46  77 110 142 197 248 299 376 443
#     4  11  25  46  73 106 144 196 248 300 370 442
#     4  11  24  44  75 106 141 193 247 297 371 438
#
# _framework density 26.132210000000001
#
# number of rings (size 3 to 8) (size 9 to 14) (size 15 to 20)
#    0.000    1.000    2.500    3.000    7.000    4.000 
#    0.000    0.000    0.000    0.000    0.000    0.000 
#    0.000    0.000    0.000    0.000    0.000    0.000 
#
# Total GULP energy -89385.185533 kJ/mol
# GULP energy per Si atom -5586.574096 kJ/mol
# Density = 2.607273 g / cm^3
# Si number density = 26.132210 Si / 1000 Ang^3
#
#
#
# Elastic Constant Matrix: (Units=GPa)
#
#
# Indices 1 2 3 4 5 6 
#
# 1 74.0175 45.3827 21.5935 0.0000 14.6170 -0.0001
# 2 45.3827 175.6270 30.8308 0.0000 15.4507 0.0000
# 3 21.5935 30.8308 94.3696 0.0003 -1.6866 -0.0004
# 4 0.0000 0.0000 0.0003 37.0518 0.0001 4.6225
# 5 14.6170 15.4507 -1.6866 0.0001 30.7105 -0.0002
# 6 -0.0001 0.0000 -0.0004 4.6225 -0.0002 42.4752
#
#
#
# Elastic Compliance Matrix: (Units=1/GPa)
#
#
# Indices 1 2 3 4 5 6 
#
# 1 0.017914 -0.003476 -0.003088 0.000000 -0.006947 0.000000
# 2 -0.003476 0.007035 -0.001538 0.000000 -0.001970 0.000000
# 3 -0.003088 -0.001538 0.011857 0.000000 0.002895 0.000000
# 4 0.000000 0.000000 0.000000 0.027361 0.000000 -0.002978
# 5 -0.006947 -0.001970 0.002895 0.000000 0.037019 0.000000
# 6 0.000000 0.000000 0.000000 -0.002978 0.000000 0.023867
#
#
# Mechanical properties :
#
#
# Convention : Reuss Voigt Hill
#
# Bulk Modulus (GPa) = 48.53595 59.95867 54.24731
# Shear Modulus (GPa) = 33.75520 38.46132 36.10826
#
# Velocity S-wave (km/s) = 3.59793 3.84056 3.72123
# Velocity P-wave (km/s) = 5.98947 6.53152 6.26636
#
# Compressibility (1/GPa) = 0.02060328
#
# Stress axis : x y z
#
# Youngs Moduli (GPa) = 55.82147 142.13841 84.33506
#
# Poissons Ratio (x) = 0.49406 0.26040
# Poissons Ratio (y) = 0.19403 0.12974
# Poissons Ratio (z) = 0.17236 0.21866
#
# Static dielectric constant tensor:
#      x y z
#    x 2.014340 0.000000 -0.047660 
#    y 0.000000 2.116060 0.000000 
#    z -0.047660 0.000000 2.272860 
# 
# From -- ./inp_files/27704.got.cif
#   From: 2010.05.17/outbox.cif.g08.bks.cpg/sg9_14_cif.got.tgz:27704.got - 2010.06.03 20:04:27.
