data_PCOD9138880
_publ_section_title
;
Structure prediction by ZEFSAII (Michael W. Deem and Ramdas Pophale) SiO2 
 PCOD9138880
Probable space group: C C
;
_chemical_formula_sum "Si O2"
_cell_formula_units_Z 28
_cell_length_a 5.236492
_cell_length_b 8.929282
_cell_length_c 28.086370
_cell_angle_alpha 90.000000
_cell_angle_beta 113.343435
_cell_angle_gamma 90.000000
_cell_volume 1205.769977
_symmetry_space_group_name_H-M "C C"
_symmetry_group_IT_number 9
_symmetry_cell_setting 'monoclinic'
loop_
_space_group_symop_operation_xyz
x,y,z
x,-y,1/2+z
1/2+x,1/2+y,z
1/2+x,1/2-y,1/2+z
loop_
_atom_site_type_symbol
_atom_site_label
_atom_site_fract_x
_atom_site_fract_y
_atom_site_fract_z
Si Si1 0.831800 0.563948 0.685950
Si Si2 0.212254 0.746457 0.903163
Si Si3 0.596335 0.687476 0.845501
Si Si4 0.911954 0.231478 0.724839
Si Si5 0.048721 0.048379 0.068126
Si Si6 0.935962 0.473845 0.436234
Si Si7 0.965307 0.716801 0.029675
O O1 0.906008 0.410858 0.719331
O O2 0.621384 0.662204 0.701799
O O3 0.685753 0.510307 0.626853
O O4 0.106968 0.660262 0.695580
O O5 0.350089 0.734806 0.861915
O O6 0.209203 0.585022 0.929840
O O7 0.882365 0.779240 0.874732
O O8 0.388658 0.858752 0.948980
O O9 0.512328 0.687299 0.785034
O O10 0.708292 0.533793 0.876758
O O11 0.975180 0.896115 0.033906
O O12 0.267124 0.148753 0.055432
O O13 0.774328 0.145734 0.058507
O O14 0.877347 0.353486 0.472454
#
# Coordination Sequence:
#
# PCOD9138880 Si02
#       7
#     4   4   4   4   4   4   4
#     4  12  26  47  71 103 137 179 233 292 344 404
#     4  10  24  38  64  86 140 163 225 263 335 383
#     4  10  26  40  66  95 135 175 223 274 333 410
#     4  12  26  43  74  98 139 179 231 277 356 406
#     4  12  26  47  71 103 137 179 233 293 341 408
#     4  10  26  40  66  95 135 176 221 276 331 412
#     4  12  26  43  74  98 139 179 232 275 358 403
#
# _framework density 23.221678000000001
#
# number of rings (size 3 to 8) (size 9 to 14) (size 15 to 20)
#    0.857    0.000    0.000    6.000   10.000    0.000 
#    0.000    0.000    0.000    0.000    0.000    0.000 
#    0.000    0.000    0.000    0.000    0.000    0.000 
#
# Total GULP energy -78276.666917 kJ/mol
# GULP energy per Si atom -5591.190494 kJ/mol
# Density = 2.316882 g / cm^3
# Si number density = 23.221678 Si / 1000 Ang^3
#
#
#
# Elastic Constant Matrix: (Units=GPa)
#
#
# Indices 1 2 3 4 5 6 
#
# 1 154.6788 33.5499 7.4684 0.0000 -6.2581 0.0000
# 2 33.5499 46.7037 -20.3121 0.0000 9.2581 0.0000
# 3 7.4684 -20.3121 78.2493 0.0000 -4.4041 0.0000
# 4 0.0000 0.0000 0.0000 28.7565 0.0000 2.8221
# 5 -6.2581 9.2581 -4.4041 0.0000 30.5269 0.0000
# 6 0.0000 0.0000 0.0000 2.8221 0.0000 14.0246
#
#
#
# Elastic Compliance Matrix: (Units=1/GPa)
#
#
# Indices 1 2 3 4 5 6 
#
# 1 0.008484 -0.008008 -0.002676 0.000000 0.003782 0.000000
# 2 -0.008008 0.033032 0.008754 0.000000 -0.010397 0.000000
# 3 -0.002676 0.008754 0.015251 0.000000 -0.001003 0.000000
# 4 0.000000 0.000000 0.000000 0.035475 0.000000 -0.007139
# 5 0.003782 -0.010397 -0.001003 0.000000 0.036542 0.000000
# 6 0.000000 0.000000 0.000000 -0.007139 0.000000 0.072740
#
#
# Mechanical properties :
#
#
# Convention : Reuss Voigt Hill
#
# Bulk Modulus (GPa) = 18.90091 35.67158 27.28625
# Shear Modulus (GPa) = 22.41953 31.92330 27.17142
#
# Velocity S-wave (km/s) = 3.11055 3.71174 3.42437
# Velocity P-wave (km/s) = 4.58887 5.81069 5.23554
#
# Compressibility (1/GPa) = 0.05290750
#
# Stress axis : x y z
#
# Youngs Moduli (GPa) = 117.86684 30.27343 65.56991
#
# Poissons Ratio (x) = 0.24243 0.17544
# Poissons Ratio (y) = 0.94388 -0.57398
# Poissons Ratio (z) = 0.31537 -0.26501
#
# Static dielectric constant tensor:
#      x y z
#    x 1.852090 0.000000 0.045960 
#    y 0.000000 1.948590 0.000000 
#    z 0.045960 0.000000 1.896280 
# 
# From -- ./inp_files/36244.got.cif
#   From: 2010.05.17/outbox.cif.g08.bks.cpg/sg9_19_cif.got.tgz:36244.got - 2010.06.03 20:04:27.
