data_PCOD9138945
_publ_section_title
;
Structure prediction by ZEFSAII (Michael W. Deem and Ramdas Pophale) SiO2 
 PCOD9138945
Probable space group: C C
;
_chemical_formula_sum "Si O2"
_cell_formula_units_Z 32
_cell_length_a 25.070882
_cell_length_b 12.134912
_cell_length_c 13.115185
_cell_angle_alpha 90.000000
_cell_angle_beta 20.732501
_cell_angle_gamma 90.000000
_cell_volume 1412.506883
_symmetry_space_group_name_H-M "C C"
_symmetry_group_IT_number 9
_symmetry_cell_setting 'monoclinic'
loop_
_space_group_symop_operation_xyz
x,y,z
x,-y,1/2+z
1/2+x,1/2+y,z
1/2+x,1/2-y,1/2+z
loop_
_atom_site_type_symbol
_atom_site_label
_atom_site_fract_x
_atom_site_fract_y
_atom_site_fract_z
Si Si1 0.957280 0.557598 0.108660
Si Si2 0.264262 0.998029 0.277907
Si Si3 0.449310 0.488668 0.727508
Si Si4 0.826742 0.735228 0.622624
Si Si5 0.313407 0.284062 0.430622
Si Si6 0.732006 0.117244 0.464830
Si Si7 0.182042 0.535053 0.862414
Si Si8 0.659579 0.263991 0.998785
O O1 0.822637 0.494547 0.291477
O O2 0.893439 0.667994 0.271229
O O3 0.089175 0.597782 0.794616
O O4 0.040509 0.492595 0.049589
O O5 0.258413 0.132350 0.283026
O O6 0.361321 0.895780 0.060499
O O7 0.107808 0.969282 0.499564
O O8 0.426616 0.612355 0.723982
O O9 0.385118 0.407089 0.754694
O O10 0.327389 0.481210 0.034182
O O11 0.742006 0.772836 0.671042
O O12 0.986558 0.797673 0.325890
O O13 0.746946 0.771911 0.870088
O O14 0.207066 0.286485 0.522945
O O15 0.706731 0.026244 0.423246
O O16 0.168196 0.665164 0.904723
#
# Coordination Sequence:
#
# PCOD9138945 Si02
#       8
#     4   4   4   4   4   4   4   4
#     4  10  24  42  66 101 131 185 229 286 347 416
#     4  11  25  43  65 103 140 177 238 286 354 417
#     4  11  23  44  68 103 135 184 230 292 353 418
#     4  12  25  44  68 103 140 182 234 294 349 430
#     4  11  22  43  71  94 138 181 230 279 368 416
#     4  11  24  42  69 101 135 179 240 282 351 419
#     4  11  20  42  74  94 133 184 232 284 352 423
#     4  11  23  44  71  97 138 190 229 291 356 421
#
# _framework density 22.654757
#
# number of rings (size 3 to 8) (size 9 to 14) (size 15 to 20)
#    0.000    1.000    5.000    0.750    3.500    2.000 
#    2.250    5.000    0.000    0.000    0.000    0.000 
#    0.000    0.000    0.000    0.000    0.000    0.000 
#
# Total GULP energy -89120.803103 kJ/mol
# GULP energy per Si atom -5570.050194 kJ/mol
# Density = 2.260319 g / cm^3
# Si number density = 22.654757 Si / 1000 Ang^3
#
#
#
# Elastic Constant Matrix: (Units=GPa)
#
#
# Indices 1 2 3 4 5 6 
#
# 1 155.2790 36.1918 43.9416 0.0000 -27.7350 0.0000
# 2 36.1918 76.4493 13.9471 0.0000 3.8790 0.0000
# 3 43.9416 13.9471 30.5884 0.0000 -17.2801 0.0000
# 4 0.0000 0.0000 0.0000 28.8146 0.0000 6.1845
# 5 -27.7350 3.8790 -17.2801 0.0000 46.2764 0.0000
# 6 0.0000 0.0000 0.0000 6.1845 0.0000 21.0413
#
#
#
# Elastic Compliance Matrix: (Units=1/GPa)
#
#
# Indices 1 2 3 4 5 6 
#
# 1 0.011427 -0.002946 -0.014021 0.000000 0.001860 0.000000
# 2 -0.002946 0.015842 -0.006006 0.000000 -0.005336 0.000000
# 3 -0.014021 -0.006006 0.064773 0.000000 0.016287 0.000000
# 4 0.000000 0.000000 0.000000 0.037041 0.000000 -0.010887
# 5 0.001860 -0.005336 0.016287 0.000000 0.029253 0.000000
# 6 0.000000 0.000000 0.000000 -0.010887 0.000000 0.050726
#
#
# Mechanical properties :
#
#
# Convention : Reuss Voigt Hill
#
# Bulk Modulus (GPa) = 21.69370 50.05307 35.87338
# Shear Modulus (GPa) = 18.49306 30.44219 24.46762
#
# Velocity S-wave (km/s) = 2.86019 3.66969 3.28993
# Velocity P-wave (km/s) = 4.52815 6.33224 5.50461
#
# Compressibility (1/GPa) = 0.04609634
#
# Stress axis : x y z
#
# Youngs Moduli (GPa) = 87.51579 63.12506 15.43846
#
# Poissons Ratio (x) = 0.18596 0.21646
# Poissons Ratio (y) = 0.25781 0.09272
# Poissons Ratio (z) = 1.22706 0.37911
#
# Static dielectric constant tensor:
#      x y z
#    x 1.902530 0.000000 -0.042330 
#    y 0.000000 1.884010 0.000000 
#    z -0.042330 0.000000 1.848180 
# 
# From -- ./inp_files/28096.got.cif
#   From: 2010.05.17/outbox.cif.g08.bks.cpg/sg9_15_cif.got.tgz:28096.got - 2010.06.03 20:04:27.
