data_PCOD9138485
_publ_section_title
;
Structure prediction by ZEFSAII (Michael W. Deem and Ramdas Pophale) SiO2 
 PCOD9138485
Probable space group: C C
;
_chemical_formula_sum "Si O2"
_cell_formula_units_Z 28
_cell_length_a 6.712569
_cell_length_b 19.323648
_cell_length_c 10.113155
_cell_angle_alpha 90.000000
_cell_angle_beta 103.922702
_cell_angle_gamma 90.000000
_cell_volume 1273.251881
_symmetry_space_group_name_H-M "C C"
_symmetry_group_IT_number 9
_symmetry_cell_setting 'monoclinic'
loop_
_space_group_symop_operation_xyz
x,y,z
x,-y,1/2+z
1/2+x,1/2+y,z
1/2+x,1/2-y,1/2+z
loop_
_atom_site_type_symbol
_atom_site_label
_atom_site_fract_x
_atom_site_fract_y
_atom_site_fract_z
Si Si1 0.025730 0.427313 0.968380
Si Si2 0.051970 0.882327 0.626271
Si Si3 0.846348 0.057174 0.333133
Si Si4 0.299595 0.925879 0.409386
Si Si5 0.173762 0.165399 0.415680
Si Si6 0.365530 0.415270 0.242851
Si Si7 0.676091 0.177148 0.915838
O O1 0.125561 0.415391 0.839900
O O2 0.885080 0.495715 0.930928
O O3 0.890355 0.363595 0.997416
O O4 0.216984 0.435470 0.098494
O O5 0.195248 0.909272 0.533576
O O6 0.180200 0.842277 0.757418
O O7 0.931116 0.938152 0.697272
O O8 0.868779 0.836206 0.541902
O O9 0.005219 0.108326 0.431198
O O10 0.836972 0.975069 0.352168
O O11 0.486026 0.873915 0.411420
O O12 0.113545 0.914452 0.273906
O O13 0.114944 0.243744 0.430418
O O14 0.274242 0.344720 0.290015
#
# Coordination Sequence:
#
# PCOD9138485 Si02
#       7
#     4   4   4   4   4   4   4
#     4  12  25  42  75 103 138 182 233 294 341 407
#     4   9  24  43  70  99 142 179 234 275 350 422
#     4  10  23  44  64 106 136 174 230 285 342 405
#     4  11  23  45  75  99 137 191 228 283 354 403
#     4  10  26  44  68 104 140 176 231 282 351 408
#     4  11  25  42  68 105 137 175 241 282 335 425
#     4  11  24  46  70 102 140 185 225 287 357 402
#
# _framework density 21.990935
#
# number of rings (size 3 to 8) (size 9 to 14) (size 15 to 20)
#    0.857    0.571    2.857    0.857    8.000    4.571 
#    0.000    0.000    0.000    0.000    0.000    0.000 
#    0.000    0.000    0.000    0.000    0.000    0.000 
#
# Total GULP energy -77994.380757 kJ/mol
# GULP energy per Si atom -5571.027197 kJ/mol
# Density = 2.194088 g / cm^3
# Si number density = 21.990935 Si / 1000 Ang^3
#
#
#
# Elastic Constant Matrix: (Units=GPa)
#
#
# Indices 1 2 3 4 5 6 
#
# 1 122.0172 39.8688 35.0115 0.0000 9.1475 0.0000
# 2 39.8688 103.2087 7.4205 0.0000 8.6282 0.0000
# 3 35.0115 7.4205 71.6307 0.0000 26.0789 0.0000
# 4 0.0000 0.0000 0.0000 16.2743 0.0000 5.3002
# 5 9.1475 8.6282 26.0789 0.0000 31.4028 0.0000
# 6 0.0000 0.0000 0.0000 5.3002 0.0000 21.9689
#
#
#
# Elastic Compliance Matrix: (Units=1/GPa)
#
#
# Indices 1 2 3 4 5 6 
#
# 1 0.011040 -0.004075 -0.006036 0.000000 0.002916 0.000000
# 2 -0.004075 0.011421 0.002177 0.000000 -0.003759 0.000000
# 3 -0.006036 0.002177 0.023311 0.000000 -0.018199 0.000000
# 4 0.000000 0.000000 0.000000 0.066686 0.000000 -0.016089
# 5 0.002916 -0.003759 -0.018199 0.000000 0.047141 0.000000
# 6 0.000000 0.000000 0.000000 -0.016089 0.000000 0.049400
#
#
# Mechanical properties :
#
#
# Convention : Reuss Voigt Hill
#
# Bulk Modulus (GPa) = 33.43907 51.27312 42.35609
# Shear Modulus (GPa) = 21.29156 28.23293 24.76225
#
# Velocity S-wave (km/s) = 3.11496 3.58696 3.35926
# Velocity P-wave (km/s) = 5.30812 6.36563 5.86078
#
# Compressibility (1/GPa) = 0.02990513
#
# Stress axis : x y z
#
# Youngs Moduli (GPa) = 90.57812 87.55952 42.89853
#
# Poissons Ratio (x) = 0.35677 0.25892
# Poissons Ratio (y) = 0.36907 -0.09339
# Poissons Ratio (z) = 0.54671 -0.19061
#
# Static dielectric constant tensor:
#      x y z
#    x 1.790410 0.000000 0.000260 
#    y 0.000000 1.867970 0.000000 
#    z 0.000260 0.000000 1.898680 
# 
# From -- ./inp_files/13536.got.cif
#   From: 2010.05.17/outbox.cif.g08.bks.cpg/sg9_7_cif.got.tgz:13536.got - 2010.06.03 20:04:27.
