data_PCOD9138680
_publ_section_title
;
Structure prediction by ZEFSAII (Michael W. Deem and Ramdas Pophale) SiO2 
 PCOD9138680
Probable space group: C C
;
_chemical_formula_sum "Si O2"
_cell_formula_units_Z 28
_cell_length_a 8.092515
_cell_length_b 12.912528
_cell_length_c 10.108280
_cell_angle_alpha 90.000000
_cell_angle_beta 73.536798
_cell_angle_gamma 90.000000
_cell_volume 1012.958238
_symmetry_space_group_name_H-M "C C"
_symmetry_group_IT_number 9
_symmetry_cell_setting 'monoclinic'
loop_
_space_group_symop_operation_xyz
x,y,z
x,-y,1/2+z
1/2+x,1/2+y,z
1/2+x,1/2-y,1/2+z
loop_
_atom_site_type_symbol
_atom_site_label
_atom_site_fract_x
_atom_site_fract_y
_atom_site_fract_z
Si Si1 0.715340 0.498405 0.435530
Si Si2 0.018818 0.800057 0.938162
Si Si3 0.507509 0.612737 0.801193
Si Si4 0.650898 0.290465 0.606633
Si Si5 0.706068 0.998949 0.753790
Si Si6 0.514159 0.170149 0.401709
Si Si7 0.171500 0.608267 0.007103
O O1 0.564612 0.582180 0.452540
O O2 0.691269 0.430986 0.304569
O O3 0.691413 0.409363 0.552173
O O4 0.872465 0.580226 0.416908
O O5 0.082041 0.783757 0.771604
O O6 0.830475 0.766474 0.029743
O O7 0.135355 0.728730 0.008872
O O8 0.394352 0.550023 0.720568
O O9 0.502001 0.737001 0.797572
O O10 0.376065 0.595064 0.954743
O O11 0.522310 0.226682 0.540259
O O12 0.104223 0.573681 0.877736
O O13 0.695459 0.888479 0.830275
O O14 0.620477 0.969974 0.634151
#
# Coordination Sequence:
#
# PCOD9138680 Si02
#       7
#     4   4   4   4   4   4   4
#     4  11  24  50  76 120 163 218 276 355 418 519
#     4  12  27  55  83 119 179 219 288 355 433 512
#     4   9  23  44  70 111 156 204 271 334 417 499
#     4  11  30  52  82 127 164 227 283 359 430 523
#     4  10  23  45  76 107 153 213 267 342 419 497
#     4  11  23  46  78 116 159 211 275 346 422 497
#     4  10  24  46  81 110 158 220 276 339 433 493
#
# _framework density 27.641812000000002
#
# number of rings (size 3 to 8) (size 9 to 14) (size 15 to 20)
#    0.857    0.571    1.429    1.714    4.000    5.714 
#   10.286    0.000    0.000    0.000    0.000    0.000 
#    0.000    0.000    0.000    0.000    0.000    0.000 
#
# Total GULP energy -78072.405108 kJ/mol
# GULP energy per Si atom -5576.600365 kJ/mol
# Density = 2.757890 g / cm^3
# Si number density = 27.641812 Si / 1000 Ang^3
#
#
#
# Elastic Constant Matrix: (Units=GPa)
#
#
# Indices 1 2 3 4 5 6 
#
# 1 102.1686 58.0478 55.3645 0.0000 2.4787 0.0000
# 2 58.0478 216.1224 64.7454 0.0000 17.8398 0.0000
# 3 55.3645 64.7454 182.8850 0.0000 -19.0806 0.0000
# 4 0.0000 0.0000 0.0000 45.4888 0.0000 17.0159
# 5 2.4787 17.8398 -19.0806 0.0000 31.7612 0.0000
# 6 0.0000 0.0000 0.0000 17.0159 0.0000 53.2654
#
#
#
# Elastic Compliance Matrix: (Units=1/GPa)
#
#
# Indices 1 2 3 4 5 6 
#
# 1 0.012931 -0.002366 -0.003247 0.000000 -0.001631 0.000000
# 2 -0.002366 0.006217 -0.001952 0.000000 -0.004480 0.000000
# 3 -0.003247 -0.001952 0.007770 0.000000 0.006018 0.000000
# 4 0.000000 0.000000 0.000000 0.024967 0.000000 -0.007976
# 5 -0.001631 -0.004480 0.006018 0.000000 0.037744 0.000000
# 6 0.000000 0.000000 0.000000 -0.007976 0.000000 0.021322
#
#
# Mechanical properties :
#
#
# Convention : Reuss Voigt Hill
#
# Bulk Modulus (GPa) = 84.83444 95.27684 90.05564
# Shear Modulus (GPa) = 38.45845 47.63763 43.04804
#
# Velocity S-wave (km/s) = 3.73408 4.15588 3.95061
# Velocity P-wave (km/s) = 7.02484 7.58760 7.31163
#
# Compressibility (1/GPa) = 0.01178767
#
# Stress axis : x y z
#
# Youngs Moduli (GPa) = 77.33309 160.84750 128.70094
#
# Poissons Ratio (x) = 0.38051 0.41793
# Poissons Ratio (y) = 0.18294 0.25126
# Poissons Ratio (z) = 0.25112 0.31402
#
# Static dielectric constant tensor:
#      x y z
#    x 2.317640 0.000000 0.029600 
#    y 0.000000 2.119150 0.000000 
#    z 0.029600 0.000000 2.287150 
# 
# From -- ./inp_files/22773.got.cif
#   From: 2010.05.17/outbox.cif.g08.bks.cpg/sg9_12_cif.got.tgz:22773.got - 2010.06.03 20:04:27.
