data_PCOD9138450
_publ_section_title
;
Structure prediction by ZEFSAII (Michael W. Deem and Ramdas Pophale) SiO2 
 PCOD9138450
Probable space group: C C
;
_chemical_formula_sum "Si O2"
_cell_formula_units_Z 28
_cell_length_a 7.272189
_cell_length_b 17.321086
_cell_length_c 8.593352
_cell_angle_alpha 90.000000
_cell_angle_beta 109.769223
_cell_angle_gamma 90.000000
_cell_volume 1018.641548
_symmetry_space_group_name_H-M "C C"
_symmetry_group_IT_number 9
_symmetry_cell_setting 'monoclinic'
loop_
_space_group_symop_operation_xyz
x,y,z
x,-y,1/2+z
1/2+x,1/2+y,z
1/2+x,1/2-y,1/2+z
loop_
_atom_site_type_symbol
_atom_site_label
_atom_site_fract_x
_atom_site_fract_y
_atom_site_fract_z
Si Si1 0.270760 0.923054 0.953410
Si Si2 0.330361 0.505851 0.286878
Si Si3 0.735813 0.687703 0.170542
Si Si4 0.937068 0.685357 0.700530
Si Si5 0.053756 0.562218 0.971329
Si Si6 0.480611 0.605609 0.571521
Si Si7 0.181905 0.270716 0.851343
O O1 0.202817 0.890809 0.762117
O O2 0.373515 0.007273 0.970248
O O3 0.011507 0.954194 0.928027
O O4 0.208163 0.880264 0.112187
O O5 0.413228 0.439674 0.201008
O O6 0.208964 0.566500 0.153566
O O7 0.998759 0.359687 0.376312
O O8 0.622772 0.754874 0.227006
O O9 0.666644 0.698573 0.971017
O O10 0.966188 0.702497 0.245595
O O11 0.963246 0.633749 0.545113
O O12 0.780026 0.749420 0.716116
O O13 0.180929 0.518960 0.875490
O O14 0.332519 0.669287 0.475129
#
# Coordination Sequence:
#
# PCOD9138450 Si02
#       7
#     4   4   4   4   4   4   4
#     4  12  26  49  73 106 157 195 259 316 388 458
#     4  10  23  43  71  98 144 191 245 305 371 452
#     4  12  26  49  76 107 146 201 248 317 380 450
#     4  12  27  47  74 111 149 196 255 315 375 461
#     4  11  24  45  71 103 148 195 246 309 379 445
#     4  11  25  47  71 111 147 198 255 317 381 466
#     4  12  27  46  78 108 153 194 258 313 382 448
#
# _framework density 27.487587999999999
#
# number of rings (size 3 to 8) (size 9 to 14) (size 15 to 20)
#    0.000    0.571    4.286    3.429    6.000    1.143 
#    2.571    0.000    0.000    0.000    0.000    0.000 
#    0.000    0.000    0.000    0.000    0.000    0.000 
#
# Total GULP energy -78206.282224 kJ/mol
# GULP energy per Si atom -5586.163016 kJ/mol
# Density = 2.742502 g / cm^3
# Si number density = 27.487588 Si / 1000 Ang^3
#
#
#
# Elastic Constant Matrix: (Units=GPa)
#
#
# Indices 1 2 3 4 5 6 
#
# 1 169.9388 27.9422 22.4688 0.0000 -27.2658 0.0000
# 2 27.9422 77.6340 21.8772 0.0000 -10.6870 0.0000
# 3 22.4688 21.8772 78.9061 0.0000 -6.2287 0.0000
# 4 0.0000 0.0000 0.0000 72.3171 0.0000 -4.6234
# 5 -27.2658 -10.6870 -6.2287 0.0000 43.1336 0.0000
# 6 0.0000 0.0000 0.0000 -4.6234 0.0000 34.2922
#
#
#
# Elastic Compliance Matrix: (Units=1/GPa)
#
#
# Indices 1 2 3 4 5 6 
#
# 1 0.006922 -0.001625 -0.001221 0.000000 0.003797 0.000000
# 2 -0.001625 0.014731 -0.003454 0.000000 0.002124 0.000000
# 3 -0.001221 -0.003454 0.014010 0.000000 0.000395 0.000000
# 4 0.000000 0.000000 0.000000 0.013948 0.000000 0.001881
# 5 0.003797 0.002124 0.000395 0.000000 0.026167 0.000000
# 6 0.000000 0.000000 0.000000 0.001881 0.000000 0.029415
#
#
# Mechanical properties :
#
#
# Convention : Reuss Voigt Hill
#
# Bulk Modulus (GPa) = 43.35750 52.33948 47.84849
# Shear Modulus (GPa) = 39.84658 46.89463 43.37060
#
# Velocity S-wave (km/s) = 3.81152 4.13489 3.97649
# Velocity P-wave (km/s) = 5.93110 6.47139 6.20713
#
# Compressibility (1/GPa) = 0.02306406
#
# Stress axis : x y z
#
# Youngs Moduli (GPa) = 144.46201 67.88180 71.37839
#
# Poissons Ratio (x) = 0.11029 0.08715
# Poissons Ratio (y) = 0.23471 0.24655
# Poissons Ratio (z) = 0.17638 0.23447
#
# Static dielectric constant tensor:
#      x y z
#    x 2.354430 0.000000 -0.011200 
#    y 0.000000 2.282670 0.000000 
#    z -0.011200 0.000000 2.241440 
# 
# From -- ./inp_files/3995.got.cif
#   From: 2010.05.17/outbox.cif.g08.bks.cpg/sg9_2_cif.got.tgz:3995.got - 2010.06.03 20:04:27.
