data_PCOD9138988
_publ_section_title
;
Structure prediction by ZEFSAII (Michael W. Deem and Ramdas Pophale) SiO2 
 PCOD9138988
Probable space group: C C
;
_chemical_formula_sum "Si O2"
_cell_formula_units_Z 28
_cell_length_a 11.466941
_cell_length_b 8.189446
_cell_length_c 14.315233
_cell_angle_alpha 90.000000
_cell_angle_beta 54.368190
_cell_angle_gamma 90.000000
_cell_volume 1092.627601
_symmetry_space_group_name_H-M "C C"
_symmetry_group_IT_number 9
_symmetry_cell_setting 'monoclinic'
loop_
_space_group_symop_operation_xyz
x,y,z
x,-y,1/2+z
1/2+x,1/2+y,z
1/2+x,1/2-y,1/2+z
loop_
_atom_site_type_symbol
_atom_site_label
_atom_site_fract_x
_atom_site_fract_y
_atom_site_fract_z
Si Si1 0.278240 0.451781 0.689440
Si Si2 0.257831 0.555061 0.894093
Si Si3 0.953953 0.475683 0.552182
Si Si4 0.736591 0.388589 0.014961
Si Si5 0.474455 0.995825 0.761359
Si Si6 0.860511 0.172862 0.482055
Si Si7 0.548516 0.671821 0.150641
O O1 0.276989 0.582421 0.775816
O O2 0.341244 0.534917 0.569096
O O3 0.394468 0.321418 0.671190
O O4 0.113961 0.403266 0.739470
O O5 0.228707 0.706906 0.975923
O O6 0.110867 0.451881 0.963803
O O7 0.381303 0.439617 0.880017
O O8 0.834675 0.587359 0.560417
O O9 0.941940 0.450361 0.668843
O O10 0.955809 0.309943 0.488222
O O11 0.832962 0.470941 0.887885
O O12 0.591049 0.479605 0.114330
O O13 0.522816 0.185871 0.740735
O O14 0.706406 0.262362 0.545888
#
# Coordination Sequence:
#
# PCOD9138988 Si02
#       7
#     4   4   4   4   4   4   4
#     4  11  23  43  70 104 144 188 241 297 368 430
#     4  12  24  43  73 106 145 191 239 309 363 435
#     4  11  23  45  72 100 148 186 241 305 356 443
#     4  11  26  46  73 111 145 196 251 300 379 427
#     4  11  24  46  76 106 151 194 244 309 366 435
#     4  10  24  43  69 101 143 188 237 301 361 425
#     4  10  24  44  73 104 144 191 247 299 369 433
#
# _framework density 25.626296
#
# number of rings (size 3 to 8) (size 9 to 14) (size 15 to 20)
#    0.000    1.143    4.286    1.714    6.000    0.000 
#    0.000    2.857    0.000    0.000    0.000    0.000 
#    0.000    0.000    0.000    0.000    0.000    0.000 
#
# Total GULP energy -77941.626189 kJ/mol
# GULP energy per Si atom -5567.259014 kJ/mol
# Density = 2.556797 g / cm^3
# Si number density = 25.626296 Si / 1000 Ang^3
#
#
#
# Elastic Constant Matrix: (Units=GPa)
#
#
# Indices 1 2 3 4 5 6 
#
# 1 138.7825 41.9113 46.3575 0.0000 19.7465 0.0000
# 2 41.9113 55.2919 12.3080 0.0000 15.5496 0.0000
# 3 46.3575 12.3080 90.4752 0.0000 36.3845 0.0000
# 4 0.0000 0.0000 0.0000 22.0511 0.0000 -1.6527
# 5 19.7465 15.5496 36.3845 0.0000 49.8901 0.0000
# 6 0.0000 0.0000 0.0000 -1.6527 0.0000 36.5115
#
#
#
# Elastic Compliance Matrix: (Units=1/GPa)
#
#
# Indices 1 2 3 4 5 6 
#
# 1 0.011071 -0.007744 -0.005416 0.000000 0.001981 0.000000
# 2 -0.007744 0.025245 0.003488 0.000000 -0.007347 0.000000
# 3 -0.005416 0.003488 0.018294 0.000000 -0.012285 0.000000
# 4 0.000000 0.000000 0.000000 0.045504 0.000000 0.002060
# 5 0.001981 -0.007347 -0.012285 0.000000 0.030509 0.000000
# 6 0.000000 0.000000 0.000000 0.002060 0.000000 0.027482
#
#
# Mechanical properties :
#
#
# Convention : Reuss Voigt Hill
#
# Bulk Modulus (GPa) = 28.35508 53.96701 41.16105
# Shear Modulus (GPa) = 26.42653 33.95538 30.19096
#
# Velocity S-wave (km/s) = 3.21476 3.64403 3.43610
# Velocity P-wave (km/s) = 4.98682 6.22979 5.64263
#
# Compressibility (1/GPa) = 0.03526705
#
# Stress axis : x y z
#
# Youngs Moduli (GPa) = 90.32402 39.61126 54.66360
#
# Poissons Ratio (x) = 0.30674 0.29606
# Poissons Ratio (y) = 0.69944 -0.19067
# Poissons Ratio (z) = 0.48920 -0.13817
#
# Static dielectric constant tensor:
#      x y z
#    x 2.013870 0.000000 0.036720 
#    y 0.000000 2.277270 0.000000 
#    z 0.036720 0.000000 2.084050 
# 
# From -- ./inp_files/24128.got.cif
#   From: 2010.05.17/outbox.cif.g08.bks.cpg/sg9_13_cif.got.tgz:24128.got - 2010.06.03 20:04:27.
