data_PCOD9138071
_publ_section_title
;
Structure prediction by ZEFSAII (Michael W. Deem and Ramdas Pophale) SiO2 
 PCOD9138071
Probable space group: C C
;
_chemical_formula_sum "Si O2"
_cell_formula_units_Z 32
_cell_length_a 16.140756
_cell_length_b 5.445948
_cell_length_c 27.188395
_cell_angle_alpha 90.000000
_cell_angle_beta 150.366380
_cell_angle_gamma 90.000000
_cell_volume 1181.694072
_symmetry_space_group_name_H-M "C C"
_symmetry_group_IT_number 9
_symmetry_cell_setting 'monoclinic'
loop_
_space_group_symop_operation_xyz
x,y,z
x,-y,1/2+z
1/2+x,1/2+y,z
1/2+x,1/2-y,1/2+z
loop_
_atom_site_type_symbol
_atom_site_label
_atom_site_fract_x
_atom_site_fract_y
_atom_site_fract_z
Si Si1 0.990320 0.365003 0.629650
Si Si2 0.330903 0.464019 0.328269
Si Si3 0.770315 0.018279 0.983101
Si Si4 0.545555 0.576164 0.754493
Si Si5 0.371499 0.816670 0.947022
Si Si6 0.791189 0.279539 0.091465
Si Si7 0.414064 0.974737 0.319640
Si Si8 0.223384 0.860699 0.631902
O O1 0.063333 0.175850 0.708268
O O2 0.844700 0.507928 0.582155
O O3 0.150343 0.537431 0.707269
O O4 0.895152 0.207792 0.540282
O O5 0.317723 0.397107 0.379442
O O6 0.408631 0.720663 0.348125
O O7 0.423456 0.220498 0.356825
O O8 0.847978 0.230017 0.990642
O O9 0.577439 0.014749 0.869574
O O10 0.751276 0.065575 0.032227
O O11 0.735165 0.531313 0.869397
O O12 0.454638 0.312684 0.704749
O O13 0.399734 0.734191 0.706219
O O14 0.573339 0.835308 0.047656
O O15 0.676361 0.414104 0.071247
O O16 0.257239 0.014308 0.202151
#
# Coordination Sequence:
#
# PCOD9138071 Si02
#       8
#     4   4   4   4   4   4   4   4
#     4  10  23  47  76 108 151 205 265 332 405 482
#     4  12  28  52  78 115 164 208 272 338 407 490
#     4  11  27  47  79 114 155 215 269 334 418 491
#     4  10  23  47  77 112 159 206 266 344 405 485
#     4  12  26  49  80 119 157 221 273 338 418 492
#     4  10  22  47  76 107 157 205 264 337 413 479
#     4  12  30  51  77 118 163 213 270 343 405 490
#     4  11  27  48  77 119 160 217 277 342 409 497
#
# _framework density 27.079768999999999
#
# number of rings (size 3 to 8) (size 9 to 14) (size 15 to 20)
#    0.000    1.000    1.250    3.000   15.750    0.000 
#    4.500    0.000    0.000    0.000    0.000    0.000 
#    0.000    0.000    0.000    0.000    0.000    0.000 
#
# Total GULP energy -89381.260962 kJ/mol
# GULP energy per Si atom -5586.328810 kJ/mol
# Density = 2.701813 g / cm^3
# Si number density = 27.079769 Si / 1000 Ang^3
#
#
#
# Elastic Constant Matrix: (Units=GPa)
#
#
# Indices 1 2 3 4 5 6 
#
# 1 89.1864 41.1788 47.4077 -0.0006 4.5666 0.0003
# 2 41.1788 124.2136 41.7877 -0.0017 -3.3555 0.0046
# 3 47.4077 41.7877 146.4275 -0.0005 7.0971 0.0009
# 4 -0.0006 -0.0017 -0.0005 53.2337 -0.0002 -3.1176
# 5 4.5666 -3.3555 7.0971 -0.0002 45.9037 -0.0002
# 6 0.0003 0.0046 0.0009 -3.1176 -0.0002 34.7233
#
#
#
# Elastic Compliance Matrix: (Units=1/GPa)
#
#
# Indices 1 2 3 4 5 6 
#
# 1 0.014983 -0.003746 -0.003724 0.000000 -0.001189 0.000000
# 2 -0.003746 0.009893 -0.001676 0.000000 0.001355 -0.000001
# 3 -0.003724 -0.001676 0.008566 0.000000 -0.001076 0.000000
# 4 0.000000 0.000000 0.000000 0.018884 0.000000 0.001696
# 5 -0.001189 0.001355 -0.001076 0.000000 0.022168 0.000000
# 6 0.000000 -0.000001 0.000000 0.001696 0.000000 0.028951
#
#
# Mechanical properties :
#
#
# Convention : Reuss Voigt Hill
#
# Bulk Modulus (GPa) = 66.01365 68.95287 67.48326
# Shear Modulus (GPa) = 39.43604 42.06902 40.75253
#
# Velocity S-wave (km/s) = 3.82028 3.94575 3.88352
# Velocity P-wave (km/s) = 6.62494 6.80270 6.71441
#
# Compressibility (1/GPa) = 0.01514838
#
# Stress axis : x y z
#
# Youngs Moduli (GPa) = 66.74411 101.08107 116.74702
#
# Poissons Ratio (x) = 0.37867 0.43478
# Poissons Ratio (y) = 0.25004 0.19568
# Poissons Ratio (z) = 0.24856 0.16942
#
# Static dielectric constant tensor:
#      x y z
#    x 2.186860 0.000000 0.028980 
#    y 0.000000 2.111080 0.000000 
#    z 0.028980 0.000000 2.181170 
# 
# From -- ./inp_files/37503.got.cif
#   From: 2010.05.17/outbox.cif.g08.bks.cpg/sg9_19_cif.got.tgz:37503.got - 2010.06.03 20:04:27.
