data_PCOD9138087
_publ_section_title
;
Structure prediction by ZEFSAII (Michael W. Deem and Ramdas Pophale) SiO2 
 PCOD9138087
Probable space group: C C
;
_chemical_formula_sum "Si O2"
_cell_formula_units_Z 28
_cell_length_a 22.919555
_cell_length_b 11.053252
_cell_length_c 7.304293
_cell_angle_alpha 90.000000
_cell_angle_beta 144.138623
_cell_angle_gamma 90.000000
_cell_volume 1084.034768
_symmetry_space_group_name_H-M "C C"
_symmetry_group_IT_number 9
_symmetry_cell_setting 'monoclinic'
loop_
_space_group_symop_operation_xyz
x,y,z
x,-y,1/2+z
1/2+x,1/2+y,z
1/2+x,1/2-y,1/2+z
loop_
_atom_site_type_symbol
_atom_site_label
_atom_site_fract_x
_atom_site_fract_y
_atom_site_fract_z
Si Si1 0.214430 0.163294 0.248800
Si Si2 0.112491 0.172427 0.349388
Si Si3 0.281435 0.669739 0.436461
Si Si4 0.529443 0.346181 0.001872
Si Si5 0.319084 0.409266 0.629625
Si Si6 0.928866 0.398130 0.329915
Si Si7 0.443079 0.161892 0.288933
O O1 0.180890 0.116917 0.365584
O O2 0.248829 0.305526 0.358496
O O3 0.317427 0.096225 0.464728
O O4 0.124644 0.148574 0.878119
O O5 0.178202 0.267851 0.629803
O O6 0.057731 0.102863 0.373386
O O7 0.032518 0.245287 0.029723
O O8 0.275691 0.544562 0.527254
O O9 0.327867 0.630732 0.360651
O O10 0.354930 0.776976 0.683030
O O11 0.428162 0.408155 0.816199
O O12 0.494746 0.205213 0.903100
O O13 0.973635 0.531032 0.439520
O O14 0.916878 0.358033 0.510173
#
# Coordination Sequence:
#
# PCOD9138087 Si02
#       7
#     4   4   4   4   4   4   4
#     4  10  22  48  69 102 149 178 239 297 344 430
#     4  11  24  41  76 103 137 186 240 284 351 422
#     4  11  25  46  69 105 141 186 234 293 351 428
#     4  11  23  44  73 109 136 190 235 290 360 419
#     4  10  24  44  71 101 145 183 228 296 360 408
#     4  11  24  45  70 103 147 188 228 307 356 411
#     4  12  24  46  70 101 147 183 240 293 354 420
#
# _framework density 25.829431
#
# number of rings (size 3 to 8) (size 9 to 14) (size 15 to 20)
#    0.000    1.143    5.714    0.857    6.000    3.429 
#    2.571    1.429    0.000    0.000    0.000    0.000 
#    0.000    0.000    0.000    0.000    0.000    0.000 
#
# Total GULP energy -78426.226952 kJ/mol
# GULP energy per Si atom -5601.873354 kJ/mol
# Density = 2.577064 g / cm^3
# Si number density = 25.829431 Si / 1000 Ang^3
#
#
#
# Elastic Constant Matrix: (Units=GPa)
#
#
# Indices 1 2 3 4 5 6 
#
# 1 127.7620 5.1119 15.5177 0.0000 1.0525 0.0000
# 2 5.1119 92.5865 16.1018 0.0000 -14.4604 0.0000
# 3 15.5177 16.1018 100.5640 0.0000 18.7982 0.0000
# 4 0.0000 0.0000 0.0000 33.3637 0.0000 -6.4575
# 5 1.0525 -14.4604 18.7982 0.0000 29.9033 0.0000
# 6 0.0000 0.0000 0.0000 -6.4575 0.0000 12.9723
#
#
#
# Elastic Compliance Matrix: (Units=1/GPa)
#
#
# Indices 1 2 3 4 5 6 
#
# 1 0.007986 -0.000143 -0.001296 0.000000 0.000465 0.000000
# 2 -0.000143 0.012751 -0.003596 0.000000 0.008431 0.000000
# 3 -0.001296 -0.003596 0.012506 0.000000 -0.009555 0.000000
# 4 0.000000 0.000000 0.000000 0.033168 0.000000 0.016511
# 5 0.000465 0.008431 -0.009555 0.000000 0.043508 0.000000
# 6 0.000000 0.000000 0.000000 0.016511 0.000000 0.085307
#
#
# Mechanical properties :
#
#
# Convention : Reuss Voigt Hill
#
# Bulk Modulus (GPa) = 43.15339 43.81949 43.48644
# Shear Modulus (GPa) = 23.47195 34.19326 28.83260
#
# Velocity S-wave (km/s) = 3.01778 3.64237 3.34469
# Velocity P-wave (km/s) = 5.37457 5.88990 5.63813
#
# Compressibility (1/GPa) = 0.02317315
#
# Stress axis : x y z
#
# Youngs Moduli (GPa) = 125.21294 78.42696 79.96375
#
# Poissons Ratio (x) = 0.01121 0.10366
# Poissons Ratio (y) = 0.01789 0.28751
# Poissons Ratio (z) = 0.16232 0.28199
#
# Static dielectric constant tensor:
#      x y z
#    x 2.042490 0.000000 -0.001500 
#    y 0.000000 2.055570 0.000000 
#    z -0.001500 0.000000 2.000870 
# 
# From -- ./inp_files/8996.got.cif
#   From: 2010.05.17/outbox.cif.g08.bks.cpg/sg9_5_cif.got.tgz:8996.got - 2010.06.03 20:04:27.
