data_PCOD9138405
_publ_section_title
;
Structure prediction by ZEFSAII (Michael W. Deem and Ramdas Pophale) SiO2 
 PCOD9138405
Probable space group: C C
;
_chemical_formula_sum "Si O2"
_cell_formula_units_Z 28
_cell_length_a 11.452059
_cell_length_b 9.933483
_cell_length_c 14.981700
_cell_angle_alpha 90.000000
_cell_angle_beta 39.949699
_cell_angle_gamma 90.000000
_cell_volume 1094.356777
_symmetry_space_group_name_H-M "C C"
_symmetry_group_IT_number 9
_symmetry_cell_setting 'monoclinic'
loop_
_space_group_symop_operation_xyz
x,y,z
x,-y,1/2+z
1/2+x,1/2+y,z
1/2+x,1/2-y,1/2+z
loop_
_atom_site_type_symbol
_atom_site_label
_atom_site_fract_x
_atom_site_fract_y
_atom_site_fract_z
Si Si1 0.554330 0.826763 0.772110
Si Si2 0.524527 0.869042 0.220572
Si Si3 0.789773 0.035215 0.280341
Si Si4 0.627959 0.537691 0.676877
Si Si5 0.932071 0.851456 0.921272
Si Si6 0.958102 0.501059 0.092644
Si Si7 0.777307 0.731362 0.308096
O O1 0.641586 0.699334 0.668764
O O2 0.347298 0.775669 0.869220
O O3 0.532423 0.980522 0.754127
O O4 0.687346 0.857458 0.778218
O O5 0.452063 0.759890 0.331493
O O6 0.413982 0.887299 0.192555
O O7 0.732212 0.840282 0.075143
O O8 0.663326 0.029586 0.443357
O O9 0.772191 0.877755 0.266232
O O10 0.008003 0.037066 0.171351
O O11 0.510494 0.490487 0.832786
O O12 0.832674 0.494080 0.578138
O O13 0.076336 0.823616 0.914489
O O14 0.911836 0.638947 0.170279
#
# Coordination Sequence:
#
# PCOD9138405 Si02
#       7
#     4   4   4   4   4   4   4
#     4  10  23  44  66 101 141 189 239 302 367 436
#     4  11  24  44  73 101 148 194 249 302 370 454
#     4  11  21  44  68  97 142 191 236 300 370 436
#     4  10  24  42  67 102 141 183 240 300 369 427
#     4  11  23  44  71 106 142 196 245 304 368 447
#     4  10  23  43  67  99 142 184 244 314 355 453
#     4   9  22  41  66  96 140 183 241 296 363 437
#
# _framework density 25.585805000000001
#
# number of rings (size 3 to 8) (size 9 to 14) (size 15 to 20)
#    0.000    1.714    2.857    0.000    6.000    1.143 
#   10.286    2.857    0.000    0.000    0.000    0.000 
#    0.000    0.000    0.000    0.000    0.000    0.000 
#
# Total GULP energy -77959.021416 kJ/mol
# GULP energy per Si atom -5568.501530 kJ/mol
# Density = 2.552757 g / cm^3
# Si number density = 25.585805 Si / 1000 Ang^3
#
#
#
# Elastic Constant Matrix: (Units=GPa)
#
#
# Indices 1 2 3 4 5 6 
#
# 1 164.1501 35.0904 19.0723 0.0000 -22.2838 0.0000
# 2 35.0904 113.8846 14.7417 0.0000 12.7324 0.0000
# 3 19.0723 14.7417 34.4696 -0.0001 7.6450 0.0000
# 4 0.0000 0.0000 -0.0001 2.0508 0.0000 -7.2420
# 5 -22.2838 12.7324 7.6450 0.0000 29.2440 0.0000
# 6 0.0000 0.0000 0.0000 -7.2420 0.0000 52.4735
#
#
#
# Elastic Compliance Matrix: (Units=1/GPa)
#
#
# Indices 1 2 3 4 5 6 
#
# 1 0.008648 -0.002988 -0.005581 -0.000001 0.009350 0.000000
# 2 -0.002988 0.010617 -0.001441 0.000000 -0.006522 0.000000
# 3 -0.005581 -0.001441 0.035583 0.000003 -0.012927 0.000000
# 4 -0.000001 0.000000 0.000003 0.951194 -0.000002 0.131276
# 5 0.009350 -0.006522 -0.012927 -0.000002 0.047539 0.000000
# 6 0.000000 0.000000 0.000000 0.131276 0.000000 0.037175
#
#
# Mechanical properties :
#
#
# Convention : Reuss Voigt Hill
#
# Bulk Modulus (GPa) = 28.71209 50.03479 39.37344
# Shear Modulus (GPa) = 4.45480 32.99366 18.72423
#
# Velocity S-wave (km/s) = 1.32095 3.59490 2.70815
# Velocity P-wave (km/s) = 3.68413 6.06871 5.02006
#
# Compressibility (1/GPa) = 0.03482853
#
# Stress axis : x y z
#
# Youngs Moduli (GPa) = 115.62862 94.18765 28.10361
#
# Poissons Ratio (x) = 0.28140 0.15685
# Poissons Ratio (y) = 0.34545 0.04050
# Poissons Ratio (z) = 0.64534 0.13572
#
# Static dielectric constant tensor:
#      x y z
#    x 2.191200 0.000000 0.057970 
#    y 0.000000 2.075830 0.000000 
#    z 0.057970 0.000000 2.005070 
# 
# From -- ./inp_files/30001.got.cif
#   From: 2010.05.17/outbox.cif.g08.bks.cpg/sg9_16_cif.got.tgz:30001.got - 2010.06.03 20:04:27.
