data_PCOD9138935
_publ_section_title
;
Structure prediction by ZEFSAII (Michael W. Deem and Ramdas Pophale) SiO2 
 PCOD9138935
Probable space group: C C
;
_chemical_formula_sum "Si O2"
_cell_formula_units_Z 20
_cell_length_a 19.686761
_cell_length_b 5.115872
_cell_length_c 8.943356
_cell_angle_alpha 90.000000
_cell_angle_beta 119.029869
_cell_angle_gamma 90.000000
_cell_volume 787.568145
_symmetry_space_group_name_H-M "C C"
_symmetry_group_IT_number 9
_symmetry_cell_setting 'monoclinic'
loop_
_space_group_symop_operation_xyz
x,y,z
x,-y,1/2+z
1/2+x,1/2+y,z
1/2+x,1/2-y,1/2+z
loop_
_atom_site_type_symbol
_atom_site_label
_atom_site_fract_x
_atom_site_fract_y
_atom_site_fract_z
Si Si1 0.135730 0.754772 0.267580
Si Si2 0.204628 0.599719 0.613591
Si Si3 0.979124 0.773964 0.928571
Si Si4 0.265619 0.921516 0.024737
Si Si5 0.425220 0.239985 0.540832
O O1 0.128387 0.686254 0.435046
O O2 0.175390 0.498591 0.240449
O O3 0.199307 0.982261 0.339254
O O4 0.062861 0.827177 0.091395
O O5 0.266199 0.824444 0.634645
O O6 0.239951 0.330457 0.588158
O O7 0.955554 0.490260 0.966460
O O8 0.923516 0.993627 0.943444
O O9 0.977241 0.782553 0.746857
O O10 0.344523 0.854369 0.026304
#
# Coordination Sequence:
#
# PCOD9138935 Si02
#       5
#     4   4   4   4   4
#     4  10  26  44  75 106 145 186 248 300 367 438
#     4  10  24  41  74 102 142 185 248 300 358 433
#     4  12  28  47  80 105 159 191 256 302 389 438
#     4  10  26  43  74 100 149 190 246 298 366 445
#     4  12  28  51  73 113 149 204 242 316 374 456
#
# _framework density 25.394625000000001
#
# number of rings (size 3 to 8) (size 9 to 14) (size 15 to 20)
#    1.200    0.000    0.000    3.600   11.200    0.000 
#    0.000    0.000    0.000    0.000    0.000    0.000 
#    0.000    0.000    0.000    0.000    0.000    0.000 
#
# Total GULP energy -55941.426929 kJ/mol
# GULP energy per Si atom -5594.142693 kJ/mol
# Density = 2.533683 g / cm^3
# Si number density = 25.394625 Si / 1000 Ang^3
#
#
#
# Elastic Constant Matrix: (Units=GPa)
#
#
# Indices 1 2 3 4 5 6 
#
# 1 43.3512 18.6889 -4.9001 0.0000 9.0041 0.0000
# 2 18.6889 164.8522 36.0095 0.0000 -9.4875 0.0000
# 3 -4.9001 36.0095 77.6018 0.0000 -10.4393 0.0000
# 4 0.0000 0.0000 0.0000 32.4451 0.0000 -14.9845
# 5 9.0041 -9.4875 -10.4393 0.0000 47.3072 0.0000
# 6 0.0000 0.0000 0.0000 -14.9845 0.0000 -11.3349
#
#
#
# Elastic Compliance Matrix: (Units=1/GPa)
#
#
# Indices 1 2 3 4 5 6 
#
# 1 0.026107 -0.003855 0.002746 0.000000 -0.005136 0.000000
# 2 -0.003855 0.007341 -0.003456 0.000000 0.001443 0.000000
# 3 0.002746 -0.003456 0.014943 0.000000 0.002082 0.000000
# 4 0.000000 0.000000 0.000000 0.019137 0.000000 -0.025299
# 5 -0.005136 0.001443 0.002082 0.000000 0.022865 0.000000
# 6 0.000000 0.000000 0.000000 -0.025299 0.000000 -0.054778
#
#
# Mechanical properties :
#
#
# Convention : Reuss Voigt Hill
#
# Bulk Modulus (GPa) = 25.46985 42.82245 34.14615
# Shear Modulus (GPa) = 86.45914 29.41726 57.93820
#
# Velocity S-wave (km/s) = 5.84125 3.40723 4.78170
# Velocity P-wave (km/s) = 7.45285 5.69020 6.63036
#
# Compressibility (1/GPa) = 0.03926210
#
# Stress axis : x y z
#
# Youngs Moduli (GPa) = 38.30451 136.22110 66.91959
#
# Poissons Ratio (x) = 0.52515 -0.18379
# Poissons Ratio (y) = 0.14767 0.23125
# Poissons Ratio (z) = -0.10520 0.47074
#
# Static dielectric constant tensor:
#      x y z
#    x 1.997640 0.000000 0.039900 
#    y 0.000000 2.050190 0.000000 
#    z 0.039900 0.000000 2.174540 
# 
# From -- ./inp_files/11086.got.cif
#   From: 2010.05.17/outbox.cif.g08.bks.cpg/sg9_6_cif.got.tgz:11086.got - 2010.06.03 20:04:27.
