data_PCOD9138181
_publ_section_title
;
Structure prediction by ZEFSAII (Michael W. Deem and Ramdas Pophale) SiO2 
 PCOD9138181
Probable space group: C C
;
_chemical_formula_sum "Si O2"
_cell_formula_units_Z 24
_cell_length_a 6.591077
_cell_length_b 15.021743
_cell_length_c 11.410073
_cell_angle_alpha 90.000000
_cell_angle_beta 100.612771
_cell_angle_gamma 90.000000
_cell_volume 1110.380848
_symmetry_space_group_name_H-M "C C"
_symmetry_group_IT_number 9
_symmetry_cell_setting 'monoclinic'
loop_
_space_group_symop_operation_xyz
x,y,z
x,-y,1/2+z
1/2+x,1/2+y,z
1/2+x,1/2-y,1/2+z
loop_
_atom_site_type_symbol
_atom_site_label
_atom_site_fract_x
_atom_site_fract_y
_atom_site_fract_z
Si Si1 0.243560 0.416690 0.983620
Si Si2 0.025983 0.080500 0.929517
Si Si3 0.955418 0.807169 0.198364
Si Si4 0.230752 0.342570 0.734652
Si Si5 0.151395 0.858415 0.675567
Si Si6 0.430177 0.969344 0.572691
O O1 0.375588 0.502860 0.958314
O O2 0.162068 0.373718 0.855853
O O3 0.390519 0.350772 0.070022
O O4 0.059770 0.444939 0.052175
O O5 0.950810 0.121431 0.801073
O O6 0.040567 0.152839 0.036388
O O7 0.266038 0.049083 0.951557
O O8 0.801052 0.724783 0.208710
O O9 0.178723 0.760849 0.215966
O O10 0.471272 0.364280 0.749234
O O11 0.103120 0.395222 0.621242
O O12 0.276422 0.951046 0.666906
#
# Coordination Sequence:
#
# PCOD9138181 Si02
#       6
#     4   4   4   4   4   4
#     4  12  24  41  72  97 131 178 227 282 332 397
#     4  10  23  40  68  99 131 169 230 269 337 395
#     4  11  25  42  66  98 134 178 223 274 346 393
#     4  11  23  42  67 100 136 169 228 275 336 400
#     4   9  22  44  66  95 134 175 218 279 328 402
#     4   9  21  43  65  95 132 169 220 273 329 395
#
# _framework density 21.614204999999998
#
# number of rings (size 3 to 8) (size 9 to 14) (size 15 to 20)
#    1.000    0.667    1.667    2.000    0.000    8.000 
#    0.000    0.000    0.000    0.000    0.000    0.000 
#    0.000    0.000    0.000    0.000    0.000    0.000 
#
# Total GULP energy -66851.139521 kJ/mol
# GULP energy per Si atom -5570.928293 kJ/mol
# Density = 2.156501 g / cm^3
# Si number density = 21.614205 Si / 1000 Ang^3
#
#
#
# Elastic Constant Matrix: (Units=GPa)
#
#
# Indices 1 2 3 4 5 6 
#
# 1 86.2520 37.5601 30.1938 0.0000 -7.1447 0.0000
# 2 37.5601 64.9142 32.7974 0.0000 0.4309 0.0000
# 3 30.1938 32.7974 70.5788 0.0000 15.7616 0.0000
# 4 0.0000 0.0000 0.0000 45.4875 0.0000 10.3130
# 5 -7.1447 0.4309 15.7616 0.0000 33.8039 0.0000
# 6 0.0000 0.0000 0.0000 10.3130 0.0000 19.2419
#
#
#
# Elastic Compliance Matrix: (Units=1/GPa)
#
#
# Indices 1 2 3 4 5 6 
#
# 1 0.017140 -0.007257 -0.005347 0.000000 0.006208 0.000000
# 2 -0.007257 0.023861 -0.008453 0.000000 0.002103 0.000000
# 3 -0.005347 -0.008453 0.023008 0.000000 -0.011750 0.000000
# 4 0.000000 0.000000 0.000000 0.025025 0.000000 -0.013413
# 5 0.006208 0.002103 -0.011750 0.000000 0.036346 0.000000
# 6 0.000000 0.000000 0.000000 -0.013413 0.000000 0.059158
#
#
# Mechanical properties :
#
#
# Convention : Reuss Voigt Hill
#
# Bulk Modulus (GPa) = 45.67214 46.98307 46.32760
# Shear Modulus (GPa) = 21.37195 27.78622 24.57909
#
# Velocity S-wave (km/s) = 3.14792 3.58935 3.37586
# Velocity P-wave (km/s) = 5.86421 6.24197 6.05604
#
# Compressibility (1/GPa) = 0.02189519
#
# Stress axis : x y z
#
# Youngs Moduli (GPa) = 58.34232 41.90934 43.46328
#
# Poissons Ratio (x) = 0.30415 0.23238
# Poissons Ratio (y) = 0.42341 0.36740
# Poissons Ratio (z) = 0.31193 0.35426
#
# Static dielectric constant tensor:
#      x y z
#    x 1.858320 0.000000 -0.020950 
#    y 0.000000 1.788630 0.000000 
#    z -0.020950 0.000000 1.750080 
# 
# From -- ./inp_files/13070.got.cif
#   From: 2010.05.17/outbox.cif.g08.bks.cpg/sg9_7_cif.got.tgz:13070.got - 2010.06.03 20:04:27.
