data_PCOD9138884
_publ_section_title
;
Structure prediction by ZEFSAII (Michael W. Deem and Ramdas Pophale) SiO2 
 PCOD9138884
Probable space group: C C
;
_chemical_formula_sum "Si O2"
_cell_formula_units_Z 20
_cell_length_a 5.304665
_cell_length_b 8.463152
_cell_length_c 18.315979
_cell_angle_alpha 90.000000
_cell_angle_beta 106.148828
_cell_angle_gamma 90.000000
_cell_volume 789.835800
_symmetry_space_group_name_H-M "C C"
_symmetry_group_IT_number 9
_symmetry_cell_setting 'monoclinic'
loop_
_space_group_symop_operation_xyz
x,y,z
x,-y,1/2+z
1/2+x,1/2+y,z
1/2+x,1/2-y,1/2+z
loop_
_atom_site_type_symbol
_atom_site_label
_atom_site_fract_x
_atom_site_fract_y
_atom_site_fract_z
Si Si1 0.278760 0.839702 0.958660
Si Si2 0.980027 0.995050 0.318405
Si Si3 0.890234 0.806838 0.666312
Si Si4 0.704846 0.213672 0.392075
Si Si5 0.842376 0.530335 0.112573
O O1 0.008911 0.741811 0.934321
O O2 0.551272 0.764594 0.955747
O O3 0.232284 0.950371 0.884710
O O4 0.291544 0.936092 0.033749
O O5 0.037646 0.811095 0.318331
O O6 0.753082 0.044262 0.357033
O O7 0.954350 0.098761 0.245164
O O8 0.912988 0.617178 0.672658
O O9 0.091941 0.875594 0.622624
O O10 0.591327 0.855388 0.624499
#
# Coordination Sequence:
#
# PCOD9138884 Si02
#       5
#     4   4   4   4   4
#     4  10  26  42  71  98 138 179 237 280 345 410
#     4  10  26  42  71  99 136 181 234 284 341 414
#     4  12  28  46  73 103 148 184 236 287 361 413
#     4  10  24  38  72  93 135 169 241 280 344 394
#     4  12  28  46  73 103 147 187 232 291 357 417
#
# _framework density 25.321722000000001
#
# number of rings (size 3 to 8) (size 9 to 14) (size 15 to 20)
#    1.200    0.000    0.000    3.600   14.000    0.000 
#    0.000    0.000    0.000    0.000    0.000    0.000 
#    0.000    0.000    0.000    0.000    0.000    0.000 
#
# Total GULP energy -55846.530232 kJ/mol
# GULP energy per Si atom -5584.653023 kJ/mol
# Density = 2.526409 g / cm^3
# Si number density = 25.321722 Si / 1000 Ang^3
#
#
#
# Elastic Constant Matrix: (Units=GPa)
#
#
# Indices 1 2 3 4 5 6 
#
# 1 178.4819 40.7884 29.5255 0.0000 -50.8055 0.0000
# 2 40.7884 84.9361 -24.5169 0.0000 -18.4804 0.0000
# 3 29.5255 -24.5169 92.4118 0.0000 -6.2570 0.0000
# 4 0.0000 0.0000 0.0000 62.7821 0.0000 38.0843
# 5 -50.8055 -18.4804 -6.2570 0.0000 47.1182 0.0000
# 6 0.0000 0.0000 0.0000 38.0843 0.0000 59.9728
#
#
#
# Elastic Compliance Matrix: (Units=1/GPa)
#
#
# Indices 1 2 3 4 5 6 
#
# 1 0.009334 -0.003690 -0.003408 0.000000 0.008165 0.000000
# 2 -0.003690 0.015797 0.005570 0.000000 0.002957 0.000000
# 3 -0.003408 0.005570 0.013407 0.000000 0.000290 0.000000
# 4 0.000000 0.000000 0.000000 0.025908 0.000000 -0.016452
# 5 0.008165 0.002957 0.000290 0.000000 0.031225 0.000000
# 6 0.000000 0.000000 0.000000 -0.016452 0.000000 0.027122
#
#
# Mechanical properties :
#
#
# Convention : Reuss Voigt Hill
#
# Bulk Modulus (GPa) = 28.18355 49.71376 38.94866
# Shear Modulus (GPa) = 36.31699 54.64345 45.48022
#
# Velocity S-wave (km/s) = 3.79122 4.65043 4.24263
# Velocity P-wave (km/s) = 5.50625 6.96497 6.27812
#
# Compressibility (1/GPa) = 0.03548169
#
# Stress axis : x y z
#
# Youngs Moduli (GPa) = 107.13615 63.30495 74.58561
#
# Poissons Ratio (x) = 0.23358 0.25421
# Poissons Ratio (y) = 0.39530 -0.41543
# Poissons Ratio (z) = 0.36515 -0.35260
#
# Static dielectric constant tensor:
#      x y z
#    x 1.362090 0.000000 -0.109730 
#    y 0.000000 -4.227140 0.000000 
#    z -0.109730 0.000000 2.024050 
# 
# From -- ./inp_files/28384.got.cif
#   From: 2010.05.17/outbox.cif.g08.bks.cpg/sg9_15_cif.got.tgz:28384.got - 2010.06.03 20:04:27.
