data_PCOD9138843
_publ_section_title
;
Structure prediction by ZEFSAII (Michael W. Deem and Ramdas Pophale) SiO2 
 PCOD9138843
Probable space group: C C
;
_chemical_formula_sum "Si O2"
_cell_formula_units_Z 32
_cell_length_a 20.693846
_cell_length_b 8.639849
_cell_length_c 15.566974
_cell_angle_alpha 90.000000
_cell_angle_beta 152.618284
_cell_angle_gamma 90.000000
_cell_volume 1280.060523
_symmetry_space_group_name_H-M "C C"
_symmetry_group_IT_number 9
_symmetry_cell_setting 'monoclinic'
loop_
_space_group_symop_operation_xyz
x,y,z
x,-y,1/2+z
1/2+x,1/2+y,z
1/2+x,1/2-y,1/2+z
loop_
_atom_site_type_symbol
_atom_site_label
_atom_site_fract_x
_atom_site_fract_y
_atom_site_fract_z
Si Si1 0.649700 0.173711 0.618640
Si Si2 0.379374 0.175591 0.629359
Si Si3 0.345373 0.577765 0.376024
Si Si4 0.793876 0.967362 0.007978
Si Si5 0.750619 0.479830 0.709207
Si Si6 0.003899 0.539872 0.615949
Si Si7 0.061928 0.235203 0.502004
Si Si8 0.886833 0.652402 0.201887
O O1 0.665976 0.352208 0.660454
O O2 0.578133 0.108175 0.619701
O O3 0.552646 0.148898 0.421131
O O4 0.799347 0.089449 0.785123
O O5 0.306864 0.347644 0.547183
O O6 0.458896 0.168326 0.632067
O O7 0.332953 0.991144 0.578047
O O8 0.466797 0.177582 0.821422
O O9 0.370203 0.556212 0.506112
O O10 0.194607 0.666714 0.190454
O O11 0.465769 0.658412 0.461863
O O12 0.852774 0.826948 0.133729
O O13 0.625816 0.938424 0.802108
O O14 0.642718 0.602124 0.545529
O O15 0.815433 0.386739 0.707854
O O16 0.868333 0.541990 0.913659
#
# Coordination Sequence:
#
# PCOD9138843 Si02
#       8
#     4   4   4   4   4   4   4   4
#     4  10  23  48  75 105 150 202 255 321 386 461
#     4  12  27  49  76 112 153 198 261 325 388 457
#     4  11  27  52  74 113 156 202 258 320 394 466
#     4  11  28  49  78 112 156 206 261 326 395 456
#     4  11  26  47  76 110 147 209 260 308 399 463
#     4  10  25  47  74 111 153 197 261 329 380 461
#     4  12  28  48  82 110 155 208 257 321 395 466
#     4  11  26  48  77 113 152 200 261 326 383 470
#
# _framework density 24.998816000000001
#
# number of rings (size 3 to 8) (size 9 to 14) (size 15 to 20)
#    0.000    1.000    1.250    3.000   17.500    0.000 
#    2.250    0.000    0.000    0.000    0.000    0.000 
#    0.000    0.000    0.000    0.000    0.000    0.000 
#
# Total GULP energy -89304.497767 kJ/mol
# GULP energy per Si atom -5581.531110 kJ/mol
# Density = 2.494192 g / cm^3
# Si number density = 24.998816 Si / 1000 Ang^3
#
#
#
# Elastic Constant Matrix: (Units=GPa)
#
#
# Indices 1 2 3 4 5 6 
#
# 1 71.9526 29.0733 27.4930 0.0000 -10.3524 0.0000
# 2 29.0733 118.0198 30.8025 0.0000 -5.7915 0.0000
# 3 27.4930 30.8025 62.2436 0.0000 -10.0590 0.0000
# 4 0.0000 0.0000 0.0000 31.8994 0.0000 -8.7065
# 5 -10.3524 -5.7915 -10.0590 0.0000 24.8378 0.0000
# 6 0.0000 0.0000 0.0000 -8.7065 0.0000 41.0893
#
#
#
# Elastic Compliance Matrix: (Units=1/GPa)
#
#
# Indices 1 2 3 4 5 6 
#
# 1 0.017845 -0.002650 -0.005851 0.000000 0.004450 0.000000
# 2 -0.002650 0.010126 -0.003892 0.000000 -0.000320 0.000000
# 3 -0.005851 -0.003892 0.021439 0.000000 0.005336 0.000000
# 4 0.000000 0.000000 0.000000 0.033273 0.000000 0.007050
# 5 0.004450 -0.000320 0.005336 0.000000 0.044203 0.000000
# 6 0.000000 0.000000 0.000000 0.007050 0.000000 0.025831
#
#
# Mechanical properties :
#
#
# Convention : Reuss Voigt Hill
#
# Bulk Modulus (GPa) = 40.61364 47.43929 44.02646
# Shear Modulus (GPa) = 26.92341 30.55512 28.73926
#
# Velocity S-wave (km/s) = 3.28531 3.49988 3.39429
# Velocity P-wave (km/s) = 5.53828 5.94559 5.74554
#
# Compressibility (1/GPa) = 0.02462227
#
# Stress axis : x y z
#
# Youngs Moduli (GPa) = 56.03787 98.75374 46.64414
#
# Poissons Ratio (x) = 0.26174 0.27293
# Poissons Ratio (y) = 0.14853 0.18154
# Poissons Ratio (z) = 0.32790 0.38436
#
# Static dielectric constant tensor:
#      x y z
#    x 1.995320 0.000000 0.035020 
#    y 0.000000 2.151320 0.000000 
#    z 0.035020 0.000000 2.020620 
# 
# From -- ./inp_files/27358.got.cif
#   From: 2010.05.17/outbox.cif.g08.bks.cpg/sg9_14_cif.got.tgz:27358.got - 2010.06.03 20:04:27.
