data_PCOD9138831
_publ_section_title
;
Structure prediction by ZEFSAII (Michael W. Deem and Ramdas Pophale) SiO2 
 PCOD9138831
Probable space group: C C
;
_chemical_formula_sum "Si O2"
_cell_formula_units_Z 28
_cell_length_a 13.660552
_cell_length_b 5.026022
_cell_length_c 16.800575
_cell_angle_alpha 90.000000
_cell_angle_beta 69.416680
_cell_angle_gamma 90.000000
_cell_volume 1079.860743
_symmetry_space_group_name_H-M "C C"
_symmetry_group_IT_number 9
_symmetry_cell_setting 'monoclinic'
loop_
_space_group_symop_operation_xyz
x,y,z
x,-y,1/2+z
1/2+x,1/2+y,z
1/2+x,1/2-y,1/2+z
loop_
_atom_site_type_symbol
_atom_site_label
_atom_site_fract_x
_atom_site_fract_y
_atom_site_fract_z
Si Si1 0.888770 0.478437 0.097320
Si Si2 0.483278 0.382442 0.158244
Si Si3 0.670859 0.333940 0.834079
Si Si4 0.690927 0.638106 0.087327
Si Si5 0.244348 0.385242 0.476034
Si Si6 0.970149 0.067792 0.975404
Si Si7 0.771510 0.871628 0.740799
O O1 0.798065 0.687572 0.104321
O O2 0.809783 0.240926 0.144478
O O3 0.956187 0.571398 0.153745
O O4 0.958405 0.381076 0.003656
O O5 0.590637 0.506595 0.158968
O O6 0.383250 0.498086 0.232897
O O7 0.486908 0.452324 0.060894
O O8 0.561890 0.454821 0.895009
O O9 0.736579 0.599753 0.794401
O O10 0.717693 0.155783 0.892344
O O11 0.682024 0.099059 0.764877
O O12 0.671364 0.901635 0.041641
O O13 0.725358 0.406453 0.016671
O O14 0.362335 0.477948 0.459215
#
# Coordination Sequence:
#
# PCOD9138831 Si02
#       7
#     4   4   4   4   4   4   4
#     4  10  23  48  69 106 136 180 242 296 330 425
#     4  11  22  45  72  97 136 183 230 288 346 399
#     4  12  25  44  67 101 142 189 221 285 357 420
#     4  11  24  40  75 104 130 172 241 291 343 394
#     4  11  24  43  67 108 134 171 233 297 334 421
#     4  10  24  42  75  99 136 179 238 292 346 398
#     4  11  26  44  67  95 148 186 229 279 352 421
#
# _framework density 25.929269000000001
#
# number of rings (size 3 to 8) (size 9 to 14) (size 15 to 20)
#    0.000    1.143    4.286    0.857    6.000    0.000 
#    2.571    2.857    0.000    0.000    0.000    0.000 
#    0.000    0.000    0.000    0.000    0.000    0.000 
#
# Total GULP energy -78057.047445 kJ/mol
# GULP energy per Si atom -5575.503389 kJ/mol
# Density = 2.587025 g / cm^3
# Si number density = 25.929269 Si / 1000 Ang^3
#
#
#
# Elastic Constant Matrix: (Units=GPa)
#
#
# Indices 1 2 3 4 5 6 
#
# 1 112.6228 24.5168 23.6545 0.0004 -41.3638 0.0014
# 2 24.5168 155.2565 40.0141 0.0013 -18.4426 0.0024
# 3 23.6545 40.0141 81.6498 -0.0001 -36.1120 0.0005
# 4 0.0004 0.0013 -0.0001 42.9048 -0.0001 -2.7725
# 5 -41.3638 -18.4426 -36.1120 -0.0001 40.9540 -0.0001
# 6 0.0014 0.0024 0.0005 -2.7725 -0.0001 32.3540
#
#
#
# Elastic Compliance Matrix: (Units=1/GPa)
#
#
# Indices 1 2 3 4 5 6 
#
# 1 0.015041 -0.001331 0.004506 0.000000 0.018566 -0.000001
# 2 -0.001331 0.007491 -0.003915 0.000000 -0.001423 0.000000
# 3 0.004506 -0.003915 0.023104 0.000000 0.023161 0.000000
# 4 0.000000 0.000000 0.000000 0.023437 0.000000 0.002008
# 5 0.018566 -0.001423 0.023161 0.000000 0.062950 -0.000001
# 6 -0.000001 0.000000 0.000000 0.002008 -0.000001 0.031080
#
#
# Mechanical properties :
#
#
# Convention : Reuss Voigt Hill
#
# Bulk Modulus (GPa) = 22.64690 58.43333 40.54011
# Shear Modulus (GPa) = 27.88575 40.66549 34.27562
#
# Velocity S-wave (km/s) = 3.28297 3.96450 3.63972
# Velocity P-wave (km/s) = 4.80870 6.59856 5.77341
#
# Compressibility (1/GPa) = 0.04415615
#
# Stress axis : x y z
#
# Youngs Moduli (GPa) = 66.48373 133.49178 43.28251
#
# Poissons Ratio (x) = 0.17770 -0.19503
# Poissons Ratio (y) = 0.08850 0.16945
# Poissons Ratio (z) = -0.29957 0.52261
#
# Static dielectric constant tensor:
#      x y z
#    x 2.137030 0.000000 0.067530 
#    y 0.000000 2.346210 0.000000 
#    z 0.067530 0.000000 2.104020 
# 
# From -- ./inp_files/33525.got.cif
#   From: 2010.05.17/outbox.cif.g08.bks.cpg/sg9_17_cif.got.tgz:33525.got - 2010.06.03 20:04:27.
