data_PCOD9138122
_publ_section_title
;
Structure prediction by ZEFSAII (Michael W. Deem and Ramdas Pophale) SiO2 
 PCOD9138122
Probable space group: C C
;
_chemical_formula_sum "Si O2"
_cell_formula_units_Z 28
_cell_length_a 14.781632
_cell_length_b 6.969955
_cell_length_c 18.664348
_cell_angle_alpha 90.000000
_cell_angle_beta 34.691799
_cell_angle_gamma 90.000000
_cell_volume 1094.462684
_symmetry_space_group_name_H-M "C C"
_symmetry_group_IT_number 9
_symmetry_cell_setting 'monoclinic'
loop_
_space_group_symop_operation_xyz
x,y,z
x,-y,1/2+z
1/2+x,1/2+y,z
1/2+x,1/2-y,1/2+z
loop_
_atom_site_type_symbol
_atom_site_label
_atom_site_fract_x
_atom_site_fract_y
_atom_site_fract_z
Si Si1 0.239050 0.779521 0.812310
Si Si2 0.887761 0.227520 0.568638
Si Si3 0.591802 0.216494 0.259982
Si Si4 0.520475 0.962999 0.174171
Si Si5 0.893081 0.630841 0.511214
Si Si6 0.326370 0.498241 0.380968
Si Si7 0.241503 0.172329 0.017817
O O1 0.265878 0.704891 0.713333
O O2 0.361918 0.951396 0.744798
O O3 0.292217 0.605512 0.828970
O O4 0.064912 0.854656 0.948961
O O5 0.925152 0.456232 0.542598
O O6 0.809895 0.204905 0.541194
O O7 0.532110 0.048802 0.246549
O O8 0.549239 0.195579 0.370297
O O9 0.491263 0.406652 0.302434
O O10 0.778756 0.225990 0.125294
O O11 0.558874 0.737396 0.136557
O O12 0.672267 0.055557 0.031403
O O13 0.787322 0.538116 0.513868
O O14 0.317972 0.728604 0.398555
#
# Coordination Sequence:
#
# PCOD9138122 Si02
#       7
#     4   4   4   4   4   4   4
#     4  11  20  40  64  98 139 190 214 273 360 414
#     4  10  23  34  65 103 133 179 231 275 334 408
#     4  11  20  38  60  96 127 182 222 285 334 390
#     4   9  19  37  62  92 128 173 232 276 325 416
#     4  10  23  36  65  96 135 170 229 295 327 397
#     4   9  19  37  62  92 128 173 232 276 325 416
#     4   8  20  38  60 105 124 173 232 292 311 401
#
# _framework density 25.583328999999999
#
# number of rings (size 3 to 8) (size 9 to 14) (size 15 to 20)
#    1.714    0.571    2.857    0.000    4.000    1.143 
#    0.000    0.000    0.000   15.429    0.000    0.000 
#    0.000    0.000    0.000    0.000    0.000    0.000 
#
# Total GULP energy -78070.880755 kJ/mol
# GULP energy per Si atom -5576.491483 kJ/mol
# Density = 2.552510 g / cm^3
# Si number density = 25.583329 Si / 1000 Ang^3
#
#
#
# Elastic Constant Matrix: (Units=GPa)
#
#
# Indices 1 2 3 4 5 6 
#
# 1 48.5239 -6.6210 2.8542 0.0000 15.8923 0.0000
# 2 -6.6210 46.9877 -6.6378 0.0001 -2.1339 -0.0001
# 3 2.8542 -6.6378 125.3095 0.0000 22.5792 0.0000
# 4 0.0000 0.0001 0.0000 36.0361 0.0000 -1.4206
# 5 15.8923 -2.1339 22.5792 0.0000 44.7048 0.0000
# 6 0.0000 -0.0001 0.0000 -1.4206 0.0000 27.5114
#
#
#
# Elastic Compliance Matrix: (Units=1/GPa)
#
#
# Indices 1 2 3 4 5 6 
#
# 1 0.023902 0.003136 0.001238 0.000000 -0.008973 0.000000
# 2 0.003136 0.021864 0.001210 0.000000 -0.000682 0.000000
# 3 0.001238 0.001210 0.008895 0.000000 -0.004875 0.000000
# 4 0.000000 0.000000 0.000000 0.027807 0.000000 0.001436
# 5 -0.008973 -0.000682 -0.004875 0.000000 0.027988 0.000000
# 6 0.000000 0.000000 0.000000 0.001436 0.000000 0.036423
#
#
# Mechanical properties :
#
#
# Convention : Reuss Voigt Hill
#
# Bulk Modulus (GPa) = 15.19116 22.22353 18.70734
# Shear Modulus (GPa) = 31.71509 37.06549 34.39029
#
# Velocity S-wave (km/s) = 3.52473 3.81046 3.67037
# Velocity P-wave (km/s) = 4.74507 5.29764 5.02895
#
# Compressibility (1/GPa) = 0.06582777
#
# Stress axis : x y z
#
# Youngs Moduli (GPa) = 41.83721 45.73752 112.42894
#
# Poissons Ratio (x) = -0.14341 -0.13924
# Poissons Ratio (y) = -0.13118 -0.13600
# Poissons Ratio (z) = -0.05181 -0.05533
#
# Static dielectric constant tensor:
#      x y z
#    x 1.978670 0.000000 -0.006030 
#    y 0.000000 2.098050 0.000000 
#    z -0.006030 0.000000 2.099910 
# 
# From -- ./inp_files/33643.got.cif
#   From: 2010.05.17/outbox.cif.g08.bks.cpg/sg9_17_cif.got.tgz:33643.got - 2010.06.03 20:04:27.
