data_PCOD9138483
_publ_section_title
;
Structure prediction by ZEFSAII (Michael W. Deem and Ramdas Pophale) SiO2 
 PCOD9138483
Probable space group: C C
;
_chemical_formula_sum "Si O2"
_cell_formula_units_Z 32
_cell_length_a 5.296933
_cell_length_b 32.640721
_cell_length_c 8.220462
_cell_angle_alpha 90.000000
_cell_angle_beta 94.435236
_cell_angle_gamma 90.000000
_cell_volume 1417.026435
_symmetry_space_group_name_H-M "C C"
_symmetry_group_IT_number 9
_symmetry_cell_setting 'monoclinic'
loop_
_space_group_symop_operation_xyz
x,y,z
x,-y,1/2+z
1/2+x,1/2+y,z
1/2+x,1/2-y,1/2+z
loop_
_atom_site_type_symbol
_atom_site_label
_atom_site_fract_x
_atom_site_fract_y
_atom_site_fract_z
Si Si1 0.093100 0.218207 0.602320
Si Si2 0.570416 0.119543 0.245792
Si Si3 0.108007 0.476953 0.332981
Si Si4 0.070836 0.288171 0.874034
Si Si5 0.237541 0.072137 0.990260
Si Si6 0.371033 0.450406 0.683583
Si Si7 0.578969 0.907808 0.084948
Si Si8 0.085048 0.128999 0.724624
O O1 0.079230 0.256178 0.725418
O O2 0.332440 0.217944 0.487487
O O3 0.104749 0.177677 0.716595
O O4 0.832831 0.216154 0.486730
O O5 0.560684 0.166674 0.292329
O O6 0.426678 0.105773 0.076455
O O7 0.838932 0.096935 0.232457
O O8 0.470682 0.095568 0.399598
O O9 0.242900 0.459938 0.502181
O O10 0.234902 0.520204 0.302490
O O11 0.142619 0.451196 0.168728
O O12 0.824469 0.463361 0.369558
O O13 0.158634 0.045757 0.144795
O O14 0.045888 0.102751 0.887072
O O15 0.358666 0.887242 0.180720
O O16 0.841981 0.882897 0.104440
#
# Coordination Sequence:
#
# PCOD9138483 Si02
#       8
#     4   4   4   4   4   4   4   4
#     4  12  26  49  73 110 147 193 242 307 367 448
#     4  11  25  43  69 103 141 185 241 296 358 437
#     4  10  23  44  62 103 140 182 245 288 363 417
#     4  12  28  48  75 110 149 190 249 299 379 435
#     4  10  25  42  69 104 139 194 238 300 365 430
#     4  11  23  43  67  98 142 187 240 299 361 428
#     4  11  22  44  73  99 136 187 233 294 345 430
#     4  11  22  45  72  97 142 182 236 287 364 423
#
# _framework density 22.582498000000001
#
# number of rings (size 3 to 8) (size 9 to 14) (size 15 to 20)
#    0.000    1.000    3.750    1.500    5.250    3.000 
#    2.250    0.000    0.000    0.000    0.000    0.000 
#    0.000    0.000    0.000    0.000    0.000    0.000 
#
# Total GULP energy -89102.736950 kJ/mol
# GULP energy per Si atom -5568.921059 kJ/mol
# Density = 2.253110 g / cm^3
# Si number density = 22.582498 Si / 1000 Ang^3
#
#
#
# Elastic Constant Matrix: (Units=GPa)
#
#
# Indices 1 2 3 4 5 6 
#
# 1 90.4227 51.1302 38.7380 0.0000 -4.1245 0.0000
# 2 51.1302 158.5801 68.1850 0.0000 -29.7832 0.0000
# 3 38.7380 68.1850 114.5712 0.0000 -15.9385 0.0000
# 4 0.0000 0.0000 0.0000 43.4192 0.0000 -10.0376
# 5 -4.1245 -29.7832 -15.9385 0.0000 41.1841 0.0000
# 6 0.0000 0.0000 0.0000 -10.0376 0.0000 8.7252
#
#
#
# Elastic Compliance Matrix: (Units=1/GPa)
#
#
# Indices 1 2 3 4 5 6 
#
# 1 0.014368 -0.003843 -0.002914 0.000000 -0.002468 0.000000
# 2 -0.003843 0.010337 -0.004086 0.000000 0.005509 0.000000
# 3 -0.002914 -0.004086 0.012359 0.000000 0.001536 0.000000
# 4 0.000000 0.000000 0.000000 0.031376 0.000000 0.036096
# 5 -0.002468 0.005509 0.001536 0.000000 0.028613 0.000000
# 6 0.000000 0.000000 0.000000 0.036096 0.000000 0.156136
#
#
# Mechanical properties :
#
#
# Convention : Reuss Voigt Hill
#
# Bulk Modulus (GPa) = 65.03141 75.52004 70.27573
# Shear Modulus (GPa) = 17.85711 32.36707 25.11209
#
# Velocity S-wave (km/s) = 2.81508 3.78998 3.33831
# Velocity P-wave (km/s) = 6.27901 7.25716 6.78573
#
# Compressibility (1/GPa) = 0.01537718
#
# Stress axis : x y z
#
# Youngs Moduli (GPa) = 69.59802 96.74429 80.91363
#
# Poissons Ratio (x) = 0.37181 0.23580
# Poissons Ratio (y) = 0.26748 0.33060
# Poissons Ratio (z) = 0.20282 0.39528
#
# Static dielectric constant tensor:
#      x y z
#    x 2.164320 0.000000 -0.086470 
#    y 0.000000 1.835740 0.000000 
#    z -0.086470 0.000000 1.895780 
# 
# From -- ./inp_files/4366.got.cif
#   From: 2010.05.17/outbox.cif.g08.bks.cpg/sg9_3_cif.got.tgz:4366.got - 2010.06.03 20:04:27.
