data_PCOD9138012
_publ_section_title
;
Structure prediction by ZEFSAII (Michael W. Deem and Ramdas Pophale) SiO2 
 PCOD9138012
Probable space group: C C
;
_chemical_formula_sum "Si O2"
_cell_formula_units_Z 28
_cell_length_a 11.520789
_cell_length_b 9.102358
_cell_length_c 23.423451
_cell_angle_alpha 90.000000
_cell_angle_beta 29.815097
_cell_angle_gamma 90.000000
_cell_volume 1221.294499
_symmetry_space_group_name_H-M "C C"
_symmetry_group_IT_number 9
_symmetry_cell_setting 'monoclinic'
loop_
_space_group_symop_operation_xyz
x,y,z
x,-y,1/2+z
1/2+x,1/2+y,z
1/2+x,1/2-y,1/2+z
loop_
_atom_site_type_symbol
_atom_site_label
_atom_site_fract_x
_atom_site_fract_y
_atom_site_fract_z
Si Si1 0.589850 0.461615 0.299020
Si Si2 0.156228 0.214780 0.876953
Si Si3 0.319705 0.271145 0.230307
Si Si4 0.877336 0.783225 0.613599
Si Si5 0.684672 0.027637 0.883408
Si Si6 0.495795 0.012495 0.795702
Si Si7 0.210404 0.985853 0.029504
O O1 0.527500 0.363476 0.380434
O O2 0.731625 0.607714 0.256162
O O3 0.770635 0.364994 0.184530
O O4 0.345935 0.489884 0.370166
O O5 0.243737 0.377288 0.823367
O O6 0.358326 0.102784 0.807326
O O7 0.011635 0.236224 0.996907
O O8 0.266988 0.325165 0.316834
O O9 0.571050 0.340974 0.108413
O O10 0.153754 0.369878 0.261140
O O11 0.049727 0.872994 0.582719
O O12 0.658212 0.890650 0.699162
O O13 0.403662 0.028374 0.994813
O O14 0.330146 0.952451 0.916905
#
# Coordination Sequence:
#
# PCOD9138012 Si02
#       7
#     4   4   4   4   4   4   4
#     4  12  26  47  79 107 145 192 253 299 363 441
#     4  11  24  47  72 107 149 191 240 304 365 436
#     4  10  22  46  73 110 144 195 247 300 362 437
#     4  10  24  48  74 109 147 193 246 302 364 440
#     4  11  25  47  71 105 150 191 241 305 363 434
#     4   9  19  45  73 104 149 194 240 301 360 434
#     4   9  20  44  78  98 154 196 233 303 375 416
#
# _framework density 22.926494000000002
#
# number of rings (size 3 to 8) (size 9 to 14) (size 15 to 20)
#    0.000    1.714    1.429    2.571    4.000    0.000 
#    7.714    4.286    0.000    0.000    0.000    0.000 
#    0.000    0.000    0.000    0.000    0.000    0.000 
#
# Total GULP energy -78211.343545 kJ/mol
# GULP energy per Si atom -5586.524539 kJ/mol
# Density = 2.287431 g / cm^3
# Si number density = 22.926494 Si / 1000 Ang^3
#
#
#
# Elastic Constant Matrix: (Units=GPa)
#
#
# Indices 1 2 3 4 5 6 
#
# 1 137.5658 59.1521 37.4917 0.0001 -29.8707 0.0000
# 2 59.1521 137.1317 30.5149 0.0000 -6.3173 0.0000
# 3 37.4917 30.5149 82.6311 -0.0001 -10.1597 -0.0001
# 4 0.0001 0.0000 -0.0001 33.8761 0.0000 -5.3961
# 5 -29.8707 -6.3173 -10.1597 0.0000 35.6271 0.0000
# 6 0.0000 0.0000 -0.0001 -5.3961 0.0000 47.9919
#
#
#
# Elastic Compliance Matrix: (Units=1/GPa)
#
#
# Indices 1 2 3 4 5 6 
#
# 1 0.011496 -0.003972 -0.002747 0.000000 0.008151 0.000000
# 2 -0.003972 0.009330 -0.001916 0.000000 -0.002222 0.000000
# 3 -0.002747 -0.001916 0.014230 0.000000 0.001415 0.000000
# 4 0.000000 0.000000 0.000000 0.030058 0.000000 0.003380
# 5 0.008151 -0.002222 0.001415 0.000000 0.034912 0.000000
# 6 0.000000 0.000000 0.000000 0.003380 0.000000 0.021217
#
#
# Mechanical properties :
#
#
# Convention : Reuss Voigt Hill
#
# Bulk Modulus (GPa) = 56.22799 67.96067 62.09433
# Shear Modulus (GPa) = 34.61639 38.84366 36.73003
#
# Velocity S-wave (km/s) = 3.88994 4.12062 4.00694
# Velocity P-wave (km/s) = 6.68985 7.23509 6.96780
#
# Compressibility (1/GPa) = 0.01778474
#
# Stress axis : x y z
#
# Youngs Moduli (GPa) = 86.98999 107.18530 70.27394
#
# Poissons Ratio (x) = 0.42573 0.19303
# Poissons Ratio (y) = 0.34552 0.13468
# Poissons Ratio (z) = 0.23895 0.20541
#
# Static dielectric constant tensor:
#      x y z
#    x 1.890170 0.000000 -0.011500 
#    y 0.000000 1.833960 0.000000 
#    z -0.011500 0.000000 1.907720 
# 
# From -- ./inp_files/35302.got.cif
#   From: 2010.05.17/outbox.cif.g08.bks.cpg/sg9_18_cif.got.tgz:35302.got - 2010.06.03 20:04:27.
