data_PCOD9138951
_publ_section_title
;
Structure prediction by ZEFSAII (Michael W. Deem and Ramdas Pophale) SiO2 
 PCOD9138951
Probable space group: C C
;
_chemical_formula_sum "Si O2"
_cell_formula_units_Z 28
_cell_length_a 14.082040
_cell_length_b 5.498964
_cell_length_c 19.027146
_cell_angle_alpha 90.000000
_cell_angle_beta 131.649248
_cell_angle_gamma 90.000000
_cell_volume 1100.963041
_symmetry_space_group_name_H-M "C C"
_symmetry_group_IT_number 9
_symmetry_cell_setting 'monoclinic'
loop_
_space_group_symop_operation_xyz
x,y,z
x,-y,1/2+z
1/2+x,1/2+y,z
1/2+x,1/2-y,1/2+z
loop_
_atom_site_type_symbol
_atom_site_label
_atom_site_fract_x
_atom_site_fract_y
_atom_site_fract_z
Si Si1 0.388610 0.345732 0.450540
Si Si2 0.850255 0.655956 0.017307
Si Si3 0.696798 0.435704 0.775239
Si Si4 0.821309 0.837715 0.743001
Si Si5 0.143655 0.717775 0.611995
Si Si6 0.906478 0.546112 0.193652
Si Si7 0.071558 0.135149 0.855644
O O1 0.375339 0.607275 0.481401
O O2 0.282222 0.298363 0.339079
O O3 0.534843 0.286777 0.504248
O O4 0.366471 0.105531 0.488237
O O5 0.700360 0.663703 0.962111
O O6 0.931655 0.634167 0.128017
O O7 0.791375 0.639557 0.789013
O O8 0.609889 0.357984 0.667508
O O9 0.621053 0.517117 0.806303
O O10 0.863957 0.725150 0.688367
O O11 0.682784 0.949510 0.655776
O O12 0.950048 0.987492 0.824588
O O13 0.282163 0.807164 0.657159
O O14 0.017707 0.606777 0.302758
#
# Coordination Sequence:
#
# PCOD9138951 Si02
#       7
#     4   4   4   4   4   4   4
#     4  11  27  44  71 105 135 186 236 290 360 424
#     4  11  27  44  71 105 135 186 236 290 360 424
#     4  10  24  44  70 100 142 185 242 294 362 432
#     4  10  24  42  68 106 134 200 230 298 364 418
#     4  10  24  42  68  99 141 181 237 291 359 422
#     4  10  24  42  68  99 141 181 237 291 359 422
#     4  10  24  44  70 100 142 185 242 294 362 432
#
# _framework density 25.432279999999999
#
# number of rings (size 3 to 8) (size 9 to 14) (size 15 to 20)
#    0.000    1.714    0.000    0.857   20.000    4.571 
#    0.000    0.000    0.000    0.000    0.000    0.000 
#    0.000    0.000    0.000    0.000    0.000    0.000 
#
# Total GULP energy -78141.797662 kJ/mol
# GULP energy per Si atom -5581.556976 kJ/mol
# Density = 2.537439 g / cm^3
# Si number density = 25.432280 Si / 1000 Ang^3
#
#
#
# Elastic Constant Matrix: (Units=GPa)
#
#
# Indices 1 2 3 4 5 6 
#
# 1 114.3689 28.6840 -5.6783 0.0000 10.6833 0.0000
# 2 28.6840 97.9867 16.2420 0.0000 -0.3976 0.0000
# 3 -5.6783 16.2420 59.1921 0.0000 10.3918 0.0000
# 4 0.0000 0.0000 0.0000 27.4803 0.0000 4.1559
# 5 10.6833 -0.3976 10.3918 0.0000 35.7433 0.0000
# 6 0.0000 0.0000 0.0000 4.1559 0.0000 35.0683
#
#
#
# Elastic Compliance Matrix: (Units=1/GPa)
#
#
# Indices 1 2 3 4 5 6 
#
# 1 0.010075 -0.003390 0.002563 0.000000 -0.003794 0.000000
# 2 -0.003390 0.011868 -0.003986 0.000000 0.002304 0.000000
# 3 0.002563 -0.003986 0.019364 0.000000 -0.006440 0.000000
# 4 0.000000 0.000000 0.000000 0.037054 0.000000 -0.004391
# 5 -0.003794 0.002304 -0.006440 0.000000 0.031009 0.000000
# 6 0.000000 0.000000 0.000000 -0.004391 0.000000 0.029036
#
#
# Mechanical properties :
#
#
# Convention : Reuss Voigt Hill
#
# Bulk Modulus (GPa) = 31.56403 38.89369 35.22886
# Shear Modulus (GPa) = 31.52717 35.14506 33.33611
#
# Velocity S-wave (km/s) = 3.52469 3.72143 3.62440
# Velocity P-wave (km/s) = 5.38540 5.81306 5.60331
#
# Compressibility (1/GPa) = 0.03168163
#
# Stress axis : x y z
#
# Youngs Moduli (GPa) = 99.25151 84.26167 51.64118
#
# Poissons Ratio (x) = 0.28561 -0.13234
# Poissons Ratio (y) = 0.33642 0.20585
# Poissons Ratio (z) = -0.25436 0.33588
#
# Static dielectric constant tensor:
#      x y z
#    x 2.035630 0.000000 -0.007540 
#    y 0.000000 2.197380 0.000000 
#    z -0.007540 0.000000 1.995900 
# 
# From -- ./inp_files/21745.got.cif
#   From: 2010.05.17/outbox.cif.g08.bks.cpg/sg9_11_cif.got.tgz:21745.got - 2010.06.03 20:04:27.
