data_PCOD9138301
_publ_section_title
;
Structure prediction by ZEFSAII (Michael W. Deem and Ramdas Pophale) SiO2 
 PCOD9138301
Probable space group: C C
;
_chemical_formula_sum "Si O2"
_cell_formula_units_Z 28
_cell_length_a 16.803963
_cell_length_b 8.775001
_cell_length_c 11.504120
_cell_angle_alpha 90.000000
_cell_angle_beta 130.179820
_cell_angle_gamma 90.000000
_cell_volume 1296.041496
_symmetry_space_group_name_H-M "C C"
_symmetry_group_IT_number 9
_symmetry_cell_setting 'monoclinic'
loop_
_space_group_symop_operation_xyz
x,y,z
x,-y,1/2+z
1/2+x,1/2+y,z
1/2+x,1/2-y,1/2+z
loop_
_atom_site_type_symbol
_atom_site_label
_atom_site_fract_x
_atom_site_fract_y
_atom_site_fract_z
Si Si1 0.759830 0.274054 0.858500
Si Si2 0.662693 0.057539 0.580801
Si Si3 0.809803 0.801543 0.023740
Si Si4 0.278895 0.737418 0.146473
Si Si5 0.678851 0.586057 0.729538
Si Si6 0.947191 0.927860 0.954173
Si Si7 0.444318 0.223484 0.364918
O O1 0.712957 0.133050 0.742760
O O2 0.679513 0.412869 0.772748
O O3 0.862903 0.326180 0.887028
O O4 0.782884 0.242130 0.013060
O O5 0.729069 0.116953 0.533433
O O6 0.546425 0.120006 0.462696
O O7 0.688433 0.879641 0.603531
O O8 0.890649 0.720987 0.187837
O O9 0.743796 0.686519 0.882084
O O10 0.874322 0.913694 0.999900
O O11 0.242456 0.895377 0.168955
O O12 0.385759 0.674029 0.301839
O O13 0.559914 0.631812 0.597197
O O14 0.961988 0.097305 0.914892
#
# Coordination Sequence:
#
# PCOD9138301 Si02
#       7
#     4   4   4   4   4   4   4
#     4  11  25  45  68 103 141 184 236 293 346 425
#     4  11  23  44  69 100 139 182 236 289 350 410
#     4  10  23  42  67  98 139 177 232 288 340 421
#     4  11  26  44  72 103 145 180 240 296 346 424
#     4  11  26  44  71 100 141 179 240 289 354 415
#     4  11  22  44  72 100 130 194 229 280 355 422
#     4  11  23  41  73  98 141 184 233 285 357 413
#
# _framework density 21.604247000000001
#
# number of rings (size 3 to 8) (size 9 to 14) (size 15 to 20)
#    0.000    1.143    4.286    1.714    6.000    4.571 
#    2.571    0.000    0.000    0.000    0.000    0.000 
#    0.000    0.000    0.000    0.000    0.000    0.000 
#
# Total GULP energy -78277.638347 kJ/mol
# GULP energy per Si atom -5591.259882 kJ/mol
# Density = 2.155507 g / cm^3
# Si number density = 21.604247 Si / 1000 Ang^3
#
#
#
# Elastic Constant Matrix: (Units=GPa)
#
#
# Indices 1 2 3 4 5 6 
#
# 1 79.2340 26.2665 97.4390 0.0000 7.1743 0.0000
# 2 26.2665 55.4443 38.9978 0.0000 2.0790 0.0000
# 3 97.4390 38.9978 184.4129 0.0000 -2.1565 0.0000
# 4 0.0000 0.0000 0.0000 20.0228 0.0000 -11.9681
# 5 7.1743 2.0790 -2.1565 0.0000 51.8641 0.0000
# 6 0.0000 0.0000 0.0000 -11.9681 0.0000 -114.8244
#
#
#
# Elastic Compliance Matrix: (Units=1/GPa)
#
#
# Indices 1 2 3 4 5 6 
#
# 1 0.038715 -0.004321 -0.019612 0.000000 -0.005998 0.000000
# 2 -0.004321 0.021726 -0.002315 0.000000 -0.000369 0.000000
# 3 -0.019612 -0.002315 0.016316 0.000000 0.003484 0.000000
# 4 0.000000 0.000000 0.000000 0.047014 0.000000 -0.004900
# 5 -0.005998 -0.000369 0.003484 0.000000 0.020270 0.000000
# 6 0.000000 0.000000 0.000000 -0.004900 0.000000 -0.008198
#
#
# Mechanical properties :
#
#
# Convention : Reuss Voigt Hill
#
# Bulk Modulus (GPa) = 41.22319 71.61087 56.41703
# Shear Modulus (GPa) = 25.45482 1.83836 13.64659
#
# Velocity S-wave (km/s) = 3.43626 0.92346 2.51602
# Velocity P-wave (km/s) = 5.90477 5.86137 5.88311
#
# Compressibility (1/GPa) = 0.02425819
#
# Stress axis : x y z
#
# Youngs Moduli (GPa) = 25.82992 46.02831 61.29128
#
# Poissons Ratio (x) = 0.19891 1.20205
# Poissons Ratio (y) = 0.11162 0.14191
# Poissons Ratio (z) = 0.50658 0.10657
#
# Static dielectric constant tensor:
#      x y z
#    x 1.758060 0.000000 0.005080 
#    y 0.000000 1.833020 0.000000 
#    z 0.005080 0.000000 1.770730 
# 
# From -- ./inp_files/19008.got.cif
#   From: 2010.05.17/outbox.cif.g08.bks.cpg/sg9_10_cif.got.tgz:19008.got - 2010.06.03 20:04:27.
