data_PCOD9138829
_publ_section_title
;
Structure prediction by ZEFSAII (Michael W. Deem and Ramdas Pophale) SiO2 
 PCOD9138829
Probable space group: C C
;
_chemical_formula_sum "Si O2"
_cell_formula_units_Z 28
_cell_length_a 25.094707
_cell_length_b 6.055703
_cell_length_c 17.613020
_cell_angle_alpha 90.000000
_cell_angle_beta 153.480018
_cell_angle_gamma 90.000000
_cell_volume 1195.120272
_symmetry_space_group_name_H-M "C C"
_symmetry_group_IT_number 9
_symmetry_cell_setting 'monoclinic'
loop_
_space_group_symop_operation_xyz
x,y,z
x,-y,1/2+z
1/2+x,1/2+y,z
1/2+x,1/2-y,1/2+z
loop_
_atom_site_type_symbol
_atom_site_label
_atom_site_fract_x
_atom_site_fract_y
_atom_site_fract_z
Si Si1 0.324270 0.839651 0.320730
Si Si2 0.755386 0.048915 0.379582
Si Si3 0.636028 0.156624 0.973213
Si Si4 0.926468 0.508682 0.810799
Si Si5 0.505971 0.205900 0.545452
Si Si6 0.704648 0.746919 0.976240
Si Si7 0.008684 0.061229 0.193368
O O1 0.297335 0.690878 0.359448
O O2 0.414058 0.807393 0.362279
O O3 0.390995 0.065771 0.432065
O O4 0.201458 0.819909 0.116122
O O5 0.734680 0.185898 0.429120
O O6 0.632705 0.919507 0.209456
O O7 0.873377 0.905778 0.545906
O O8 0.592337 0.256369 0.838086
O O9 0.518302 0.078164 0.865732
O O10 0.714005 0.944585 0.048800
O O11 0.798139 0.443284 0.616181
O O12 0.974011 0.291314 0.916341
O O13 0.516812 0.416567 0.612812
O O14 0.567878 0.662814 0.799223
#
# Coordination Sequence:
#
# PCOD9138829 Si02
#       7
#     4   4   4   4   4   4   4
#     4  10  23  48  69 103 143 184 239 296 355 435
#     4  12  25  45  72 104 144 188 239 302 355 431
#     4  12  25  48  73 104 150 184 244 299 363 436
#     4  10  25  45  71 105 140 189 239 293 366 425
#     4  10  24  45  65 107 140 188 238 290 372 416
#     4  12  27  48  70 111 142 194 242 298 361 440
#     4  12  27  45  72 104 145 191 239 300 360 435
#
# _framework density 23.428602999999999
#
# number of rings (size 3 to 8) (size 9 to 14) (size 15 to 20)
#    0.857    0.000    4.286    1.714    8.000    0.000 
#    2.571    0.000    0.000    0.000    0.000    0.000 
#    0.000    0.000    0.000    0.000    0.000    0.000 
#
# Total GULP energy -77969.555184 kJ/mol
# GULP energy per Si atom -5569.253942 kJ/mol
# Density = 2.337528 g / cm^3
# Si number density = 23.428603 Si / 1000 Ang^3
#
#
#
# Elastic Constant Matrix: (Units=GPa)
#
#
# Indices 1 2 3 4 5 6 
#
# 1 95.3608 7.6374 14.0416 -0.0001 3.2690 -0.0001
# 2 7.6374 21.7238 21.3286 -0.0002 8.8387 -0.0003
# 3 14.0416 21.3286 135.0370 -0.0001 8.5461 -0.0001
# 4 -0.0001 -0.0002 -0.0001 25.8545 0.0000 -0.4760
# 5 3.2690 8.8387 8.5461 0.0000 23.4164 0.0000
# 6 -0.0001 -0.0003 -0.0001 -0.4760 0.0000 21.6781
#
#
#
# Elastic Compliance Matrix: (Units=1/GPa)
#
#
# Indices 1 2 3 4 5 6 
#
# 1 0.010834 -0.003161 -0.000621 0.000000 -0.000092 0.000000
# 2 -0.003161 0.063802 -0.008448 0.000000 -0.020558 0.000001
# 3 -0.000621 -0.008448 0.008800 0.000000 0.000064 0.000000
# 4 0.000000 0.000000 0.000000 0.038694 0.000000 0.000850
# 5 -0.000092 -0.020558 0.000064 0.000000 0.050455 0.000000
# 6 0.000000 0.000001 0.000000 0.000850 0.000000 0.046148
#
#
# Mechanical properties :
#
#
# Convention : Reuss Voigt Hill
#
# Bulk Modulus (GPa) = 16.95596 37.57074 27.26335
# Shear Modulus (GPa) = 19.02208 28.13073 23.57640
#
# Velocity S-wave (km/s) = 2.85251 3.46887 3.17568
# Velocity P-wave (km/s) = 4.25465 5.66703 5.01085
#
# Compressibility (1/GPa) = 0.05897631
#
# Stress axis : x y z
#
# Youngs Moduli (GPa) = 92.29904 15.67345 113.63343
#
# Poissons Ratio (x) = 0.04955 0.07061
# Poissons Ratio (y) = 0.29178 0.95992
# Poissons Ratio (z) = 0.05736 0.13240
#
# Static dielectric constant tensor:
#      x y z
#    x 1.823540 0.000000 -0.011350 
#    y 0.000000 1.987140 0.000000 
#    z -0.011350 0.000000 1.900110 
# 
# From -- ./inp_files/31522.got.cif
#   From: 2010.05.17/outbox.cif.g08.bks.cpg/sg9_16_cif.got.tgz:31522.got - 2010.06.03 20:04:27.
