data_PCOD9138055
_publ_section_title
;
Structure prediction by ZEFSAII (Michael W. Deem and Ramdas Pophale) SiO2 
 PCOD9138055
Probable space group: C C
;
_chemical_formula_sum "Si O2"
_cell_formula_units_Z 28
_cell_length_a 6.888920
_cell_length_b 12.251698
_cell_length_c 15.117173
_cell_angle_alpha 90.000000
_cell_angle_beta 61.620869
_cell_angle_gamma 90.000000
_cell_volume 1122.568116
_symmetry_space_group_name_H-M "C C"
_symmetry_group_IT_number 9
_symmetry_cell_setting 'monoclinic'
loop_
_space_group_symop_operation_xyz
x,y,z
x,-y,1/2+z
1/2+x,1/2+y,z
1/2+x,1/2-y,1/2+z
loop_
_atom_site_type_symbol
_atom_site_label
_atom_site_fract_x
_atom_site_fract_y
_atom_site_fract_z
Si Si1 0.176210 0.969889 0.832170
Si Si2 0.954978 0.809459 0.442076
Si Si3 0.846216 0.098462 0.552996
Si Si4 0.663675 0.533060 0.639477
Si Si5 0.626400 0.098661 0.316508
Si Si6 0.089395 0.556000 0.979123
Si Si7 0.939497 0.748603 0.637297
O O1 0.135773 0.965080 0.736035
O O2 0.110426 0.095148 0.870404
O O3 0.431282 0.941453 0.794520
O O4 0.960304 0.935837 0.120143
O O5 0.706006 0.828508 0.461890
O O6 0.965873 0.817677 0.543475
O O7 0.027689 0.102045 0.433045
O O8 0.313336 0.329443 0.729920
O O9 0.686716 0.007781 0.543261
O O10 0.179522 0.698684 0.607550
O O11 0.779492 0.646601 0.645819
O O12 0.832569 0.464635 0.541712
O O13 0.523988 0.188350 0.404381
O O14 0.677895 0.998051 0.369823
#
# Coordination Sequence:
#
# PCOD9138055 Si02
#       7
#     4   4   4   4   4   4   4
#     4  11  24  46  78 114 160 208 269 323 403 475
#     4  11  23  49  73 110 162 203 267 334 397 467
#     4  10  22  47  71 114 161 199 274 324 391 488
#     4  11  21  47  77 115 157 206 266 329 399 482
#     4  12  23  51  79 112 164 210 270 334 400 485
#     4  10  23  46  75 110 157 202 260 334 389 477
#     4  11  24  48  75 111 161 210 266 332 407 480
#
# _framework density 24.942807999999999
#
# number of rings (size 3 to 8) (size 9 to 14) (size 15 to 20)
#    0.000    1.143    5.714    0.857    0.000    0.000 
#   30.857    0.000    0.000    0.000    0.000    0.000 
#    0.000    0.000    0.000    0.000    0.000    0.000 
#
# Total GULP energy -78304.042470 kJ/mol
# GULP energy per Si atom -5593.145891 kJ/mol
# Density = 2.488604 g / cm^3
# Si number density = 24.942808 Si / 1000 Ang^3
#
#
#
# Elastic Constant Matrix: (Units=GPa)
#
#
# Indices 1 2 3 4 5 6 
#
# 1 164.9718 45.8265 55.1526 0.0000 22.0290 0.0000
# 2 45.8265 56.7762 16.1066 0.0000 8.9619 0.0000
# 3 55.1526 16.1066 146.6354 0.0000 13.8858 0.0000
# 4 0.0000 0.0000 0.0000 16.4250 0.0000 20.8721
# 5 22.0290 8.9619 13.8858 0.0000 29.8437 0.0000
# 6 0.0000 0.0000 0.0000 20.8721 0.0000 36.7769
#
#
#
# Elastic Compliance Matrix: (Units=1/GPa)
#
#
# Indices 1 2 3 4 5 6 
#
# 1 0.009031 -0.006022 -0.002380 0.000000 -0.003750 0.000000
# 2 -0.006022 0.022859 -0.000018 0.000000 -0.002411 0.000000
# 3 -0.002380 -0.000018 0.007898 0.000000 -0.001913 0.000000
# 4 0.000000 0.000000 0.000000 0.218365 0.000000 -0.123929
# 5 -0.003750 -0.002411 -0.001913 0.000000 0.037890 0.000000
# 6 0.000000 0.000000 0.000000 -0.123929 0.000000 0.097525
#
#
# Mechanical properties :
#
#
# Convention : Reuss Voigt Hill
#
# Bulk Modulus (GPa) = 43.57553 66.95053 55.26303
# Shear Modulus (GPa) = 11.96009 33.36233 22.66121
#
# Velocity S-wave (km/s) = 2.19213 3.66122 3.01745
# Velocity P-wave (km/s) = 4.89033 6.69124 5.86037
#
# Compressibility (1/GPa) = 0.02294866
#
# Stress axis : x y z
#
# Youngs Moduli (GPa) = 110.72991 43.74585 126.61612
#
# Poissons Ratio (x) = 0.26344 0.30136
# Poissons Ratio (y) = 0.66683 0.00222
# Poissons Ratio (z) = 0.26355 0.00077
#
# Static dielectric constant tensor:
#      x y z
#    x 2.042010 0.000000 -0.079750 
#    y 0.000000 2.006550 0.000000 
#    z -0.079750 0.000000 2.005340 
# 
# From -- ./inp_files/23499.got.cif
#   From: 2010.05.17/outbox.cif.g08.bks.cpg/sg9_12_cif.got.tgz:23499.got - 2010.06.03 20:04:27.
