data_PCOD9138717
_publ_section_title
;
Structure prediction by ZEFSAII (Michael W. Deem and Ramdas Pophale) SiO2 
 PCOD9138717
Probable space group: C C
;
_chemical_formula_sum "Si O2"
_cell_formula_units_Z 20
_cell_length_a 11.383977
_cell_length_b 10.958243
_cell_length_c 7.294707
_cell_angle_alpha 90.000000
_cell_angle_beta 48.221590
_cell_angle_gamma 90.000000
_cell_volume 678.613850
_symmetry_space_group_name_H-M "C C"
_symmetry_group_IT_number 9
_symmetry_cell_setting 'monoclinic'
loop_
_space_group_symop_operation_xyz
x,y,z
x,-y,1/2+z
1/2+x,1/2+y,z
1/2+x,1/2-y,1/2+z
loop_
_atom_site_type_symbol
_atom_site_label
_atom_site_fract_x
_atom_site_fract_y
_atom_site_fract_z
Si Si1 0.670240 0.719363 0.886670
Si Si2 0.672632 0.270959 0.957460
Si Si3 0.163727 0.438452 0.177267
Si Si4 0.828765 0.565290 0.005643
Si Si5 0.499961 0.494225 0.213991
O O1 0.694202 0.747910 0.650145
O O2 0.655888 0.842356 0.017861
O O3 0.812964 0.646095 0.837820
O O4 0.526046 0.625054 0.085262
O O5 0.521159 0.362988 0.094110
O O6 0.658784 0.145394 0.863344
O O7 0.303264 0.151286 0.208617
O O8 0.993487 0.502639 0.346107
O O9 0.333465 0.499940 0.986823
O O10 0.664261 0.492865 0.161084
#
# Coordination Sequence:
#
# PCOD9138717 Si02
#       5
#     4   4   4   4   4
#     4   9  21  39  67 100 143 189 231 305 368 422
#     4  11  22  43  74 101 142 195 243 296 378 441
#     4  11  23  46  70 103 142 193 244 304 366 442
#     4   9  23  42  68  98 148 184 231 319 358 414
#     4  10  23  46  69 100 149 187 237 314 366 431
#
# _framework density 29.471843
#
# number of rings (size 3 to 8) (size 9 to 14) (size 15 to 20)
#    1.200    0.800    0.000    3.600    0.000    3.200 
#    0.000    6.000    0.000    0.000    0.000    0.000 
#    0.000    0.000    0.000    0.000    0.000    0.000 
#
# Total GULP energy -56001.374862 kJ/mol
# GULP energy per Si atom -5600.137486 kJ/mol
# Density = 2.940476 g / cm^3
# Si number density = 29.471843 Si / 1000 Ang^3
#
#
#
# Elastic Constant Matrix: (Units=GPa)
#
#
# Indices 1 2 3 4 5 6 
#
# 1 181.7553 38.0404 116.5032 0.0000 23.3460 0.0000
# 2 38.0404 111.1452 76.7659 0.0000 -12.5721 0.0000
# 3 116.5032 76.7659 240.3041 0.0000 -31.8579 0.0000
# 4 0.0000 0.0000 0.0000 62.4635 0.0000 6.0543
# 5 23.3460 -12.5721 -31.8579 0.0000 89.7177 0.0000
# 6 0.0000 0.0000 0.0000 6.0543 0.0000 51.4556
#
#
#
# Elastic Compliance Matrix: (Units=1/GPa)
#
#
# Indices 1 2 3 4 5 6 
#
# 1 0.009291 -0.000205 -0.004999 0.000000 -0.004221 0.000000
# 2 -0.000205 0.011558 -0.003538 0.000000 0.000417 0.000000
# 3 -0.004999 -0.003538 0.008208 0.000000 0.003720 0.000000
# 4 0.000000 0.000000 0.000000 0.016194 0.000000 -0.001905
# 5 -0.004221 0.000417 0.003720 0.000000 0.013624 0.000000
# 6 0.000000 0.000000 0.000000 -0.001905 0.000000 0.019658
#
#
# Mechanical properties :
#
#
# Convention : Reuss Voigt Hill
#
# Bulk Modulus (GPa) = 86.39598 110.64707 98.52153
# Shear Modulus (GPa) = 50.06318 60.85368 55.45843
#
# Velocity S-wave (km/s) = 4.12597 4.54894 4.34261
# Velocity P-wave (km/s) = 7.21641 8.07560 7.65807
#
# Compressibility (1/GPa) = 0.01157461
#
# Stress axis : x y z
#
# Youngs Moduli (GPa) = 107.62979 86.52115 121.83213
#
# Poissons Ratio (x) = 0.01774 0.60899
# Poissons Ratio (y) = 0.02206 0.43099
# Poissons Ratio (z) = 0.53800 0.30607
#
# Static dielectric constant tensor:
#      x y z
#    x 2.385220 0.000000 0.065450 
#    y 0.000000 2.389290 0.000000 
#    z 0.065450 0.000000 2.250620 
# 
# From -- ./inp_files/18027.got.cif
#   From: 2010.05.17/outbox.cif.g08.bks.cpg/sg9_10_cif.got.tgz:18027.got - 2010.06.03 20:04:27.
