data_PCOD9138331
_publ_section_title
;
Structure prediction by ZEFSAII (Michael W. Deem and Ramdas Pophale) SiO2 
 PCOD9138331
Probable space group: C C
;
_chemical_formula_sum "Si O2"
_cell_formula_units_Z 32
_cell_length_a 23.722989
_cell_length_b 5.049706
_cell_length_c 11.274764
_cell_angle_alpha 90.000000
_cell_angle_beta 60.380422
_cell_angle_gamma 90.000000
_cell_volume 1174.155669
_symmetry_space_group_name_H-M "C C"
_symmetry_group_IT_number 9
_symmetry_cell_setting 'monoclinic'
loop_
_space_group_symop_operation_xyz
x,y,z
x,-y,1/2+z
1/2+x,1/2+y,z
1/2+x,1/2-y,1/2+z
loop_
_atom_site_type_symbol
_atom_site_label
_atom_site_fract_x
_atom_site_fract_y
_atom_site_fract_z
Si Si1 0.180860 0.246088 0.107670
Si Si2 0.403188 0.586459 0.670282
Si Si3 0.723134 0.553598 0.805385
Si Si4 0.266088 0.599968 0.908502
Si Si5 0.346596 0.258892 0.549194
Si Si6 0.050632 0.859997 0.812512
Si Si7 0.437159 0.075796 0.788383
Si Si8 0.604858 0.133040 0.332342
O O1 0.213947 0.118849 0.188265
O O2 0.112858 0.100866 0.161667
O O3 0.151558 0.534901 0.175426
O O4 0.231934 0.313588 0.951683
O O5 0.327933 0.654263 0.763255
O O6 0.401059 0.466647 0.539839
O O7 0.442238 0.831666 0.687241
O O8 0.414278 0.329685 0.739254
O O9 0.719017 0.325245 0.910038
O O10 0.796157 0.665229 0.701727
O O11 0.657512 0.731758 0.860701
O O12 0.297487 0.621622 0.004775
O O13 0.385855 0.031754 0.438799
O O14 0.073508 0.653588 0.891754
O O15 0.999072 0.690401 0.793309
O O16 0.047592 0.154775 0.868109
#
# Coordination Sequence:
#
# PCOD9138331 Si02
#       8
#     4   4   4   4   4   4   4   4
#     4  10  23  42  70 107 135 193 223 307 353 438
#     4  11  25  45  70 105 142 195 243 292 360 432
#     4  12  24  43  71 110 145 183 238 291 376 440
#     4  11  24  41  69 104 145 182 227 297 363 432
#     4  11  23  43  69 104 147 185 233 298 358 433
#     4  10  23  49  71  99 145 188 237 304 348 415
#     4  11  26  48  73 101 144 194 247 296 354 426
#     4  10  24  43  75 104 141 184 236 297 362 426
#
# _framework density 27.253627999999999
#
# number of rings (size 3 to 8) (size 9 to 14) (size 15 to 20)
#    0.750    0.500    2.500    3.000    1.750    5.000 
#    2.250    0.000    0.000    0.000    0.000    0.000 
#    0.000    0.000    0.000    0.000    0.000    0.000 
#
# Total GULP energy -89252.478985 kJ/mol
# GULP energy per Si atom -5578.279937 kJ/mol
# Density = 2.719160 g / cm^3
# Si number density = 27.253628 Si / 1000 Ang^3
#
#
#
# Elastic Constant Matrix: (Units=GPa)
#
#
# Indices 1 2 3 4 5 6 
#
# 1 114.7310 22.3213 6.3735 0.0000 11.5240 0.0000
# 2 22.3213 138.3886 -9.0863 0.0000 15.5798 0.0000
# 3 6.3735 -9.0863 55.2768 0.0000 -7.1641 0.0000
# 4 0.0000 0.0000 0.0000 101.8923 0.0000 -12.8822
# 5 11.5240 15.5798 -7.1641 0.0000 39.8309 0.0000
# 6 0.0000 0.0000 0.0000 -12.8822 0.0000 50.7477
#
#
#
# Elastic Compliance Matrix: (Units=1/GPa)
#
#
# Indices 1 2 3 4 5 6 
#
# 1 0.009312 -0.001330 -0.001612 0.000000 -0.002464 0.000000
# 2 -0.001330 0.007791 0.001115 0.000000 -0.002462 0.000000
# 3 -0.001612 0.001115 0.018904 0.000000 0.003430 0.000000
# 4 0.000000 0.000000 0.000000 0.010140 0.000000 0.002574
# 5 -0.002464 -0.002462 0.003430 0.000000 0.027399 0.000000
# 6 0.000000 0.000000 0.000000 0.002574 0.000000 0.020359
#
#
# Mechanical properties :
#
#
# Convention : Reuss Voigt Hill
#
# Bulk Modulus (GPa) = 30.90887 38.62370 34.76628
# Shear Modulus (GPa) = 46.14965 57.74670 51.94817
#
# Velocity S-wave (km/s) = 4.11948 4.60810 4.37063
# Velocity P-wave (km/s) = 5.83032 6.52040 6.18499
#
# Compressibility (1/GPa) = 0.03235318
#
# Stress axis : x y z
#
# Youngs Moduli (GPa) = 107.38994 128.35328 52.89753
#
# Poissons Ratio (x) = 0.17076 0.08525
# Poissons Ratio (y) = 0.14287 -0.05898
# Poissons Ratio (z) = 0.17308 -0.14311
#
# Static dielectric constant tensor:
#      x y z
#    x 2.141980 0.000000 0.007440 
#    y 0.000000 2.132220 0.000000 
#    z 0.007440 0.000000 2.465100 
# 
# From -- ./inp_files/20459.got.cif
#   From: 2010.05.17/outbox.cif.g08.bks.cpg/sg9_11_cif.got.tgz:20459.got - 2010.06.03 20:04:27.
