data_PCOD9138148
_publ_section_title
;
Structure prediction by ZEFSAII (Michael W. Deem and Ramdas Pophale) SiO2 
 PCOD9138148
Probable space group: C C
;
_chemical_formula_sum "Si O2"
_cell_formula_units_Z 28
_cell_length_a 18.838330
_cell_length_b 13.635496
_cell_length_c 14.125456
_cell_angle_alpha 90.000000
_cell_angle_beta 19.544952
_cell_angle_gamma 90.000000
_cell_volume 1213.869694
_symmetry_space_group_name_H-M "C C"
_symmetry_group_IT_number 9
_symmetry_cell_setting 'monoclinic'
loop_
_space_group_symop_operation_xyz
x,y,z
x,-y,1/2+z
1/2+x,1/2+y,z
1/2+x,1/2-y,1/2+z
loop_
_atom_site_type_symbol
_atom_site_label
_atom_site_fract_x
_atom_site_fract_y
_atom_site_fract_z
Si Si1 0.755890 0.344277 0.869830
Si Si2 0.786595 0.439606 0.337802
Si Si3 0.218213 0.307617 0.253423
Si Si4 0.179128 0.855458 0.665997
Si Si5 0.665562 0.313092 0.185148
Si Si6 0.211450 0.391150 0.732207
Si Si7 0.410806 0.966339 0.975917
O O1 0.681870 0.453859 0.985213
O O2 0.684744 0.282168 0.869514
O O3 0.001960 0.364953 0.536356
O O4 0.702161 0.283266 0.030474
O O5 0.695997 0.370521 0.532698
O O6 0.770279 0.431245 0.244140
O O7 0.043388 0.423177 0.023444
O O8 0.235852 0.253241 0.130764
O O9 0.431483 0.365982 0.005913
O O10 0.327110 0.933704 0.535086
O O11 0.453539 0.379173 0.457673
O O12 0.654209 0.218454 0.265767
O O13 0.864466 0.381808 0.959385
O O14 0.145996 0.461150 0.725429
#
# Coordination Sequence:
#
# PCOD9138148 Si02
#       7
#     4   4   4   4   4   4   4
#     4  11  22  40  62  96 126 171 224 264 330 390
#     4  10  23  41  64  93 132 165 222 272 328 395
#     4  10  24  39  66  92 132 173 221 268 328 398
#     4  11  22  45  66  93 136 174 216 278 328 388
#     4  12  21  41  68  94 135 173 213 279 325 382
#     4  10  23  39  64  99 132 166 217 270 326 391
#     4  10  23  41  64  97 135 162 223 273 319 396
#
# _framework density 23.066728000000001
#
# number of rings (size 3 to 8) (size 9 to 14) (size 15 to 20)
#    0.857    0.571    4.286    0.857    2.000    2.286 
#    0.000    2.857    0.000    0.000    0.000    0.000 
#    0.000    0.000    0.000    0.000    0.000    0.000 
#
# Total GULP energy -78009.605484 kJ/mol
# GULP energy per Si atom -5572.114677 kJ/mol
# Density = 2.301423 g / cm^3
# Si number density = 23.066728 Si / 1000 Ang^3
#
#
#
# Elastic Constant Matrix: (Units=GPa)
#
#
# Indices 1 2 3 4 5 6 
#
# 1 55.7230 -5.3117 2.8403 -0.0024 11.9680 0.0006
# 2 -5.3117 61.9747 5.4789 -0.0021 8.5192 0.0005
# 3 2.8403 5.4789 56.3007 -0.0057 -1.6513 0.0027
# 4 -0.0024 -0.0021 -0.0057 10.3019 0.0022 4.2273
# 5 11.9680 8.5192 -1.6513 0.0022 42.2016 -0.0008
# 6 0.0006 0.0005 0.0027 4.2273 -0.0008 25.3733
#
#
#
# Elastic Compliance Matrix: (Units=1/GPa)
#
#
# Indices 1 2 3 4 5 6 
#
# 1 0.019591 0.002650 -0.001427 0.000006 -0.006147 -0.000002
# 2 0.002650 0.017122 -0.001926 0.000004 -0.004283 -0.000001
# 3 -0.001427 -0.001926 0.018065 0.000010 0.001500 -0.000004
# 4 0.000006 0.000004 0.000010 0.104192 -0.000008 -0.017359
# 5 -0.006147 -0.004283 0.001500 -0.000008 0.026362 0.000002
# 6 -0.000002 -0.000001 -0.000004 -0.017359 0.000002 0.042303
#
#
# Mechanical properties :
#
#
# Convention : Reuss Voigt Hill
#
# Bulk Modulus (GPa) = 18.73551 20.00148 19.36850
# Shear Modulus (GPa) = 20.25673 26.97477 23.61575
#
# Velocity S-wave (km/s) = 2.96662 3.42339 3.20316
# Velocity P-wave (km/s) = 4.45807 4.93114 4.70056
#
# Compressibility (1/GPa) = 0.05337458
#
# Stress axis : x y z
#
# Youngs Moduli (GPa) = 51.04270 58.40515 55.35527
#
# Poissons Ratio (x) = -0.15479 0.07897
# Poissons Ratio (y) = -0.13527 0.10659
# Poissons Ratio (z) = 0.07281 0.11246
#
# Static dielectric constant tensor:
#      x y z
#    x 1.905330 0.000000 -0.019730 
#    y 0.000000 1.903460 0.000000 
#    z -0.019730 0.000000 1.872780 
# 
# From -- ./inp_files/7243.got.cif
#   From: 2010.05.17/outbox.cif.g08.bks.cpg/sg9_4_cif.got.tgz:7243.got - 2010.06.03 20:04:27.
