data_PCOD9138067
_publ_section_title
;
Structure prediction by ZEFSAII (Michael W. Deem and Ramdas Pophale) SiO2 
 PCOD9138067
Probable space group: C C
;
_chemical_formula_sum "Si O2"
_cell_formula_units_Z 32
_cell_length_a 13.285383
_cell_length_b 15.327295
_cell_length_c 8.632376
_cell_angle_alpha 90.000000
_cell_angle_beta 53.467970
_cell_angle_gamma 90.000000
_cell_volume 1412.436433
_symmetry_space_group_name_H-M "C C"
_symmetry_group_IT_number 9
_symmetry_cell_setting 'monoclinic'
loop_
_space_group_symop_operation_xyz
x,y,z
x,-y,1/2+z
1/2+x,1/2+y,z
1/2+x,1/2-y,1/2+z
loop_
_atom_site_type_symbol
_atom_site_label
_atom_site_fract_x
_atom_site_fract_y
_atom_site_fract_z
Si Si1 0.004960 0.396496 0.331260
Si Si2 0.796990 0.535540 0.559615
Si Si3 0.943296 0.303291 0.068127
Si Si4 0.651833 0.579068 0.390613
Si Si5 0.200927 0.267129 0.214557
Si Si6 0.231615 0.523827 0.125026
Si Si7 0.213851 0.309957 0.836719
Si Si8 0.369396 0.392681 0.208541
O O1 0.084911 0.331561 0.367415
O O2 0.104077 0.473261 0.199650
O O3 0.882359 0.448696 0.492119
O O4 0.965598 0.336378 0.223311
O O5 0.882394 0.612789 0.544948
O O6 0.753802 0.564300 0.430528
O O7 0.672533 0.507240 0.767410
O O8 0.839497 0.229570 0.152025
O O9 0.082071 0.273623 0.890979
O O10 0.670270 0.667262 0.274460
O O11 0.515839 0.591660 0.590792
O O12 0.321368 0.297140 0.202578
O O13 0.220196 0.288171 0.014169
O O14 0.208536 0.589839 0.288975
O O15 0.326593 0.451549 0.101568
O O16 0.291528 0.575334 0.927982
#
# Coordination Sequence:
#
# PCOD9138067 Si02
#       8
#     4   4   4   4   4   4   4   4
#     4  10  22  47  75 101 136 187 244 292 361 440
#     4  12  25  45  71 103 142 192 243 295 367 437
#     4  11  24  45  69 109 140 190 242 297 367 427
#     4  12  28  45  71 105 148 193 239 305 369 434
#     4  10  26  45  73 105 140 190 239 299 368 433
#     4  11  23  47  76 103 137 194 244 297 362 446
#     4  11  25  45  74 106 144 191 242 306 363 436
#     4  11  25  45  69 104 145 185 245 299 367 435
#
# _framework density 22.655885999999999
#
# number of rings (size 3 to 8) (size 9 to 14) (size 15 to 20)
#    0.000    1.000    2.500    3.750    8.750    2.000 
#    0.000    0.000    0.000    0.000    0.000    0.000 
#    0.000    0.000    0.000    0.000    0.000    0.000 
#
# Total GULP energy -89380.767752 kJ/mol
# GULP energy per Si atom -5586.297984 kJ/mol
# Density = 2.260432 g / cm^3
# Si number density = 22.655886 Si / 1000 Ang^3
#
#
#
# Elastic Constant Matrix: (Units=GPa)
#
#
# Indices 1 2 3 4 5 6 
#
# 1 93.2332 37.9186 30.7885 0.0000 -18.7571 0.0000
# 2 37.9186 58.9845 13.9120 0.0000 -8.7237 0.0000
# 3 30.7885 13.9120 53.7181 0.0000 -10.2502 0.0000
# 4 0.0000 0.0000 0.0000 20.9474 0.0000 -10.1516
# 5 -18.7571 -8.7237 -10.2502 0.0000 35.7589 0.0000
# 6 0.0000 0.0000 0.0000 -10.1516 0.0000 32.1855
#
#
#
# Elastic Compliance Matrix: (Units=1/GPa)
#
#
# Indices 1 2 3 4 5 6 
#
# 1 0.017663 -0.008990 -0.006819 0.000000 0.005117 0.000000
# 2 -0.008990 0.022994 -0.000669 0.000000 0.000702 0.000000
# 3 -0.006819 -0.000669 0.023256 0.000000 0.002926 0.000000
# 4 0.000000 0.000000 0.000000 0.056352 0.000000 0.017774
# 5 0.005117 0.000702 0.002926 0.000000 0.031660 0.000000
# 6 0.000000 0.000000 0.000000 0.017774 0.000000 0.036676
#
#
# Mechanical properties :
#
#
# Convention : Reuss Voigt Hill
#
# Bulk Modulus (GPa) = 32.30147 41.24157 36.77152
# Shear Modulus (GPa) = 21.56326 25.99947 23.78136
#
# Velocity S-wave (km/s) = 3.08843 3.39127 3.24339
# Velocity P-wave (km/s) = 5.19675 5.79459 5.50380
#
# Compressibility (1/GPa) = 0.03095834
#
# Stress axis : x y z
#
# Youngs Moduli (GPa) = 56.61404 43.48890 43.00040
#
# Poissons Ratio (x) = 0.39096 0.29323
# Poissons Ratio (y) = 0.50895 0.02875
# Poissons Ratio (z) = 0.38606 0.02907
#
# Static dielectric constant tensor:
#      x y z
#    x 1.846120 0.000000 -0.029390 
#    y 0.000000 1.832690 0.000000 
#    z -0.029390 0.000000 1.913470 
# 
# From -- ./inp_files/7543.got.cif
#   From: 2010.05.17/outbox.cif.g08.bks.cpg/sg9_4_cif.got.tgz:7543.got - 2010.06.03 20:04:27.
