data_PCOD9138649
_publ_section_title
;
Structure prediction by ZEFSAII (Michael W. Deem and Ramdas Pophale) SiO2 
 PCOD9138649
Probable space group: C C
;
_chemical_formula_sum "Si O2"
_cell_formula_units_Z 32
_cell_length_a 17.853070
_cell_length_b 7.842369
_cell_length_c 15.170672
_cell_angle_alpha 90.000000
_cell_angle_beta 34.660868
_cell_angle_gamma 90.000000
_cell_volume 1207.985948
_symmetry_space_group_name_H-M "C C"
_symmetry_group_IT_number 9
_symmetry_cell_setting 'monoclinic'
loop_
_space_group_symop_operation_xyz
x,y,z
x,-y,1/2+z
1/2+x,1/2+y,z
1/2+x,1/2-y,1/2+z
loop_
_atom_site_type_symbol
_atom_site_label
_atom_site_fract_x
_atom_site_fract_y
_atom_site_fract_z
Si Si1 0.567570 0.778907 0.870110
Si Si2 0.852358 0.290487 0.560176
Si Si3 0.837491 0.071151 0.050461
Si Si4 0.171922 0.763063 0.444677
Si Si5 0.103161 0.797965 0.699812
Si Si6 0.359372 0.934179 0.735099
Si Si7 0.031420 0.556528 0.231077
Si Si8 0.776509 0.092444 0.909980
O O1 0.718952 0.799750 0.691962
O O2 0.571459 0.813995 0.970272
O O3 0.490578 0.880852 0.866227
O O4 0.482825 0.608306 0.946913
O O5 0.727214 0.374882 0.631504
O O6 0.908036 0.392200 0.588926
O O7 0.966169 0.228036 0.382885
O O8 0.795575 0.104193 0.639654
O O9 0.853851 0.083106 0.928003
O O10 0.104329 0.847486 0.596445
O O11 0.261477 0.596125 0.381354
O O12 0.248525 0.921832 0.328163
O O13 0.131191 0.596278 0.658019
O O14 0.429054 0.003445 0.757543
O O15 0.330191 0.741231 0.796555
O O16 0.131795 0.669770 0.077755
#
# Coordination Sequence:
#
# PCOD9138649 Si02
#       8
#     4   4   4   4   4   4   4   4
#     4  11  24  45  75 113 157 202 269 324 409 476
#     4  12  27  48  77 115 163 210 271 337 410 479
#     4  11  24  49  74 117 159 214 256 347 403 487
#     4  11  26  50  78 118 152 211 271 329 406 489
#     4  11  26  50  78 110 167 212 267 341 405 485
#     4  12  27  47  80 116 154 209 274 324 408 493
#     4  10  23  45  71 112 154 207 252 331 402 474
#     4  10  23  48  75 105 162 197 260 327 401 469
#
# _framework density 26.490376999999999
#
# number of rings (size 3 to 8) (size 9 to 14) (size 15 to 20)
#    0.000    1.000    5.000    1.500    3.500    7.000 
#    2.250    0.000    0.000    0.000    0.000    0.000 
#    0.000    0.000    0.000    0.000    0.000    0.000 
#
# Total GULP energy -89085.472712 kJ/mol
# GULP energy per Si atom -5567.842044 kJ/mol
# Density = 2.643008 g / cm^3
# Si number density = 26.490377 Si / 1000 Ang^3
#
#
#
# Elastic Constant Matrix: (Units=GPa)
#
#
# Indices 1 2 3 4 5 6 
#
# 1 181.6772 38.5917 42.2372 -0.0001 20.2765 0.0000
# 2 38.5917 80.2867 12.4966 -0.0004 13.3540 0.0003
# 3 42.2372 12.4966 97.0818 -0.0001 16.0569 0.0001
# 4 -0.0001 -0.0004 -0.0001 29.7669 0.0000 -1.6023
# 5 20.2765 13.3540 16.0569 0.0000 43.5180 0.0000
# 6 0.0000 0.0003 0.0001 -1.6023 0.0000 45.7605
#
#
#
# Elastic Compliance Matrix: (Units=1/GPa)
#
#
# Indices 1 2 3 4 5 6 
#
# 1 0.006781 -0.002646 -0.002366 0.000000 -0.001475 0.000000
# 2 -0.002646 0.014267 -0.000176 0.000000 -0.003080 0.000000
# 3 -0.002366 -0.000176 0.011887 0.000000 -0.003230 0.000000
# 4 0.000000 0.000000 0.000000 0.033658 0.000000 0.001179
# 5 -0.001475 -0.003080 -0.003230 0.000000 0.025803 0.000000
# 6 0.000000 0.000000 0.000000 0.001179 0.000000 0.021894
#
#
# Mechanical properties :
#
#
# Convention : Reuss Voigt Hill
#
# Bulk Modulus (GPa) = 44.32715 60.63297 52.48006
# Shear Modulus (GPa) = 37.82607 41.52375 39.67491
#
# Velocity S-wave (km/s) = 3.78288 3.96347 3.87422
# Velocity P-wave (km/s) = 5.98748 6.62448 6.31402
#
# Compressibility (1/GPa) = 0.02255954
#
# Stress axis : x y z
#
# Youngs Moduli (GPa) = 147.47376 70.09240 84.12827
#
# Poissons Ratio (x) = 0.18546 0.19902
# Poissons Ratio (y) = 0.39020 0.01480
# Poissons Ratio (z) = 0.34887 0.01233
#
# Static dielectric constant tensor:
#      x y z
#    x 2.214090 0.000000 0.062080 
#    y 0.000000 2.315420 0.000000 
#    z 0.062080 0.000000 2.216070 
# 
# From -- ./inp_files/26732.got.cif
#   From: 2010.05.17/outbox.cif.g08.bks.cpg/sg9_14_cif.got.tgz:26732.got - 2010.06.03 20:04:27.
