data_PCOD9138542
_publ_section_title
;
Structure prediction by ZEFSAII (Michael W. Deem and Ramdas Pophale) SiO2 
 PCOD9138542
Probable space group: C C
;
_chemical_formula_sum "Si O2"
_cell_formula_units_Z 32
_cell_length_a 20.134210
_cell_length_b 12.977135
_cell_length_c 11.703675
_cell_angle_alpha 90.000000
_cell_angle_beta 25.739910
_cell_angle_gamma 90.000000
_cell_volume 1328.042989
_symmetry_space_group_name_H-M "C C"
_symmetry_group_IT_number 9
_symmetry_cell_setting 'monoclinic'
loop_
_space_group_symop_operation_xyz
x,y,z
x,-y,1/2+z
1/2+x,1/2+y,z
1/2+x,1/2-y,1/2+z
loop_
_atom_site_type_symbol
_atom_site_label
_atom_site_fract_x
_atom_site_fract_y
_atom_site_fract_z
Si Si1 0.567580 0.014867 0.405600
Si Si2 0.342545 0.378027 0.346861
Si Si3 0.852338 0.265740 0.028065
Si Si4 0.538602 0.377485 0.694512
Si Si5 0.814727 0.491653 0.138457
Si Si6 0.494695 0.246286 0.546061
Si Si7 0.650928 0.652042 0.259078
Si Si8 0.727395 0.853897 0.288104
O O1 0.440325 0.958778 0.526529
O O2 0.493242 0.123126 0.557149
O O3 0.608438 0.943980 0.448009
O O4 0.720252 0.044575 0.094491
O O5 0.415048 0.308162 0.334581
O O6 0.249583 0.324794 0.386389
O O7 0.497491 0.407308 0.041056
O O8 0.889716 0.385454 0.978607
O O9 0.676615 0.267369 0.256681
O O10 0.896966 0.223858 0.085261
O O11 0.661717 0.455286 0.446536
O O12 0.468004 0.306179 0.704229
O O13 0.632208 0.324094 0.653675
O O14 0.383856 0.407337 0.998940
O O15 0.776892 0.568432 0.095987
O O16 0.683771 0.755172 0.279739
#
# Coordination Sequence:
#
# PCOD9138542 Si02
#       8
#     4   4   4   4   4   4   4   4
#     4  10  23  44  70  99 128 181 232 275 328 405
#     4  10  24  46  66  98 138 176 224 277 338 407
#     4   9  20  41  70  97 124 170 232 274 323 391
#     4  10  24  46  66  98 138 176 224 277 338 407
#     4  10  23  44  70  99 128 181 232 275 328 405
#     4   9  20  41  70  97 124 170 232 274 323 391
#     4  11  26  42  66 100 142 178 214 280 351 395
#     4  11  26  42  66 100 142 178 214 280 351 395
#
# _framework density 24.095604000000002
#
# number of rings (size 3 to 8) (size 9 to 14) (size 15 to 20)
#    0.000    2.000    0.000    0.750   14.000    3.000 
#   22.500    0.000    0.000    0.000    0.000    0.000 
#    0.000    0.000    0.000    0.000    0.000    0.000 
#
# Total GULP energy -89154.034387 kJ/mol
# GULP energy per Si atom -5572.127149 kJ/mol
# Density = 2.404076 g / cm^3
# Si number density = 24.095604 Si / 1000 Ang^3
#
#
#
# Elastic Constant Matrix: (Units=GPa)
#
#
# Indices 1 2 3 4 5 6 
#
# 1 221.5793 68.3779 24.4337 0.0000 0.7378 0.0000
# 2 68.3779 46.0010 1.3061 -0.0001 -5.7735 0.0000
# 3 24.4337 1.3061 110.1003 -0.0001 9.3741 0.0001
# 4 0.0000 -0.0001 -0.0001 19.9061 0.0000 -4.4495
# 5 0.7378 -5.7735 9.3741 0.0000 31.9016 0.0000
# 6 0.0000 0.0000 0.0001 -4.4495 0.0000 36.1600
#
#
#
# Elastic Compliance Matrix: (Units=1/GPa)
#
#
# Indices 1 2 3 4 5 6 
#
# 1 0.008806 -0.013313 -0.001614 0.000000 -0.002139 0.000000
# 2 -0.013313 0.042411 0.001817 0.000000 0.007450 0.000000
# 3 -0.001614 0.001817 0.009629 0.000000 -0.002463 0.000000
# 4 0.000000 0.000000 0.000000 0.051657 0.000000 0.006356
# 5 -0.002139 0.007450 -0.002463 0.000000 0.033468 0.000000
# 6 0.000000 0.000000 0.000000 0.006356 0.000000 0.028437
#
#
# Mechanical properties :
#
#
# Convention : Reuss Voigt Hill
#
# Bulk Modulus (GPa) = 28.87994 62.87956 45.87975
# Shear Modulus (GPa) = 23.56595 36.49772 30.03183
#
# Velocity S-wave (km/s) = 3.13072 3.89614 3.53421
# Velocity P-wave (km/s) = 5.00801 6.81120 5.97798
#
# Compressibility (1/GPa) = 0.03462612
#
# Stress axis : x y z
#
# Youngs Moduli (GPa) = 113.55287 23.57880 103.85239
#
# Poissons Ratio (x) = 0.31390 0.16765
# Poissons Ratio (y) = 1.51172 -0.18871
# Poissons Ratio (z) = 0.18331 -0.04284
#
# Static dielectric constant tensor:
#      x y z
#    x 2.018200 0.000000 0.003710 
#    y 0.000000 1.905630 0.000000 
#    z 0.003710 0.000000 2.115090 
# 
# From -- ./inp_files/19415.got.cif
#   From: 2010.05.17/outbox.cif.g08.bks.cpg/sg9_10_cif.got.tgz:19415.got - 2010.06.03 20:04:27.
