data_PCOD9138938
_publ_section_title
;
Structure prediction by ZEFSAII (Michael W. Deem and Ramdas Pophale) SiO2 
 PCOD9138938
Probable space group: C C
;
_chemical_formula_sum "Si O2"
_cell_formula_units_Z 32
_cell_length_a 11.924240
_cell_length_b 7.286421
_cell_length_c 27.282386
_cell_angle_alpha 90.000000
_cell_angle_beta 149.530925
_cell_angle_gamma 90.000000
_cell_volume 1201.982106
_symmetry_space_group_name_H-M "C C"
_symmetry_group_IT_number 9
_symmetry_cell_setting 'monoclinic'
loop_
_space_group_symop_operation_xyz
x,y,z
x,-y,1/2+z
1/2+x,1/2+y,z
1/2+x,1/2-y,1/2+z
loop_
_atom_site_type_symbol
_atom_site_label
_atom_site_fract_x
_atom_site_fract_y
_atom_site_fract_z
Si Si1 0.847810 0.678689 0.955290
Si Si2 0.239620 0.732261 0.862884
Si Si3 0.447106 0.904808 0.755373
Si Si4 0.726570 0.080794 0.618224
Si Si5 0.125173 0.500104 0.690251
Si Si6 0.570881 0.607436 0.399557
Si Si7 0.158663 0.917583 0.736999
Si Si8 0.140111 0.034432 0.527546
O O1 0.654034 0.768457 0.847561
O O2 0.687149 0.593424 0.936533
O O3 0.029481 0.842457 0.028815
O O4 0.011857 0.502162 0.009671
O O5 0.252165 0.889188 0.826906
O O6 0.464356 0.622836 0.951533
O O7 0.054874 0.586882 0.773687
O O8 0.163385 0.782580 0.888575
O O9 0.275012 0.787227 0.657413
O O10 0.329496 0.981775 0.760346
O O11 0.700729 0.979177 0.662022
O O12 0.934007 0.024602 0.663154
O O13 0.879164 0.446346 0.610837
O O14 0.311593 0.407916 0.793225
O O15 0.118770 0.715820 0.699795
O O16 0.625172 0.671248 0.474293
#
# Coordination Sequence:
#
# PCOD9138938 Si02
#       8
#     4   4   4   4   4   4   4   4
#     4  11  21  40  67  96 128 176 217 273 334 394
#     4  11  24  42  66  98 131 173 222 272 330 400
#     4  10  24  42  63  98 133 169 222 276 323 400
#     4  11  21  39  72  93 130 175 221 270 339 395
#     4  11  21  40  69  98 129 179 221 277 335 398
#     4  12  23  43  67  96 138 176 224 274 336 399
#     4  11  20  42  66  91 130 174 214 268 336 385
#     4  11  24  42  68  96 135 174 225 280 331 395
#
# _framework density 26.622692000000001
#
# number of rings (size 3 to 8) (size 9 to 14) (size 15 to 20)
#    0.000    1.000    7.500    0.000    0.000    3.000 
#    2.250    1.250    0.000    0.000    0.000    0.000 
#    0.000    0.000    0.000    0.000    0.000    0.000 
#
# Total GULP energy -89324.683614 kJ/mol
# GULP energy per Si atom -5582.792726 kJ/mol
# Density = 2.656210 g / cm^3
# Si number density = 26.622692 Si / 1000 Ang^3
#
#
#
# Elastic Constant Matrix: (Units=GPa)
#
#
# Indices 1 2 3 4 5 6 
#
# 1 171.5182 25.6225 47.6670 0.0000 16.7982 0.0000
# 2 25.6225 51.1593 15.0384 0.0001 12.6584 -0.0001
# 3 47.6670 15.0384 140.8443 0.0000 40.9010 -0.0001
# 4 0.0000 0.0001 0.0000 19.7981 0.0000 -1.9945
# 5 16.7982 12.6584 40.9010 0.0000 51.9691 0.0000
# 6 0.0000 -0.0001 -0.0001 -1.9945 0.0000 51.4596
#
#
#
# Elastic Compliance Matrix: (Units=1/GPa)
#
#
# Indices 1 2 3 4 5 6 
#
# 1 0.006809 -0.002835 -0.002026 0.000000 0.000084 0.000000
# 2 -0.002835 0.022084 -0.000133 0.000000 -0.004358 0.000000
# 3 -0.002026 -0.000133 0.009852 0.000000 -0.007067 0.000000
# 4 0.000000 0.000000 0.000000 0.050708 0.000000 0.001965
# 5 0.000084 -0.004358 -0.007067 0.000000 0.025838 0.000000
# 6 0.000000 0.000000 0.000000 0.001965 0.000000 0.019509
#
#
# Mechanical properties :
#
#
# Convention : Reuss Voigt Hill
#
# Bulk Modulus (GPa) = 34.77478 60.01973 47.39726
# Shear Modulus (GPa) = 32.38897 42.99163 37.69030
#
# Velocity S-wave (km/s) = 3.49175 4.02288 3.76669
# Velocity P-wave (km/s) = 5.41728 6.64617 6.06294
#
# Compressibility (1/GPa) = 0.02875647
#
# Stress axis : x y z
#
# Youngs Moduli (GPa) = 146.87195 45.28119 101.50186
#
# Poissons Ratio (x) = 0.12839 0.20565
# Poissons Ratio (y) = 0.41643 0.01348
# Poissons Ratio (z) = 0.29757 0.00601
#
# Static dielectric constant tensor:
#      x y z
#    x 2.089000 0.000000 -0.054130 
#    y 0.000000 2.149930 0.000000 
#    z -0.054130 0.000000 2.182390 
# 
# From -- ./inp_files/37285.got.cif
#   From: 2010.05.17/outbox.cif.g08.bks.cpg/sg9_19_cif.got.tgz:37285.got - 2010.06.03 20:04:27.
