data_PCOD9138688
_publ_section_title
;
Structure prediction by ZEFSAII (Michael W. Deem and Ramdas Pophale) SiO2 
 PCOD9138688
Probable space group: C C
;
_chemical_formula_sum "Si O2"
_cell_formula_units_Z 16
_cell_length_a 21.776127
_cell_length_b 6.989949
_cell_length_c 5.764055
_cell_angle_alpha 90.000000
_cell_angle_beta 142.569379
_cell_angle_gamma 90.000000
_cell_volume 533.265744
_symmetry_space_group_name_H-M "C C"
_symmetry_group_IT_number 9
_symmetry_cell_setting 'monoclinic'
loop_
_space_group_symop_operation_xyz
x,y,z
x,-y,1/2+z
1/2+x,1/2+y,z
1/2+x,1/2-y,1/2+z
loop_
_atom_site_type_symbol
_atom_site_label
_atom_site_fract_x
_atom_site_fract_y
_atom_site_fract_z
Si Si1 0.581970 0.777407 0.931270
Si Si2 0.269872 0.001245 0.994976
Si Si3 0.508001 0.771955 0.209363
Si Si4 0.781031 0.103542 0.528454
O O1 0.534929 0.707577 0.550956
O O2 0.554273 0.006465 0.848179
O O3 0.692862 0.676072 0.263945
O O4 0.534930 0.707576 0.029342
O O5 0.324643 0.000000 0.909287
O O6 0.212372 0.204612 0.822478
O O7 0.390796 0.699985 0.857749
O O8 0.767251 0.000000 0.237112
#
# Coordination Sequence:
#
# PCOD9138688 Si02
#       4
#     4   4   4   4
#     4  10  23  46  77 120 150 211 269 334 404 465
#     4  12  28  50  80 115 164 215 268 337 403 483
#     4  10  23  45  83 114 158 203 277 336 395 481
#     4  12  28  51  80 123 166 213 266 335 416 487
#
# _framework density 30.003806999999998
#
# number of rings (size 3 to 8) (size 9 to 14) (size 15 to 20)
#    0.000    1.000    0.000    4.500    7.000    6.000 
#   27.000    0.000    0.000    0.000    0.000    0.000 
#    0.000    0.000    0.000    0.000    0.000    0.000 
#
# Total GULP energy -44625.929762 kJ/mol
# GULP energy per Si atom -5578.241220 kJ/mol
# Density = 2.993552 g / cm^3
# Si number density = 30.003807 Si / 1000 Ang^3
#
#
#
# Elastic Constant Matrix: (Units=GPa)
#
#
# Indices 1 2 3 4 5 6 
#
# 1 209.5498 62.0915 110.5700 0.0000 -95.4798 0.0000
# 2 62.0915 253.0555 54.3678 0.0000 -30.8197 0.0000
# 3 110.5700 54.3678 165.0392 0.0000 -82.1046 0.0000
# 4 0.0000 0.0000 0.0000 39.6865 0.0000 0.3763
# 5 -95.4798 -30.8197 -82.1046 0.0000 90.8869 0.0000
# 6 0.0000 0.0000 0.0000 0.3763 0.0000 39.5922
#
#
#
# Elastic Compliance Matrix: (Units=1/GPa)
#
#
# Indices 1 2 3 4 5 6 
#
# 1 0.009944 -0.000958 -0.002382 0.000000 0.007971 0.000000
# 2 -0.000958 0.004350 -0.001014 0.000000 -0.000447 0.000000
# 3 -0.002382 -0.001014 0.011938 0.000000 0.007939 0.000000
# 4 0.000000 0.000000 0.000000 0.025200 0.000000 -0.000239
# 5 0.007971 -0.000447 0.007939 0.000000 0.026397 0.000000
# 6 0.000000 0.000000 0.000000 -0.000239 0.000000 0.025260
#
#
# Mechanical properties :
#
#
# Convention : Reuss Voigt Hill
#
# Bulk Modulus (GPa) = 57.05491 120.18922 88.62207
# Shear Modulus (GPa) = 42.50384 60.74078 51.62231
#
# Velocity S-wave (km/s) = 3.76788 4.50425 4.15242
# Velocity P-wave (km/s) = 6.16331 8.19732 7.25198
#
# Compressibility (1/GPa) = 0.01752698
#
# Stress axis : x y z
#
# Youngs Moduli (GPa) = 100.56010 229.88254 83.76521
#
# Poissons Ratio (x) = 0.22013 0.19949
# Poissons Ratio (y) = 0.09630 0.08491
# Poissons Ratio (z) = 0.23949 0.23301
#
# Static dielectric constant tensor:
#      x y z
#    x 2.312780 0.000000 0.177450 
#    y 0.000000 2.540640 0.000000 
#    z 0.177450 0.000000 2.357260 
# 
# From -- ./inp_files/3116.got.cif
#   From: 2010.05.17/outbox.cif.g08.bks.cpg/sg9_2_cif.got.tgz:3116.got - 2010.06.03 20:04:27.
