data_PCOD9138093
_publ_section_title
;
Structure prediction by ZEFSAII (Michael W. Deem and Ramdas Pophale) SiO2 
 PCOD9138093
Probable space group: C C
;
_chemical_formula_sum "Si O2"
_cell_formula_units_Z 28
_cell_length_a 5.793893
_cell_length_b 21.459542
_cell_length_c 10.150935
_cell_angle_alpha 90.000000
_cell_angle_beta 117.613909
_cell_angle_gamma 90.000000
_cell_volume 1118.343796
_symmetry_space_group_name_H-M "C C"
_symmetry_group_IT_number 9
_symmetry_cell_setting 'monoclinic'
loop_
_space_group_symop_operation_xyz
x,y,z
x,-y,1/2+z
1/2+x,1/2+y,z
1/2+x,1/2-y,1/2+z
loop_
_atom_site_type_symbol
_atom_site_label
_atom_site_fract_x
_atom_site_fract_y
_atom_site_fract_z
Si Si1 0.858050 0.615892 0.346770
Si Si2 0.112267 0.716648 0.790061
Si Si3 0.322970 0.567269 0.106779
Si Si4 0.193311 0.302332 0.589461
Si Si5 0.118886 0.497330 0.298674
Si Si6 0.782787 0.197527 0.539852
Si Si7 0.736911 0.606216 0.624481
O O1 0.598593 0.601927 0.196041
O O2 0.781193 0.608439 0.479482
O O3 0.045782 0.561076 0.349892
O O4 0.021079 0.680322 0.388965
O O5 0.287941 0.709832 0.964379
O O6 0.236690 0.709325 0.681116
O O7 0.924457 0.776983 0.742792
O O8 0.919121 0.657383 0.742482
O O9 0.268849 0.514583 0.203143
O O10 0.130370 0.625340 0.088823
O O11 0.280672 0.541785 0.949068
O O12 0.948532 0.256377 0.536199
O O13 0.849851 0.459947 0.199602
O O14 0.954191 0.134064 0.577088
#
# Coordination Sequence:
#
# PCOD9138093 Si02
#       7
#     4   4   4   4   4   4   4
#     4  11  26  45  77 110 150 207 260 322 389 470
#     4  10  24  44  72 107 151 199 256 319 385 464
#     4  12  29  50  78 116 159 203 274 318 398 469
#     4  11  26  49  75 115 154 198 267 321 390 478
#     4  12  26  49  76 113 154 212 255 330 385 473
#     4  10  25  49  79 105 155 209 253 329 399 450
#     4  10  22  48  71 106 153 202 259 315 386 462
#
# _framework density 25.037023000000001
#
# number of rings (size 3 to 8) (size 9 to 14) (size 15 to 20)
#    0.000    1.143    2.857    0.857   12.000    3.429 
#    2.571    0.000    0.000    0.000    0.000    0.000 
#    0.000    0.000    0.000    0.000    0.000    0.000 
#
# Total GULP energy -78363.117798 kJ/mol
# GULP energy per Si atom -5597.365557 kJ/mol
# Density = 2.498004 g / cm^3
# Si number density = 25.037023 Si / 1000 Ang^3
#
#
#
# Elastic Constant Matrix: (Units=GPa)
#
#
# Indices 1 2 3 4 5 6 
#
# 1 76.0340 28.7351 34.1328 0.0000 2.6321 0.0000
# 2 28.7351 135.8409 44.7831 0.0000 0.7725 0.0000
# 3 34.1328 44.7831 142.1203 0.0000 7.9137 0.0000
# 4 0.0000 0.0000 0.0000 51.3357 0.0000 0.2600
# 5 2.6321 0.7725 7.9137 0.0000 24.1789 0.0000
# 6 0.0000 0.0000 0.0000 0.2600 0.0000 30.8277
#
#
#
# Elastic Compliance Matrix: (Units=1/GPa)
#
#
# Indices 1 2 3 4 5 6 
#
# 1 0.015352 -0.002276 -0.002934 0.000000 -0.000638 0.000000
# 2 -0.002276 0.008561 -0.002189 0.000000 0.000691 0.000000
# 3 -0.002934 -0.002189 0.008565 0.000000 -0.002414 0.000000
# 4 0.000000 0.000000 0.000000 0.019480 0.000000 -0.000164
# 5 -0.000638 0.000691 -0.002414 0.000000 0.042196 0.000000
# 6 0.000000 0.000000 0.000000 -0.000164 0.000000 0.032440
#
#
# Mechanical properties :
#
#
# Convention : Reuss Voigt Hill
#
# Bulk Modulus (GPa) = 56.56760 63.25524 59.91142
# Shear Modulus (GPa) = 33.94748 37.69141 35.81944
#
# Velocity S-wave (km/s) = 3.68624 3.88419 3.78651
# Velocity P-wave (km/s) = 6.38439 6.74058 6.56490
#
# Compressibility (1/GPa) = 0.01767796
#
# Stress axis : x y z
#
# Youngs Moduli (GPa) = 65.13983 116.80953 116.75054
#
# Poissons Ratio (x) = 0.26591 0.34256
# Poissons Ratio (y) = 0.14829 0.25561
# Poissons Ratio (z) = 0.19113 0.25574
#
# Static dielectric constant tensor:
#      x y z
#    x 2.025720 0.000000 0.050610 
#    y 0.000000 2.010480 0.000000 
#    z 0.050610 0.000000 1.927340 
# 
# From -- ./inp_files/4002.got.cif
#   From: 2010.05.17/outbox.cif.g08.bks.cpg/sg9_3_cif.got.tgz:4002.got - 2010.06.03 20:04:27.
