data_PCOD9138619
_publ_section_title
;
Structure prediction by ZEFSAII (Michael W. Deem and Ramdas Pophale) SiO2 
 PCOD9138619
Probable space group: C C
;
_chemical_formula_sum "Si O2"
_cell_formula_units_Z 28
_cell_length_a 10.631680
_cell_length_b 10.202952
_cell_length_c 10.580624
_cell_angle_alpha 90.000000
_cell_angle_beta 93.175499
_cell_angle_gamma 90.000000
_cell_volume 1145.965831
_symmetry_space_group_name_H-M "C C"
_symmetry_group_IT_number 9
_symmetry_cell_setting 'monoclinic'
loop_
_space_group_symop_operation_xyz
x,y,z
x,-y,1/2+z
1/2+x,1/2+y,z
1/2+x,1/2-y,1/2+z
loop_
_atom_site_type_symbol
_atom_site_label
_atom_site_fract_x
_atom_site_fract_y
_atom_site_fract_z
Si Si1 0.197560 0.624755 0.109320
Si Si2 0.168646 0.118102 0.229347
Si Si3 0.902699 0.569691 0.741095
Si Si4 0.092763 0.658428 0.346418
Si Si5 0.455626 0.282173 0.543085
Si Si6 0.506801 0.265230 0.940623
Si Si7 0.285976 0.359176 0.089362
O O1 0.167532 0.709217 0.230253
O O2 0.314849 0.669952 0.035037
O O3 0.246660 0.486773 0.164835
O O4 0.076939 0.647928 0.017296
O O5 0.251589 0.236017 0.173666
O O6 0.047699 0.124317 0.128934
O O7 0.107683 0.152864 0.362695
O O8 0.265528 0.997469 0.231937
O O9 0.947302 0.639410 0.612908
O O10 0.914957 0.689665 0.839593
O O11 0.003678 0.458991 0.790361
O O12 0.190950 0.627558 0.463873
O O13 0.005205 0.766072 0.405635
O O14 0.423296 0.345457 0.035784
#
# Coordination Sequence:
#
# PCOD9138619 Si02
#       7
#     4   4   4   4   4   4   4
#     4  12  24  45  67 100 148 181 233 297 352 420
#     4  10  23  45  68 101 137 177 239 291 347 421
#     4  11  22  43  73  97 138 187 234 291 355 420
#     4  11  21  42  68  95 135 186 226 287 349 412
#     4  10  25  43  67 105 137 184 242 288 353 422
#     4  11  24  45  70 104 140 184 233 290 357 423
#     4  11  25  43  71 102 137 185 237 288 353 422
#
# _framework density 24.433537999999999
#
# number of rings (size 3 to 8) (size 9 to 14) (size 15 to 20)
#    0.000    1.143    1.429    6.000    2.000    1.143 
#    7.714    1.429    0.000    0.000    0.000    0.000 
#    0.000    0.000    0.000    0.000    0.000    0.000 
#
# Total GULP energy -78260.049135 kJ/mol
# GULP energy per Si atom -5590.003510 kJ/mol
# Density = 2.437793 g / cm^3
# Si number density = 24.433538 Si / 1000 Ang^3
#
#
#
# Elastic Constant Matrix: (Units=GPa)
#
#
# Indices 1 2 3 4 5 6 
#
# 1 147.9224 55.1011 42.6152 0.0000 -22.4053 0.0000
# 2 55.1011 81.4584 16.2322 0.0000 -4.9759 0.0000
# 3 42.6152 16.2322 59.7445 0.0000 -30.4991 0.0000
# 4 0.0000 0.0000 0.0000 18.5206 0.0000 -1.9545
# 5 -22.4053 -4.9759 -30.4991 0.0000 39.7633 0.0000
# 6 0.0000 0.0000 0.0000 -1.9545 0.0000 38.2587
#
#
#
# Elastic Compliance Matrix: (Units=1/GPa)
#
#
# Indices 1 2 3 4 5 6 
#
# 1 0.010790 -0.006144 -0.005450 0.000000 0.001131 0.000000
# 2 -0.006144 0.016554 -0.001356 0.000000 -0.002430 0.000000
# 3 -0.005450 -0.001356 0.031785 0.000000 0.021139 0.000000
# 4 0.000000 0.000000 0.000000 0.054287 0.000000 0.002773
# 5 0.001131 -0.002430 0.021139 0.000000 0.041696 0.000000
# 6 0.000000 0.000000 0.000000 0.002773 0.000000 0.026280
#
#
# Mechanical properties :
#
#
# Convention : Reuss Voigt Hill
#
# Bulk Modulus (GPa) = 30.09357 57.44693 43.77025
# Shear Modulus (GPa) = 22.89716 30.98695 26.94206
#
# Velocity S-wave (km/s) = 3.06456 3.56506 3.32425
# Velocity P-wave (km/s) = 4.98651 6.36465 5.71726
#
# Compressibility (1/GPa) = 0.03322970
#
# Stress axis : x y z
#
# Youngs Moduli (GPa) = 92.67606 60.40912 31.46113
#
# Poissons Ratio (x) = 0.37114 0.17147
# Poissons Ratio (y) = 0.56938 0.04266
# Poissons Ratio (z) = 0.50509 0.08191
#
# Static dielectric constant tensor:
#      x y z
#    x 1.935090 0.000000 -0.007150 
#    y 0.000000 2.006930 0.000000 
#    z -0.007150 0.000000 1.968240 
# 
# From -- ./inp_files/14228.got.cif
#   From: 2010.05.17/outbox.cif.g08.bks.cpg/sg9_8_cif.got.tgz:14228.got - 2010.06.03 20:04:27.
