data_PCOD9138964
_publ_section_title
;
Structure prediction by ZEFSAII (Michael W. Deem and Ramdas Pophale) SiO2 
 PCOD9138964
Probable space group: C C
;
_chemical_formula_sum "Si O2"
_cell_formula_units_Z 20
_cell_length_a 21.957796
_cell_length_b 4.662114
_cell_length_c 9.488165
_cell_angle_alpha 90.000000
_cell_angle_beta 54.281912
_cell_angle_gamma 90.000000
_cell_volume 788.598618
_symmetry_space_group_name_H-M "C C"
_symmetry_group_IT_number 9
_symmetry_cell_setting 'monoclinic'
loop_
_space_group_symop_operation_xyz
x,y,z
x,-y,1/2+z
1/2+x,1/2+y,z
1/2+x,1/2-y,1/2+z
loop_
_atom_site_type_symbol
_atom_site_label
_atom_site_fract_x
_atom_site_fract_y
_atom_site_fract_z
Si Si1 0.915780 0.191775 0.877530
Si Si2 0.134724 0.817502 0.667602
Si Si3 0.193040 0.728550 0.930881
Si Si4 0.751356 0.317505 0.194160
Si Si5 0.970299 0.691775 0.984232
O O1 0.958886 0.371628 0.941086
O O2 0.943040 0.250000 0.680881
O O3 0.927193 0.871628 0.920676
O O4 0.828514 0.267086 0.011395
O O5 0.126627 0.032835 0.543862
O O6 0.057565 0.767085 0.850366
O O7 0.218110 0.486968 0.784567
O O8 0.193040 0.999996 0.680882
O O9 0.259453 0.967161 0.817899
O O10 0.167969 0.486973 0.077196
#
# Coordination Sequence:
#
# PCOD9138964 Si02
#       5
#     4   4   4   4   4
#     4  12  29  51  81 114 161 206 261 324 399 466
#     4  11  25  45  78 107 150 203 262 321 382 466
#     4  10  24  42  72 106 148 184 264 306 394 424
#     4  11  25  45  78 107 150 203 262 321 382 466
#     4  12  29  51  81 114 161 206 261 324 399 466
#
# _framework density 25.361443000000001
#
# number of rings (size 3 to 8) (size 9 to 14) (size 15 to 20)
#    0.000    0.800    0.000    4.800   16.800    0.000 
#    0.000    0.000    0.000    0.000    0.000    0.000 
#    0.000    0.000    0.000    0.000    0.000    0.000 
#
# Total GULP energy -55735.592633 kJ/mol
# GULP energy per Si atom -5573.559263 kJ/mol
# Density = 2.530372 g / cm^3
# Si number density = 25.361443 Si / 1000 Ang^3
#
#
#
# Elastic Constant Matrix: (Units=GPa)
#
#
# Indices 1 2 3 4 5 6 
#
# 1 61.1082 -11.3442 46.1986 0.0000 -11.0178 0.0000
# 2 -11.3442 175.5460 37.8243 0.0000 0.4036 0.0000
# 3 46.1986 37.8243 259.5112 0.0000 -11.5923 0.0000
# 4 0.0000 0.0000 0.0000 52.1137 0.0000 -8.1636
# 5 -11.0178 0.4036 -11.5923 0.0000 44.4743 0.0000
# 6 0.0000 0.0000 0.0000 -8.1636 0.0000 26.4538
#
#
#
# Elastic Compliance Matrix: (Units=1/GPa)
#
#
# Indices 1 2 3 4 5 6 
#
# 1 0.020314 0.002110 -0.003744 0.000000 0.004038 0.000000
# 2 0.002110 0.006104 -0.001259 0.000000 0.000139 0.000000
# 3 -0.003744 -0.001259 0.004717 0.000000 0.000314 0.000000
# 4 0.000000 0.000000 0.000000 0.020164 0.000000 0.006222
# 5 0.004038 0.000139 0.000314 0.000000 0.023566 0.000000
# 6 0.000000 0.000000 0.000000 0.006222 0.000000 0.039722
#
#
# Mechanical properties :
#
#
# Convention : Reuss Voigt Hill
#
# Bulk Modulus (GPa) = 39.44709 71.28031 55.36370
# Shear Modulus (GPa) = 38.81324 52.84080 45.82702
#
# Velocity S-wave (km/s) = 3.91628 4.56950 4.25544
# Velocity P-wave (km/s) = 6.00312 7.48380 6.78397
#
# Compressibility (1/GPa) = 0.02535042
#
# Stress axis : x y z
#
# Youngs Moduli (GPa) = 49.22631 163.83131 211.98309
#
# Poissons Ratio (x) = -0.34570 0.79358
# Poissons Ratio (y) = -0.10387 0.26690
# Poissons Ratio (z) = 0.18428 0.20628
#
# Static dielectric constant tensor:
#      x y z
#    x 2.527620 0.000000 0.576760 
#    y 0.000000 1.978140 0.000000 
#    z 0.576760 0.000000 2.609440 
# 
# From -- ./inp_files/10215.got.cif
#   From: 2010.05.17/outbox.cif.g08.bks.cpg/sg9_6_cif.got.tgz:10215.got - 2010.06.03 20:04:27.
