data_PCOD9138362
_publ_section_title
;
Structure prediction by ZEFSAII (Michael W. Deem and Ramdas Pophale) SiO2 
 PCOD9138362
Probable space group: C C
;
_chemical_formula_sum "Si O2"
_cell_formula_units_Z 28
_cell_length_a 8.947856
_cell_length_b 10.856033
_cell_length_c 13.616984
_cell_angle_alpha 90.000000
_cell_angle_beta 113.985677
_cell_angle_gamma 90.000000
_cell_volume 1208.508061
_symmetry_space_group_name_H-M "C C"
_symmetry_group_IT_number 9
_symmetry_cell_setting 'monoclinic'
loop_
_space_group_symop_operation_xyz
x,y,z
x,-y,1/2+z
1/2+x,1/2+y,z
1/2+x,1/2-y,1/2+z
loop_
_atom_site_type_symbol
_atom_site_label
_atom_site_fract_x
_atom_site_fract_y
_atom_site_fract_z
Si Si1 0.461210 0.315139 0.538310
Si Si2 0.134490 0.589410 0.214700
Si Si3 0.479167 0.638120 0.368322
Si Si4 0.540918 0.536677 0.703816
Si Si5 0.719164 0.310481 0.106594
Si Si6 0.309852 0.772655 0.653507
Si Si7 0.682199 0.175888 0.806702
O O1 0.485345 0.431295 0.614767
O O2 0.379656 0.206090 0.582154
O O3 0.642385 0.282079 0.547680
O O4 0.330533 0.347096 0.420704
O O5 0.283129 0.634555 0.325663
O O6 0.179949 0.669522 0.130224
O O7 0.146521 0.444352 0.233362
O O8 0.946770 0.624639 0.179029
O O9 0.536125 0.526429 0.310584
O O10 0.578616 0.640298 0.495502
O O11 0.534701 0.763146 0.327249
O O12 0.700179 0.602635 0.697582
O O13 0.408021 0.646130 0.666776
O O14 0.246298 0.777117 0.747830
#
# Coordination Sequence:
#
# PCOD9138362 Si02
#       7
#     4   4   4   4   4   4   4
#     4  11  23  43  67 101 135 187 232 297 351 417
#     4  11  23  44  69  99 143 189 228 300 350 422
#     4  11  22  44  71 102 138 188 236 293 361 414
#     4  11  22  42  68  95 145 180 228 302 346 417
#     4  10  23  42  75  97 140 188 235 290 361 421
#     4  11  24  40  68 101 136 183 235 284 358 429
#     4  11  23  43  70  97 139 181 242 292 353 424
#
# _framework density 23.169063000000001
#
# number of rings (size 3 to 8) (size 9 to 14) (size 15 to 20)
#    0.000    1.143    4.286    0.857    0.000    6.857 
#    0.000    0.000   18.857    0.000    0.000    0.000 
#    0.000    0.000    0.000    0.000    0.000    0.000 
#
# Total GULP energy -78134.901325 kJ/mol
# GULP energy per Si atom -5581.064380 kJ/mol
# Density = 2.311633 g / cm^3
# Si number density = 23.169063 Si / 1000 Ang^3
#
#
#
# Elastic Constant Matrix: (Units=GPa)
#
#
# Indices 1 2 3 4 5 6 
#
# 1 134.2681 46.0733 29.0131 0.0000 36.6489 0.0000
# 2 46.0733 78.1646 45.4548 0.0000 1.5650 0.0000
# 3 29.0131 45.4548 88.1274 0.0000 9.0730 0.0000
# 4 0.0000 0.0000 0.0000 22.6162 0.0000 -3.9223
# 5 36.6489 1.5650 9.0730 0.0000 29.5025 0.0000
# 6 0.0000 0.0000 0.0000 -3.9223 0.0000 40.6551
#
#
#
# Elastic Compliance Matrix: (Units=1/GPa)
#
#
# Indices 1 2 3 4 5 6 
#
# 1 0.015921 -0.010182 0.002056 0.000000 -0.019870 0.000000
# 2 -0.010182 0.024901 -0.011006 0.000000 0.014713 0.000000
# 3 0.002056 -0.011006 0.017091 0.000000 -0.007226 0.000000
# 4 0.000000 0.000000 0.000000 0.044968 0.000000 0.004338
# 5 -0.019870 0.014713 -0.007226 0.000000 0.060020 0.000000
# 6 0.000000 0.000000 0.000000 0.004338 0.000000 0.025016
#
#
# Mechanical properties :
#
#
# Convention : Reuss Voigt Hill
#
# Bulk Modulus (GPa) = 50.89456 60.18249 55.53853
# Shear Modulus (GPa) = 21.48395 30.55601 26.01998
#
# Velocity S-wave (km/s) = 3.04841 3.63551 3.35483
# Velocity P-wave (km/s) = 5.86555 6.60714 6.24736
#
# Compressibility (1/GPa) = 0.01964847
#
# Stress axis : x y z
#
# Youngs Moduli (GPa) = 62.81015 40.15875 58.50989
#
# Poissons Ratio (x) = 0.40891 -0.12030
# Poissons Ratio (y) = 0.63955 0.64397
# Poissons Ratio (z) = -0.12914 0.44199
#
# Static dielectric constant tensor:
#      x y z
#    x 1.980860 0.000000 0.034440 
#    y 0.000000 1.909830 0.000000 
#    z 0.034440 0.000000 1.906060 
# 
# From -- ./inp_files/22824.got.cif
#   From: 2010.05.17/outbox.cif.g08.bks.cpg/sg9_12_cif.got.tgz:22824.got - 2010.06.03 20:04:27.
