data_PCOD9138587
_publ_section_title
;
Structure prediction by ZEFSAII (Michael W. Deem and Ramdas Pophale) SiO2 
 PCOD9138587
Probable space group: C C
;
_chemical_formula_sum "Si O2"
_cell_formula_units_Z 24
_cell_length_a 15.329154
_cell_length_b 9.091955
_cell_length_c 9.586495
_cell_angle_alpha 90.000000
_cell_angle_beta 36.578508
_cell_angle_gamma 90.000000
_cell_volume 796.206954
_symmetry_space_group_name_H-M "C C"
_symmetry_group_IT_number 9
_symmetry_cell_setting 'monoclinic'
loop_
_space_group_symop_operation_xyz
x,y,z
x,-y,1/2+z
1/2+x,1/2+y,z
1/2+x,1/2-y,1/2+z
loop_
_atom_site_type_symbol
_atom_site_label
_atom_site_fract_x
_atom_site_fract_y
_atom_site_fract_z
Si Si1 0.471140 0.147267 0.962450
Si Si2 0.354426 0.341223 0.350884
Si Si3 0.763138 0.914967 0.819548
Si Si4 0.945851 0.620590 0.674358
Si Si5 0.019667 0.964411 0.813883
Si Si6 0.716540 0.651733 0.758677
O O1 0.560278 0.295136 0.792224
O O2 0.368361 0.233511 0.203727
O O3 0.295957 0.934684 0.276933
O O4 0.424483 0.088996 0.868790
O O5 0.228681 0.461448 0.477605
O O6 0.537354 0.020481 0.976789
O O7 0.495296 0.446738 0.199699
O O8 0.875759 0.793481 0.741763
O O9 0.633261 0.799693 0.934015
O O10 0.857282 0.005531 0.586974
O O11 0.830365 0.258526 0.016770
O O12 0.122389 0.063915 0.774329
#
# Coordination Sequence:
#
# PCOD9138587 Si02
#       6
#     4   4   4   4   4   4
#     4  11  27  51  79 115 161 208 269 321 406 465
#     4  10  23  47  80 114 160 212 259 322 405 473
#     4  10  23  44  78 111 156 209 255 317 393 473
#     4  12  27  49  79 115 156 211 267 331 387 476
#     4  10  24  47  80 115 160 205 259 328 396 481
#     4  11  24  48  82 116 157 205 271 329 395 468
#
# _framework density 30.142916
#
# number of rings (size 3 to 8) (size 9 to 14) (size 15 to 20)
#    0.000    1.333    0.000    4.000    7.000    4.000 
#   15.000    0.000    0.000    0.000    0.000    0.000 
#    0.000    0.000    0.000    0.000    0.000    0.000 
#
# Total GULP energy -66815.165471 kJ/mol
# GULP energy per Si atom -5567.930456 kJ/mol
# Density = 3.007431 g / cm^3
# Si number density = 30.142916 Si / 1000 Ang^3
#
#
#
# Elastic Constant Matrix: (Units=GPa)
#
#
# Indices 1 2 3 4 5 6 
#
# 1 201.7471 68.0628 55.2255 0.0000 25.4413 0.0000
# 2 68.0628 217.3900 36.1715 0.0000 11.4262 0.0000
# 3 55.2255 36.1715 107.3622 0.0000 15.0425 0.0000
# 4 0.0000 0.0000 0.0000 20.5569 0.0000 2.3336
# 5 25.4413 11.4262 15.0425 0.0000 82.0834 0.0000
# 6 0.0000 0.0000 0.0000 2.3336 0.0000 66.1121
#
#
#
# Elastic Compliance Matrix: (Units=1/GPa)
#
#
# Indices 1 2 3 4 5 6 
#
# 1 0.006323 -0.001484 -0.002573 0.000000 -0.001282 0.000000
# 2 -0.001484 0.005234 -0.000988 0.000000 -0.000088 0.000000
# 3 -0.002573 -0.000988 0.011125 0.000000 -0.001104 0.000000
# 4 0.000000 0.000000 0.000000 0.048841 0.000000 -0.001724
# 5 -0.001282 -0.000088 -0.001104 0.000000 0.012794 0.000000
# 6 0.000000 0.000000 0.000000 -0.001724 0.000000 0.015187
#
#
# Mechanical properties :
#
#
# Convention : Reuss Voigt Hill
#
# Bulk Modulus (GPa) = 79.41187 93.93541 86.67364
# Shear Modulus (GPa) = 43.93992 58.21978 51.07985
#
# Velocity S-wave (km/s) = 3.82215 4.39960 4.12100
# Velocity P-wave (km/s) = 6.77353 7.55246 7.17358
#
# Compressibility (1/GPa) = 0.01259258
#
# Stress axis : x y z
#
# Youngs Moduli (GPa) = 158.14231 191.07072 89.88653
#
# Poissons Ratio (x) = 0.28361 0.23128
# Poissons Ratio (y) = 0.23473 0.08876
# Poissons Ratio (z) = 0.40690 0.18868
#
# Static dielectric constant tensor:
#      x y z
#    x 2.598270 0.000000 -0.106470 
#    y 0.000000 2.467230 0.000000 
#    z -0.106470 0.000000 2.798180 
# 
# From -- ./inp_files/20064.got.cif
#   From: 2010.05.17/outbox.cif.g08.bks.cpg/sg9_11_cif.got.tgz:20064.got - 2010.06.03 20:04:27.
