data_PCOD9138124
_publ_section_title
;
Structure prediction by ZEFSAII (Michael W. Deem and Ramdas Pophale) SiO2 
 PCOD9138124
Probable space group: C C
;
_chemical_formula_sum "Si O2"
_cell_formula_units_Z 24
_cell_length_a 9.896235
_cell_length_b 23.749623
_cell_length_c 4.874433
_cell_angle_alpha 90.000000
_cell_angle_beta 109.982015
_cell_angle_gamma 90.000000
_cell_volume 1076.678982
_symmetry_space_group_name_H-M "C C"
_symmetry_group_IT_number 9
_symmetry_cell_setting 'monoclinic'
loop_
_space_group_symop_operation_xyz
x,y,z
x,-y,1/2+z
1/2+x,1/2+y,z
1/2+x,1/2-y,1/2+z
loop_
_atom_site_type_symbol
_atom_site_label
_atom_site_fract_x
_atom_site_fract_y
_atom_site_fract_z
Si Si1 0.510650 0.646177 0.227630
Si Si2 0.945154 0.536006 0.903279
Si Si3 0.797930 0.372275 0.676100
Si Si4 0.212576 0.609265 0.180774
Si Si5 0.092509 0.666769 0.597486
Si Si6 0.588199 0.712914 0.806230
O O1 0.657068 0.612812 0.257647
O O2 0.545114 0.696047 0.469527
O O3 0.380594 0.607880 0.235263
O O4 0.476609 0.678301 0.920920
O O5 0.919604 0.519139 0.572934
O O6 0.110142 0.556888 0.040976
O O7 0.849803 0.583425 0.985272
O O8 0.740788 0.317089 0.474187
O O9 0.929209 0.354556 0.958980
O O10 0.148857 0.660065 0.944802
O O11 0.184359 0.624030 0.475509
O O12 0.097501 0.725853 0.443336
#
# Coordination Sequence:
#
# PCOD9138124 Si02
#       6
#     4   4   4   4   4   4
#     4  10  23  38  62  88 137 160 209 263 321 373
#     4  11  24  44  71  93 122 171 226 281 334 379
#     4   9  25  40  65  94 131 165 225 266 314 392
#     4  11  24  42  63  95 130 170 215 275 320 388
#     4  11  23  38  64  91 134 177 216 252 317 390
#     4  10  23  36  63  93 134 169 211 251 324 382
#
# _framework density 22.290766000000001
#
# number of rings (size 3 to 8) (size 9 to 14) (size 15 to 20)
#    1.000    0.667    0.000    4.000   11.667    0.000 
#    0.000    1.667    0.000    0.000    0.000    0.000 
#    0.000    0.000    0.000    0.000    0.000    0.000 
#
# Total GULP energy -66962.006819 kJ/mol
# GULP energy per Si atom -5580.167235 kJ/mol
# Density = 2.224003 g / cm^3
# Si number density = 22.290766 Si / 1000 Ang^3
#
#
#
# Elastic Constant Matrix: (Units=GPa)
#
#
# Indices 1 2 3 4 5 6 
#
# 1 144.7937 31.0039 22.1005 0.0000 12.0274 0.0000
# 2 31.0039 67.5255 0.8012 0.0000 2.3513 0.0000
# 3 22.1005 0.8012 79.7354 0.0000 -13.6939 0.0000
# 4 0.0000 0.0000 0.0000 21.9859 0.0000 -18.2114
# 5 12.0274 2.3513 -13.6939 0.0000 36.8184 0.0000
# 6 0.0000 0.0000 0.0000 -18.2114 0.0000 17.4583
#
#
#
# Elastic Compliance Matrix: (Units=1/GPa)
#
#
# Indices 1 2 3 4 5 6 
#
# 1 0.008449 -0.003719 -0.002924 0.000000 -0.003610 0.000000
# 2 -0.003719 0.016487 0.000954 0.000000 0.000517 0.000000
# 3 -0.002924 0.000954 0.014417 0.000000 0.006257 0.000000
# 4 0.000000 0.000000 0.000000 0.334568 0.000000 0.349000
# 5 -0.003610 0.000517 0.006257 0.000000 0.030634 0.000000
# 6 0.000000 0.000000 0.000000 0.349000 0.000000 0.421334
#
#
# Mechanical properties :
#
#
# Convention : Reuss Voigt Hill
#
# Bulk Modulus (GPa) = 35.74709 44.42954 40.08831
# Shear Modulus (GPa) = 5.90602 31.12913 18.51758
#
# Velocity S-wave (km/s) = 1.62951 3.74104 2.88536
# Velocity P-wave (km/s) = 4.42854 6.21575 5.39664
#
# Compressibility (1/GPa) = 0.02797431
#
# Stress axis : x y z
#
# Youngs Moduli (GPa) = 118.35807 60.65236 69.36263
#
# Poissons Ratio (x) = 0.22556 0.20285
# Poissons Ratio (y) = 0.44016 -0.06616
# Poissons Ratio (z) = 0.34613 -0.05785
#
# Static dielectric constant tensor:
#      x y z
#    x 1.823580 0.000000 -0.000630 
#    y 0.000000 1.843190 0.000000 
#    z -0.000630 0.000000 1.799580 
# 
# From -- ./inp_files/1003.got.cif
#   From: 2010.05.17/outbox.cif.g08.bks.cpg/sg9_1_cif.got.tgz:1003.got - 2010.06.03 20:04:27.
