data_PCOD9138652
_publ_section_title
;
Structure prediction by ZEFSAII (Michael W. Deem and Ramdas Pophale) SiO2 
 PCOD9138652
Probable space group: C C
;
_chemical_formula_sum "Si O2"
_cell_formula_units_Z 32
_cell_length_a 11.444617
_cell_length_b 8.757143
_cell_length_c 13.792583
_cell_angle_alpha 90.000000
_cell_angle_beta 112.140964
_cell_angle_gamma 90.000000
_cell_volume 1280.389029
_symmetry_space_group_name_H-M "C C"
_symmetry_group_IT_number 9
_symmetry_cell_setting 'monoclinic'
loop_
_space_group_symop_operation_xyz
x,y,z
x,-y,1/2+z
1/2+x,1/2+y,z
1/2+x,1/2-y,1/2+z
loop_
_atom_site_type_symbol
_atom_site_label
_atom_site_fract_x
_atom_site_fract_y
_atom_site_fract_z
Si Si1 0.113000 0.462935 0.783020
Si Si2 0.859801 0.077604 0.645810
Si Si3 0.987287 0.236287 0.165690
Si Si4 0.317018 0.086306 0.483580
Si Si5 0.056420 0.772004 0.091522
Si Si6 0.853003 0.159759 0.850469
Si Si7 0.584971 0.010409 0.986842
Si Si8 0.616439 0.417951 0.538451
O O1 0.033810 0.618612 0.739892
O O2 0.093583 0.338862 0.692430
O O3 0.256967 0.518704 0.828581
O O4 0.079978 0.423894 0.883452
O O5 0.870059 0.184898 0.742112
O O6 0.717964 0.030643 0.576858
O O7 0.916869 0.168184 0.572740
O O8 0.946976 0.928461 0.694762
O O9 0.094306 0.207418 0.116087
O O10 0.855663 0.291019 0.077109
O O11 0.288475 0.193934 0.382259
O O12 0.455757 0.021605 0.502742
O O13 0.223523 0.954531 0.491635
O O14 0.129718 0.929912 0.107474
O O15 0.077932 0.693954 0.993664
O O16 0.983669 0.108167 0.941067
#
# Coordination Sequence:
#
# PCOD9138652 Si02
#       8
#     4   4   4   4   4   4   4   4
#     4  12  24  46  75 104 145 188 243 298 368 431
#     4  11  24  46  73 104 149 188 244 296 368 427
#     4  10  23  45  72 103 139 192 239 304 358 433
#     4  11  23  45  69 105 145 189 242 300 353 439
#     4  11  23  45  71 106 139 187 236 301 355 434
#     4  11  24  43  74 107 147 190 238 302 363 430
#     4  12  25  46  72 105 148 189 241 302 362 427
#     4  10  24  46  74 104 146 189 243 293 371 429
#
# _framework density 24.992405999999999
#
# number of rings (size 3 to 8) (size 9 to 14) (size 15 to 20)
#    0.000    1.000    2.500    4.500    3.500    3.000 
#    2.250    2.500    0.000    0.000    0.000    0.000 
#    0.000    0.000    0.000    0.000    0.000    0.000 
#
# Total GULP energy -89282.218561 kJ/mol
# GULP energy per Si atom -5580.138660 kJ/mol
# Density = 2.493552 g / cm^3
# Si number density = 24.992406 Si / 1000 Ang^3
#
#
#
# Elastic Constant Matrix: (Units=GPa)
#
#
# Indices 1 2 3 4 5 6 
#
# 1 149.7833 25.9466 20.4829 0.0000 -1.3034 0.0000
# 2 25.9466 81.8755 9.7907 0.0000 13.3913 0.0000
# 3 20.4829 9.7907 79.1721 0.0000 -7.8880 0.0000
# 4 0.0000 0.0000 0.0000 22.9252 0.0000 -1.4682
# 5 -1.3034 13.3913 -7.8880 0.0000 23.6976 0.0000
# 6 0.0000 0.0000 0.0000 -1.4682 0.0000 44.5567
#
#
#
# Elastic Compliance Matrix: (Units=1/GPa)
#
#
# Indices 1 2 3 4 5 6 
#
# 1 0.007293 -0.002336 -0.001475 0.000000 0.001230 0.000000
# 2 -0.002336 0.014704 -0.002125 0.000000 -0.009145 0.000000
# 3 -0.001475 -0.002125 0.013846 0.000000 0.005728 0.000000
# 4 0.000000 0.000000 0.000000 0.043712 0.000000 0.001440
# 5 0.001230 -0.009145 0.005728 0.000000 0.049341 0.000000
# 6 0.000000 0.000000 0.000000 0.001440 0.000000 0.022491
#
#
# Mechanical properties :
#
#
# Convention : Reuss Voigt Hill
#
# Bulk Modulus (GPa) = 41.71881 47.03016 44.37449
# Shear Modulus (GPa) = 29.19705 35.20994 32.20349
#
# Velocity S-wave (km/s) = 3.42166 3.75750 3.59351
# Velocity P-wave (km/s) = 5.68675 6.13871 5.91705
#
# Compressibility (1/GPa) = 0.02397000
#
# Stress axis : x y z
#
# Youngs Moduli (GPa) = 137.10915 68.00969 72.22320
#
# Poissons Ratio (x) = 0.15888 0.10656
# Poissons Ratio (y) = 0.32030 0.15348
# Poissons Ratio (z) = 0.20230 0.14452
#
# Static dielectric constant tensor:
#      x y z
#    x 2.050250 0.000000 -0.074290 
#    y 0.000000 2.118400 0.000000 
#    z -0.074290 0.000000 2.030300 
# 
# From -- ./inp_files/24426.got.cif
#   From: 2010.05.17/outbox.cif.g08.bks.cpg/sg9_13_cif.got.tgz:24426.got - 2010.06.03 20:04:27.
