data_PCOD9138992
_publ_section_title
;
Structure prediction by ZEFSAII (Michael W. Deem and Ramdas Pophale) SiO2 
 PCOD9138992
Probable space group: C C
;
_chemical_formula_sum "Si O2"
_cell_formula_units_Z 28
_cell_length_a 28.283271
_cell_length_b 4.734539
_cell_length_c 8.409646
_cell_angle_alpha 90.000000
_cell_angle_beta 62.557552
_cell_angle_gamma 90.000000
_cell_volume 999.403311
_symmetry_space_group_name_H-M "C C"
_symmetry_group_IT_number 9
_symmetry_cell_setting 'monoclinic'
loop_
_space_group_symop_operation_xyz
x,y,z
x,-y,1/2+z
1/2+x,1/2+y,z
1/2+x,1/2-y,1/2+z
loop_
_atom_site_type_symbol
_atom_site_label
_atom_site_fract_x
_atom_site_fract_y
_atom_site_fract_z
Si Si1 0.738930 0.624670 0.902510
Si Si2 0.880049 0.711707 0.493669
Si Si3 0.307659 0.723070 0.577909
Si Si4 0.090169 0.338310 0.386187
Si Si5 0.521525 0.747899 0.211714
Si Si6 0.165719 0.332044 0.540272
Si Si7 0.449537 0.614989 0.595173
O O1 0.762576 0.388798 0.746020
O O2 0.788256 0.733743 0.929440
O O3 0.700915 0.414332 0.059513
O O4 0.702150 0.899440 0.926973
O O5 0.860500 0.394633 0.540636
O O6 0.916227 0.857984 0.570188
O O7 0.825539 0.900025 0.565262
O O8 0.911998 0.734391 0.279624
O O9 0.065495 0.163779 0.276528
O O10 0.047270 0.509357 0.562400
O O11 0.131495 0.208172 0.446565
O O12 0.125159 0.562195 0.235073
O O13 0.473676 0.800282 0.412827
O O14 0.496847 0.523214 0.128861
#
# Coordination Sequence:
#
# PCOD9138992 Si02
#       7
#     4   4   4   4   4   4   4
#     4  12  24  42  68 100 140 186 239 295 360 436
#     4  11  24  43  69 102 142 188 238 301 363 435
#     4  12  24  42  68 100 140 186 239 295 360 436
#     4  10  24  43  69 103 144 188 245 302 369 438
#     4  10  24  44  68 102 140 192 242 306 368 442
#     4  11  24  43  69 102 142 188 238 301 363 435
#     4  10  24  43  69 103 144 188 245 302 369 438
#
# _framework density 28.016714
#
# number of rings (size 3 to 8) (size 9 to 14) (size 15 to 20)
#    0.000    1.143    0.000    5.143    0.000   13.714 
#    0.000    0.000    0.000    0.000    0.000    0.000 
#    0.000    0.000    0.000    0.000    0.000    0.000 
#
# Total GULP energy -78407.421924 kJ/mol
# GULP energy per Si atom -5600.530137 kJ/mol
# Density = 2.795295 g / cm^3
# Si number density = 28.016714 Si / 1000 Ang^3
#
#
#
# Elastic Constant Matrix: (Units=GPa)
#
#
# Indices 1 2 3 4 5 6 
#
# 1 120.1545 21.7194 45.9194 0.0000 2.9206 0.0000
# 2 21.7194 105.7650 46.4537 0.0000 -17.2473 0.0000
# 3 45.9194 46.4537 168.3036 0.0000 3.3965 0.0000
# 4 0.0000 0.0000 0.0000 48.3416 0.0000 -1.0546
# 5 2.9206 -17.2473 3.3965 0.0000 38.9638 0.0000
# 6 0.0000 0.0000 0.0000 -1.0546 0.0000 34.6115
#
#
#
# Elastic Compliance Matrix: (Units=1/GPa)
#
#
# Indices 1 2 3 4 5 6 
#
# 1 0.009403 -0.001111 -0.002239 0.000000 -0.001002 0.000000
# 2 -0.001111 0.011974 -0.003116 0.000000 0.005655 0.000000
# 3 -0.002239 -0.003116 0.007450 0.000000 -0.001861 0.000000
# 4 0.000000 0.000000 0.000000 0.020700 0.000000 0.000631
# 5 -0.001002 0.005655 -0.001861 0.000000 0.028405 0.000000
# 6 0.000000 0.000000 0.000000 0.000631 0.000000 0.028911
#
#
# Mechanical properties :
#
#
# Convention : Reuss Voigt Hill
#
# Bulk Modulus (GPa) = 62.90942 69.15646 66.03294
# Shear Modulus (GPa) = 39.97641 43.05876 41.51759
#
# Velocity S-wave (km/s) = 3.78150 3.92458 3.85370
# Velocity P-wave (km/s) = 6.44743 6.72860 6.58951
#
# Compressibility (1/GPa) = 0.01589587
#
# Stress axis : x y z
#
# Youngs Moduli (GPa) = 106.34484 83.51550 134.22785
#
# Poissons Ratio (x) = 0.09279 0.30050
# Poissons Ratio (y) = 0.11816 0.41824
# Poissons Ratio (z) = 0.23807 0.26023
#
# Static dielectric constant tensor:
#      x y z
#    x 2.200000 0.000000 -0.094410 
#    y 0.000000 2.088380 0.000000 
#    z -0.094410 0.000000 2.184200 
# 
# From -- ./inp_files/12553.got.cif
#   From: 2010.05.17/outbox.cif.g08.bks.cpg/sg9_7_cif.got.tgz:12553.got - 2010.06.03 20:04:27.
