data_PCOD9138512
_publ_section_title
;
Structure prediction by ZEFSAII (Michael W. Deem and Ramdas Pophale) SiO2 
 PCOD9138512
Probable space group: C C
;
_chemical_formula_sum "Si O2"
_cell_formula_units_Z 24
_cell_length_a 5.108176
_cell_length_b 17.673424
_cell_length_c 11.173423
_cell_angle_alpha 90.000000
_cell_angle_beta 111.947378
_cell_angle_gamma 90.000000
_cell_volume 935.620201
_symmetry_space_group_name_H-M "C C"
_symmetry_group_IT_number 9
_symmetry_cell_setting 'monoclinic'
loop_
_space_group_symop_operation_xyz
x,y,z
x,-y,1/2+z
1/2+x,1/2+y,z
1/2+x,1/2-y,1/2+z
loop_
_atom_site_type_symbol
_atom_site_label
_atom_site_fract_x
_atom_site_fract_y
_atom_site_fract_z
Si Si1 0.362730 0.973477 0.247690
Si Si2 0.418164 0.455250 0.837348
Si Si3 0.936456 0.716203 0.904176
Si Si4 0.788559 0.755223 0.228871
Si Si5 0.997860 0.850246 0.076211
Si Si6 0.435513 0.890300 0.608087
O O1 0.699216 0.975496 0.317096
O O2 0.303534 0.029328 0.122846
O O3 0.207140 0.016153 0.329948
O O4 0.224526 0.894250 0.194166
O O5 0.251674 0.402343 0.713143
O O6 0.419488 0.407008 0.957646
O O7 0.083150 0.772781 0.025622
O O8 0.943845 0.635653 0.972809
O O9 0.093503 0.732224 0.808250
O O10 0.610838 0.739364 0.832200
O O11 0.756985 0.822548 0.126222
O O12 0.779202 0.675773 0.156509
#
# Coordination Sequence:
#
# PCOD9138512 Si02
#       6
#     4   4   4   4   4   4
#     4  10  24  42  67 101 136 187 235 271 368 414
#     4  10  23  44  68  97 139 183 226 291 352 418
#     4  11  24  42  71 101 144 174 244 294 347 422
#     4  11  25  42  71 106 133 189 235 290 360 419
#     4  11  25  47  74 105 144 190 234 302 352 429
#     4   9  23  43  67  94 140 181 228 288 353 408
#
# _framework density 25.651433999999998
#
# number of rings (size 3 to 8) (size 9 to 14) (size 15 to 20)
#    1.000    0.667    1.667    1.000    2.333   10.667 
#    3.000    0.000    0.000    0.000    0.000    0.000 
#    0.000    0.000    0.000    0.000    0.000    0.000 
#
# Total GULP energy -67166.763893 kJ/mol
# GULP energy per Si atom -5597.230324 kJ/mol
# Density = 2.559305 g / cm^3
# Si number density = 25.651434 Si / 1000 Ang^3
#
#
#
# Elastic Constant Matrix: (Units=GPa)
#
#
# Indices 1 2 3 4 5 6 
#
# 1 107.0704 9.4657 28.4691 0.0000 -29.0326 0.0000
# 2 9.4657 94.1659 12.2797 0.0000 -11.2816 0.0000
# 3 28.4691 12.2797 124.8858 0.0000 -26.5739 0.0000
# 4 0.0000 0.0000 0.0000 44.1976 0.0000 1.1139
# 5 -29.0326 -11.2816 -26.5739 0.0000 40.2923 0.0000
# 6 0.0000 0.0000 0.0000 1.1139 0.0000 33.4262
#
#
#
# Elastic Compliance Matrix: (Units=1/GPa)
#
#
# Indices 1 2 3 4 5 6 
#
# 1 0.011719 -0.000118 -0.001012 0.000000 0.007743 0.000000
# 2 -0.000118 0.011016 -0.000486 0.000000 0.002678 0.000000
# 3 -0.001012 -0.000486 0.009424 0.000000 0.005350 0.000000
# 4 0.000000 0.000000 0.000000 0.022645 0.000000 -0.000755
# 5 0.007743 0.002678 0.005350 0.000000 0.034677 0.000000
# 6 0.000000 0.000000 0.000000 -0.000755 0.000000 0.029942
#
#
# Mechanical properties :
#
#
# Convention : Reuss Voigt Hill
#
# Bulk Modulus (GPa) = 34.57157 47.39456 40.98306
# Shear Modulus (GPa) = 37.79368 41.97705 39.88537
#
# Velocity S-wave (km/s) = 3.84260 4.04968 3.94750
# Velocity P-wave (km/s) = 5.76143 6.35477 6.06536
#
# Compressibility (1/GPa) = 0.02892550
#
# Stress axis : x y z
#
# Youngs Moduli (GPa) = 85.33239 90.77910 106.10887
#
# Poissons Ratio (x) = 0.01074 0.10740
# Poissons Ratio (y) = 0.01010 0.05160
# Poissons Ratio (z) = 0.08637 0.04414
#
# Static dielectric constant tensor:
#      x y z
#    x 1.942560 0.000000 0.041180 
#    y 0.000000 2.036390 0.000000 
#    z 0.041180 0.000000 2.058100 
# 
# From -- ./inp_files/13028.got.cif
#   From: 2010.05.17/outbox.cif.g08.bks.cpg/sg9_7_cif.got.tgz:13028.got - 2010.06.03 20:04:27.
