data_PCOD9138428
_publ_section_title
;
Structure prediction by ZEFSAII (Michael W. Deem and Ramdas Pophale) SiO2 
 PCOD9138428
Probable space group: C C
;
_chemical_formula_sum "Si O2"
_cell_formula_units_Z 28
_cell_length_a 10.978196
_cell_length_b 21.784400
_cell_length_c 5.265388
_cell_angle_alpha 90.000000
_cell_angle_beta 63.247412
_cell_angle_gamma 90.000000
_cell_volume 1124.445194
_symmetry_space_group_name_H-M "C C"
_symmetry_group_IT_number 9
_symmetry_cell_setting 'monoclinic'
loop_
_space_group_symop_operation_xyz
x,y,z
x,-y,1/2+z
1/2+x,1/2+y,z
1/2+x,1/2-y,1/2+z
loop_
_atom_site_type_symbol
_atom_site_label
_atom_site_fract_x
_atom_site_fract_y
_atom_site_fract_z
Si Si1 0.064880 0.022587 0.062920
Si Si2 0.612271 0.347684 0.335800
Si Si3 0.220757 0.269839 0.994416
Si Si4 0.566725 0.105966 0.747449
Si Si5 0.251222 0.489493 0.340275
Si Si6 0.399034 0.734104 0.828342
Si Si7 0.414615 0.873587 0.893191
O O1 0.138255 0.007137 0.253896
O O2 0.048090 0.094227 0.033248
O O3 0.915445 0.991127 0.205408
O O4 0.644943 0.293727 0.504735
O O5 0.514716 0.317062 0.220963
O O6 0.752453 0.369388 0.076055
O O7 0.124970 0.325748 0.165247
O O8 0.323588 0.260781 0.131962
O O9 0.299261 0.283305 0.656212
O O10 0.695631 0.060420 0.673768
O O11 0.475106 0.095026 0.586798
O O12 0.471211 0.098324 0.082083
O O13 0.214066 0.459930 0.651147
O O14 0.457313 0.801291 0.843228
#
# Coordination Sequence:
#
# PCOD9138428 Si02
#       7
#     4   4   4   4   4   4   4
#     4  10  25  45  71 106 142 192 256 312 369 421
#     4  11  26  49  74 108 163 192 259 306 375 465
#     4  11  26  41  72 110 144 198 237 316 377 427
#     4  12  24  45  71 102 156 184 249 296 377 448
#     4  10  23  43  69 104 138 182 252 313 356 427
#     4  11  25  42  71 107 147 190 246 297 373 440
#     4  11  25  45  66 109 146 200 227 298 385 446
#
# _framework density 24.90117
#
# number of rings (size 3 to 8) (size 9 to 14) (size 15 to 20)
#    0.000    1.143    1.429    3.429   10.000    4.571 
#    0.000    4.286    0.000    0.000    0.000    0.000 
#    0.000    0.000    0.000    0.000    0.000    0.000 
#
# Total GULP energy -78211.798559 kJ/mol
# GULP energy per Si atom -5586.557040 kJ/mol
# Density = 2.484449 g / cm^3
# Si number density = 24.901170 Si / 1000 Ang^3
#
#
#
# Elastic Constant Matrix: (Units=GPa)
#
#
# Indices 1 2 3 4 5 6 
#
# 1 65.3100 23.1381 44.9824 0.0000 14.1931 0.0000
# 2 23.1381 79.4332 21.0133 0.0000 -1.1986 0.0000
# 3 44.9824 21.0133 194.3843 0.0000 45.4781 0.0000
# 4 0.0000 0.0000 0.0000 -486.5335 0.0000 237.7750
# 5 14.1931 -1.1986 45.4781 0.0000 40.9970 0.0000
# 6 0.0000 0.0000 0.0000 237.7750 0.0000 -69.6267
#
#
#
# Elastic Compliance Matrix: (Units=1/GPa)
#
#
# Indices 1 2 3 4 5 6 
#
# 1 0.020123 -0.005039 -0.003305 0.000000 -0.003447 0.000000
# 2 -0.005039 0.014432 -0.001217 0.000000 0.003516 0.000000
# 3 -0.003305 -0.001217 0.007808 0.000000 -0.007553 0.000000
# 4 0.000000 0.000000 0.000000 0.003073 0.000000 0.010493
# 5 -0.003447 0.003516 -0.007553 0.000000 0.034066 0.000000
# 6 0.000000 0.000000 0.000000 0.010493 0.000000 0.021470
#
#
# Mechanical properties :
#
#
# Convention : Reuss Voigt Hill
#
# Bulk Modulus (GPa) = 43.02898 57.48834 50.25866
# Shear Modulus (GPa) = 39.11144 -86.36640 -23.62748
#
# Velocity S-wave (km/s) = 3.96746 -5.89567 -3.08368
# Velocity P-wave (km/s) = 6.18911 4.81753 2.74741
#
# Compressibility (1/GPa) = 0.02324015
#
# Stress axis : x y z
#
# Youngs Moduli (GPa) = 49.69548 69.29069 128.07645
#
# Poissons Ratio (x) = 0.34916 0.42333
# Poissons Ratio (y) = 0.25042 0.15582
# Poissons Ratio (z) = 0.16426 0.08430
#
# Static dielectric constant tensor:
#      x y z
#    x 1.968020 0.000000 -0.028290 
#    y 0.000000 13.353410 0.000000 
#    z -0.028290 0.000000 1.929340 
# 
# From -- ./inp_files/1834.got.cif
#   From: 2010.05.17/outbox.cif.g08.bks.cpg/sg9_1_cif.got.tgz:1834.got - 2010.06.03 20:04:27.
