data_PCOD9138661
_publ_section_title
;
Structure prediction by ZEFSAII (Michael W. Deem and Ramdas Pophale) SiO2 
 PCOD9138661
Probable space group: C C
;
_chemical_formula_sum "Si O2"
_cell_formula_units_Z 28
_cell_length_a 9.290746
_cell_length_b 15.516410
_cell_length_c 9.319796
_cell_angle_alpha 90.000000
_cell_angle_beta 118.904630
_cell_angle_gamma 90.000000
_cell_volume 1176.162743
_symmetry_space_group_name_H-M "C C"
_symmetry_group_IT_number 9
_symmetry_cell_setting 'monoclinic'
loop_
_space_group_symop_operation_xyz
x,y,z
x,-y,1/2+z
1/2+x,1/2+y,z
1/2+x,1/2-y,1/2+z
loop_
_atom_site_type_symbol
_atom_site_label
_atom_site_fract_x
_atom_site_fract_y
_atom_site_fract_z
Si Si1 0.508710 0.787031 0.424830
Si Si2 0.445093 0.430786 0.642374
Si Si3 0.763535 0.930018 0.861860
Si Si4 0.380394 0.316230 0.343820
Si Si5 0.649303 0.248322 0.289491
Si Si6 0.247030 0.853158 0.891097
Si Si7 0.563333 0.916605 0.214381
O O1 0.536538 0.785455 0.606535
O O2 0.315862 0.783902 0.301466
O O3 0.614126 0.706589 0.413408
O O4 0.567436 0.871649 0.371906
O O5 0.350705 0.422227 0.748097
O O6 0.378319 0.512328 0.520591
O O7 0.420859 0.348473 0.524918
O O8 0.638639 0.428884 0.770542
O O9 0.717649 0.836997 0.900559
O O10 0.597913 0.983806 0.753740
O O11 0.546091 0.315547 0.332010
O O12 0.321395 0.217342 0.318086
O O13 0.228889 0.376260 0.223145
O O14 0.399143 0.889917 0.054259
#
# Coordination Sequence:
#
# PCOD9138661 Si02
#       7
#     4   4   4   4   4   4   4
#     4  11  23  45  75 107 147 195 246 305 365 443
#     4  11  25  49  72 106 148 196 242 304 375 437
#     4  11  25  48  74 102 152 193 243 302 377 441
#     4  10  24  42  74 105 145 189 250 305 361 435
#     4  12  25  43  73 113 146 189 255 305 366 440
#     4  11  21  44  71 103 141 194 248 302 356 442
#     4  10  23  45  73 102 145 200 236 301 372 438
#
# _framework density 23.806228999999998
#
# number of rings (size 3 to 8) (size 9 to 14) (size 15 to 20)
#    0.000    1.143    2.857    4.286    6.000    1.143 
#    2.571    1.429    0.000    0.000    0.000    0.000 
#    0.000    0.000    0.000    0.000    0.000    0.000 
#
# Total GULP energy -78296.092534 kJ/mol
# GULP energy per Si atom -5592.578038 kJ/mol
# Density = 2.375205 g / cm^3
# Si number density = 23.806229 Si / 1000 Ang^3
#
#
#
# Elastic Constant Matrix: (Units=GPa)
#
#
# Indices 1 2 3 4 5 6 
#
# 1 106.8237 24.3301 37.4545 0.0000 10.5319 0.0000
# 2 24.3301 53.3913 -6.8219 0.0000 7.3462 0.0000
# 3 37.4545 -6.8219 103.7319 0.0000 15.4503 0.0000
# 4 0.0000 0.0000 0.0000 21.1016 0.0000 3.4312
# 5 10.5319 7.3462 15.4503 0.0000 44.4165 0.0000
# 6 0.0000 0.0000 0.0000 3.4312 0.0000 24.1896
#
#
#
# Elastic Compliance Matrix: (Units=1/GPa)
#
#
# Indices 1 2 3 4 5 6 
#
# 1 0.012543 -0.006313 -0.004911 0.000000 -0.000222 0.000000
# 2 -0.006313 0.022677 0.004331 0.000000 -0.003760 0.000000
# 3 -0.004911 0.004331 0.012267 0.000000 -0.003819 0.000000
# 4 0.000000 0.000000 0.000000 0.048509 0.000000 -0.006881
# 5 -0.000222 -0.003760 -0.003819 0.000000 0.024517 0.000000
# 6 0.000000 0.000000 0.000000 -0.006881 0.000000 0.042316
#
#
# Mechanical properties :
#
#
# Convention : Reuss Voigt Hill
#
# Bulk Modulus (GPa) = 29.67263 41.54138 35.60701
# Shear Modulus (GPa) = 26.61730 31.87382 29.24556
#
# Velocity S-wave (km/s) = 3.34740 3.66305 3.50878
# Velocity P-wave (km/s) = 5.23750 5.94796 5.60400
#
# Compressibility (1/GPa) = 0.03370109
#
# Stress axis : x y z
#
# Youngs Moduli (GPa) = 79.72769 44.09758 81.51934
#
# Poissons Ratio (x) = 0.27837 0.40033
# Poissons Ratio (y) = 0.50329 -0.35304
# Poissons Ratio (z) = 0.39154 -0.19097
#
# Static dielectric constant tensor:
#      x y z
#    x 1.932580 0.000000 0.004920 
#    y 0.000000 1.909620 0.000000 
#    z 0.004920 0.000000 1.933930 
# 
# From -- ./inp_files/15141.got.cif
#   From: 2010.05.17/outbox.cif.g08.bks.cpg/sg9_8_cif.got.tgz:15141.got - 2010.06.03 20:04:27.
