data_PCOD9138371
_publ_section_title
;
Structure prediction by ZEFSAII (Michael W. Deem and Ramdas Pophale) SiO2 
 PCOD9138371
Probable space group: C C
;
_chemical_formula_sum "Si O2"
_cell_formula_units_Z 32
_cell_length_a 10.005155
_cell_length_b 11.481183
_cell_length_c 12.474503
_cell_angle_alpha 90.000000
_cell_angle_beta 76.534472
_cell_angle_gamma 90.000000
_cell_volume 1393.567071
_symmetry_space_group_name_H-M "C C"
_symmetry_group_IT_number 9
_symmetry_cell_setting 'monoclinic'
loop_
_space_group_symop_operation_xyz
x,y,z
x,-y,1/2+z
1/2+x,1/2+y,z
1/2+x,1/2-y,1/2+z
loop_
_atom_site_type_symbol
_atom_site_label
_atom_site_fract_x
_atom_site_fract_y
_atom_site_fract_z
Si Si1 0.620890 0.992732 0.000000
Si Si2 0.105520 0.359569 0.714775
Si Si3 0.189340 0.114094 0.958256
Si Si4 0.627419 0.639942 0.209208
Si Si5 0.827820 0.834579 0.858270
Si Si6 0.054113 0.106437 0.761260
Si Si7 0.372442 0.888577 0.931172
Si Si8 0.259093 0.322878 0.340660
O O1 0.618324 0.056208 0.113191
O O2 0.639793 0.092790 0.905289
O O3 0.757161 0.914182 0.962044
O O4 0.483479 0.917897 0.002905
O O5 0.232676 0.359636 0.772710
O O6 0.090968 0.222914 0.689814
O O7 0.969927 0.393838 0.807455
O O8 0.128303 0.157249 0.082035
O O9 0.308003 0.202754 0.900575
O O10 0.080476 0.124519 0.882930
O O11 0.254497 0.985985 0.953073
O O12 0.482744 0.647305 0.296827
O O13 0.652417 0.501005 0.214552
O O14 0.719842 0.734043 0.252959
O O15 0.889491 0.098881 0.780806
O O16 0.305643 0.761203 0.930562
#
# Coordination Sequence:
#
# PCOD9138371 Si02
#       8
#     4   4   4   4   4   4   4   4
#     4  11  23  43  73  98 137 189 226 291 356 410
#     4   9  23  43  70  97 135 191 224 291 360 411
#     4  11  25  44  70  99 140 192 227 293 365 406
#     4  12  25  44  72 102 141 189 228 301 354 415
#     4  10  24  46  63 103 141 175 245 288 343 438
#     4  10  23  46  65 102 144 171 242 289 340 433
#     4  10  23  43  64 102 142 168 243 283 337 429
#     4  11  24  45  69 105 138 181 237 290 341 430
#
# _framework density 22.962655999999999
#
# number of rings (size 3 to 8) (size 9 to 14) (size 15 to 20)
#    0.000    1.500    2.500    1.500    7.000    3.000 
#    4.500    0.000    0.000    0.000    0.000    0.000 
#    0.000    0.000    0.000    0.000    0.000    0.000 
#
# Total GULP energy -89395.250609 kJ/mol
# GULP energy per Si atom -5587.203163 kJ/mol
# Density = 2.291039 g / cm^3
# Si number density = 22.962656 Si / 1000 Ang^3
#
#
#
# Elastic Constant Matrix: (Units=GPa)
#
#
# Indices 1 2 3 4 5 6 
#
# 1 55.8184 5.1908 -5.3227 0.0000 -6.5579 0.0000
# 2 5.1908 85.3839 -0.5307 0.0000 2.6809 0.0000
# 3 -5.3227 -0.5307 47.9227 0.0000 13.1172 0.0000
# 4 0.0000 0.0000 0.0000 25.3274 0.0000 1.4759
# 5 -6.5579 2.6809 13.1172 0.0000 12.1807 0.0000
# 6 0.0000 0.0000 0.0000 1.4759 0.0000 38.3370
#
#
#
# Elastic Compliance Matrix: (Units=1/GPa)
#
#
# Indices 1 2 3 4 5 6 
#
# 1 0.019361 -0.001561 -0.001154 0.000000 0.012011 0.000000
# 2 -0.001561 0.011967 0.001291 0.000000 -0.004864 0.000000
# 3 -0.001154 0.001291 0.029778 0.000000 -0.032973 0.000000
# 4 0.000000 0.000000 0.000000 0.039572 0.000000 -0.001523
# 5 0.012011 -0.004864 -0.032973 0.000000 0.125143 0.000000
# 6 0.000000 0.000000 0.000000 -0.001523 0.000000 0.026143
#
#
# Mechanical properties :
#
#
# Convention : Reuss Voigt Hill
#
# Bulk Modulus (GPa) = 17.16534 20.86665 19.01599
# Shear Modulus (GPa) = 18.23261 27.82151 23.02706
#
# Velocity S-wave (km/s) = 2.82088 3.48458 3.17014
# Velocity P-wave (km/s) = 4.25457 5.02958 4.65822
#
# Compressibility (1/GPa) = 0.05825695
#
# Stress axis : x y z
#
# Youngs Moduli (GPa) = 51.64901 83.55970 33.58155
#
# Poissons Ratio (x) = 0.13047 0.03876
# Poissons Ratio (y) = 0.08064 -0.04334
# Poissons Ratio (z) = 0.05962 -0.10784
#
# Static dielectric constant tensor:
#      x y z
#    x 1.861350 0.000000 0.003830 
#    y 0.000000 1.932960 0.000000 
#    z 0.003830 0.000000 1.840930 
# 
# From -- ./inp_files/16575.got.cif
#   From: 2010.05.17/outbox.cif.g08.bks.cpg/sg9_9_cif.got.tgz:16575.got - 2010.06.03 20:04:27.
