data_PCOD9138766
_publ_section_title
;
Structure prediction by ZEFSAII (Michael W. Deem and Ramdas Pophale) SiO2 
 PCOD9138766
Probable space group: C C
;
_chemical_formula_sum "Si O2"
_cell_formula_units_Z 28
_cell_length_a 9.449904
_cell_length_b 14.619858
_cell_length_c 14.295370
_cell_angle_alpha 90.000000
_cell_angle_beta 37.241803
_cell_angle_gamma 90.000000
_cell_volume 1195.227541
_symmetry_space_group_name_H-M "C C"
_symmetry_group_IT_number 9
_symmetry_cell_setting 'monoclinic'
loop_
_space_group_symop_operation_xyz
x,y,z
x,-y,1/2+z
1/2+x,1/2+y,z
1/2+x,1/2-y,1/2+z
loop_
_atom_site_type_symbol
_atom_site_label
_atom_site_fract_x
_atom_site_fract_y
_atom_site_fract_z
Si Si1 0.192040 0.660840 0.349440
Si Si2 0.821918 0.483628 0.086643
Si Si3 0.016628 0.908040 0.084021
Si Si4 0.180517 0.206801 0.013764
Si Si5 0.332343 0.724723 0.941310
Si Si6 0.088661 0.346752 0.397923
Si Si7 0.089782 0.930766 0.403663
O O1 0.117958 0.705478 0.486473
O O2 0.465381 0.670797 0.188452
O O3 0.055829 0.566380 0.424758
O O4 0.073060 0.722172 0.331444
O O5 0.623172 0.467421 0.113612
O O6 0.727601 0.446944 0.234764
O O7 0.908265 0.587034 0.045566
O O8 0.740416 0.892004 0.236903
O O9 0.145500 0.809359 0.033651
O O10 0.052640 0.970774 0.972752
O O11 0.415586 0.227476 0.946344
O O12 0.223688 0.129569 0.911375
O O13 0.285022 0.681814 0.866797
O O14 0.366070 0.636283 0.993842
#
# Coordination Sequence:
#
# PCOD9138766 Si02
#       7
#     4   4   4   4   4   4   4
#     4  10  23  46  74  99 143 200 252 305 394 470
#     4  11  24  48  73 104 147 193 256 317 382 474
#     4  11  25  49  74 112 146 199 259 323 385 478
#     4  11  24  43  71 106 142 193 250 317 388 458
#     4  10  25  45  76 104 148 196 254 317 395 461
#     4  12  26  45  69 110 154 182 260 329 374 463
#     4  11  23  48  77 105 144 205 249 308 404 462
#
# _framework density 23.426501999999999
#
# number of rings (size 3 to 8) (size 9 to 14) (size 15 to 20)
#    0.000    1.143    2.857    2.571    6.000    2.286 
#    7.714    0.000    0.000    0.000    0.000    0.000 
#    0.000    0.000    0.000    0.000    0.000    0.000 
#
# Total GULP energy -78025.321173 kJ/mol
# GULP energy per Si atom -5573.237227 kJ/mol
# Density = 2.337318 g / cm^3
# Si number density = 23.426502 Si / 1000 Ang^3
#
#
#
# Elastic Constant Matrix: (Units=GPa)
#
#
# Indices 1 2 3 4 5 6 
#
# 1 94.1965 19.3741 43.9547 -0.0005 -10.8460 -0.0012
# 2 19.3741 79.4131 30.0692 -0.0050 -5.8809 0.0010
# 3 43.9547 30.0692 101.7900 -0.0091 0.3531 0.0015
# 4 -0.0005 -0.0050 -0.0091 6.7397 0.0031 0.0875
# 5 -10.8460 -5.8809 0.3531 0.0031 24.2213 0.0006
# 6 -0.0012 0.0010 0.0015 0.0875 0.0006 23.7532
#
#
#
# Elastic Compliance Matrix: (Units=1/GPa)
#
#
# Indices 1 2 3 4 5 6 
#
# 1 0.014280 -0.000759 -0.005964 -0.000011 0.006297 0.000001
# 2 -0.000759 0.014522 -0.003973 0.000004 0.003244 0.000000
# 3 -0.005964 -0.003973 0.013587 0.000017 -0.003833 -0.000001
# 4 -0.000011 0.000004 0.000017 0.148381 -0.000023 -0.000547
# 5 0.006297 0.003244 -0.003833 -0.000023 0.044949 -0.000001
# 6 0.000001 0.000000 -0.000001 -0.000547 -0.000001 0.042102
#
#
# Mechanical properties :
#
#
# Convention : Reuss Voigt Hill
#
# Bulk Modulus (GPa) = 47.62848 51.35505 49.49177
# Shear Modulus (GPa) = 16.32850 23.07628 19.70239
#
# Velocity S-wave (km/s) = 2.64296 3.14196 2.90320
# Velocity P-wave (km/s) = 5.44874 5.92722 5.69301
#
# Compressibility (1/GPa) = 0.02099584
#
# Stress axis : x y z
#
# Youngs Moduli (GPa) = 70.02635 68.85948 73.60215
#
# Poissons Ratio (x) = 0.05229 0.43897
# Poissons Ratio (y) = 0.05317 0.29244
# Poissons Ratio (z) = 0.41764 0.27360
#
# Static dielectric constant tensor:
#      x y z
#    x 1.883660 0.000000 0.020150 
#    y 0.000000 1.971090 0.000000 
#    z 0.020150 0.000000 1.860330 
# 
# From -- ./inp_files/23314.got.cif
#   From: 2010.05.17/outbox.cif.g08.bks.cpg/sg9_12_cif.got.tgz:23314.got - 2010.06.03 20:04:27.
