data_PCOD9138664
_publ_section_title
;
Structure prediction by ZEFSAII (Michael W. Deem and Ramdas Pophale) SiO2 
 PCOD9138664
Probable space group: C C
;
_chemical_formula_sum "Si O2"
_cell_formula_units_Z 28
_cell_length_a 6.981288
_cell_length_b 12.143699
_cell_length_c 14.472508
_cell_angle_alpha 90.000000
_cell_angle_beta 115.515832
_cell_angle_gamma 90.000000
_cell_volume 1107.289893
_symmetry_space_group_name_H-M "C C"
_symmetry_group_IT_number 9
_symmetry_cell_setting 'monoclinic'
loop_
_space_group_symop_operation_xyz
x,y,z
x,-y,1/2+z
1/2+x,1/2+y,z
1/2+x,1/2-y,1/2+z
loop_
_atom_site_type_symbol
_atom_site_label
_atom_site_fract_x
_atom_site_fract_y
_atom_site_fract_z
Si Si1 0.229950 0.612710 0.796480
Si Si2 0.146392 0.618424 0.363538
Si Si3 0.243907 0.771218 0.937953
Si Si4 0.196556 0.351144 0.600389
Si Si5 0.753454 0.320110 0.264355
Si Si6 0.617656 0.907199 0.076218
Si Si7 0.151745 0.927342 0.762342
O O1 0.245882 0.486894 0.830916
O O2 0.365442 0.692802 0.889638
O O3 0.251923 0.632442 0.692277
O O4 0.992945 0.654123 0.777369
O O5 0.233007 0.733135 0.343283
O O6 0.184813 0.601773 0.482234
O O7 0.893281 0.607899 0.287426
O O8 0.129335 0.865893 0.855995
O O9 0.138692 0.687846 0.986753
O O10 0.406105 0.836750 0.035376
O O11 0.150519 0.252145 0.660471
O O12 0.075916 0.465253 0.591502
O O13 0.447477 0.387054 0.661568
O O14 0.663472 0.440851 0.267527
#
# Coordination Sequence:
#
# PCOD9138664 Si02
#       7
#     4   4   4   4   4   4   4
#     4  11  21  43  74  99 147 194 238 304 371 423
#     4  10  23  45  73 105 148 186 246 301 360 440
#     4  11  22  43  71  99 144 189 234 300 366 427
#     4  12  23  44  74 102 141 195 243 297 367 430
#     4  11  23  46  72 101 143 189 239 306 357 440
#     4  11  23  41  73 107 138 198 246 289 366 437
#     4  10  25  44  69 105 143 187 246 295 371 425
#
# _framework density 25.286963
#
# number of rings (size 3 to 8) (size 9 to 14) (size 15 to 20)
#    0.000    1.143    5.714    0.000    0.000    3.429 
#    2.571    5.714   15.714    0.000    0.000    0.000 
#    0.000    0.000    0.000    0.000    0.000    0.000 
#
# Total GULP energy -78219.023891 kJ/mol
# GULP energy per Si atom -5587.073135 kJ/mol
# Density = 2.522941 g / cm^3
# Si number density = 25.286963 Si / 1000 Ang^3
#
#
#
# Elastic Constant Matrix: (Units=GPa)
#
#
# Indices 1 2 3 4 5 6 
#
# 1 73.4152 39.7681 24.4011 0.0000 12.8160 0.0000
# 2 39.7681 223.9276 54.9360 0.0000 -7.1983 0.0000
# 3 24.4011 54.9360 151.3918 0.0000 -31.3135 0.0000
# 4 0.0000 0.0000 0.0000 48.6342 0.0000 -9.4909
# 5 12.8160 -7.1983 -31.3135 0.0000 41.1317 0.0000
# 6 0.0000 0.0000 0.0000 -9.4909 0.0000 43.1253
#
#
#
# Elastic Compliance Matrix: (Units=1/GPa)
#
#
# Indices 1 2 3 4 5 6 
#
# 1 0.017791 -0.002515 -0.003789 0.000000 -0.008868 0.000000
# 2 -0.002515 0.005270 -0.001370 0.000000 0.000663 0.000000
# 3 -0.003789 -0.001370 0.009386 0.000000 0.008086 0.000000
# 4 0.000000 0.000000 0.000000 0.021484 0.000000 0.004728
# 5 -0.008868 0.000663 0.008086 0.000000 0.033348 0.000000
# 6 0.000000 0.000000 0.000000 0.004728 0.000000 0.024229
#
#
# Mechanical properties :
#
#
# Convention : Reuss Voigt Hill
#
# Bulk Modulus (GPa) = 58.48437 76.32722 67.40579
# Shear Modulus (GPa) = 37.72029 48.55352 43.13691
#
# Velocity S-wave (km/s) = 3.86643 4.38665 4.13473
# Velocity P-wave (km/s) = 6.56589 7.47709 7.03625
#
# Compressibility (1/GPa) = 0.01709859
#
# Stress axis : x y z
#
# Youngs Moduli (GPa) = 56.20795 189.76293 106.54525
#
# Poissons Ratio (x) = 0.47727 0.40372
# Poissons Ratio (y) = 0.14137 0.14594
# Poissons Ratio (z) = 0.21298 0.25992
#
# Static dielectric constant tensor:
#      x y z
#    x 2.141690 0.000000 0.081830 
#    y 0.000000 1.970210 0.000000 
#    z 0.081830 0.000000 2.034510 
# 
# From -- ./inp_files/22946.got.cif
#   From: 2010.05.17/outbox.cif.g08.bks.cpg/sg9_12_cif.got.tgz:22946.got - 2010.06.03 20:04:27.
