data_PCOD9138150
_publ_section_title
;
Structure prediction by ZEFSAII (Michael W. Deem and Ramdas Pophale) SiO2 
 PCOD9138150
Probable space group: C C
;
_chemical_formula_sum "Si O2"
_cell_formula_units_Z 16
_cell_length_a 4.908203
_cell_length_b 21.960258
_cell_length_c 5.552889
_cell_angle_alpha 90.000000
_cell_angle_beta 95.245751
_cell_angle_gamma 90.000000
_cell_volume 596.013609
_symmetry_space_group_name_H-M "C C"
_symmetry_group_IT_number 9
_symmetry_cell_setting 'monoclinic'
loop_
_space_group_symop_operation_xyz
x,y,z
x,-y,1/2+z
1/2+x,1/2+y,z
1/2+x,1/2-y,1/2+z
loop_
_atom_site_type_symbol
_atom_site_label
_atom_site_fract_x
_atom_site_fract_y
_atom_site_fract_z
Si Si1 0.830630 0.535023 0.699900
Si Si2 0.844357 0.887794 0.327681
Si Si3 0.240808 0.207438 0.726243
Si Si4 0.121323 0.175657 0.213115
O O1 0.869892 0.509434 0.434160
O O2 0.532083 0.564186 0.703231
O O3 0.044149 0.588787 0.772894
O O4 0.925664 0.819952 0.237118
O O5 0.959541 0.884167 0.610964
O O6 0.290319 0.177372 0.470096
O O7 0.392289 0.271682 0.715842
O O8 0.323891 0.189341 0.006027
#
# Coordination Sequence:
#
# PCOD9138150 Si02
#       4
#     4   4   4   4
#     4  12  28  48  73  98 135 178 244 290 338 390
#     4  10  28  44  75 100 139 182 224 284 350 396
#     4  10  23  39  66 100 143 175 223 263 342 414
#     4  10  23  39  66 100 143 175 223 263 342 414
#
# _framework density 26.845025
#
# number of rings (size 3 to 8) (size 9 to 14) (size 15 to 20)
#    1.500    0.000    0.000    3.000   10.500    0.000 
#    0.000    0.000    0.000    0.000    0.000    0.000 
#    0.000    0.000    0.000    0.000    0.000    0.000 
#
# Total GULP energy -44579.465331 kJ/mol
# GULP energy per Si atom -5572.433166 kJ/mol
# Density = 2.678392 g / cm^3
# Si number density = 26.845025 Si / 1000 Ang^3
#
#
#
# Elastic Constant Matrix: (Units=GPa)
#
#
# Indices 1 2 3 4 5 6 
#
# 1 77.4344 33.3088 32.5012 0.0000 -0.2366 0.0000
# 2 33.3088 81.4477 40.4673 0.0000 1.3430 0.0000
# 3 32.5012 40.4673 216.5011 0.0000 -12.6546 0.0000
# 4 0.0000 0.0000 0.0000 53.7013 0.0000 -5.4499
# 5 -0.2366 1.3430 -12.6546 0.0000 25.0992 0.0000
# 6 0.0000 0.0000 0.0000 -5.4499 0.0000 55.0242
#
#
#
# Elastic Compliance Matrix: (Units=1/GPa)
#
#
# Indices 1 2 3 4 5 6 
#
# 1 0.015997 -0.005887 -0.001313 0.000000 -0.000196 0.000000
# 2 -0.005887 0.015805 -0.002188 0.000000 -0.002004 0.000000
# 3 -0.001313 -0.002188 0.005390 0.000000 0.002822 0.000000
# 4 0.000000 0.000000 0.000000 0.018811 0.000000 0.001863
# 5 -0.000196 -0.002004 0.002822 0.000000 0.041370 0.000000
# 6 0.000000 0.000000 0.000000 0.001863 0.000000 0.018358
#
#
# Mechanical properties :
#
#
# Convention : Reuss Voigt Hill
#
# Bulk Modulus (GPa) = 54.29486 65.32643 59.81065
# Shear Modulus (GPa) = 35.55081 44.70533 40.12807
#
# Velocity S-wave (km/s) = 3.64304 4.08525 3.87046
# Velocity P-wave (km/s) = 6.16156 6.82934 6.50402
#
# Compressibility (1/GPa) = 0.01841795
#
# Stress axis : x y z
#
# Youngs Moduli (GPa) = 62.51315 63.27037 185.53471
#
# Poissons Ratio (x) = 0.37245 0.24353
# Poissons Ratio (y) = 0.36799 0.40589
# Poissons Ratio (z) = 0.08205 0.13841
#
# Static dielectric constant tensor:
#      x y z
#    x 2.087710 0.000000 -0.010730 
#    y 0.000000 2.220620 0.000000 
#    z -0.010730 0.000000 2.144470 
# 
# From -- ./inp_files/137.got.cif
#   From: 2010.05.17/outbox.cif.g08.bks.cpg/sg9_1_cif.got.tgz:137.got - 2010.06.03 20:04:27.
