data_PCOD9138399
_publ_section_title
;
Structure prediction by ZEFSAII (Michael W. Deem and Ramdas Pophale) SiO2 
 PCOD9138399
Probable space group: C C
;
_chemical_formula_sum "Si O2"
_cell_formula_units_Z 32
_cell_length_a 22.065132
_cell_length_b 12.886076
_cell_length_c 11.725986
_cell_angle_alpha 90.000000
_cell_angle_beta 24.551754
_cell_angle_gamma 90.000000
_cell_volume 1385.362150
_symmetry_space_group_name_H-M "C C"
_symmetry_group_IT_number 9
_symmetry_cell_setting 'monoclinic'
loop_
_space_group_symop_operation_xyz
x,y,z
x,-y,1/2+z
1/2+x,1/2+y,z
1/2+x,1/2-y,1/2+z
loop_
_atom_site_type_symbol
_atom_site_label
_atom_site_fract_x
_atom_site_fract_y
_atom_site_fract_z
Si Si1 0.745150 0.998745 0.566380
Si Si2 0.454226 0.020391 0.949861
Si Si3 0.163884 0.857904 0.962678
Si Si4 0.245828 0.159602 0.733163
Si Si5 0.707904 0.846603 0.957170
Si Si6 0.276325 0.261749 0.452743
Si Si7 0.579616 0.693631 0.358534
Si Si8 0.985959 0.951328 0.817027
O O1 0.799505 0.062253 0.360493
O O2 0.824692 0.048363 0.538887
O O3 0.777870 0.878362 0.496180
O O4 0.570314 0.004348 0.852977
O O5 0.312722 0.081201 0.232457
O O6 0.384605 0.914887 0.019071
O O7 0.553279 0.093981 0.697041
O O8 0.179817 0.751804 0.004657
O O9 0.155499 0.848603 0.841264
O O10 0.035819 0.929524 0.228855
O O11 0.224190 0.182486 0.637764
O O12 0.262772 0.272408 0.764189
O O13 0.101763 0.106379 0.034046
O O14 0.678273 0.766398 0.111691
O O15 0.444057 0.241254 0.136592
O O16 0.512991 0.606069 0.389510
#
# Coordination Sequence:
#
# PCOD9138399 Si02
#       8
#     4   4   4   4   4   4   4   4
#     4  10  23  43  67 104 139 185 236 306 365 431
#     4   9  22  45  68 102 138 187 235 295 369 437
#     4  11  24  45  70 100 143 182 247 295 367 449
#     4  10  24  45  70 107 141 191 243 299 378 443
#     4   9  22  47  68 100 143 184 237 293 370 438
#     4  12  25  41  68 106 137 184 238 308 367 431
#     4  11  24  44  74 100 134 197 233 301 373 435
#     4  10  24  46  71  99 141 192 243 295 373 450
#
# _framework density 23.098654
#
# number of rings (size 3 to 8) (size 9 to 14) (size 15 to 20)
#    0.750    1.000    2.500    0.000    7.000    2.000 
#    4.500    0.000    0.000    0.000    0.000    0.000 
#    0.000    0.000    0.000    0.000    0.000    0.000 
#
# Total GULP energy -89286.978833 kJ/mol
# GULP energy per Si atom -5580.436177 kJ/mol
# Density = 2.304608 g / cm^3
# Si number density = 23.098654 Si / 1000 Ang^3
#
#
#
# Elastic Constant Matrix: (Units=GPa)
#
#
# Indices 1 2 3 4 5 6 
#
# 1 141.1620 38.6285 39.4648 0.0000 -13.1687 0.0000
# 2 38.6285 92.9712 18.3263 0.0000 -3.5609 0.0000
# 3 39.4648 18.3263 47.6492 0.0000 -7.9698 0.0000
# 4 0.0000 0.0000 0.0000 34.8874 0.0000 -8.3657
# 5 -13.1687 -3.5609 -7.9698 0.0000 36.0323 0.0000
# 6 0.0000 0.0000 0.0000 -8.3657 0.0000 25.3338
#
#
#
# Elastic Compliance Matrix: (Units=1/GPa)
#
#
# Indices 1 2 3 4 5 6 
#
# 1 0.009912 -0.002695 -0.006866 0.000000 0.001838 0.000000
# 2 -0.002695 0.012372 -0.002582 0.000000 -0.000333 0.000000
# 3 -0.006866 -0.002582 0.028249 0.000000 0.003484 0.000000
# 4 0.000000 0.000000 0.000000 0.031128 0.000000 0.010279
# 5 0.001838 -0.000333 0.003484 0.000000 0.029162 0.000000
# 6 0.000000 0.000000 0.000000 0.010279 0.000000 0.042867
#
#
# Mechanical properties :
#
#
# Convention : Reuss Voigt Hill
#
# Bulk Modulus (GPa) = 38.09875 52.73574 45.41724
# Shear Modulus (GPa) = 26.77708 31.60820 29.19264
#
# Velocity S-wave (km/s) = 3.40847 3.70320 3.55889
# Velocity P-wave (km/s) = 5.65862 6.41601 6.04918
#
# Compressibility (1/GPa) = 0.02624758
#
# Stress axis : x y z
#
# Youngs Moduli (GPa) = 100.88328 80.82853 35.39912
#
# Poissons Ratio (x) = 0.21781 0.24305
# Poissons Ratio (y) = 0.27185 0.09141
# Poissons Ratio (z) = 0.69267 0.20872
#
# Static dielectric constant tensor:
#      x y z
#    x 1.902310 0.000000 0.011370 
#    y 0.000000 1.912400 0.000000 
#    z 0.011370 0.000000 1.884010 
# 
# From -- ./inp_files/20346.got.cif
#   From: 2010.05.17/outbox.cif.g08.bks.cpg/sg9_11_cif.got.tgz:20346.got - 2010.06.03 20:04:27.
