data_PCOD9138961
_publ_section_title
;
Structure prediction by ZEFSAII (Michael W. Deem and Ramdas Pophale) SiO2 
 PCOD9138961
Probable space group: C C
;
_chemical_formula_sum "Si O2"
_cell_formula_units_Z 32
_cell_length_a 11.155316
_cell_length_b 12.007617
_cell_length_c 23.619949
_cell_angle_alpha 90.000000
_cell_angle_beta 27.305540
_cell_angle_gamma 90.000000
_cell_volume 1451.376159
_symmetry_space_group_name_H-M "C C"
_symmetry_group_IT_number 9
_symmetry_cell_setting 'monoclinic'
loop_
_space_group_symop_operation_xyz
x,y,z
x,-y,1/2+z
1/2+x,1/2+y,z
1/2+x,1/2-y,1/2+z
loop_
_atom_site_type_symbol
_atom_site_label
_atom_site_fract_x
_atom_site_fract_y
_atom_site_fract_z
Si Si1 0.095560 0.443918 0.042480
Si Si2 0.823190 0.783366 0.663777
Si Si3 0.936870 0.570457 0.925188
Si Si4 0.673294 0.506815 0.632323
Si Si5 0.669514 0.632921 0.927841
Si Si6 0.711455 0.531987 0.303438
Si Si7 0.368807 0.273597 0.280047
Si Si8 0.253044 0.349939 0.819303
O O1 0.039427 0.312636 0.064159
O O2 0.950739 0.488464 0.046838
O O3 0.915978 0.485652 0.170778
O O4 0.402930 0.468866 0.915675
O O5 0.527448 0.749973 0.770663
O O6 0.817099 0.792821 0.733279
O O7 0.912581 0.870427 0.576731
O O8 0.096832 0.660947 0.893777
O O9 0.062936 0.449022 0.878578
O O10 0.897850 0.611618 0.878180
O O11 0.674906 0.548149 0.069919
O O12 0.557174 0.630526 0.674375
O O13 0.491789 0.422990 0.743968
O O14 0.704739 0.540764 0.864206
O O15 0.670719 0.751847 0.895600
O O16 0.809512 0.657458 0.274800
#
# Coordination Sequence:
#
# PCOD9138961 Si02
#       8
#     4   4   4   4   4   4   4   4
#     4  11  26  43  75 102 148 191 258 305 384 460
#     4  11  22  46  68 102 146 194 250 311 379 465
#     4  11  24  43  70 105 139 198 255 311 384 471
#     4  10  24  44  69 101 140 196 253 312 383 463
#     4  12  25  44  74 104 154 197 253 322 388 460
#     4  12  26  47  71 114 149 200 253 322 389 465
#     4  10  24  42  71 101 144 190 252 314 383 459
#     4  11  23  43  72 101 144 194 248 311 390 449
#
# _framework density 22.048038999999999
#
# number of rings (size 3 to 8) (size 9 to 14) (size 15 to 20)
#    0.000    1.000    2.500    3.750    8.750    0.000 
#    0.000    1.250    0.000    0.000    0.000    0.000 
#    0.000    0.000    0.000    0.000    0.000    0.000 
#
# Total GULP energy -89133.824784 kJ/mol
# GULP energy per Si atom -5570.864049 kJ/mol
# Density = 2.199786 g / cm^3
# Si number density = 22.048039 Si / 1000 Ang^3
#
#
#
# Elastic Constant Matrix: (Units=GPa)
#
#
# Indices 1 2 3 4 5 6 
#
# 1 115.6200 48.6745 63.2685 0.0006 4.4327 0.0036
# 2 48.6745 101.6983 38.9254 0.0051 16.3637 0.0011
# 3 63.2685 38.9254 84.3736 -0.0179 13.5830 0.0185
# 4 0.0006 0.0051 -0.0179 15.6561 0.0009 5.2723
# 5 4.4327 16.3637 13.5830 0.0009 47.6072 -0.0003
# 6 0.0036 0.0011 0.0185 5.2723 -0.0003 32.3778
#
#
#
# Elastic Compliance Matrix: (Units=1/GPa)
#
#
# Indices 1 2 3 4 5 6 
#
# 1 0.016088 -0.004099 -0.010647 -0.000014 0.002949 0.000007
# 2 -0.004099 0.013315 -0.002509 -0.000008 -0.003479 0.000003
# 3 -0.010647 -0.002509 0.021691 0.000032 -0.004335 -0.000016
# 4 -0.000014 -0.000008 0.000032 0.067579 -0.000006 -0.011004
# 5 0.002949 -0.003479 -0.004335 -0.000006 0.023163 0.000004
# 6 0.000007 0.000003 -0.000016 -0.011004 0.000004 0.032677
#
#
# Mechanical properties :
#
#
# Convention : Reuss Voigt Hill
#
# Bulk Modulus (GPa) = 60.30052 67.04763 63.67408
# Shear Modulus (GPa) = 23.30427 29.18310 26.24369
#
# Velocity S-wave (km/s) = 3.25465 3.64210 3.45381
# Velocity P-wave (km/s) = 6.44458 6.93991 6.69682
#
# Compressibility (1/GPa) = 0.01658360
#
# Stress axis : x y z
#
# Youngs Moduli (GPa) = 62.15807 75.10290 46.10101
#
# Poissons Ratio (x) = 0.30786 0.49085
# Poissons Ratio (y) = 0.25480 0.11567
# Poissons Ratio (z) = 0.66182 0.18843
#
# Static dielectric constant tensor:
#      x y z
#    x 1.818100 0.000010 -0.040980 
#    y 0.000010 1.883080 0.000010 
#    z -0.040980 0.000010 1.986960 
# 
# From -- ./inp_files/16266.got.cif
#   From: 2010.05.17/outbox.cif.g08.bks.cpg/sg9_9_cif.got.tgz:16266.got - 2010.06.03 20:04:27.
