data_PCOD9138367
_publ_section_title
;
Structure prediction by ZEFSAII (Michael W. Deem and Ramdas Pophale) SiO2 
 PCOD9138367
Probable space group: C C
;
_chemical_formula_sum "Si O2"
_cell_formula_units_Z 20
_cell_length_a 4.875353
_cell_length_b 13.504127
_cell_length_c 12.716292
_cell_angle_alpha 90.000000
_cell_angle_beta 82.785933
_cell_angle_gamma 90.000000
_cell_volume 830.580008
_symmetry_space_group_name_H-M "C C"
_symmetry_group_IT_number 9
_symmetry_cell_setting 'monoclinic'
loop_
_space_group_symop_operation_xyz
x,y,z
x,-y,1/2+z
1/2+x,1/2+y,z
1/2+x,1/2-y,1/2+z
loop_
_atom_site_type_symbol
_atom_site_label
_atom_site_fract_x
_atom_site_fract_y
_atom_site_fract_z
Si Si1 0.931170 0.021018 0.285900
Si Si2 0.464249 0.108749 0.782153
Si Si3 0.986645 0.255434 0.485809
Si Si4 0.006416 0.647068 0.416816
Si Si5 0.733066 0.794962 0.691155
O O1 0.708501 0.052690 0.388499
O O2 0.947914 0.117635 0.211121
O O3 0.749314 0.940415 0.233272
O O4 0.219677 0.973131 0.304755
O O5 0.517360 0.168429 0.887492
O O6 0.364342 0.188381 0.702801
O O7 0.188540 0.159614 0.461568
O O8 0.079363 0.304647 0.589154
O O9 0.675775 0.217779 0.487397
O O10 0.021659 0.694316 0.299147
#
# Coordination Sequence:
#
# PCOD9138367 Si02
#       5
#     4   4   4   4   4
#     4  10  23  43  63  94 131 173 212 280 319 384
#     4  11  22  42  68  91 132 174 217 266 339 379
#     4  11  21  42  68  96 129 185 208 274 335 391
#     4   9  22  40  63  92 134 168 213 279 317 379
#     4   9  24  43  66  93 138 166 226 269 326 391
#
# _framework density 24.079556
#
# number of rings (size 3 to 8) (size 9 to 14) (size 15 to 20)
#    1.200    0.800    0.000    3.600    0.000    6.400 
#   10.800    0.000    0.000    0.000    0.000    0.000 
#    0.000    0.000    0.000    0.000    0.000    0.000 
#
# Total GULP energy -55784.784154 kJ/mol
# GULP energy per Si atom -5578.478415 kJ/mol
# Density = 2.402475 g / cm^3
# Si number density = 24.079556 Si / 1000 Ang^3
#
#
#
# Elastic Constant Matrix: (Units=GPa)
#
#
# Indices 1 2 3 4 5 6 
#
# 1 153.8192 36.4451 41.9529 0.0000 29.3765 0.0000
# 2 36.4451 88.5354 25.8268 0.0000 18.3641 0.0000
# 3 41.9529 25.8268 117.3022 0.0000 27.8589 0.0000
# 4 0.0000 0.0000 0.0000 4.5594 0.0000 14.4444
# 5 29.3765 18.3641 27.8589 0.0000 35.5022 0.0000
# 6 0.0000 0.0000 0.0000 14.4444 0.0000 42.6564
#
#
#
# Elastic Compliance Matrix: (Units=1/GPa)
#
#
# Indices 1 2 3 4 5 6 
#
# 1 0.008256 -0.002018 -0.001394 0.000000 -0.004694 0.000000
# 2 -0.002018 0.013368 -0.001199 0.000000 -0.004304 0.000000
# 3 -0.001394 -0.001199 0.010897 0.000000 -0.006778 0.000000
# 4 0.000000 0.000000 0.000000 -3.013919 0.000000 1.020580
# 5 -0.004694 -0.004304 -0.006778 0.000000 0.039596 0.000000
# 6 0.000000 0.000000 0.000000 1.020580 0.000000 -0.322148
#
#
# Mechanical properties :
#
#
# Convention : Reuss Voigt Hill
#
# Bulk Modulus (GPa) = 42.92078 63.12293 53.02186
# Shear Modulus (GPa) = -1.53990 33.57239 16.01624
#
# Velocity S-wave (km/s) = -0.80056 3.73799 2.58183
# Velocity P-wave (km/s) = 4.12417 6.70084 5.56372
#
# Compressibility (1/GPa) = 0.02329874
#
# Stress axis : x y z
#
# Youngs Moduli (GPa) = 121.12599 74.80376 91.76744
#
# Poissons Ratio (x) = 0.15098 0.12788
# Poissons Ratio (y) = 0.24448 0.11006
# Poissons Ratio (z) = 0.16879 0.08972
#
# Static dielectric constant tensor:
#      x y z
#    x 1.893410 0.000000 -0.030280 
#    y 0.000000 2.001170 0.000000 
#    z -0.030280 0.000000 1.929140 
# 
# From -- ./inp_files/12933.got.cif
#   From: 2010.05.17/outbox.cif.g08.bks.cpg/sg9_7_cif.got.tgz:12933.got - 2010.06.03 20:04:27.
