data_PCOD9138287
_publ_section_title
;
Structure prediction by ZEFSAII (Michael W. Deem and Ramdas Pophale) SiO2 
 PCOD9138287
Probable space group: C C
;
_chemical_formula_sum "Si O2"
_cell_formula_units_Z 32
_cell_length_a 9.463933
_cell_length_b 29.122808
_cell_length_c 8.573100
_cell_angle_alpha 90.000000
_cell_angle_beta 30.307753
_cell_angle_gamma 90.000000
_cell_volume 1192.417373
_symmetry_space_group_name_H-M "C C"
_symmetry_group_IT_number 9
_symmetry_cell_setting 'monoclinic'
loop_
_space_group_symop_operation_xyz
x,y,z
x,-y,1/2+z
1/2+x,1/2+y,z
1/2+x,1/2-y,1/2+z
loop_
_atom_site_type_symbol
_atom_site_label
_atom_site_fract_x
_atom_site_fract_y
_atom_site_fract_z
Si Si1 0.318670 0.280913 0.326710
Si Si2 0.022649 0.337983 0.877209
Si Si3 0.705522 0.719488 0.941839
Si Si4 0.219622 0.408249 0.916649
Si Si5 0.402130 0.021044 0.505937
Si Si6 0.998934 0.656992 0.898999
Si Si7 0.262644 0.093476 0.395180
Si Si8 0.904334 0.958042 0.010693
O O1 0.207384 0.307472 0.584535
O O2 0.227437 0.311631 0.267549
O O3 0.139521 0.233600 0.505713
O O4 0.242645 0.372098 0.753993
O O5 0.799092 0.369624 0.997649
O O6 0.832062 0.308917 0.177379
O O7 0.882286 0.766941 0.759864
O O8 0.785408 0.692019 0.021037
O O9 0.025141 0.446957 0.024279
O O10 0.456060 0.433667 0.793833
O O11 0.098940 0.375478 0.165374
O O12 0.403724 0.049195 0.342492
O O13 0.091410 0.003826 0.837526
O O14 0.589065 0.975658 0.315121
O O15 0.886495 0.622149 0.134664
O O16 0.980715 0.073579 0.585501
#
# Coordination Sequence:
#
# PCOD9138287 Si02
#       8
#     4   4   4   4   4   4   4   4
#     4  11  23  43  68  98 132 175 222 272 328 395
#     4   9  22  44  69  99 138 178 222 275 335 396
#     4  11  23  43  68  98 132 175 222 272 328 395
#     4  10  23  44  68 100 137 178 223 276 336 397
#     4  11  25  46  70  98 134 178 226 276 332 398
#     4  10  23  42  66  98 136 174 218 274 334 394
#     4  10  23  44  68 100 137 178 223 276 336 397
#     4  12  24  44  71 101 132 176 226 279 331 396
#
# _framework density 26.836243
#
# number of rings (size 3 to 8) (size 9 to 14) (size 15 to 20)
#    0.000    1.500    0.000    3.750    0.000    6.000 
#    0.000   22.500    0.000    0.000    0.000    0.000 
#    0.000    0.000    0.000    0.000    0.000    0.000 
#
# Total GULP energy -89694.923971 kJ/mol
# GULP energy per Si atom -5605.932748 kJ/mol
# Density = 2.677516 g / cm^3
# Si number density = 26.836243 Si / 1000 Ang^3
#
#
#
# Elastic Constant Matrix: (Units=GPa)
#
#
# Indices 1 2 3 4 5 6 
#
# 1 181.0804 60.5924 30.7974 0.0000 21.2072 0.0000
# 2 60.5924 126.0100 14.2165 0.0000 10.4051 0.0000
# 3 30.7974 14.2165 73.6941 0.0000 9.7436 0.0000
# 4 0.0000 0.0000 0.0000 7.2420 0.0000 5.3442
# 5 21.2072 10.4051 9.7436 0.0000 37.0741 0.0000
# 6 0.0000 0.0000 0.0000 5.3442 0.0000 50.5428
#
#
#
# Elastic Compliance Matrix: (Units=1/GPa)
#
#
# Indices 1 2 3 4 5 6 
#
# 1 0.007199 -0.003003 -0.002068 0.000000 -0.002732 0.000000
# 2 -0.003003 0.009501 -0.000469 0.000000 -0.000826 0.000000
# 3 -0.002068 -0.000469 0.014867 0.000000 -0.002593 0.000000
# 4 0.000000 0.000000 0.000000 0.149769 0.000000 -0.015836
# 5 -0.002732 -0.000826 -0.002593 0.000000 0.029449 0.000000
# 6 0.000000 0.000000 0.000000 -0.015836 0.000000 0.021460
#
#
# Mechanical properties :
#
#
# Convention : Reuss Voigt Hill
#
# Bulk Modulus (GPa) = 48.80983 65.77742 57.29363
# Shear Modulus (GPa) = 19.98782 37.31700 28.65241
#
# Velocity S-wave (km/s) = 2.73208 3.73305 3.27108
# Velocity P-wave (km/s) = 5.30847 6.56846 5.97179
#
# Compressibility (1/GPa) = 0.02048768
#
# Stress axis : x y z
#
# Youngs Moduli (GPa) = 138.91219 105.25423 67.26264
#
# Poissons Ratio (x) = 0.31605 0.13910
# Poissons Ratio (y) = 0.41711 0.03153
# Poissons Ratio (z) = 0.28727 0.04934
#
# Static dielectric constant tensor:
#      x y z
#    x 2.086930 0.000000 -0.003470 
#    y 0.000000 2.094750 0.000000 
#    z -0.003470 0.000000 2.047580 
# 
# From -- ./inp_files/6567.got.cif
#   From: 2010.05.17/outbox.cif.g08.bks.cpg/sg9_4_cif.got.tgz:6567.got - 2010.06.03 20:04:27.
