data_PCOD9138342
_publ_section_title
;
Structure prediction by ZEFSAII (Michael W. Deem and Ramdas Pophale) SiO2 
 PCOD9138342
Probable space group: C C
;
_chemical_formula_sum "Si O2"
_cell_formula_units_Z 28
_cell_length_a 19.580162
_cell_length_b 5.475030
_cell_length_c 10.546861
_cell_angle_alpha 90.000000
_cell_angle_beta 78.416481
_cell_angle_gamma 90.000000
_cell_volume 1107.616545
_symmetry_space_group_name_H-M "C C"
_symmetry_group_IT_number 9
_symmetry_cell_setting 'monoclinic'
loop_
_space_group_symop_operation_xyz
x,y,z
x,-y,1/2+z
1/2+x,1/2+y,z
1/2+x,1/2-y,1/2+z
loop_
_atom_site_type_symbol
_atom_site_label
_atom_site_fract_x
_atom_site_fract_y
_atom_site_fract_z
Si Si1 0.220370 0.918248 0.002880
Si Si2 0.388485 0.698976 0.124096
Si Si3 0.845442 0.309161 0.559782
Si Si4 0.272327 0.425534 0.298776
Si Si5 0.033453 0.221164 0.185491
Si Si6 0.634741 0.894324 0.720335
Si Si7 0.084569 0.033152 0.914871
O O1 0.274869 0.133186 0.008081
O O2 0.172710 0.833610 0.137914
O O3 0.259436 0.670526 0.944397
O O4 0.165759 0.989690 0.915329
O O5 0.386612 0.938132 0.037282
O O6 0.320281 0.651668 0.237447
O O7 0.451740 0.751691 0.195981
O O8 0.387218 0.447326 0.039797
O O9 0.815117 0.291001 0.714548
O O10 0.197910 0.460627 0.260243
O O11 0.087719 0.443986 0.144305
O O12 0.052138 0.137088 0.319849
O O13 0.048539 0.034022 0.064396
O O14 0.583368 0.796180 0.847791
#
# Coordination Sequence:
#
# PCOD9138342 Si02
#       7
#     4   4   4   4   4   4   4
#     4  12  21  43  78 113 153 198 272 335 400 471
#     4  10  26  48  72 106 157 204 259 320 401 485
#     4  10  23  47  69 109 152 196 256 323 395 468
#     4  10  23  42  71 112 141 201 251 330 386 466
#     4  12  28  50  74 113 157 212 260 330 401 493
#     4  12  24  46  76 112 153 203 265 329 400 475
#     4  12  27  46  78 113 153 204 263 331 403 470
#
# _framework density 25.279509999999998
#
# number of rings (size 3 to 8) (size 9 to 14) (size 15 to 20)
#    0.857    0.000    4.286    2.571    2.000    2.286 
#    2.571    0.000    0.000    0.000    0.000    0.000 
#    0.000    0.000    0.000    0.000    0.000    0.000 
#
# Total GULP energy -78127.240439 kJ/mol
# GULP energy per Si atom -5580.517174 kJ/mol
# Density = 2.522197 g / cm^3
# Si number density = 25.279510 Si / 1000 Ang^3
#
#
#
# Elastic Constant Matrix: (Units=GPa)
#
#
# Indices 1 2 3 4 5 6 
#
# 1 125.5864 25.7471 -4.6566 0.0000 44.1483 0.0000
# 2 25.7471 121.9165 -0.3717 0.0000 17.1076 0.0000
# 3 -4.6566 -0.3717 66.7089 0.0000 12.5895 0.0000
# 4 0.0000 0.0000 0.0000 30.4937 0.0000 3.1442
# 5 44.1483 17.1076 12.5895 0.0000 37.7224 0.0000
# 6 0.0000 0.0000 0.0000 3.1442 0.0000 4.5436
#
#
#
# Elastic Compliance Matrix: (Units=1/GPa)
#
#
# Indices 1 2 3 4 5 6 
#
# 1 0.014755 -0.000499 0.004529 0.000000 -0.018554 0.000000
# 2 -0.000499 0.008822 0.000704 0.000000 -0.003652 0.000000
# 3 0.004529 0.000704 0.017471 0.000000 -0.011450 0.000000
# 4 0.000000 0.000000 0.000000 0.035313 0.000000 -0.024437
# 5 -0.018554 -0.003652 -0.011450 0.000000 0.053702 0.000000
# 6 0.000000 0.000000 0.000000 -0.024437 0.000000 0.237000
#
#
# Mechanical properties :
#
#
# Convention : Reuss Voigt Hill
#
# Bulk Modulus (GPa) = 19.79562 39.51658 29.65610
# Shear Modulus (GPa) = 13.35345 34.11815 23.73580
#
# Velocity S-wave (km/s) = 2.30082 3.67773 3.06753
# Velocity P-wave (km/s) = 3.86084 5.80517 4.92981
#
# Compressibility (1/GPa) = 0.05051624
#
# Stress axis : x y z
#
# Youngs Moduli (GPa) = 67.77255 113.34927 57.23616
#
# Poissons Ratio (x) = 0.05653 -0.25921
# Poissons Ratio (y) = 0.03380 -0.04027
# Poissons Ratio (z) = -0.30693 -0.07975
#
# Static dielectric constant tensor:
#      x y z
#    x 2.022440 0.000000 0.011410 
#    y 0.000000 2.097880 0.000000 
#    z 0.011410 0.000000 1.976540 
# 
# From -- ./inp_files/19584.got.cif
#   From: 2010.05.17/outbox.cif.g08.bks.cpg/sg9_10_cif.got.tgz:19584.got - 2010.06.03 20:04:27.
