data_PCOD9138726
_publ_section_title
;
Structure prediction by ZEFSAII (Michael W. Deem and Ramdas Pophale) SiO2 
 PCOD9138726
Probable space group: C C
;
_chemical_formula_sum "Si O2"
_cell_formula_units_Z 28
_cell_length_a 7.195097
_cell_length_b 17.062910
_cell_length_c 12.667223
_cell_angle_alpha 90.000000
_cell_angle_beta 48.295439
_cell_angle_gamma 90.000000
_cell_volume 1161.049030
_symmetry_space_group_name_H-M "C C"
_symmetry_group_IT_number 9
_symmetry_cell_setting 'monoclinic'
loop_
_space_group_symop_operation_xyz
x,y,z
x,-y,1/2+z
1/2+x,1/2+y,z
1/2+x,1/2-y,1/2+z
loop_
_atom_site_type_symbol
_atom_site_label
_atom_site_fract_x
_atom_site_fract_y
_atom_site_fract_z
Si Si1 0.106350 0.792114 0.433720
Si Si2 0.285655 0.832953 0.963849
Si Si3 0.706974 0.441473 0.627616
Si Si4 0.253655 0.590726 0.181028
Si Si5 0.178231 0.099058 0.730308
Si Si6 0.656747 0.018972 0.993958
Si Si7 0.928341 0.149697 0.401379
O O1 0.074511 0.839693 0.955422
O O2 0.914549 0.751538 0.424479
O O3 0.933055 0.835561 0.584583
O O4 0.260375 0.851932 0.301528
O O5 0.771820 0.774647 0.925456
O O6 0.192072 0.853163 0.116597
O O7 0.520823 0.888049 0.842450
O O8 0.466584 0.463895 0.652131
O O9 0.821448 0.518100 0.646540
O O10 0.973492 0.434087 0.474822
O O11 0.628897 0.372562 0.734526
O O12 0.147490 0.557357 0.114889
O O13 0.917979 0.061448 0.858845
O O14 0.755536 0.927697 0.964807
#
# Coordination Sequence:
#
# PCOD9138726 Si02
#       7
#     4   4   4   4   4   4   4
#     4  11  25  48  68 107 151 196 241 304 367 445
#     4  12  23  45  71 106 150 192 238 306 368 442
#     4  11  22  45  75 103 140 189 246 303 365 441
#     4  11  24  44  74 103 147 191 240 307 368 429
#     4  10  25  44  73 105 146 187 245 308 367 427
#     4  10  23  46  70 107 140 194 253 303 356 449
#     4  11  24  44  75 105 146 199 247 303 369 435
#
# _framework density 24.116121
#
# number of rings (size 3 to 8) (size 9 to 14) (size 15 to 20)
#    0.000    1.143    2.857    2.571    2.000    2.286 
#    2.571    5.714    0.000    0.000    0.000    0.000 
#    0.000    0.000    0.000    0.000    0.000    0.000 
#
# Total GULP energy -78094.812562 kJ/mol
# GULP energy per Si atom -5578.200897 kJ/mol
# Density = 2.406123 g / cm^3
# Si number density = 24.116121 Si / 1000 Ang^3
#
#
#
# Elastic Constant Matrix: (Units=GPa)
#
#
# Indices 1 2 3 4 5 6 
#
# 1 153.4130 38.2181 45.5588 0.0000 -14.1065 0.0000
# 2 38.2181 97.2040 23.4691 0.0000 -4.1563 0.0000
# 3 45.5588 23.4691 78.5130 0.0000 6.6631 0.0000
# 4 0.0000 0.0000 0.0000 36.6387 0.0000 4.4460
# 5 -14.1065 -4.1563 6.6631 0.0000 36.5681 0.0000
# 6 0.0000 0.0000 0.0000 4.4460 0.0000 40.7101
#
#
#
# Elastic Compliance Matrix: (Units=1/GPa)
#
#
# Indices 1 2 3 4 5 6 
#
# 1 0.008865 -0.002141 -0.004849 0.000000 0.004060 0.000000
# 2 -0.002141 0.011736 -0.002345 0.000000 0.000935 0.000000
# 3 -0.004849 -0.002345 0.016691 0.000000 -0.005178 0.000000
# 4 0.000000 0.000000 0.000000 0.027660 0.000000 -0.003021
# 5 0.004060 0.000935 -0.005178 0.000000 0.029962 0.000000
# 6 0.000000 0.000000 0.000000 -0.003021 0.000000 0.024894
#
#
# Mechanical properties :
#
#
# Convention : Reuss Voigt Hill
#
# Bulk Modulus (GPa) = 53.70036 60.40245 57.05141
# Shear Modulus (GPa) = 34.55810 37.57566 36.06688
#
# Velocity S-wave (km/s) = 3.78959 3.95158 3.87143
# Velocity P-wave (km/s) = 6.43923 6.77649 6.61001
#
# Compressibility (1/GPa) = 0.01862185
#
# Stress axis : x y z
#
# Youngs Moduli (GPa) = 112.80394 85.21042 59.91395
#
# Poissons Ratio (x) = 0.18245 0.29050
# Poissons Ratio (y) = 0.24154 0.14049
# Poissons Ratio (z) = 0.54694 0.19981
#
# Static dielectric constant tensor:
#      x y z
#    x 1.967070 0.000000 -0.004730 
#    y 0.000000 2.141190 0.000000 
#    z -0.004730 0.000000 2.048380 
# 
# From -- ./inp_files/23637.got.cif
#   From: 2010.05.17/outbox.cif.g08.bks.cpg/sg9_12_cif.got.tgz:23637.got - 2010.06.03 20:04:27.
