data_PCOD9138676
_publ_section_title
;
Structure prediction by ZEFSAII (Michael W. Deem and Ramdas Pophale) SiO2 
 PCOD9138676
Probable space group: C C
;
_chemical_formula_sum "Si O2"
_cell_formula_units_Z 32
_cell_length_a 12.616952
_cell_length_b 8.794691
_cell_length_c 11.993769
_cell_angle_alpha 90.000000
_cell_angle_beta 111.586854
_cell_angle_gamma 90.000000
_cell_volume 1237.509991
_symmetry_space_group_name_H-M "C C"
_symmetry_group_IT_number 9
_symmetry_cell_setting 'monoclinic'
loop_
_space_group_symop_operation_xyz
x,y,z
x,-y,1/2+z
1/2+x,1/2+y,z
1/2+x,1/2-y,1/2+z
loop_
_atom_site_type_symbol
_atom_site_label
_atom_site_fract_x
_atom_site_fract_y
_atom_site_fract_z
Si Si1 0.721960 0.130807 0.189100
Si Si2 0.923509 0.558824 0.342271
Si Si3 0.381532 0.650551 0.687597
Si Si4 0.578298 0.922749 0.242076
Si Si5 0.251688 0.265677 0.458451
Si Si6 0.024042 0.777294 0.526494
Si Si7 0.068433 0.038292 0.389446
Si Si8 0.884811 0.257720 0.433526
O O1 0.777622 0.207328 0.317504
O O2 0.787000 0.974458 0.181621
O O3 0.598493 0.074039 0.177774
O O4 0.730543 0.228603 0.082135
O O5 0.861621 0.699066 0.256050
O O6 0.033028 0.644348 0.438018
O O7 0.888101 0.440164 0.423905
O O8 0.960929 0.446901 0.258900
O O9 0.497437 0.562037 0.771833
O O10 0.380557 0.695541 0.557792
O O11 0.680837 0.896729 0.368139
O O12 0.571368 0.778648 0.160316
O O13 0.385737 0.288263 0.487305
O O14 0.185830 0.112701 0.395782
O O15 0.080690 0.924853 0.498412
O O16 0.988886 0.174055 0.407590
#
# Coordination Sequence:
#
# PCOD9138676 Si02
#       8
#     4   4   4   4   4   4   4   4
#     4  11  25  46  74 109 147 200 254 316 394 466
#     4  11  23  43  70 107 149 194 242 316 381 454
#     4  10  23  45  75 108 154 198 254 315 393 459
#     4  12  24  45  73 104 151 196 243 329 383 456
#     4  12  25  47  75 112 148 204 262 309 398 466
#     4  11  26  49  70 106 157 193 257 325 376 467
#     4  10  24  45  73 108 147 197 253 311 382 465
#     4  11  22  44  76 104 145 198 249 319 383 465
#
# _framework density 25.858376
#
# number of rings (size 3 to 8) (size 9 to 14) (size 15 to 20)
#    0.000    1.000    1.250    6.000    5.250    0.000 
#   15.750    0.000    0.000    0.000    0.000    0.000 
#    0.000    0.000    0.000    0.000    0.000    0.000 
#
# Total GULP energy -89552.799055 kJ/mol
# GULP energy per Si atom -5597.049941 kJ/mol
# Density = 2.579952 g / cm^3
# Si number density = 25.858376 Si / 1000 Ang^3
#
#
#
# Elastic Constant Matrix: (Units=GPa)
#
#
# Indices 1 2 3 4 5 6 
#
# 1 42.1856 8.6581 13.0596 0.0000 4.2820 0.0000
# 2 8.6581 133.5150 28.7412 0.0000 1.2652 0.0000
# 3 13.0596 28.7412 143.1431 0.0000 -4.3550 0.0000
# 4 0.0000 0.0000 0.0000 36.6073 0.0000 -11.3156
# 5 4.2820 1.2652 -4.3550 0.0000 28.8647 0.0000
# 6 0.0000 0.0000 0.0000 -11.3156 0.0000 37.5064
#
#
#
# Elastic Compliance Matrix: (Units=1/GPa)
#
#
# Indices 1 2 3 4 5 6 
#
# 1 0.025013 -0.001115 -0.002180 0.000000 -0.003991 0.000000
# 2 -0.001115 0.007888 -0.001494 0.000000 -0.000406 0.000000
# 3 -0.002180 -0.001494 0.007531 0.000000 0.001525 0.000000
# 4 0.000000 0.000000 0.000000 0.030126 0.000000 0.009089
# 5 -0.003991 -0.000406 0.001525 0.000000 0.035484 0.000000
# 6 0.000000 0.000000 0.000000 0.009089 0.000000 0.029404
#
#
# Mechanical properties :
#
#
# Convention : Reuss Voigt Hill
#
# Bulk Modulus (GPa) = 32.41032 46.64018 39.52525
# Shear Modulus (GPa) = 32.19363 38.48800 35.34081
#
# Velocity S-wave (km/s) = 3.53228 3.86218 3.70091
# Velocity P-wave (km/s) = 5.40343 6.16154 5.79489
#
# Compressibility (1/GPa) = 0.03085437
#
# Stress axis : x y z
#
# Youngs Moduli (GPa) = 39.97849 126.78079 132.77889
#
# Poissons Ratio (x) = 0.14137 0.28941
# Poissons Ratio (y) = 0.04458 0.19842
# Poissons Ratio (z) = 0.08714 0.18945
#
# Static dielectric constant tensor:
#      x y z
#    x 2.090010 0.000000 -0.040690 
#    y 0.000000 2.022360 0.000000 
#    z -0.040690 0.000000 2.044720 
# 
# From -- ./inp_files/17957.got.cif
#   From: 2010.05.17/outbox.cif.g08.bks.cpg/sg9_9_cif.got.tgz:17957.got - 2010.06.03 20:04:27.
