data_PCOD9138005
_publ_section_title
;
Structure prediction by ZEFSAII (Michael W. Deem and Ramdas Pophale) SiO2 
 PCOD9138005
Probable space group: C C
;
_chemical_formula_sum "Si O2"
_cell_formula_units_Z 32
_cell_length_a 9.014428
_cell_length_b 28.146519
_cell_length_c 5.651203
_cell_angle_alpha 90.000000
_cell_angle_beta 107.335330
_cell_angle_gamma 90.000000
_cell_volume 1368.720757
_symmetry_space_group_name_H-M "C C"
_symmetry_group_IT_number 9
_symmetry_cell_setting 'monoclinic'
loop_
_space_group_symop_operation_xyz
x,y,z
x,-y,1/2+z
1/2+x,1/2+y,z
1/2+x,1/2-y,1/2+z
loop_
_atom_site_type_symbol
_atom_site_label
_atom_site_fract_x
_atom_site_fract_y
_atom_site_fract_z
Si Si1 0.497050 0.972987 0.686590
Si Si2 0.372231 0.311284 0.811316
Si Si3 0.868802 0.976444 0.144205
Si Si4 0.196508 0.937736 0.347679
Si Si5 0.859940 0.369846 0.092200
Si Si6 0.669825 0.111092 0.476150
Si Si7 0.693556 0.715271 0.730961
Si Si8 0.105459 0.846053 0.577608
O O1 0.313326 0.961074 0.589321
O O2 0.580428 0.921464 0.737760
O O3 0.529501 0.001249 0.456062
O O4 0.268183 0.346185 0.917562
O O5 0.267828 0.265558 0.709242
O O6 0.439402 0.340449 0.621166
O O7 0.532769 0.294691 0.015283
O O8 0.054461 0.971285 0.220488
O O9 0.826949 0.006298 0.358691
O O10 0.788264 0.926013 0.146151
O O11 0.305897 0.918856 0.188001
O O12 0.115222 0.888982 0.397717
O O13 0.823824 0.324920 0.241299
O O14 0.740186 0.359957 0.823606
O O15 0.034594 0.372389 0.086902
O O16 0.647503 0.704412 0.979597
#
# Coordination Sequence:
#
# PCOD9138005 Si02
#       8
#     4   4   4   4   4   4   4   4
#     4  12  26  47  76 113 151 200 265 326 382 459
#     4  11  27  46  75 108 154 194 252 312 388 464
#     4  12  29  49  74 111 158 203 263 327 389 466
#     4  11  24  47  77 107 145 204 257 312 390 457
#     4  10  23  45  75 108 145 192 252 311 375 471
#     4  12  26  49  73 107 157 202 251 322 399 450
#     4  10  25  47  72 113 143 198 253 308 383 459
#     4  10  22  46  72 105 147 189 253 306 372 474
#
# _framework density 23.379497000000001
#
# number of rings (size 3 to 8) (size 9 to 14) (size 15 to 20)
#    0.000    1.000    1.250    4.500    7.000    2.000 
#    6.750    0.000    0.000    0.000    0.000    0.000 
#    0.000    0.000    0.000    0.000    0.000    0.000 
#
# Total GULP energy -89488.551629 kJ/mol
# GULP energy per Si atom -5593.034477 kJ/mol
# Density = 2.332628 g / cm^3
# Si number density = 23.379497 Si / 1000 Ang^3
#
#
#
# Elastic Constant Matrix: (Units=GPa)
#
#
# Indices 1 2 3 4 5 6 
#
# 1 198.4077 65.1235 41.4544 0.0000 -15.5783 0.0000
# 2 65.1235 92.0877 27.6387 0.0000 -5.8217 0.0000
# 3 41.4544 27.6387 81.5658 0.0000 -0.6379 0.0000
# 4 0.0000 0.0000 0.0000 28.1870 0.0000 7.2065
# 5 -15.5783 -5.8217 -0.6379 0.0000 42.6241 0.0000
# 6 0.0000 0.0000 0.0000 7.2065 0.0000 52.1841
#
#
#
# Elastic Compliance Matrix: (Units=1/GPa)
#
#
# Indices 1 2 3 4 5 6 
#
# 1 0.007017 -0.004200 -0.002128 0.000000 0.001959 0.000000
# 2 -0.004200 0.014711 -0.002847 0.000000 0.000432 0.000000
# 3 -0.002128 -0.002847 0.014299 0.000000 -0.000953 0.000000
# 4 0.000000 0.000000 0.000000 0.036776 0.000000 -0.005079
# 5 0.001959 0.000432 -0.000953 0.000000 0.024222 0.000000
# 6 0.000000 0.000000 0.000000 -0.005079 0.000000 0.019864
#
#
# Mechanical properties :
#
#
# Convention : Reuss Voigt Hill
#
# Bulk Modulus (GPa) = 56.56917 71.16603 63.86760
# Shear Modulus (GPa) = 35.42818 40.45534 37.94176
#
# Velocity S-wave (km/s) = 3.89698 4.16429 4.03285
# Velocity P-wave (km/s) = 6.67062 7.32307 7.00445
#
# Compressibility (1/GPa) = 0.01767747
#
# Stress axis : x y z
#
# Youngs Moduli (GPa) = 142.50956 67.97579 69.93629
#
# Poissons Ratio (x) = 0.28549 0.14881
# Poissons Ratio (y) = 0.59853 0.19911
# Poissons Ratio (z) = 0.30324 0.19353
#
# Static dielectric constant tensor:
#      x y z
#    x 1.895060 0.000000 -0.018150 
#    y 0.000000 1.874300 0.000000 
#    z -0.018150 0.000000 1.946930 
# 
# From -- ./inp_files/1420.got.cif
#   From: 2010.05.17/outbox.cif.g08.bks.cpg/sg9_1_cif.got.tgz:1420.got - 2010.06.03 20:04:27.
