data_PCOD9138827
_publ_section_title
;
Structure prediction by ZEFSAII (Michael W. Deem and Ramdas Pophale) SiO2 
 PCOD9138827
Probable space group: C C
;
_chemical_formula_sum "Si O2"
_cell_formula_units_Z 20
_cell_length_a 14.262888
_cell_length_b 6.040188
_cell_length_c 11.090737
_cell_angle_alpha 90.000000
_cell_angle_beta 56.589299
_cell_angle_gamma 90.000000
_cell_volume 797.576190
_symmetry_space_group_name_H-M "C C"
_symmetry_group_IT_number 9
_symmetry_cell_setting 'monoclinic'
loop_
_space_group_symop_operation_xyz
x,y,z
x,-y,1/2+z
1/2+x,1/2+y,z
1/2+x,1/2-y,1/2+z
loop_
_atom_site_type_symbol
_atom_site_label
_atom_site_fract_x
_atom_site_fract_y
_atom_site_fract_z
Si Si1 0.269030 0.574528 0.054980
Si Si2 0.984303 0.852674 0.010906
Si Si3 0.870610 0.403324 0.787675
Si Si4 0.666384 0.582402 0.784145
Si Si5 0.065137 0.291372 0.219777
O O1 0.371812 0.422509 0.021390
O O2 0.164477 0.427265 0.085116
O O3 0.215586 0.687428 0.210263
O O4 0.317685 0.771080 0.937442
O O5 0.954408 0.762797 0.160837
O O6 0.065581 0.065706 0.951089
O O7 0.046091 0.675105 0.880111
O O8 0.770085 0.451792 0.767272
O O9 0.945064 0.623356 0.757344
O O10 0.612667 0.458032 0.705050
#
# Coordination Sequence:
#
# PCOD9138827 Si02
#       5
#     4   4   4   4   4
#     4  12  24  47  73 104 146 188 242 307 356 440
#     4  10  23  48  68 106 146 186 245 298 360 439
#     4  12  23  45  78 103 142 196 236 297 376 422
#     4  10  25  47  67 108 143 186 245 296 360 439
#     4  10  25  47  68 103 149 182 244 298 356 442
#
# _framework density 25.075973999999999
#
# number of rings (size 3 to 8) (size 9 to 14) (size 15 to 20)
#    1.200    0.000    2.000    3.600    0.000    1.600 
#    7.200    0.000    0.000    0.000    0.000    0.000 
#    0.000    0.000    0.000    0.000    0.000    0.000 
#
# Total GULP energy -55787.504084 kJ/mol
# GULP energy per Si atom -5578.750408 kJ/mol
# Density = 2.501890 g / cm^3
# Si number density = 25.075974 Si / 1000 Ang^3
#
#
#
# Elastic Constant Matrix: (Units=GPa)
#
#
# Indices 1 2 3 4 5 6 
#
# 1 139.0296 48.1447 27.8604 0.0000 -22.6958 0.0000
# 2 48.1447 53.9600 28.8663 -0.0001 -13.7605 0.0002
# 3 27.8604 28.8663 101.1225 0.0000 -30.9317 0.0000
# 4 0.0000 -0.0001 0.0000 37.2332 0.0000 -14.3204
# 5 -22.6958 -13.7605 -30.9317 0.0000 34.5896 0.0000
# 6 0.0000 0.0002 0.0000 -14.3204 0.0000 45.4966
#
#
#
# Elastic Compliance Matrix: (Units=1/GPa)
#
#
# Indices 1 2 3 4 5 6 
#
# 1 0.010859 -0.009078 0.000928 0.000000 0.004344 0.000000
# 2 -0.009078 0.029934 -0.005813 0.000000 0.000753 0.000000
# 3 0.000928 -0.005813 0.014827 0.000000 0.011556 0.000000
# 4 0.000000 0.000000 0.000000 0.030557 0.000000 0.009618
# 5 0.004344 0.000753 0.011556 0.000000 0.042394 0.000000
# 6 0.000000 0.000000 0.000000 0.009618 0.000000 0.025007
#
#
# Mechanical properties :
#
#
# Convention : Reuss Voigt Hill
#
# Bulk Modulus (GPa) = 36.10803 55.98387 46.04595
# Shear Modulus (GPa) = 26.21418 36.07992 31.14705
#
# Velocity S-wave (km/s) = 3.23676 3.79730 3.52818
# Velocity P-wave (km/s) = 5.32912 6.44982 5.91606
#
# Compressibility (1/GPa) = 0.02769467
#
# Stress axis : x y z
#
# Youngs Moduli (GPa) = 92.08589 33.40708 67.44243
#
# Poissons Ratio (x) = 0.30326 -0.06260
# Poissons Ratio (y) = 0.83594 0.39207
# Poissons Ratio (z) = -0.08548 0.19421
#
# Static dielectric constant tensor:
#      x y z
#    x 1.970900 0.000000 -0.002220 
#    y 0.000000 2.091290 0.000000 
#    z -0.002220 0.000000 1.981600 
# 
# From -- ./inp_files/17512.got.cif
#   From: 2010.05.17/outbox.cif.g08.bks.cpg/sg9_9_cif.got.tgz:17512.got - 2010.06.03 20:04:27.
