data_PCOD9138285
_publ_section_title
;
Structure prediction by ZEFSAII (Michael W. Deem and Ramdas Pophale) SiO2 
 PCOD9138285
Probable space group: C C
;
_chemical_formula_sum "Si O2"
_cell_formula_units_Z 28
_cell_length_a 14.935790
_cell_length_b 14.456975
_cell_length_c 8.683331
_cell_angle_alpha 90.000000
_cell_angle_beta 39.159012
_cell_angle_gamma 90.000000
_cell_volume 1183.989865
_symmetry_space_group_name_H-M "C C"
_symmetry_group_IT_number 9
_symmetry_cell_setting 'monoclinic'
loop_
_space_group_symop_operation_xyz
x,y,z
x,-y,1/2+z
1/2+x,1/2+y,z
1/2+x,1/2-y,1/2+z
loop_
_atom_site_type_symbol
_atom_site_label
_atom_site_fract_x
_atom_site_fract_y
_atom_site_fract_z
Si Si1 0.301660 0.700863 0.892040
Si Si2 0.182680 0.300306 0.054948
Si Si3 0.086884 0.398360 0.897609
Si Si4 0.114254 0.003204 0.254480
Si Si5 0.107857 0.811791 0.954647
Si Si6 0.267620 0.888626 0.282450
Si Si7 0.809096 0.058626 0.598695
O O1 0.242169 0.788154 0.878828
O O2 0.461491 0.710231 0.736617
O O3 0.308024 0.620259 0.753735
O O4 0.188968 0.669630 0.166995
O O5 0.080074 0.357471 0.079625
O O6 0.245913 0.214425 0.876336
O O7 0.109341 0.254977 0.302184
O O8 0.299013 0.371751 0.967308
O O9 0.171633 0.494481 0.783735
O O10 0.932411 0.405498 0.032059
O O11 0.112709 0.085265 0.383544
O O12 0.953527 0.999812 0.405770
O O13 0.172345 0.913071 0.261790
O O14 0.215836 0.042783 0.987029
#
# Coordination Sequence:
#
# PCOD9138285 Si02
#       7
#     4   4   4   4   4   4   4
#     4  10  23  42  66  98 131 182 232 296 355 429
#     4  10  25  46  74 100 146 190 245 295 375 434
#     4  12  27  40  73 104 143 179 249 304 361 423
#     4  10  25  45  71  99 140 185 242 297 367 433
#     4   9  22  44  68  93 134 188 233 287 365 434
#     4  11  28  44  71 108 144 189 244 311 362 436
#     4  10  24  47  73  94 142 191 239 288 373 441
#
# _framework density 23.648851000000001
#
# number of rings (size 3 to 8) (size 9 to 14) (size 15 to 20)
#    0.000    1.714    0.000    0.857   22.000    2.286 
#    0.000    0.000    0.000    0.000    0.000    0.000 
#    0.000    0.000    0.000    0.000    0.000    0.000 
#
# Total GULP energy -78389.585638 kJ/mol
# GULP energy per Si atom -5599.256117 kJ/mol
# Density = 2.359503 g / cm^3
# Si number density = 23.648851 Si / 1000 Ang^3
#
#
#
# Elastic Constant Matrix: (Units=GPa)
#
#
# Indices 1 2 3 4 5 6 
#
# 1 83.5163 55.6436 25.7563 0.0000 -12.1259 0.0000
# 2 55.6436 96.4245 25.3182 0.0000 -3.0527 0.0000
# 3 25.7563 25.3182 93.4335 0.0000 -21.4952 0.0000
# 4 0.0000 0.0000 0.0000 18.6404 0.0000 12.7859
# 5 -12.1259 -3.0527 -21.4952 0.0000 41.4230 0.0000
# 6 0.0000 0.0000 0.0000 12.7859 0.0000 48.3869
#
#
#
# Elastic Compliance Matrix: (Units=1/GPa)
#
#
# Indices 1 2 3 4 5 6 
#
# 1 0.020686 -0.011375 -0.001612 0.000000 0.004380 0.000000
# 2 -0.011375 0.017447 -0.002342 0.000000 -0.003259 0.000000
# 3 -0.001612 -0.002342 0.013211 0.000000 0.006211 0.000000
# 4 0.000000 0.000000 0.000000 0.065523 0.000000 -0.017314
# 5 0.004380 -0.003259 0.006211 0.000000 0.028406 0.000000
# 6 0.000000 0.000000 0.000000 -0.017314 0.000000 0.025242
#
#
# Mechanical properties :
#
#
# Convention : Reuss Voigt Hill
#
# Bulk Modulus (GPa) = 48.34423 54.09005 51.21714
# Shear Modulus (GPa) = 24.03073 32.80048 28.41561
#
# Velocity S-wave (km/s) = 3.19117 3.72826 3.47012
# Velocity P-wave (km/s) = 5.83652 6.43856 6.14492
#
# Compressibility (1/GPa) = 0.02068499
#
# Stress axis : x y z
#
# Youngs Moduli (GPa) = 48.34273 57.31751 75.69673
#
# Poissons Ratio (x) = 0.65199 0.12204
# Poissons Ratio (y) = 0.54990 0.17726
# Poissons Ratio (z) = 0.07794 0.13422
#
# Static dielectric constant tensor:
#      x y z
#    x 1.888940 0.000000 0.023810 
#    y 0.000000 1.897680 0.000000 
#    z 0.023810 0.000000 1.871270 
# 
# From -- ./inp_files/7512.got.cif
#   From: 2010.05.17/outbox.cif.g08.bks.cpg/sg9_4_cif.got.tgz:7512.got - 2010.06.03 20:04:27.
