data_PCOD9138404
_publ_section_title
;
Structure prediction by ZEFSAII (Michael W. Deem and Ramdas Pophale) SiO2 
 PCOD9138404
Probable space group: C C
;
_chemical_formula_sum "Si O2"
_cell_formula_units_Z 24
_cell_length_a 7.952963
_cell_length_b 14.610323
_cell_length_c 9.478157
_cell_angle_alpha 90.000000
_cell_angle_beta 65.070856
_cell_angle_gamma 90.000000
_cell_volume 998.707771
_symmetry_space_group_name_H-M "C C"
_symmetry_group_IT_number 9
_symmetry_cell_setting 'monoclinic'
loop_
_space_group_symop_operation_xyz
x,y,z
x,-y,1/2+z
1/2+x,1/2+y,z
1/2+x,1/2-y,1/2+z
loop_
_atom_site_type_symbol
_atom_site_label
_atom_site_fract_x
_atom_site_fract_y
_atom_site_fract_z
Si Si1 0.884160 0.101621 0.089650
Si Si2 0.739067 0.426194 0.266818
Si Si3 0.349979 0.394542 0.104527
Si Si4 0.016607 0.729447 0.719882
Si Si5 0.757765 0.585531 0.434850
Si Si6 0.758085 0.786243 0.395008
O O1 0.975345 0.169920 0.172941
O O2 0.807059 0.001114 0.157067
O O3 0.739142 0.158606 0.045863
O O4 0.050229 0.082213 0.920724
O O5 0.838412 0.330268 0.252147
O O6 0.846903 0.508460 0.307347
O O7 0.737674 0.447967 0.102174
O O8 0.545638 0.399569 0.957581
O O9 0.385252 0.340016 0.237833
O O10 0.187729 0.332351 0.092856
O O11 0.072764 0.721712 0.865169
O O12 0.840387 0.686639 0.398328
#
# Coordination Sequence:
#
# PCOD9138404 Si02
#       6
#     4   4   4   4   4   4
#     4  11  22  46  72  96 142 180 231 290 353 411
#     4  11  24  43  67  99 134 178 233 283 349 417
#     4   9  24  43  64  99 136 179 231 282 351 406
#     4  10  24  43  66 108 127 183 232 281 348 416
#     4  11  23  44  68  95 137 179 227 286 349 413
#     4  10  23  43  67  99 132 177 230 286 350 407
#
# _framework density 24.031054000000001
#
# number of rings (size 3 to 8) (size 9 to 14) (size 15 to 20)
#    1.000    0.667    3.333    0.000    7.000    1.333 
#    6.000    0.000    0.000    0.000    0.000    0.000 
#    0.000    0.000    0.000    0.000    0.000    0.000 
#
# Total GULP energy -66862.661457 kJ/mol
# GULP energy per Si atom -5571.888455 kJ/mol
# Density = 2.397636 g / cm^3
# Si number density = 24.031054 Si / 1000 Ang^3
#
#
#
# Elastic Constant Matrix: (Units=GPa)
#
#
# Indices 1 2 3 4 5 6 
#
# 1 61.7832 16.2078 33.4246 0.0000 20.1734 0.0000
# 2 16.2078 178.4922 50.2336 0.0000 21.2215 0.0000
# 3 33.4246 50.2336 64.4471 0.0000 20.3757 0.0000
# 4 0.0000 0.0000 0.0000 36.1362 0.0000 8.4467
# 5 20.1734 21.2215 20.3757 0.0000 38.6096 0.0000
# 6 0.0000 0.0000 0.0000 8.4467 0.0000 33.5558
#
#
#
# Elastic Compliance Matrix: (Units=1/GPa)
#
#
# Indices 1 2 3 4 5 6 
#
# 1 0.024610 0.002033 -0.011918 0.000000 -0.007686 0.000000
# 2 0.002033 0.007391 -0.006236 0.000000 -0.001834 0.000000
# 3 -0.011918 -0.006236 0.028213 0.000000 -0.005235 0.000000
# 4 0.000000 0.000000 0.000000 0.029403 0.000000 -0.007401
# 5 -0.007686 -0.001834 -0.005235 0.000000 0.033687 0.000000
# 6 0.000000 0.000000 0.000000 -0.007401 0.000000 0.031664
#
#
# Mechanical properties :
#
#
# Convention : Reuss Voigt Hill
#
# Bulk Modulus (GPa) = 35.74898 56.05049 45.89974
# Shear Modulus (GPa) = 25.44098 35.31740 30.37919
#
# Velocity S-wave (km/s) = 3.25725 3.83777 3.55937
# Velocity P-wave (km/s) = 5.39024 6.55841 6.00281
#
# Compressibility (1/GPa) = 0.02797282
#
# Stress axis : x y z
#
# Youngs Moduli (GPa) = 40.63424 135.30360 35.44440
#
# Poissons Ratio (x) = -0.27513 0.42244
# Poissons Ratio (y) = -0.08263 0.22102
# Poissons Ratio (z) = 0.48429 0.84369
#
# Static dielectric constant tensor:
#      x y z
#    x 1.998980 0.000000 -0.019350 
#    y 0.000000 2.024620 0.000000 
#    z -0.019350 0.000000 1.936830 
# 
# From -- ./inp_files/14299.got.cif
#   From: 2010.05.17/outbox.cif.g08.bks.cpg/sg9_8_cif.got.tgz:14299.got - 2010.06.03 20:04:27.
