data_PCOD9138015
_publ_section_title
;
Structure prediction by ZEFSAII (Michael W. Deem and Ramdas Pophale) SiO2 
 PCOD9138015
Probable space group: C C
;
_chemical_formula_sum "Si O2"
_cell_formula_units_Z 32
_cell_length_a 9.262808
_cell_length_b 10.944776
_cell_length_c 14.713097
_cell_angle_alpha 90.000000
_cell_angle_beta 105.567880
_cell_angle_gamma 90.000000
_cell_volume 1436.882106
_symmetry_space_group_name_H-M "C C"
_symmetry_group_IT_number 9
_symmetry_cell_setting 'monoclinic'
loop_
_space_group_symop_operation_xyz
x,y,z
x,-y,1/2+z
1/2+x,1/2+y,z
1/2+x,1/2-y,1/2+z
loop_
_atom_site_type_symbol
_atom_site_label
_atom_site_fract_x
_atom_site_fract_y
_atom_site_fract_z
Si Si1 0.418110 0.232439 0.689670
Si Si2 0.466007 0.979750 0.317215
Si Si3 0.985973 0.712386 0.979672
Si Si4 0.468681 0.239477 0.349484
Si Si5 0.204906 0.875471 0.492861
Si Si6 0.266150 0.847080 0.974502
Si Si7 0.588236 0.717641 0.680813
Si Si8 0.643262 0.559145 0.184591
O O1 0.501601 0.109816 0.738857
O O2 0.355666 0.207388 0.577060
O O3 0.266884 0.240841 0.726762
O O4 0.523948 0.350635 0.711064
O O5 0.491269 0.895159 0.408121
O O6 0.547827 0.106131 0.353037
O O7 0.295205 0.026019 0.265302
O O8 0.813381 0.730249 0.973858
O O9 0.049366 0.691670 0.092069
O O10 0.091969 0.815344 0.956998
O O11 0.554548 0.348730 0.413678
O O12 0.331584 0.212592 0.394490
O O13 0.472403 0.272692 0.243952
O O14 0.184727 0.876003 0.596956
O O15 0.274458 0.006965 0.480255
O O16 0.579415 0.575219 0.650047
#
# Coordination Sequence:
#
# PCOD9138015 Si02
#       8
#     4   4   4   4   4   4   4   4
#     4  10  22  46  74 100 144 191 238 308 361 421
#     4  11  24  42  70 104 145 189 243 291 367 436
#     4  11  24  45  71 101 145 193 230 305 359 430
#     4  12  26  45  71 108 142 191 242 295 366 444
#     4  12  22  46  75 103 145 186 240 305 364 430
#     4  11  24  48  73 103 144 187 243 301 367 430
#     4  10  24  46  68 106 148 185 249 298 361 437
#     4  11  22  46  76 103 141 196 243 307 371 424
#
# _framework density 22.270443
#
# number of rings (size 3 to 8) (size 9 to 14) (size 15 to 20)
#    0.000    1.000    6.250    2.250    1.750    0.000 
#    9.000    0.000    0.000    0.000    0.000    0.000 
#    0.000    0.000    0.000    0.000    0.000    0.000 
#
# Total GULP energy -89121.941750 kJ/mol
# GULP energy per Si atom -5570.121359 kJ/mol
# Density = 2.221975 g / cm^3
# Si number density = 22.270443 Si / 1000 Ang^3
#
#
#
# Elastic Constant Matrix: (Units=GPa)
#
#
# Indices 1 2 3 4 5 6 
#
# 1 89.9709 35.3036 30.1865 0.0000 -26.1539 0.0000
# 2 35.3036 87.3950 40.6355 0.0000 10.1347 0.0000
# 3 30.1865 40.6355 109.5502 0.0000 -15.3558 0.0000
# 4 0.0000 0.0000 0.0000 40.1754 0.0000 3.0513
# 5 -26.1539 10.1347 -15.3558 0.0000 33.3525 0.0000
# 6 0.0000 0.0000 0.0000 3.0513 0.0000 38.9550
#
#
#
# Elastic Compliance Matrix: (Units=1/GPa)
#
#
# Indices 1 2 3 4 5 6 
#
# 1 0.021302 -0.011673 0.001388 0.000000 0.020891 0.000000
# 2 -0.011673 0.021951 -0.007637 0.000000 -0.019340 0.000000
# 3 0.001388 -0.007637 0.012888 0.000000 0.009343 0.000000
# 4 0.000000 0.000000 0.000000 0.025040 0.000000 -0.001961
# 5 0.020891 -0.019340 0.009343 0.000000 0.056543 0.000000
# 6 0.000000 0.000000 0.000000 -0.001961 0.000000 0.025824
#
#
# Mechanical properties :
#
#
# Convention : Reuss Voigt Hill
#
# Bulk Modulus (GPa) = 49.26514 55.46304 52.36409
# Shear Modulus (GPa) = 24.25323 34.54927 29.40125
#
# Velocity S-wave (km/s) = 3.30363 3.94299 3.63739
# Velocity P-wave (km/s) = 6.05981 6.75929 6.41908
#
# Compressibility (1/GPa) = 0.02029833
#
# Stress axis : x y z
#
# Youngs Moduli (GPa) = 46.94365 45.55527 77.59146
#
# Poissons Ratio (x) = 0.53178 -0.10773
# Poissons Ratio (y) = 0.54799 0.59255
# Poissons Ratio (z) = -0.06518 0.34790
#
# Static dielectric constant tensor:
#      x y z
#    x 1.919370 0.000000 0.010020 
#    y 0.000000 1.809390 0.000000 
#    z 0.010020 0.000000 1.889000 
# 
# From -- ./inp_files/22805.got.cif
#   From: 2010.05.17/outbox.cif.g08.bks.cpg/sg9_12_cif.got.tgz:22805.got - 2010.06.03 20:04:27.
