data_PCOD9138130
_publ_section_title
;
Structure prediction by ZEFSAII (Michael W. Deem and Ramdas Pophale) SiO2 
 PCOD9138130
Probable space group: C C
;
_chemical_formula_sum "Si O2"
_cell_formula_units_Z 24
_cell_length_a 5.046932
_cell_length_b 16.136481
_cell_length_c 10.522018
_cell_angle_alpha 90.000000
_cell_angle_beta 86.898946
_cell_angle_gamma 90.000000
_cell_volume 855.655429
_symmetry_space_group_name_H-M "C C"
_symmetry_group_IT_number 9
_symmetry_cell_setting 'monoclinic'
loop_
_space_group_symop_operation_xyz
x,y,z
x,-y,1/2+z
1/2+x,1/2+y,z
1/2+x,1/2-y,1/2+z
loop_
_atom_site_type_symbol
_atom_site_label
_atom_site_fract_x
_atom_site_fract_y
_atom_site_fract_z
Si Si1 0.931300 0.103596 0.460450
Si Si2 0.663257 0.692439 0.215452
Si Si3 0.044437 0.031052 0.770094
Si Si4 0.896655 0.850907 0.465820
Si Si5 0.407135 0.826339 0.064568
Si Si6 0.546922 0.937411 0.654196
O O1 0.036122 0.016697 0.408109
O O2 0.624849 0.111704 0.501720
O O3 0.994666 0.161586 0.338323
O O4 0.118038 0.132299 0.571651
O O5 0.807523 0.501321 0.195435
O O6 0.581956 0.644444 0.086114
O O7 0.957410 0.652035 0.220066
O O8 0.792324 0.990031 0.706393
O O9 0.013229 0.122141 0.829284
O O10 0.853146 0.752255 0.472257
O O11 0.640827 0.905386 0.513031
O O12 0.559345 0.783974 0.179992
#
# Coordination Sequence:
#
# PCOD9138130 Si02
#       6
#     4   4   4   4   4   4
#     4  11  20  40  62  92 121 161 211 262 305 374
#     4   9  22  40  67  84 127 172 204 240 338 373
#     4  11  24  37  69  93 125 164 222 257 312 377
#     4  10  23  43  65  91 126 175 209 256 319 387
#     4  10  23  37  66  91 120 170 208 251 312 377
#     4  11  20  41  63  93 119 176 204 254 314 390
#
# _framework density 28.048670999999999
#
# number of rings (size 3 to 8) (size 9 to 14) (size 15 to 20)
#    1.000    0.667    3.333    3.000    2.333    0.000 
#    0.000    5.000    0.000    0.000    0.000    0.000 
#    0.000    0.000    0.000    0.000    0.000    0.000 
#
# Total GULP energy -66987.692037 kJ/mol
# GULP energy per Si atom -5582.307670 kJ/mol
# Density = 2.798483 g / cm^3
# Si number density = 28.048671 Si / 1000 Ang^3
#
#
#
# Elastic Constant Matrix: (Units=GPa)
#
#
# Indices 1 2 3 4 5 6 
#
# 1 171.7611 23.7860 46.2457 0.0000 -29.6794 0.0000
# 2 23.7860 39.2924 0.9195 0.0000 3.7151 0.0000
# 3 46.2457 0.9195 140.5981 0.0000 -13.9678 0.0000
# 4 0.0000 0.0000 0.0000 39.6894 0.0000 12.2347
# 5 -29.6794 3.7151 -13.9678 0.0000 45.8637 0.0000
# 6 0.0000 0.0000 0.0000 12.2347 0.0000 45.9438
#
#
#
# Elastic Compliance Matrix: (Units=1/GPa)
#
#
# Indices 1 2 3 4 5 6 
#
# 1 0.007966 -0.005240 -0.002095 0.000000 0.004941 0.000000
# 2 -0.005240 0.029114 0.000992 0.000000 -0.005447 0.000000
# 3 -0.002095 0.000992 0.007891 0.000000 0.000967 0.000000
# 4 0.000000 0.000000 0.000000 0.027449 0.000000 -0.007310
# 5 0.004941 -0.005447 0.000967 0.000000 0.025737 0.000000
# 6 0.000000 0.000000 0.000000 -0.007310 0.000000 0.023712
#
#
# Mechanical properties :
#
#
# Convention : Reuss Voigt Hill
#
# Bulk Modulus (GPa) = 30.97429 54.83934 42.90681
# Shear Modulus (GPa) = 34.40760 45.01275 39.71017
#
# Velocity S-wave (km/s) = 3.50624 4.01035 3.76674
# Velocity P-wave (km/s) = 5.24010 6.40608 5.85220
#
# Compressibility (1/GPa) = 0.03228484
#
# Stress axis : x y z
#
# Youngs Moduli (GPa) = 125.54051 34.34751 126.72457
#
# Poissons Ratio (x) = 0.17999 0.26547
# Poissons Ratio (y) = 0.65785 -0.12572
# Poissons Ratio (z) = 0.26299 -0.03407
#
# Static dielectric constant tensor:
#      x y z
#    x 2.263930 0.000000 0.064950 
#    y 0.000000 2.326400 0.000000 
#    z 0.064950 0.000000 2.238020 
# 
# From -- ./inp_files/28747.got.cif
#   From: 2010.05.17/outbox.cif.g08.bks.cpg/sg9_15_cif.got.tgz:28747.got - 2010.06.03 20:04:27.
