data_PCOD9138051
_publ_section_title
;
Structure prediction by ZEFSAII (Michael W. Deem and Ramdas Pophale) SiO2 
 PCOD9138051
Probable space group: C C
;
_chemical_formula_sum "Si O2"
_cell_formula_units_Z 28
_cell_length_a 8.422870
_cell_length_b 9.100363
_cell_length_c 27.066957
_cell_angle_alpha 90.000000
_cell_angle_beta 32.078149
_cell_angle_gamma 90.000000
_cell_volume 1101.829741
_symmetry_space_group_name_H-M "C C"
_symmetry_group_IT_number 9
_symmetry_cell_setting 'monoclinic'
loop_
_space_group_symop_operation_xyz
x,y,z
x,-y,1/2+z
1/2+x,1/2+y,z
1/2+x,1/2-y,1/2+z
loop_
_atom_site_type_symbol
_atom_site_label
_atom_site_fract_x
_atom_site_fract_y
_atom_site_fract_z
Si Si1 0.549910 0.870377 0.479150
Si Si2 0.661152 0.876691 0.224320
Si Si3 0.787959 0.892055 0.854638
Si Si4 0.158840 0.360974 0.566312
Si Si5 0.290781 0.124349 0.694246
Si Si6 0.405632 0.375756 0.597937
Si Si7 0.027180 0.347766 0.828069
O O1 0.627518 0.841948 0.515862
O O2 0.723883 0.745150 0.401409
O O3 0.208470 0.874868 0.550784
O O4 0.684787 0.031667 0.431665
O O5 0.404950 0.771214 0.315299
O O6 0.933867 0.761790 0.147565
O O7 0.717854 0.976699 0.159844
O O8 0.627683 0.013646 0.270376
O O9 0.522321 0.901395 0.885395
O O10 0.043255 0.000577 0.767432
O O11 0.438483 0.350991 0.530540
O O12 0.059797 0.529093 0.602080
O O13 0.216229 0.242050 0.671602
O O14 0.280426 0.224724 0.746667
#
# Coordination Sequence:
#
# PCOD9138051 Si02
#       7
#     4   4   4   4   4   4   4
#     4  11  28  46  72 109 154 184 240 305 372 416
#     4  10  24  46  82 101 138 204 248 281 368 434
#     4  10  22  47  71 102 147 193 234 300 360 436
#     4  11  25  45  76 108 142 187 244 303 355 429
#     4   9  22  42  74 102 138 188 246 290 356 440
#     4  11  25  45  76 108 142 187 244 303 355 429
#     4  10  22  47  71 102 147 193 234 300 360 436
#
# _framework density 25.412275000000001
#
# number of rings (size 3 to 8) (size 9 to 14) (size 15 to 20)
#    0.000    1.714    0.000    1.714   14.000    0.000 
#    7.714    0.000    0.000    0.000    0.000    0.000 
#    0.000    0.000    0.000    0.000    0.000    0.000 
#
# Total GULP energy -77970.213324 kJ/mol
# GULP energy per Si atom -5569.300952 kJ/mol
# Density = 2.535444 g / cm^3
# Si number density = 25.412275 Si / 1000 Ang^3
#
#
#
# Elastic Constant Matrix: (Units=GPa)
#
#
# Indices 1 2 3 4 5 6 
#
# 1 60.5769 21.5132 46.7812 -0.0079 56.2175 -0.0153
# 2 21.5132 181.7131 39.9857 -0.0068 15.2593 -0.0010
# 3 46.7812 39.9857 90.5594 0.0165 23.4509 -0.0046
# 4 -0.0079 -0.0068 0.0165 43.1565 0.0035 4.2463
# 5 56.2175 15.2593 23.4509 0.0035 13.8944 0.0138
# 6 -0.0153 -0.0010 -0.0046 4.2463 0.0138 -28.1954
#
#
#
# Elastic Compliance Matrix: (Units=1/GPa)
#
#
# Indices 1 2 3 4 5 6 
#
# 1 -0.004614 -0.000768 -0.004139 -0.000003 0.026498 0.000016
# 2 -0.000768 0.006084 -0.002423 0.000002 0.000516 0.000001
# 3 -0.004139 -0.002423 0.016387 -0.000006 -0.008249 -0.000005
# 4 -0.000003 0.000002 -0.000006 0.022833 0.000012 0.003439
# 5 0.026498 0.000516 -0.008249 0.000012 -0.021886 -0.000022
# 6 0.000016 0.000001 -0.000005 0.003439 -0.000022 -0.034949
#
#
# Mechanical properties :
#
#
# Convention : Reuss Voigt Hill
#
# Bulk Modulus (GPa) = 312.91958 61.04552 186.98255
# Shear Modulus (GPa) = -11919.22311 20.74241 -5949.24035
#
# Velocity S-wave (km/s) = -68.56036 2.86008 -48.43729
# Velocity P-wave (km/s) = 78.38341 5.91447 55.26743
#
# Compressibility (1/GPa) = 0.00319571
#
# Stress axis : x y z
#
# Youngs Moduli (GPa) = -216.72996 164.36536 61.02523
#
# Poissons Ratio (x) = 0.12625 0.25260
# Poissons Ratio (y) = -0.16647 0.14787
# Poissons Ratio (z) = -0.89710 0.39828
#
# Static dielectric constant tensor:
#      x y z
#    x 2.103470 0.000000 -0.027000 
#    y 0.000000 1.961880 0.000000 
#    z -0.027000 0.000000 2.069510 
# 
# From -- ./inp_files/32363.got.cif
#   From: 2010.05.17/outbox.cif.g08.bks.cpg/sg9_17_cif.got.tgz:32363.got - 2010.06.03 20:04:27.
