data_PCOD9138641
_publ_section_title
;
Structure prediction by ZEFSAII (Michael W. Deem and Ramdas Pophale) SiO2 
 PCOD9138641
Probable space group: C C
;
_chemical_formula_sum "Si O2"
_cell_formula_units_Z 32
_cell_length_a 13.994801
_cell_length_b 10.039265
_cell_length_c 20.106278
_cell_angle_alpha 90.000000
_cell_angle_beta 30.518884
_cell_angle_gamma 90.000000
_cell_volume 1434.538182
_symmetry_space_group_name_H-M "C C"
_symmetry_group_IT_number 9
_symmetry_cell_setting 'monoclinic'
loop_
_space_group_symop_operation_xyz
x,y,z
x,-y,1/2+z
1/2+x,1/2+y,z
1/2+x,1/2-y,1/2+z
loop_
_atom_site_type_symbol
_atom_site_label
_atom_site_fract_x
_atom_site_fract_y
_atom_site_fract_z
Si Si1 0.680720 0.573019 0.195900
Si Si2 0.299716 0.638794 0.615139
Si Si3 0.353585 0.842704 0.186330
Si Si4 0.747006 0.924476 0.994756
Si Si5 0.724179 0.553010 0.529053
Si Si6 0.062617 0.318539 0.651873
Si Si7 0.203700 0.993131 0.891287
Si Si8 0.129978 0.384048 0.762942
O O1 0.789479 0.710260 0.145333
O O2 0.764169 0.450890 0.188854
O O3 0.459632 0.592194 0.343581
O O4 0.701499 0.539376 0.105819
O O5 0.232755 0.629830 0.578787
O O6 0.501664 0.567860 0.496597
O O7 0.167361 0.541181 0.736842
O O8 0.287034 0.696369 0.207445
O O9 0.260939 0.881607 0.312598
O O10 0.577683 0.859013 0.055154
O O11 0.693245 0.081457 0.031376
O O12 0.568560 0.668932 0.623052
O O13 0.724128 0.483800 0.457560
O O14 0.922068 0.632211 0.416586
O O15 0.132233 0.327621 0.686428
O O16 0.857147 0.382664 0.777897
#
# Coordination Sequence:
#
# PCOD9138641 Si02
#       8
#     4   4   4   4   4   4   4   4
#     4  12  26  45  72 106 143 185 231 301 351 423
#     4  11  26  46  68  99 150 183 225 295 362 416
#     4  11  23  48  77 101 136 192 238 292 348 421
#     4  10  24  46  70 101 146 184 233 290 359 412
#     4  11  24  42  70 106 140 178 244 287 352 421
#     4   9  20  42  71 102 133 184 231 293 337 419
#     4  10  24  42  71 101 141 185 233 292 359 414
#     4  10  23  45  71 100 135 183 235 288 344 422
#
# _framework density 22.306830000000001
#
# number of rings (size 3 to 8) (size 9 to 14) (size 15 to 20)
#    0.000    1.500    2.500    1.500    8.750    1.000 
#   11.250    0.000    0.000    0.000    0.000    0.000 
#    0.000    0.000    0.000    0.000    0.000    0.000 
#
# Total GULP energy -89540.677769 kJ/mol
# GULP energy per Si atom -5596.292361 kJ/mol
# Density = 2.225606 g / cm^3
# Si number density = 22.306830 Si / 1000 Ang^3
#
#
#
# Elastic Constant Matrix: (Units=GPa)
#
#
# Indices 1 2 3 4 5 6 
#
# 1 71.3701 13.3311 22.3556 -0.0001 -6.6451 0.0001
# 2 13.3311 66.2547 1.9499 -0.0001 16.5993 -0.0001
# 3 22.3556 1.9499 77.1457 -0.0006 -7.0985 0.0004
# 4 -0.0001 -0.0001 -0.0006 2.8525 0.0001 -3.5182
# 5 -6.6451 16.5993 -7.0985 0.0001 41.8802 -0.0002
# 6 0.0001 -0.0001 0.0004 -3.5182 -0.0002 23.6817
#
#
#
# Elastic Compliance Matrix: (Units=1/GPa)
#
#
# Indices 1 2 3 4 5 6 
#
# 1 0.016454 -0.004055 -0.004345 -0.000001 0.003482 0.000000
# 2 -0.004055 0.017841 0.000015 0.000001 -0.007712 0.000000
# 3 -0.004345 0.000015 0.014382 0.000003 0.001742 0.000000
# 4 -0.000001 0.000001 0.000003 0.429209 -0.000001 0.063763
# 5 0.003482 -0.007712 0.001742 -0.000001 0.027782 0.000000
# 6 0.000000 0.000000 0.000000 0.063763 0.000000 0.051699
#
#
# Mechanical properties :
#
#
# Convention : Reuss Voigt Hill
#
# Bulk Modulus (GPa) = 31.34304 32.22708 31.78506
# Shear Modulus (GPa) = 8.55031 25.49180 17.02105
#
# Velocity S-wave (km/s) = 1.95994 3.38417 2.76532
# Velocity P-wave (km/s) = 4.38215 5.45424 4.94732
#
# Compressibility (1/GPa) = 0.03190501
#
# Stress axis : x y z
#
# Youngs Moduli (GPa) = 60.77480 56.05073 69.53303
#
# Poissons Ratio (x) = 0.22729 0.30214
# Poissons Ratio (y) = 0.24645 -0.00101
# Poissons Ratio (z) = 0.26409 -0.00081
#
# Static dielectric constant tensor:
#      x y z
#    x 1.845010 0.000000 -0.010820 
#    y 0.000000 1.828670 0.000000 
#    z -0.010820 0.000000 1.809530 
# 
# From -- ./inp_files/33709.got.cif
#   From: 2010.05.17/outbox.cif.g08.bks.cpg/sg9_17_cif.got.tgz:33709.got - 2010.06.03 20:04:27.
