data_PCOD9138308
_publ_section_title
;
Structure prediction by ZEFSAII (Michael W. Deem and Ramdas Pophale) SiO2 
 PCOD9138308
Probable space group: C C
;
_chemical_formula_sum "Si O2"
_cell_formula_units_Z 32
_cell_length_a 13.358757
_cell_length_b 5.378729
_cell_length_c 20.986504
_cell_angle_alpha 90.000000
_cell_angle_beta 56.224988
_cell_angle_gamma 90.000000
_cell_volume 1253.445499
_symmetry_space_group_name_H-M "C C"
_symmetry_group_IT_number 9
_symmetry_cell_setting 'monoclinic'
loop_
_space_group_symop_operation_xyz
x,y,z
x,-y,1/2+z
1/2+x,1/2+y,z
1/2+x,1/2-y,1/2+z
loop_
_atom_site_type_symbol
_atom_site_label
_atom_site_fract_x
_atom_site_fract_y
_atom_site_fract_z
Si Si1 0.897470 0.589231 0.348820
Si Si2 0.732075 0.803027 0.172979
Si Si3 0.673976 0.166557 0.557962
Si Si4 0.927354 0.535543 0.191167
Si Si5 0.115786 0.980461 0.982724
Si Si6 0.536876 0.581050 0.316820
Si Si7 0.224971 0.300628 0.779001
Si Si8 0.127971 0.478955 0.941757
O O1 0.922543 0.625499 0.264986
O O2 0.755560 0.545902 0.410039
O O3 0.948353 0.848967 0.356110
O O4 0.967826 0.343981 0.351487
O O5 0.757151 0.832738 0.089799
O O6 0.844113 0.687760 0.171619
O O7 0.611401 0.634165 0.224633
O O8 0.695568 0.051846 0.224870
O O9 0.559306 0.006070 0.619033
O O10 0.629769 0.441961 0.551559
O O11 0.054028 0.776145 0.474345
O O12 0.862988 0.267856 0.222438
O O13 0.210247 0.446844 0.976528
O O14 0.057574 0.729889 0.978755
O O15 0.652153 0.459722 0.313443
O O16 0.196550 0.464084 0.850959
#
# Coordination Sequence:
#
# PCOD9138308 Si02
#       8
#     4   4   4   4   4   4   4   4
#     4  12  22  43  71 102 132 186 233 282 363 421
#     4  11  24  44  69 109 142 181 245 307 349 434
#     4  10  24  46  64 103 146 194 231 303 368 432
#     4  11  23  40  74 103 133 190 234 293 359 428
#     4  10  23  42  68  96 132 185 233 281 355 433
#     4  11  24  40  69 103 138 172 229 299 345 413
#     4  11  23  44  71 109 139 178 248 295 351 431
#     4  10  23  43  70  93 142 184 227 294 354 424
#
# _framework density 25.529633
#
# number of rings (size 3 to 8) (size 9 to 14) (size 15 to 20)
#    0.750    0.500    3.750    1.500    3.500    4.000 
#    2.250    1.250    0.000    0.000    0.000    0.000 
#    0.000    0.000    0.000    0.000    0.000    0.000 
#
# Total GULP energy -89217.872714 kJ/mol
# GULP energy per Si atom -5576.117045 kJ/mol
# Density = 2.547153 g / cm^3
# Si number density = 25.529633 Si / 1000 Ang^3
#
#
#
# Elastic Constant Matrix: (Units=GPa)
#
#
# Indices 1 2 3 4 5 6 
#
# 1 85.5743 20.7786 22.7923 0.0012 -0.7709 0.0021
# 2 20.7786 169.7089 7.0400 0.0015 8.3066 0.0012
# 3 22.7923 7.0400 86.7695 0.0003 30.7134 0.0007
# 4 0.0012 0.0015 0.0003 29.0666 -0.0001 2.4712
# 5 -0.7709 8.3066 30.7134 -0.0001 46.1244 0.0006
# 6 0.0021 0.0012 0.0007 2.4712 0.0006 28.2067
#
#
#
# Elastic Compliance Matrix: (Units=1/GPa)
#
#
# Indices 1 2 3 4 5 6 
#
# 1 0.013351 -0.001618 -0.004655 0.000000 0.003614 -0.000001
# 2 -0.001618 0.006142 0.000429 0.000000 -0.001419 0.000000
# 3 -0.004655 0.000429 0.016705 0.000000 -0.011279 0.000000
# 4 0.000000 0.000000 0.000000 0.034662 0.000000 -0.003037
# 5 0.003614 -0.001419 -0.011279 0.000000 0.029507 -0.000001
# 6 -0.000001 0.000000 0.000000 -0.003037 -0.000001 0.035719
#
#
# Mechanical properties :
#
#
# Convention : Reuss Voigt Hill
#
# Bulk Modulus (GPa) = 40.80075 49.25274 45.02674
# Shear Modulus (GPa) = 32.06270 40.10898 36.08584
#
# Velocity S-wave (km/s) = 3.54771 3.96798 3.76372
# Velocity P-wave (km/s) = 5.72696 6.35039 6.04672
#
# Compressibility (1/GPa) = 0.02450935
#
# Stress axis : x y z
#
# Youngs Moduli (GPa) = 74.89998 162.80667 59.86245
#
# Poissons Ratio (x) = 0.26350 0.27866
# Poissons Ratio (y) = 0.12122 -0.02568
# Poissons Ratio (z) = 0.34866 -0.06985
#
# Static dielectric constant tensor:
#      x y z
#    x 2.055940 0.000000 0.045690 
#    y 0.000000 2.205850 0.000000 
#    z 0.045690 0.000000 2.036870 
# 
# From -- ./inp_files/33497.got.cif
#   From: 2010.05.17/outbox.cif.g08.bks.cpg/sg9_17_cif.got.tgz:33497.got - 2010.06.03 20:04:27.
