data_PCOD9138384
_publ_section_title
;
Structure prediction by ZEFSAII (Michael W. Deem and Ramdas Pophale) SiO2 
 PCOD9138384
Probable space group: C C
;
_chemical_formula_sum "Si O2"
_cell_formula_units_Z 32
_cell_length_a 13.340058
_cell_length_b 19.377900
_cell_length_c 5.488996
_cell_angle_alpha 90.000000
_cell_angle_beta 59.481552
_cell_angle_gamma 90.000000
_cell_volume 1222.349312
_symmetry_space_group_name_H-M "C C"
_symmetry_group_IT_number 9
_symmetry_cell_setting 'monoclinic'
loop_
_space_group_symop_operation_xyz
x,y,z
x,-y,1/2+z
1/2+x,1/2+y,z
1/2+x,1/2-y,1/2+z
loop_
_atom_site_type_symbol
_atom_site_label
_atom_site_fract_x
_atom_site_fract_y
_atom_site_fract_z
Si Si1 0.798560 0.836225 0.635060
Si Si2 0.982932 0.775268 0.031437
Si Si3 0.517002 0.614718 0.134777
Si Si4 0.280292 0.484041 0.501341
Si Si5 0.023714 0.535181 0.828427
Si Si6 0.856138 0.343300 0.525343
Si Si7 0.731855 0.538744 0.906884
Si Si8 0.671962 0.716076 0.632370
O O1 0.881617 0.799574 0.335844
O O2 0.743829 0.904299 0.579313
O O3 0.712507 0.772142 0.785679
O O4 0.882457 0.870333 0.734018
O O5 0.924671 0.728143 0.894064
O O6 0.088684 0.741490 0.048900
O O7 0.034651 0.844858 0.861974
O O8 0.591349 0.545850 0.068074
O O9 0.589220 0.658274 0.846672
O O10 0.345111 0.492103 0.165843
O O11 0.164200 0.531100 0.646544
O O12 0.990839 0.514890 0.592761
O O13 0.960621 0.605737 0.969857
O O14 0.787167 0.385690 0.402775
O O15 0.770513 0.323459 0.853344
O O16 0.764115 0.493322 0.105545
#
# Coordination Sequence:
#
# PCOD9138384 Si02
#       8
#     4   4   4   4   4   4   4   4
#     4  10  25  43  71 103 149 194 248 307 384 443
#     4  10  24  45  70 104 140 193 249 311 375 450
#     4  11  25  45  70 107 142 195 256 301 375 450
#     4  10  24  44  68 103 143 192 238 298 367 444
#     4  10  23  43  66 104 140 183 235 292 370 436
#     4  11  23  45  73 104 146 187 249 309 378 441
#     4  12  27  47  74 104 150 198 246 305 366 447
#     4  10  23  46  70 105 148 196 245 319 379 447
#
# _framework density 26.179095
#
# number of rings (size 3 to 8) (size 9 to 14) (size 15 to 20)
#    0.000    1.500    1.250    1.500    8.750    4.000 
#    4.500    0.000    0.000    0.000    0.000    0.000 
#    0.000    0.000    0.000    0.000    0.000    0.000 
#
# Total GULP energy -89332.617939 kJ/mol
# GULP energy per Si atom -5583.288621 kJ/mol
# Density = 2.611951 g / cm^3
# Si number density = 26.179095 Si / 1000 Ang^3
#
#
#
# Elastic Constant Matrix: (Units=GPa)
#
#
# Indices 1 2 3 4 5 6 
#
# 1 132.0234 39.1148 24.1594 0.0000 9.3722 0.0000
# 2 39.1148 76.3309 1.0363 0.0000 7.6178 0.0000
# 3 24.1594 1.0363 86.9143 0.0000 17.7061 0.0000
# 4 0.0000 0.0000 0.0000 21.4201 0.0000 6.5481
# 5 9.3722 7.6178 17.7061 0.0000 42.1919 0.0000
# 6 0.0000 0.0000 0.0000 6.5481 0.0000 48.7137
#
#
#
# Elastic Compliance Matrix: (Units=1/GPa)
#
#
# Indices 1 2 3 4 5 6 
#
# 1 0.009475 -0.004804 -0.002542 0.000000 -0.000171 0.000000
# 2 -0.004804 0.015787 0.001652 0.000000 -0.002476 0.000000
# 3 -0.002542 0.001652 0.013273 0.000000 -0.005304 0.000000
# 4 0.000000 0.000000 0.000000 0.048686 0.000000 -0.006544
# 5 -0.000171 -0.002476 -0.005304 0.000000 0.026412 0.000000
# 6 0.000000 0.000000 0.000000 -0.006544 0.000000 0.021408
#
#
# Mechanical properties :
#
#
# Convention : Reuss Voigt Hill
#
# Bulk Modulus (GPa) = 36.83617 47.09884 41.96751
# Shear Modulus (GPa) = 32.15910 37.86236 35.01073
#
# Velocity S-wave (km/s) = 3.50869 3.80713 3.66095
# Velocity P-wave (km/s) = 5.52413 6.11193 5.82545
#
# Compressibility (1/GPa) = 0.02714723
#
# Stress axis : x y z
#
# Youngs Moduli (GPa) = 105.54263 63.34247 75.34181
#
# Poissons Ratio (x) = 0.30428 0.19149
# Poissons Ratio (y) = 0.50700 -0.12443
# Poissons Ratio (z) = 0.26825 -0.10461
#
# Static dielectric constant tensor:
#      x y z
#    x 2.242130 0.000000 -0.028920 
#    y 0.000000 2.066440 0.000000 
#    z -0.028920 0.000000 2.055700 
# 
# From -- ./inp_files/2563.got.cif
#   From: 2010.05.17/outbox.cif.g08.bks.cpg/sg9_2_cif.got.tgz:2563.got - 2010.06.03 20:04:27.
