data_PCOD9138458
_publ_section_title
;
Structure prediction by ZEFSAII (Michael W. Deem and Ramdas Pophale) SiO2 
 PCOD9138458
Probable space group: C C
;
_chemical_formula_sum "Si O2"
_cell_formula_units_Z 28
_cell_length_a 5.027703
_cell_length_b 18.222751
_cell_length_c 13.220402
_cell_angle_alpha 90.000000
_cell_angle_beta 95.969987
_cell_angle_gamma 90.000000
_cell_volume 1204.665343
_symmetry_space_group_name_H-M "C C"
_symmetry_group_IT_number 9
_symmetry_cell_setting 'monoclinic'
loop_
_space_group_symop_operation_xyz
x,y,z
x,-y,1/2+z
1/2+x,1/2+y,z
1/2+x,1/2-y,1/2+z
loop_
_atom_site_type_symbol
_atom_site_label
_atom_site_fract_x
_atom_site_fract_y
_atom_site_fract_z
Si Si1 0.449770 0.947577 0.248740
Si Si2 0.435833 0.287280 0.704531
Si Si3 0.188075 0.218898 0.506357
Si Si4 0.359933 0.718084 0.837042
Si Si5 0.431322 0.108264 0.181615
Si Si6 0.841211 0.366574 0.451994
Si Si7 0.432448 0.627427 0.653006
O O1 0.662412 0.909705 0.181542
O O2 0.456855 0.913818 0.362538
O O3 0.161324 0.928966 0.192583
O O4 0.481375 0.034423 0.245000
O O5 0.394689 0.240199 0.602088
O O6 0.179305 0.337583 0.710229
O O7 0.672103 0.345800 0.701509
O O8 0.545893 0.230190 0.791578
O O9 0.364692 0.211502 0.411948
O O10 0.996935 0.156168 0.543293
O O11 0.010865 0.292442 0.482355
O O12 0.537407 0.659028 0.909661
O O13 0.469037 0.697846 0.729835
O O14 0.379260 0.091332 0.059955
#
# Coordination Sequence:
#
# PCOD9138458 Si02
#       7
#     4   4   4   4   4   4   4
#     4  11  24  45  67  98 141 191 235 280 342 423
#     4  11  24  42  69 105 135 179 234 296 345 413
#     4  11  23  41  70 100 141 175 232 295 363 412
#     4  11  22  42  68 101 141 174 232 293 366 414
#     4  11  24  46  68  98 143 190 240 275 337 432
#     4  10  23  43  72  96 142 195 228 288 363 417
#     4  11  24  41  68 102 135 178 235 295 346 413
#
# _framework density 23.242968999999999
#
# number of rings (size 3 to 8) (size 9 to 14) (size 15 to 20)
#    0.000    1.143    2.857    3.429    6.000    0.000 
#    5.143    0.000    0.000    0.000    0.000    0.000 
#    0.000    0.000    0.000    0.000    0.000    0.000 
#
# Total GULP energy -77993.140736 kJ/mol
# GULP energy per Si atom -5570.938624 kJ/mol
# Density = 2.319007 g / cm^3
# Si number density = 23.242969 Si / 1000 Ang^3
#
#
#
# Elastic Constant Matrix: (Units=GPa)
#
#
# Indices 1 2 3 4 5 6 
#
# 1 119.4950 41.2901 16.9272 0.0000 14.8340 0.0000
# 2 41.2901 85.5768 8.5850 0.0000 10.4351 0.0000
# 3 16.9272 8.5850 94.7859 0.0000 12.3215 0.0000
# 4 0.0000 0.0000 0.0000 29.5144 0.0000 0.9558
# 5 14.8340 10.4351 12.3215 0.0000 43.3359 0.0000
# 6 0.0000 0.0000 0.0000 0.9558 0.0000 28.4808
#
#
#
# Elastic Compliance Matrix: (Units=1/GPa)
#
#
# Indices 1 2 3 4 5 6 
#
# 1 0.010400 -0.004644 -0.001162 0.000000 -0.002111 0.000000
# 2 -0.004644 0.014163 -0.000225 0.000000 -0.001757 0.000000
# 3 -0.001162 -0.000225 0.011131 0.000000 -0.002713 0.000000
# 4 0.000000 0.000000 0.000000 0.033919 0.000000 -0.001138
# 5 -0.002111 -0.001757 -0.002713 0.000000 0.024993 0.000000
# 6 0.000000 0.000000 0.000000 -0.001138 0.000000 0.035150
#
#
# Mechanical properties :
#
#
# Convention : Reuss Voigt Hill
#
# Bulk Modulus (GPa) = 42.31705 48.16249 45.23977
# Shear Modulus (GPa) = 33.40160 35.80324 34.60242
#
# Velocity S-wave (km/s) = 3.79497 3.92904 3.86259
# Velocity P-wave (km/s) = 6.11951 6.43035 6.27685
#
# Compressibility (1/GPa) = 0.02363113
#
# Stress axis : x y z
#
# Youngs Moduli (GPa) = 96.15479 70.60748 89.84190
#
# Poissons Ratio (x) = 0.32789 0.10441
# Poissons Ratio (y) = 0.44653 0.02022
# Poissons Ratio (z) = 0.11175 0.01589
#
# Static dielectric constant tensor:
#      x y z
#    x 2.018510 0.000000 -0.080960 
#    y 0.000000 1.863610 0.000000 
#    z -0.080960 0.000000 1.958430 
# 
# From -- ./inp_files/21874.got.cif
#   From: 2010.05.17/outbox.cif.g08.bks.cpg/sg9_11_cif.got.tgz:21874.got - 2010.06.03 20:04:27.
