data_PCOD9138882
_publ_section_title
;
Structure prediction by ZEFSAII (Michael W. Deem and Ramdas Pophale) SiO2 
 PCOD9138882
Probable space group: C C
;
_chemical_formula_sum "Si O2"
_cell_formula_units_Z 28
_cell_length_a 9.154275
_cell_length_b 5.086934
_cell_length_c 27.042585
_cell_angle_alpha 90.000000
_cell_angle_beta 72.100501
_cell_angle_gamma 90.000000
_cell_volume 1198.343617
_symmetry_space_group_name_H-M "C C"
_symmetry_group_IT_number 9
_symmetry_cell_setting 'monoclinic'
loop_
_space_group_symop_operation_xyz
x,y,z
x,-y,1/2+z
1/2+x,1/2+y,z
1/2+x,1/2-y,1/2+z
loop_
_atom_site_type_symbol
_atom_site_label
_atom_site_fract_x
_atom_site_fract_y
_atom_site_fract_z
Si Si1 0.788600 0.357277 0.886720
Si Si2 0.520869 0.465941 0.674985
Si Si3 0.930793 0.287870 0.765697
Si Si4 0.470861 0.346254 0.543368
Si Si5 0.084298 0.645187 0.425551
Si Si6 0.211642 0.627326 0.707409
Si Si7 0.105641 0.351269 0.582059
O O1 0.854655 0.276083 0.826445
O O2 0.693638 0.627037 0.892146
O O3 0.932104 0.390076 0.908526
O O4 0.677620 0.126204 0.917127
O O5 0.507479 0.525967 0.735302
O O6 0.344287 0.413502 0.680252
O O7 0.655707 0.258087 0.662380
O O8 0.563715 0.720749 0.639113
O O9 0.802337 0.317601 0.736098
O O10 0.068321 0.492938 0.748716
O O11 0.520812 0.122338 0.577596
O O12 0.536569 0.243661 0.484621
O O13 0.288268 0.376427 0.558451
O O14 0.545804 0.622827 0.550991
#
# Coordination Sequence:
#
# PCOD9138882 Si02
#       7
#     4   4   4   4   4   4   4
#     4  12  27  44  76 101 139 182 232 278 355 407
#     4  10  26  41  68  98 139 176 224 273 334 409
#     4  10  26  41  68  98 139 176 224 273 334 409
#     4  12  26  47  71 103 137 179 233 293 343 406
#     4  12  26  47  71 103 137 179 233 293 343 406
#     4  10  24  38  66  90 142 172 220 270 328 390
#     4  12  27  44  76 101 139 182 232 278 355 407
#
# _framework density 23.365587000000001
#
# number of rings (size 3 to 8) (size 9 to 14) (size 15 to 20)
#    0.857    0.000    0.000    6.000   10.000    0.000 
#    0.000    0.000    0.000    0.000    0.000    0.000 
#    0.000    0.000    0.000    0.000    0.000    0.000 
#
# Total GULP energy -78280.181544 kJ/mol
# GULP energy per Si atom -5591.441539 kJ/mol
# Density = 2.331241 g / cm^3
# Si number density = 23.365587 Si / 1000 Ang^3
#
#
#
# Elastic Constant Matrix: (Units=GPa)
#
#
# Indices 1 2 3 4 5 6 
#
# 1 174.6608 28.1692 19.9760 0.0000 -3.4317 0.0000
# 2 28.1692 60.6079 -17.9615 0.0000 -3.7055 0.0000
# 3 19.9760 -17.9615 87.8706 0.0000 -5.3065 0.0000
# 4 0.0000 0.0000 0.0000 30.1354 0.0000 9.5128
# 5 -3.4317 -3.7055 -5.3065 0.0000 28.5315 0.0000
# 6 0.0000 0.0000 0.0000 9.5128 0.0000 21.1598
#
#
#
# Elastic Compliance Matrix: (Units=1/GPa)
#
#
# Indices 1 2 3 4 5 6 
#
# 1 0.006586 -0.003740 -0.002269 0.000000 -0.000116 0.000000
# 2 -0.003740 0.019942 0.005113 0.000000 0.003091 0.000000
# 3 -0.002269 0.005113 0.013112 0.000000 0.002830 0.000000
# 4 0.000000 0.000000 0.000000 0.038672 0.000000 -0.017386
# 5 -0.000116 0.003091 0.002830 0.000000 0.035963 0.000000
# 6 0.000000 0.000000 0.000000 -0.017386 0.000000 0.055075
#
#
# Mechanical properties :
#
#
# Convention : Reuss Voigt Hill
#
# Bulk Modulus (GPa) = 26.42081 42.61183 34.51632
# Shear Modulus (GPa) = 27.20969 35.49571 31.35270
#
# Velocity S-wave (km/s) = 3.41621 3.90185 3.66708
# Velocity P-wave (km/s) = 5.18582 6.21094 5.72139
#
# Compressibility (1/GPa) = 0.03784896
#
# Stress axis : x y z
#
# Youngs Moduli (GPa) = 151.84113 50.14462 76.26455
#
# Poissons Ratio (x) = 0.18756 0.17302
# Poissons Ratio (y) = 0.56794 -0.38997
# Poissons Ratio (z) = 0.34449 -0.25641
#
# Static dielectric constant tensor:
#      x y z
#    x 1.921920 0.000000 0.020290 
#    y 0.000000 1.914220 0.000000 
#    z 0.020290 0.000000 1.900390 
# 
# From -- ./inp_files/36276.got.cif
#   From: 2010.05.17/outbox.cif.g08.bks.cpg/sg9_19_cif.got.tgz:36276.got - 2010.06.03 20:04:27.
