data_PCOD9138205
_publ_section_title
;
Structure prediction by ZEFSAII (Michael W. Deem and Ramdas Pophale) SiO2 
 PCOD9138205
Probable space group: C C
;
_chemical_formula_sum "Si O2"
_cell_formula_units_Z 28
_cell_length_a 9.925565
_cell_length_b 9.272240
_cell_length_c 13.125774
_cell_angle_alpha 90.000000
_cell_angle_beta 69.355487
_cell_angle_gamma 90.000000
_cell_volume 1130.423885
_symmetry_space_group_name_H-M "C C"
_symmetry_group_IT_number 9
_symmetry_cell_setting 'monoclinic'
loop_
_space_group_symop_operation_xyz
x,y,z
x,-y,1/2+z
1/2+x,1/2+y,z
1/2+x,1/2-y,1/2+z
loop_
_atom_site_type_symbol
_atom_site_label
_atom_site_fract_x
_atom_site_fract_y
_atom_site_fract_z
Si Si1 0.307520 0.377455 0.816790
Si Si2 0.489002 0.226879 0.627454
Si Si3 0.165601 0.101746 0.926568
Si Si4 0.651049 0.117397 0.956374
Si Si5 0.831150 0.508334 0.061474
Si Si6 0.083368 0.567631 0.195463
Si Si7 0.749458 0.636031 0.278007
O O1 0.450956 0.355098 0.714412
O O2 0.285984 0.221054 0.871641
O O3 0.276745 0.498736 0.907655
O O4 0.185169 0.405976 0.763656
O O5 0.544413 0.301532 0.509931
O O6 0.353390 0.130961 0.625835
O O7 0.580800 0.099937 0.657601
O O8 0.149782 0.001181 0.833884
O O9 0.225040 0.994559 0.996800
O O10 0.685876 0.234060 0.860615
O O11 0.491773 0.049280 0.980979
O O12 0.637227 0.153190 0.080094
O O13 0.771336 0.635747 0.150369
O O14 0.917859 0.609193 0.265176
#
# Coordination Sequence:
#
# PCOD9138205 Si02
#       7
#     4   4   4   4   4   4   4
#     4  12  23  41  70  94 126 180 221 262 338 394
#     4  10  24  44  64 104 128 176 226 268 330 396
#     4  12  23  41  70  94 126 180 221 262 338 394
#     4  10  23  41  64  96 132 171 217 275 334 381
#     4  10  23  42  65  91 138 168 215 278 327 389
#     4  10  23  42  65  91 138 168 215 278 327 389
#     4  10  23  41  64  96 132 171 217 275 334 381
#
# _framework density 24.769468
#
# number of rings (size 3 to 8) (size 9 to 14) (size 15 to 20)
#    0.000    1.714    5.714    0.857    4.000    2.286 
#    0.000    2.857    0.000    0.000    0.000    0.000 
#    0.000    0.000    0.000    0.000    0.000    0.000 
#
# Total GULP energy -78156.968006 kJ/mol
# GULP energy per Si atom -5582.640572 kJ/mol
# Density = 2.471309 g / cm^3
# Si number density = 24.769468 Si / 1000 Ang^3
#
#
#
# Elastic Constant Matrix: (Units=GPa)
#
#
# Indices 1 2 3 4 5 6 
#
# 1 55.2094 2.8334 10.0511 0.0000 -1.0442 0.0000
# 2 2.8334 84.9305 40.9159 0.0000 -20.1347 0.0000
# 3 10.0511 40.9159 149.0890 0.0000 -24.3202 0.0000
# 4 0.0000 0.0000 0.0000 57.3704 0.0000 -7.4997
# 5 -1.0442 -20.1347 -24.3202 0.0000 39.3818 0.0000
# 6 0.0000 0.0000 0.0000 -7.4997 0.0000 29.1858
#
#
#
# Elastic Compliance Matrix: (Units=1/GPa)
#
#
# Indices 1 2 3 4 5 6 
#
# 1 0.018342 -0.000081 -0.001270 0.000000 -0.000339 0.000000
# 2 -0.000081 0.014581 -0.003092 0.000000 0.005543 0.000000
# 3 -0.001270 -0.003092 0.008205 0.000000 0.003452 0.000000
# 4 0.000000 0.000000 0.000000 0.018036 0.000000 0.004635
# 5 -0.000339 0.005543 0.003452 0.000000 0.030349 0.000000
# 6 0.000000 0.000000 0.000000 0.004635 0.000000 0.035454
#
#
# Mechanical properties :
#
#
# Convention : Reuss Voigt Hill
#
# Bulk Modulus (GPa) = 31.01466 44.09221 37.55343
# Shear Modulus (GPa) = 34.57834 40.88282 37.73058
#
# Velocity S-wave (km/s) = 3.74037 4.06708 3.90714
# Velocity P-wave (km/s) = 5.58591 6.31621 5.96225
#
# Compressibility (1/GPa) = 0.03224282
#
# Stress axis : x y z
#
# Youngs Moduli (GPa) = 54.52042 68.58392 121.88142
#
# Poissons Ratio (x) = 0.00553 0.15476
# Poissons Ratio (y) = 0.00439 0.37684
# Poissons Ratio (z) = 0.06923 0.21205
#
# Static dielectric constant tensor:
#      x y z
#    x 2.015590 0.000000 0.025720 
#    y 0.000000 1.985210 0.000000 
#    z 0.025720 0.000000 1.972460 
# 
# From -- ./inp_files/24264.got.cif
#   From: 2010.05.17/outbox.cif.g08.bks.cpg/sg9_13_cif.got.tgz:24264.got - 2010.06.03 20:04:27.
