data_PCOD9138522
_publ_section_title
;
Structure prediction by ZEFSAII (Michael W. Deem and Ramdas Pophale) SiO2 
 PCOD9138522
Probable space group: C C
;
_chemical_formula_sum "Si O2"
_cell_formula_units_Z 32
_cell_length_a 11.867356
_cell_length_b 11.735173
_cell_length_c 20.863685
_cell_angle_alpha 90.000000
_cell_angle_beta 149.148506
_cell_angle_gamma 90.000000
_cell_volume 1490.029610
_symmetry_space_group_name_H-M "C C"
_symmetry_group_IT_number 9
_symmetry_cell_setting 'monoclinic'
loop_
_space_group_symop_operation_xyz
x,y,z
x,-y,1/2+z
1/2+x,1/2+y,z
1/2+x,1/2-y,1/2+z
loop_
_atom_site_type_symbol
_atom_site_label
_atom_site_fract_x
_atom_site_fract_y
_atom_site_fract_z
Si Si1 0.079720 0.580128 0.814860
Si Si2 0.334792 0.342142 0.154696
Si Si3 0.997375 0.171414 0.939213
Si Si4 0.346925 0.208252 0.921996
Si Si5 0.678362 0.143057 0.443816
Si Si6 0.020984 0.790847 0.874130
Si Si7 0.657442 0.950389 0.641653
Si Si8 0.809199 0.469115 0.065001
O O1 0.115424 0.456882 0.864697
O O2 0.047716 0.668539 0.856276
O O3 0.872089 0.571242 0.666354
O O4 0.279336 0.632154 0.869361
O O5 0.179618 0.230231 0.075116
O O6 0.590165 0.315632 0.285701
O O7 0.256009 0.429420 0.169383
O O8 0.290479 0.400379 0.063652
O O9 0.109091 0.057540 0.966777
O O10 0.990475 0.269503 0.880049
O O11 0.351865 0.279556 0.990181
O O12 0.435466 0.276762 0.904718
O O13 0.490912 0.096776 0.006386
O O14 0.849476 0.861070 0.747865
O O15 0.243533 0.863534 0.988303
O O16 0.518128 0.966704 0.638049
#
# Coordination Sequence:
#
# PCOD9138522 Si02
#       8
#     4   4   4   4   4   4   4   4
#     4  12  26  47  72 102 152 187 246 305 364 442
#     4  10  24  41  67 104 138 185 239 295 365 435
#     4  10  23  46  70 104 137 190 239 296 365 429
#     4  12  22  43  71  96 142 186 238 292 356 441
#     4  10  23  44  69 103 135 190 235 292 364 425
#     4  12  27  44  68 109 139 187 242 299 370 435
#     4  12  23  42  70 101 143 183 233 299 363 436
#     4  12  24  45  73 103 138 192 240 298 365 443
#
# _framework density 21.476082999999999
#
# number of rings (size 3 to 8) (size 9 to 14) (size 15 to 20)
#    0.750    0.000    1.250    7.500    1.750    1.000 
#    2.250    1.250    0.000    0.000    0.000    0.000 
#    0.000    0.000    0.000    0.000    0.000    0.000 
#
# Total GULP energy -89405.665781 kJ/mol
# GULP energy per Si atom -5587.854111 kJ/mol
# Density = 2.142720 g / cm^3
# Si number density = 21.476083 Si / 1000 Ang^3
#
#
#
# Elastic Constant Matrix: (Units=GPa)
#
#
# Indices 1 2 3 4 5 6 
#
# 1 80.5618 14.1461 2.8882 0.0007 -0.6455 0.0005
# 2 14.1461 94.4794 25.4360 0.0006 0.7387 0.0003
# 3 2.8882 25.4360 77.3886 0.0014 -2.0309 0.0005
# 4 0.0007 0.0006 0.0014 31.0683 0.0007 -10.4221
# 5 -0.6455 0.7387 -2.0309 0.0007 24.1863 0.0005
# 6 0.0005 0.0003 0.0005 -10.4221 0.0005 44.7730
#
#
#
# Elastic Compliance Matrix: (Units=1/GPa)
#
#
# Indices 1 2 3 4 5 6 
#
# 1 0.012754 -0.001961 0.000180 0.000000 0.000415 0.000000
# 2 -0.001961 0.011924 -0.003866 0.000000 -0.000741 0.000000
# 3 0.000180 -0.003866 0.014220 -0.000001 0.001317 0.000000
# 4 0.000000 0.000000 -0.000001 0.034913 -0.000001 0.008127
# 5 0.000415 -0.000741 0.001317 -0.000001 0.041490 -0.000001
# 6 0.000000 0.000000 0.000000 0.008127 -0.000001 0.024227
#
#
# Mechanical properties :
#
#
# Convention : Reuss Voigt Hill
#
# Bulk Modulus (GPa) = 36.22635 37.48560 36.85597
# Shear Modulus (GPa) = 31.24515 34.00282 32.62399
#
# Velocity S-wave (km/s) = 3.81843 3.98337 3.90177
# Velocity P-wave (km/s) = 6.02871 6.21682 6.12349
#
# Compressibility (1/GPa) = 0.02760422
#
# Stress axis : x y z
#
# Youngs Moduli (GPa) = 78.40613 83.86129 70.32257
#
# Poissons Ratio (x) = 0.16447 -0.01262
# Poissons Ratio (y) = 0.15377 0.27184
# Poissons Ratio (z) = -0.01408 0.32417
#
# Static dielectric constant tensor:
#      x y z
#    x 1.752900 0.000000 -0.022550 
#    y 0.000000 1.759100 0.000000 
#    z -0.022550 0.000000 1.772880 
# 
# From -- ./inp_files/20320.got.cif
#   From: 2010.05.17/outbox.cif.g08.bks.cpg/sg9_11_cif.got.tgz:20320.got - 2010.06.03 20:04:27.
