data_PCOD9138517
_publ_section_title
;
Structure prediction by ZEFSAII (Michael W. Deem and Ramdas Pophale) SiO2 
 PCOD9138517
Probable space group: C C
;
_chemical_formula_sum "Si O2"
_cell_formula_units_Z 32
_cell_length_a 6.483135
_cell_length_b 16.851019
_cell_length_c 14.369170
_cell_angle_alpha 90.000000
_cell_angle_beta 67.289426
_cell_angle_gamma 90.000000
_cell_volume 1448.083772
_symmetry_space_group_name_H-M "C C"
_symmetry_group_IT_number 9
_symmetry_cell_setting 'monoclinic'
loop_
_space_group_symop_operation_xyz
x,y,z
x,-y,1/2+z
1/2+x,1/2+y,z
1/2+x,1/2-y,1/2+z
loop_
_atom_site_type_symbol
_atom_site_label
_atom_site_fract_x
_atom_site_fract_y
_atom_site_fract_z
Si Si1 0.552840 0.600553 0.339270
Si Si2 0.296627 0.377983 0.702176
Si Si3 0.644490 0.144129 0.525670
Si Si4 0.245517 0.551495 0.693346
Si Si5 0.406485 0.232264 0.322457
Si Si6 0.160775 0.135105 0.676916
Si Si7 0.535783 0.308389 0.491110
Si Si8 0.799300 0.562302 0.847874
O O1 0.495942 0.604954 0.239900
O O2 0.310336 0.595280 0.430923
O O3 0.684681 0.681397 0.342563
O O4 0.697461 0.524699 0.347017
O O5 0.211487 0.460014 0.672818
O O6 0.373884 0.322766 0.605238
O O7 0.103442 0.333128 0.792036
O O8 0.701972 0.112209 0.617709
O O9 0.372110 0.140314 0.570559
O O10 0.693140 0.235726 0.494495
O O11 0.499534 0.564525 0.675993
O O12 0.067979 0.562684 0.807886
O O13 0.491146 0.291435 0.225631
O O14 0.411742 0.281170 0.417888
O O15 0.255400 0.113351 0.761839
O O16 0.672376 0.388888 0.448739
#
# Coordination Sequence:
#
# PCOD9138517 Si02
#       8
#     4   4   4   4   4   4   4   4
#     4  12  25  44  72 105 136 188 234 289 357 415
#     4  12  24  47  69 103 145 182 234 298 345 423
#     4  11  25  40  70 101 140 175 240 281 347 419
#     4  11  24  44  74  99 138 188 228 291 353 415
#     4  11  25  44  72 100 143 183 232 290 355 416
#     4  10  23  44  68  99 136 184 226 290 345 413
#     4  11  25  47  66 102 147 180 232 299 343 417
#     4  10  23  46  67 103 141 178 240 282 347 424
#
# _framework density 22.098167
#
# number of rings (size 3 to 8) (size 9 to 14) (size 15 to 20)
#    0.000    1.000    5.000    0.750    5.250    0.000 
#    2.250    0.000    0.000    0.000    0.000    0.000 
#    0.000    0.000    0.000    0.000    0.000    0.000 
#
# Total GULP energy -89274.749821 kJ/mol
# GULP energy per Si atom -5579.671864 kJ/mol
# Density = 2.204787 g / cm^3
# Si number density = 22.098167 Si / 1000 Ang^3
#
#
#
# Elastic Constant Matrix: (Units=GPa)
#
#
# Indices 1 2 3 4 5 6 
#
# 1 71.8851 23.9281 43.0310 0.0000 -20.6685 0.0000
# 2 23.9281 83.8723 18.1844 0.0000 -4.6613 0.0000
# 3 43.0310 18.1844 99.4780 0.0000 -16.7878 0.0000
# 4 0.0000 0.0000 0.0000 27.4004 0.0000 -1.9143
# 5 -20.6685 -4.6613 -16.7878 0.0000 28.3226 0.0000
# 6 0.0000 0.0000 0.0000 -1.9143 0.0000 31.6469
#
#
#
# Elastic Compliance Matrix: (Units=1/GPa)
#
#
# Indices 1 2 3 4 5 6 
#
# 1 0.023074 -0.004367 -0.007181 0.000000 0.011863 0.000000
# 2 -0.004367 0.013257 -0.000782 0.000000 -0.001468 0.000000
# 3 -0.007181 -0.000782 0.013773 0.000000 0.002795 0.000000
# 4 0.000000 0.000000 0.000000 0.036651 0.000000 0.002217
# 5 0.011863 -0.001468 0.002795 0.000000 0.045380 0.000000
# 6 0.000000 0.000000 0.000000 0.002217 0.000000 0.031733
#
#
# Mechanical properties :
#
#
# Convention : Reuss Voigt Hill
#
# Bulk Modulus (GPa) = 39.30107 47.28027 43.29067
# Shear Modulus (GPa) = 25.37964 28.81346 27.09655
#
# Velocity S-wave (km/s) = 3.39262 3.61485 3.50550
# Velocity P-wave (km/s) = 5.75933 6.23417 6.00145
#
# Compressibility (1/GPa) = 0.02544460
#
# Stress axis : x y z
#
# Youngs Moduli (GPa) = 43.33863 75.43391 72.60409
#
# Poissons Ratio (x) = 0.32939 0.52136
# Poissons Ratio (y) = 0.18925 0.05679
# Poissons Ratio (z) = 0.31121 0.05901
#
# Static dielectric constant tensor:
#      x y z
#    x 1.837500 0.000000 -0.015570 
#    y 0.000000 1.837620 0.000000 
#    z -0.015570 0.000000 1.823300 
# 
# From -- ./inp_files/21941.got.cif
#   From: 2010.05.17/outbox.cif.g08.bks.cpg/sg9_11_cif.got.tgz:21941.got - 2010.06.03 20:04:27.
