data_PCOD9138754
_publ_section_title
;
Structure prediction by ZEFSAII (Michael W. Deem and Ramdas Pophale) SiO2 
 PCOD9138754
Probable space group: C C
;
_chemical_formula_sum "Si O2"
_cell_formula_units_Z 28
_cell_length_a 12.186757
_cell_length_b 5.222889
_cell_length_c 18.487347
_cell_angle_alpha 90.000000
_cell_angle_beta 116.286424
_cell_angle_gamma 90.000000
_cell_volume 1055.038004
_symmetry_space_group_name_H-M "C C"
_symmetry_group_IT_number 9
_symmetry_cell_setting 'monoclinic'
loop_
_space_group_symop_operation_xyz
x,y,z
x,-y,1/2+z
1/2+x,1/2+y,z
1/2+x,1/2-y,1/2+z
loop_
_atom_site_type_symbol
_atom_site_label
_atom_site_fract_x
_atom_site_fract_y
_atom_site_fract_z
Si Si1 0.247960 0.904867 0.350730
Si Si2 0.485602 0.556839 0.698991
Si Si3 0.439724 0.092743 0.295478
Si Si4 0.092246 0.167893 0.086287
Si Si5 0.164098 0.668454 0.931962
Si Si6 0.238140 0.658855 0.108649
Si Si7 0.436775 0.497131 0.416909
O O1 0.314161 0.651224 0.403042
O O2 0.112063 0.945391 0.279987
O O3 0.334020 0.935149 0.304753
O O4 0.244451 0.125827 0.410835
O O5 0.435583 0.831804 0.710406
O O6 0.522340 0.472388 0.630491
O O7 0.371467 0.373901 0.681733
O O8 0.420638 0.353159 0.336774
O O9 0.577760 0.002569 0.354594
O O10 0.193067 0.950383 0.097838
O O11 0.149889 0.445166 0.120289
O O12 0.996388 0.193958 0.992653
O O13 0.048792 0.809870 0.937815
O O14 0.236032 0.567545 0.023454
#
# Coordination Sequence:
#
# PCOD9138754 Si02
#       7
#     4   4   4   4   4   4   4
#     4  11  26  43  71 110 145 196 249 317 375 456
#     4  12  28  44  74 107 152 191 245 305 393 434
#     4  11  24  44  71 102 143 189 251 311 363 461
#     4  11  27  50  75 109 148 196 248 312 377 441
#     4  10  23  46  76 104 144 194 261 305 380 439
#     4  11  27  49  76 108 150 196 251 310 368 463
#     4  10  23  46  73 102 144 190 255 304 368 452
#
# _framework density 26.53933
#
# number of rings (size 3 to 8) (size 9 to 14) (size 15 to 20)
#    0.000    1.143    2.857    0.857    6.000    5.714 
#    0.000    0.000    0.000    0.000    0.000    0.000 
#    0.000    0.000    0.000    0.000    0.000    0.000 
#
# Total GULP energy -78164.878460 kJ/mol
# GULP energy per Si atom -5583.205604 kJ/mol
# Density = 2.647893 g / cm^3
# Si number density = 26.539330 Si / 1000 Ang^3
#
#
#
# Elastic Constant Matrix: (Units=GPa)
#
#
# Indices 1 2 3 4 5 6 
#
# 1 137.6908 21.9806 47.1315 0.0000 26.0578 0.0000
# 2 21.9806 93.2038 16.0480 0.0000 23.2052 0.0000
# 3 47.1315 16.0480 48.8710 0.0000 17.9492 0.0000
# 4 0.0000 0.0000 0.0000 28.6652 0.0000 1.2007
# 5 26.0578 23.2052 17.9492 0.0000 58.1828 0.0000
# 6 0.0000 0.0000 0.0000 1.2007 0.0000 37.9333
#
#
#
# Elastic Compliance Matrix: (Units=1/GPa)
#
#
# Indices 1 2 3 4 5 6 
#
# 1 0.011038 -0.000480 -0.009859 0.000000 -0.001711 0.000000
# 2 -0.000480 0.012197 -0.002069 0.000000 -0.004011 0.000000
# 3 -0.009859 -0.002069 0.032395 0.000000 -0.004753 0.000000
# 4 0.000000 0.000000 0.000000 0.034932 0.000000 -0.001106
# 5 -0.001711 -0.004011 -0.004753 0.000000 0.021020 0.000000
# 6 0.000000 0.000000 0.000000 -0.001106 0.000000 0.026397
#
#
# Mechanical properties :
#
#
# Convention : Reuss Voigt Hill
#
# Bulk Modulus (GPa) = 32.45258 50.00954 41.23106
# Shear Modulus (GPa) = 28.89063 37.92995 33.41029
#
# Velocity S-wave (km/s) = 3.30297 3.78457 3.55194
# Velocity P-wave (km/s) = 5.17695 6.16294 5.69134
#
# Compressibility (1/GPa) = 0.03081419
#
# Stress axis : x y z
#
# Youngs Moduli (GPa) = 90.59861 81.98500 30.86860
#
# Poissons Ratio (x) = 0.03932 0.30434
# Poissons Ratio (y) = 0.04345 0.06388
# Poissons Ratio (z) = 0.89322 0.16966
#
# Static dielectric constant tensor:
#      x y z
#    x 2.136350 0.000000 -0.012520 
#    y 0.000000 2.184290 0.000000 
#    z -0.012520 0.000000 2.068120 
# 
# From -- ./inp_files/33003.got.cif
#   From: 2010.05.17/outbox.cif.g08.bks.cpg/sg9_17_cif.got.tgz:33003.got - 2010.06.03 20:04:27.
