data_PCOD9138700
_publ_section_title
;
Structure prediction by ZEFSAII (Michael W. Deem and Ramdas Pophale) SiO2 
 PCOD9138700
Probable space group: C C
;
_chemical_formula_sum "Si O2"
_cell_formula_units_Z 20
_cell_length_a 21.450532
_cell_length_b 7.256199
_cell_length_c 8.848398
_cell_angle_alpha 90.000000
_cell_angle_beta 147.120545
_cell_angle_gamma 90.000000
_cell_volume 747.670801
_symmetry_space_group_name_H-M "C C"
_symmetry_group_IT_number 9
_symmetry_cell_setting 'monoclinic'
loop_
_space_group_symop_operation_xyz
x,y,z
x,-y,1/2+z
1/2+x,1/2+y,z
1/2+x,1/2-y,1/2+z
loop_
_atom_site_type_symbol
_atom_site_label
_atom_site_fract_x
_atom_site_fract_y
_atom_site_fract_z
Si Si1 0.486950 0.485389 0.193980
Si Si2 0.660703 0.173217 0.533025
Si Si3 0.467580 0.887028 0.022146
Si Si4 0.853756 0.342305 0.467361
Si Si5 0.287721 0.545294 0.512276
O O1 0.606717 0.375685 0.435752
O O2 0.498211 0.685258 0.145633
O O3 0.404690 0.319050 0.962178
O O4 0.415952 0.499275 0.208777
O O5 0.764233 0.119653 0.630519
O O6 0.564285 0.032782 0.269950
O O7 0.705506 0.115456 0.789212
O O8 0.355071 0.973183 0.876542
O O9 0.437007 0.881049 0.782555
O O10 0.752209 0.229438 0.339980
#
# Coordination Sequence:
#
# PCOD9138700 Si02
#       5
#     4   4   4   4   4
#     4   9  23  42  67  96 144 185 236 300 359 415
#     4  11  22  44  68 105 142 188 247 297 363 443
#     4  11  21  44  69  99 144 188 237 300 361 429
#     4   9  23  40  69  97 143 189 227 303 361 417
#     4  10  23  46  67 101 147 182 245 300 360 438
#
# _framework density 26.749742000000001
#
# number of rings (size 3 to 8) (size 9 to 14) (size 15 to 20)
#    1.200    0.800    0.000    3.600    0.000    6.400 
#   10.800    0.000    0.000    0.000    0.000    0.000 
#    0.000    0.000    0.000    0.000    0.000    0.000 
#
# Total GULP energy -55693.504431 kJ/mol
# GULP energy per Si atom -5569.350443 kJ/mol
# Density = 2.668886 g / cm^3
# Si number density = 26.749742 Si / 1000 Ang^3
#
#
#
# Elastic Constant Matrix: (Units=GPa)
#
#
# Indices 1 2 3 4 5 6 
#
# 1 124.8364 48.2120 33.4526 0.0000 -13.7071 0.0000
# 2 48.2120 199.6332 22.9322 0.0000 -10.6357 0.0000
# 3 33.4526 22.9322 33.3349 0.0000 4.7847 0.0000
# 4 0.0000 0.0000 0.0000 44.9222 0.0000 7.4630
# 5 -13.7071 -10.6357 4.7847 0.0000 46.6523 0.0000
# 6 0.0000 0.0000 0.0000 7.4630 0.0000 36.1941
#
#
#
# Elastic Compliance Matrix: (Units=1/GPa)
#
#
# Indices 1 2 3 4 5 6 
#
# 1 0.012243 -0.001335 -0.012018 0.000000 0.004525 0.000000
# 2 -0.001335 0.005712 -0.002761 0.000000 0.001193 0.000000
# 3 -0.012018 -0.002761 0.045221 0.000000 -0.008798 0.000000
# 4 0.000000 0.000000 0.000000 0.023050 0.000000 -0.004753
# 5 0.004525 0.001193 -0.008798 0.000000 0.023939 0.000000
# 6 0.000000 0.000000 0.000000 -0.004753 0.000000 0.028609
#
#
# Mechanical properties :
#
#
# Convention : Reuss Voigt Hill
#
# Bulk Modulus (GPa) = 32.31136 62.99979 47.65557
# Shear Modulus (GPa) = 27.57570 42.43423 35.00496
#
# Velocity S-wave (km/s) = 3.21421 3.98721 3.62140
# Velocity P-wave (km/s) = 5.08726 6.69327 5.94475
#
# Compressibility (1/GPa) = 0.03094887
#
# Stress axis : x y z
#
# Youngs Moduli (GPa) = 81.67652 175.05821 22.11369
#
# Poissons Ratio (x) = 0.23375 0.26575
# Poissons Ratio (y) = 0.10906 0.06106
# Poissons Ratio (z) = 0.98156 0.48334
#
# Static dielectric constant tensor:
#      x y z
#    x 2.217440 0.000000 0.056600 
#    y 0.000000 2.083080 0.000000 
#    z 0.056600 0.000000 2.266500 
# 
# From -- ./inp_files/12041.got.cif
#   From: 2010.05.17/outbox.cif.g08.bks.cpg/sg9_7_cif.got.tgz:12041.got - 2010.06.03 20:04:27.
