data_PCOD9138363
_publ_section_title
;
Structure prediction by ZEFSAII (Michael W. Deem and Ramdas Pophale) SiO2 
 PCOD9138363
Probable space group: C C
;
_chemical_formula_sum "Si O2"
_cell_formula_units_Z 28
_cell_length_a 18.117015
_cell_length_b 5.195310
_cell_length_c 10.792294
_cell_angle_alpha 90.000000
_cell_angle_beta 75.937561
_cell_angle_gamma 90.000000
_cell_volume 985.366336
_symmetry_space_group_name_H-M "C C"
_symmetry_group_IT_number 9
_symmetry_cell_setting 'monoclinic'
loop_
_space_group_symop_operation_xyz
x,y,z
x,-y,1/2+z
1/2+x,1/2+y,z
1/2+x,1/2-y,1/2+z
loop_
_atom_site_type_symbol
_atom_site_label
_atom_site_fract_x
_atom_site_fract_y
_atom_site_fract_z
Si Si1 0.208910 0.866743 0.861100
Si Si2 0.663227 0.180201 0.112841
Si Si3 0.563787 0.687808 0.162067
Si Si4 0.362178 0.113039 0.830589
Si Si5 0.306640 0.508853 0.677529
Si Si6 0.040997 0.000185 0.925928
Si Si7 0.428756 0.867204 0.552364
O O1 0.251715 0.747364 0.727625
O O2 0.131417 0.015525 0.866651
O O3 0.276283 0.024753 0.895559
O O4 0.185597 0.630556 0.960321
O O5 0.626158 0.462512 0.119344
O O6 0.743971 0.185774 0.150402
O O7 0.604595 0.957261 0.180711
O O8 0.513891 0.569983 0.296393
O O9 0.524747 0.709261 0.041099
O O10 0.346266 0.400347 0.784922
O O11 0.401129 0.989183 0.691459
O O12 0.409960 0.010262 0.927802
O O13 0.373760 0.609586 0.563619
O O14 0.012218 0.749893 0.012093
#
# Coordination Sequence:
#
# PCOD9138363 Si02
#       7
#     4   4   4   4   4   4   4
#     4  10  23  42  76 106 145 197 265 315 386 459
#     4  11  24  43  75 116 147 199 257 331 381 467
#     4  11  27  46  78 110 156 195 265 321 399 465
#     4  11  25  49  79 109 157 208 268 329 401 486
#     4  11  23  42  72 107 150 204 255 328 384 482
#     4  11  26  50  72 112 149 204 254 331 392 476
#     4  11  28  48  72 114 156 207 262 325 415 477
#
# _framework density 28.415828000000001
#
# number of rings (size 3 to 8) (size 9 to 14) (size 15 to 20)
#    0.000    1.143    1.429    2.571   14.000    3.429 
#    2.571    0.000    0.000    0.000    0.000    0.000 
#    0.000    0.000    0.000    0.000    0.000    0.000 
#
# Total GULP energy -78154.595028 kJ/mol
# GULP energy per Si atom -5582.471073 kJ/mol
# Density = 2.835115 g / cm^3
# Si number density = 28.415828 Si / 1000 Ang^3
#
#
#
# Elastic Constant Matrix: (Units=GPa)
#
#
# Indices 1 2 3 4 5 6 
#
# 1 93.0505 -17.3264 23.2274 0.0000 0.4552 0.0000
# 2 -17.3264 74.6303 -3.1613 0.0000 -6.9685 0.0000
# 3 23.2274 -3.1613 163.0546 0.0000 11.3770 0.0000
# 4 0.0000 0.0000 0.0000 40.5558 0.0000 -9.2164
# 5 0.4552 -6.9685 11.3770 0.0000 57.9363 0.0000
# 6 0.0000 0.0000 0.0000 -9.2164 0.0000 36.9545
#
#
#
# Elastic Compliance Matrix: (Units=1/GPa)
#
#
# Indices 1 2 3 4 5 6 
#
# 1 0.011656 0.002688 -0.001647 0.000000 0.000555 0.000000
# 2 0.002688 0.014175 -0.000229 0.000000 0.001729 0.000000
# 3 -0.001647 -0.000229 0.006453 0.000000 -0.001282 0.000000
# 4 0.000000 0.000000 0.000000 0.026139 0.000000 0.006519
# 5 0.000555 0.001729 -0.001282 0.000000 0.017716 0.000000
# 6 0.000000 0.000000 0.000000 0.006519 0.000000 0.028686
#
#
# Mechanical properties :
#
#
# Convention : Reuss Voigt Hill
#
# Bulk Modulus (GPa) = 29.49129 37.35719 33.42424
# Shear Modulus (GPa) = 43.66732 48.95570 46.31151
#
# Velocity S-wave (km/s) = 3.92436 4.15520 4.04143
# Velocity P-wave (km/s) = 5.56194 6.01632 5.79359
#
# Compressibility (1/GPa) = 0.03390831
#
# Stress axis : x y z
#
# Youngs Moduli (GPa) = 85.79416 70.54574 154.97800
#
# Poissons Ratio (x) = -0.18964 0.25525
# Poissons Ratio (y) = -0.23062 0.03545
# Poissons Ratio (z) = 0.14130 0.01614
#
# Static dielectric constant tensor:
#      x y z
#    x 2.309840 0.000000 0.165780 
#    y 0.000000 2.260990 0.000000 
#    z 0.165780 0.000000 2.353490 
# 
# From -- ./inp_files/19740.got.cif
#   From: 2010.05.17/outbox.cif.g08.bks.cpg/sg9_10_cif.got.tgz:19740.got - 2010.06.03 20:04:27.
