data_PCOD9138300
_publ_section_title
;
Structure prediction by ZEFSAII (Michael W. Deem and Ramdas Pophale) SiO2 
 PCOD9138300
Probable space group: C C
;
_chemical_formula_sum "Si O2"
_cell_formula_units_Z 32
_cell_length_a 8.796619
_cell_length_b 11.690003
_cell_length_c 13.830505
_cell_angle_alpha 90.000000
_cell_angle_beta 70.314216
_cell_angle_gamma 90.000000
_cell_volume 1339.102272
_symmetry_space_group_name_H-M "C C"
_symmetry_group_IT_number 9
_symmetry_cell_setting 'monoclinic'
loop_
_space_group_symop_operation_xyz
x,y,z
x,-y,1/2+z
1/2+x,1/2+y,z
1/2+x,1/2-y,1/2+z
loop_
_atom_site_type_symbol
_atom_site_label
_atom_site_fract_x
_atom_site_fract_y
_atom_site_fract_z
Si Si1 0.516010 0.393509 0.689370
Si Si2 0.337071 0.254674 0.428076
Si Si3 0.322392 0.199351 0.049571
Si Si4 0.055015 0.708569 0.835352
Si Si5 0.947511 0.533053 0.331667
Si Si6 0.359224 0.445141 0.077361
Si Si7 0.087215 0.037552 0.865440
Si Si8 0.598626 0.897542 0.603284
O O1 0.653612 0.362611 0.582235
O O2 0.511235 0.272037 0.745490
O O3 0.384054 0.462756 0.657511
O O4 0.563091 0.476828 0.767066
O O5 0.406667 0.127265 0.420925
O O6 0.484845 0.344399 0.386096
O O7 0.223118 0.298813 0.540636
O O8 0.214806 0.252905 0.360871
O O9 0.338811 0.313884 0.111129
O O10 0.446135 0.110158 0.067294
O O11 0.397180 0.235817 0.933136
O O12 0.065711 0.571793 0.827478
O O13 0.778807 0.470001 0.341120
O O14 0.025529 0.603174 0.225965
O O15 0.193237 0.485136 0.064931
O O16 0.501296 0.464673 0.969578
#
# Coordination Sequence:
#
# PCOD9138300 Si02
#       8
#     4   4   4   4   4   4   4   4
#     4  12  24  42  72 103 136 188 228 289 357 409
#     4  10  24  46  66  98 140 185 230 290 352 415
#     4  11  22  46  68  97 140 184 231 288 348 423
#     4  11  24  45  71 102 141 185 236 292 353 420
#     4  12  23  45  68 103 141 179 237 292 345 423
#     4  11  25  45  69 100 145 181 231 293 349 417
#     4  11  23  45  69 101 139 182 235 286 347 422
#     4  10  23  42  67  98 136 180 232 284 343 417
#
# _framework density 23.896606999999999
#
# number of rings (size 3 to 8) (size 9 to 14) (size 15 to 20)
#    0.000    1.000    3.750    2.250    5.250    1.000 
#    0.000   11.250    0.000    0.000    0.000    0.000 
#    0.000    0.000    0.000    0.000    0.000    0.000 
#
# Total GULP energy -89352.553120 kJ/mol
# GULP energy per Si atom -5584.534570 kJ/mol
# Density = 2.384222 g / cm^3
# Si number density = 23.896607 Si / 1000 Ang^3
#
#
#
# Elastic Constant Matrix: (Units=GPa)
#
#
# Indices 1 2 3 4 5 6 
#
# 1 77.2068 44.6239 19.2912 0.0000 -21.6716 0.0000
# 2 44.6239 130.5367 30.5524 0.0000 -2.7900 0.0000
# 3 19.2912 30.5524 73.6148 0.0000 -10.7268 0.0000
# 4 0.0000 0.0000 0.0000 33.0223 0.0000 2.9861
# 5 -21.6716 -2.7900 -10.7268 0.0000 29.8908 0.0000
# 6 0.0000 0.0000 0.0000 2.9861 0.0000 22.1588
#
#
#
# Elastic Compliance Matrix: (Units=1/GPa)
#
#
# Indices 1 2 3 4 5 6 
#
# 1 0.021049 -0.006743 -0.000618 0.000000 0.014410 0.000000
# 2 -0.006743 0.010652 -0.003399 0.000000 -0.005114 0.000000
# 3 -0.000618 -0.003399 0.015875 0.000000 0.004932 0.000000
# 4 0.000000 0.000000 0.000000 0.030656 0.000000 -0.004131
# 5 0.014410 -0.005114 0.004932 0.000000 0.045195 0.000000
# 6 0.000000 0.000000 0.000000 -0.004131 0.000000 0.045686
#
#
# Mechanical properties :
#
#
# Convention : Reuss Voigt Hill
#
# Bulk Modulus (GPa) = 38.37794 52.25480 45.31637
# Shear Modulus (GPa) = 25.08559 29.47376 27.27967
#
# Velocity S-wave (km/s) = 3.24351 3.51577 3.38238
# Velocity P-wave (km/s) = 5.48835 6.19640 5.85309
#
# Compressibility (1/GPa) = 0.02605664
#
# Stress axis : x y z
#
# Youngs Moduli (GPa) = 47.50930 93.87921 62.99015
#
# Poissons Ratio (x) = 0.63301 0.03891
# Poissons Ratio (y) = 0.32035 0.21411
# Poissons Ratio (z) = 0.02935 0.31911
#
# Static dielectric constant tensor:
#      x y z
#    x 1.926930 0.000000 -0.004990 
#    y 0.000000 1.939830 0.000000 
#    z -0.004990 0.000000 2.017290 
# 
# From -- ./inp_files/22793.got.cif
#   From: 2010.05.17/outbox.cif.g08.bks.cpg/sg9_12_cif.got.tgz:22793.got - 2010.06.03 20:04:27.
