data_PCOD9138477
_publ_section_title
;
Structure prediction by ZEFSAII (Michael W. Deem and Ramdas Pophale) SiO2 
 PCOD9138477
Probable space group: C C
;
_chemical_formula_sum "Si O2"
_cell_formula_units_Z 28
_cell_length_a 5.050371
_cell_length_b 20.782736
_cell_length_c 10.405781
_cell_angle_alpha 90.000000
_cell_angle_beta 102.000126
_cell_angle_gamma 90.000000
_cell_volume 1068.328652
_symmetry_space_group_name_H-M "C C"
_symmetry_group_IT_number 9
_symmetry_cell_setting 'monoclinic'
loop_
_space_group_symop_operation_xyz
x,y,z
x,-y,1/2+z
1/2+x,1/2+y,z
1/2+x,1/2-y,1/2+z
loop_
_atom_site_type_symbol
_atom_site_label
_atom_site_fract_x
_atom_site_fract_y
_atom_site_fract_z
Si Si1 0.929540 0.481386 0.625000
Si Si2 0.218350 0.751963 0.042512
Si Si3 0.286315 0.149771 0.039365
Si Si4 0.341974 0.409733 0.353254
Si Si5 0.995383 0.960474 0.803893
Si Si6 0.264748 0.109948 0.670105
Si Si7 0.125900 0.818334 0.783794
O O1 0.883792 0.422700 0.523668
O O2 0.763226 0.473782 0.743699
O O3 0.833402 0.552690 0.575340
O O4 0.244067 0.473996 0.683340
O O5 0.945026 0.709870 0.000973
O O6 0.274615 0.773185 0.900753
O O7 0.193041 0.822569 0.101631
O O8 0.414455 0.718619 0.168351
O O9 0.973921 0.140612 0.966211
O O10 0.330894 0.157280 0.195641
O O11 0.405287 0.484349 0.397981
O O12 0.520895 0.403076 0.242430
O O13 0.041576 0.390718 0.281498
O O14 0.999394 0.883826 0.831156
#
# Coordination Sequence:
#
# PCOD9138477 Si02
#       7
#     4   4   4   4   4   4   4
#     4   9  19  41  68  99 144 186 250 305 373 441
#     4  12  27  47  74 104 155 195 255 310 394 454
#     4  11  25  44  75 106 151 204 252 321 386 464
#     4  10  23  43  78 105 150 192 257 311 387 448
#     4   9  19  43  68 105 139 192 247 313 367 448
#     4  10  24  44  70 112 142 195 250 316 376 464
#     4  11  27  46  73 107 153 200 257 318 383 469
#
# _framework density 26.209164999999999
#
# number of rings (size 3 to 8) (size 9 to 14) (size 15 to 20)
#    0.000    1.714    1.429    0.857    8.000    1.143 
#    0.000    0.000    0.000    0.000    0.000    0.000 
#    0.000    0.000    0.000    0.000    0.000    0.000 
#
# Total GULP energy -78103.182330 kJ/mol
# GULP energy per Si atom -5578.798738 kJ/mol
# Density = 2.614951 g / cm^3
# Si number density = 26.209165 Si / 1000 Ang^3
#
#
#
# Elastic Constant Matrix: (Units=GPa)
#
#
# Indices 1 2 3 4 5 6 
#
# 1 88.1531 8.8815 19.1770 0.0000 16.1745 0.0000
# 2 8.8815 180.6633 45.5504 0.0000 4.1226 0.0000
# 3 19.1770 45.5504 97.5470 0.0000 5.8163 0.0000
# 4 0.0000 0.0000 0.0000 54.8362 0.0000 9.3529
# 5 16.1745 4.1226 5.8163 0.0000 34.6390 0.0000
# 6 0.0000 0.0000 0.0000 9.3529 0.0000 32.9525
#
#
#
# Elastic Compliance Matrix: (Units=1/GPa)
#
#
# Indices 1 2 3 4 5 6 
#
# 1 0.012855 0.000056 -0.002217 0.000000 -0.005637 0.000000
# 2 0.000056 0.006276 -0.002925 0.000000 -0.000282 0.000000
# 3 -0.002217 -0.002925 0.012092 0.000000 -0.000647 0.000000
# 4 0.000000 0.000000 0.000000 0.019164 0.000000 -0.005439
# 5 -0.005637 -0.000282 -0.000647 0.000000 0.031643 0.000000
# 6 0.000000 0.000000 0.000000 -0.005439 0.000000 0.031891
#
#
# Mechanical properties :
#
#
# Convention : Reuss Voigt Hill
#
# Bulk Modulus (GPa) = 47.50533 57.06456 52.28495
# Shear Modulus (GPa) = 38.13588 44.00251 41.06920
#
# Velocity S-wave (km/s) = 3.81866 4.10188 3.96280
# Velocity P-wave (km/s) = 6.13251 6.65236 6.39772
#
# Compressibility (1/GPa) = 0.02105027
#
# Stress axis : x y z
#
# Youngs Moduli (GPa) = 77.79156 159.32932 82.70125
#
# Poissons Ratio (x) = -0.00887 0.18335
# Poissons Ratio (y) = -0.00433 0.24189
# Poissons Ratio (z) = 0.17247 0.46602
#
# Static dielectric constant tensor:
#      x y z
#    x 2.115510 0.000000 0.036760 
#    y 0.000000 2.234080 0.000000 
#    z 0.036760 0.000000 2.099060 
# 
# From -- ./inp_files/13385.got.cif
#   From: 2010.05.17/outbox.cif.g08.bks.cpg/sg9_7_cif.got.tgz:13385.got - 2010.06.03 20:04:27.
