data_PCOD9138024
_publ_section_title
;
Structure prediction by ZEFSAII (Michael W. Deem and Ramdas Pophale) SiO2 
 PCOD9138024
Probable space group: C C
;
_chemical_formula_sum "Si O2"
_cell_formula_units_Z 32
_cell_length_a 30.296023
_cell_length_b 5.236109
_cell_length_c 19.466055
_cell_angle_alpha 90.000000
_cell_angle_beta 153.566734
_cell_angle_gamma 90.000000
_cell_volume 1374.623152
_symmetry_space_group_name_H-M "C C"
_symmetry_group_IT_number 9
_symmetry_cell_setting 'monoclinic'
loop_
_space_group_symop_operation_xyz
x,y,z
x,-y,1/2+z
1/2+x,1/2+y,z
1/2+x,1/2-y,1/2+z
loop_
_atom_site_type_symbol
_atom_site_label
_atom_site_fract_x
_atom_site_fract_y
_atom_site_fract_z
Si Si1 0.134630 0.381778 0.291510
Si Si2 0.716798 0.566082 0.291677
Si Si3 0.266349 0.525097 0.099151
Si Si4 0.463743 0.543447 0.105555
Si Si5 0.911170 0.566037 0.112191
Si Si6 0.889568 0.474548 0.741871
Si Si7 0.077103 0.325967 0.584505
Si Si8 0.759610 0.952260 0.248468
O O1 0.181378 0.508785 0.423633
O O2 0.075682 0.574458 0.160449
O O3 0.065467 0.144968 0.215682
O O4 0.216314 0.275264 0.351840
O O5 0.796440 0.369448 0.433300
O O6 0.751393 0.662371 0.265525
O O7 0.604264 0.471705 0.126224
O O8 0.347896 0.303834 0.202331
O O9 0.237074 0.501076 0.137895
O O10 0.307105 0.807874 0.139512
O O11 0.473452 0.296793 0.167196
O O12 0.431349 0.794289 0.104381
O O13 0.373797 0.481549 0.926884
O O14 0.921562 0.537282 0.207358
O O15 0.980814 0.571964 0.913958
O O16 0.172216 0.420405 0.672033
#
# Coordination Sequence:
#
# PCOD9138024 Si02
#       8
#     4   4   4   4   4   4   4   4
#     4  11  26  46  73 109 139 203 242 309 372 451
#     4  10  22  46  75 100 146 196 248 298 380 445
#     4  12  28  48  73 107 152 184 254 305 368 441
#     4  11  25  43  75 103 147 183 250 296 370 443
#     4  11  23  47  69 105 142 193 235 305 367 437
#     4  12  28  46  74 106 147 194 244 307 372 440
#     4  11  25  46  76 101 147 194 249 299 384 445
#     4  10  25  44  69 109 140 191 236 313 363 440
#
# _framework density 23.279108000000001
#
# number of rings (size 3 to 8) (size 9 to 14) (size 15 to 20)
#    0.000    1.000    2.500    2.250   12.250    0.000 
#    0.000    0.000    0.000    0.000    0.000    0.000 
#    0.000    0.000    0.000    0.000    0.000    0.000 
#
# Total GULP energy -89410.142847 kJ/mol
# GULP energy per Si atom -5588.133928 kJ/mol
# Density = 2.322612 g / cm^3
# Si number density = 23.279108 Si / 1000 Ang^3
#
#
#
# Elastic Constant Matrix: (Units=GPa)
#
#
# Indices 1 2 3 4 5 6 
#
# 1 134.4977 29.9753 51.0865 0.0000 -41.8919 -0.0001
# 2 29.9753 61.3138 7.6200 -0.0011 -10.2909 0.0000
# 3 51.0865 7.6200 121.3241 0.0001 -32.9943 -0.0001
# 4 0.0000 -0.0011 0.0001 31.8708 -0.0001 7.7045
# 5 -41.8919 -10.2909 -32.9943 -0.0001 46.1605 -0.0001
# 6 -0.0001 0.0000 -0.0001 7.7045 -0.0001 40.3888
#
#
#
# Elastic Compliance Matrix: (Units=1/GPa)
#
#
# Indices 1 2 3 4 5 6 
#
# 1 0.011802 -0.004115 -0.002542 0.000000 0.007976 0.000000
# 2 -0.004115 0.018379 0.000840 0.000001 0.000963 0.000000
# 3 -0.002542 0.000840 0.010779 0.000000 0.005585 0.000000
# 4 0.000000 0.000001 0.000000 0.032894 0.000000 -0.006275
# 5 0.007976 0.000963 0.005585 0.000000 0.033109 0.000000
# 6 0.000000 0.000000 0.000000 -0.006275 0.000000 0.025956
#
#
# Mechanical properties :
#
#
# Convention : Reuss Voigt Hill
#
# Bulk Modulus (GPa) = 34.09911 54.94435 44.52173
# Shear Modulus (GPa) = 32.39870 38.91426 35.65648
#
# Velocity S-wave (km/s) = 3.73466 4.09300 3.91793
# Velocity P-wave (km/s) = 5.76860 6.78163 6.29552
#
# Compressibility (1/GPa) = 0.02932628
#
# Stress axis : x y z
#
# Youngs Moduli (GPa) = 84.73036 54.41101 92.77516
#
# Poissons Ratio (x) = 0.22391 0.23583
# Poissons Ratio (y) = 0.34868 -0.07798
# Poissons Ratio (z) = 0.21538 -0.04573
#
# Static dielectric constant tensor:
#      x y z
#    x 1.875170 0.000000 0.073600 
#    y 0.000000 2.064260 0.000000 
#    z 0.073600 0.000000 1.895650 
# 
# From -- ./inp_files/31761.got.cif
#   From: 2010.05.17/outbox.cif.g08.bks.cpg/sg9_16_cif.got.tgz:31761.got - 2010.06.03 20:04:27.
