data_PCOD9138907
_publ_section_title
;
Structure prediction by ZEFSAII (Michael W. Deem and Ramdas Pophale) SiO2 
 PCOD9138907
Probable space group: C C
;
_chemical_formula_sum "Si O2"
_cell_formula_units_Z 28
_cell_length_a 5.113852
_cell_length_b 26.015150
_cell_length_c 8.210618
_cell_angle_alpha 90.000000
_cell_angle_beta 86.570386
_cell_angle_gamma 90.000000
_cell_volume 1090.364832
_symmetry_space_group_name_H-M "C C"
_symmetry_group_IT_number 9
_symmetry_cell_setting 'monoclinic'
loop_
_space_group_symop_operation_xyz
x,y,z
x,-y,1/2+z
1/2+x,1/2+y,z
1/2+x,1/2-y,1/2+z
loop_
_atom_site_type_symbol
_atom_site_label
_atom_site_fract_x
_atom_site_fract_y
_atom_site_fract_z
Si Si1 0.990790 0.141221 0.282470
Si Si2 0.139272 0.468656 0.441767
Si Si3 0.130579 0.039159 0.149647
Si Si4 0.929368 0.557608 0.618289
Si Si5 0.006153 0.674542 0.082643
Si Si6 0.367184 0.708697 0.599685
Si Si7 0.847900 0.332793 0.230456
O O1 0.774904 0.155276 0.152847
O O2 0.902702 0.169534 0.448823
O O3 0.038374 0.079623 0.287889
O O4 0.269896 0.162745 0.214719
O O5 0.408894 0.460058 0.521397
O O6 0.049268 0.528948 0.457356
O O7 0.131506 0.449916 0.259042
O O8 0.907988 0.444296 0.561043
O O9 0.193130 0.979782 0.185357
O O10 0.861264 0.616761 0.616043
O O11 0.985211 0.735962 0.055623
O O12 0.940621 0.652881 0.906826
O O13 0.553200 0.687847 0.737408
O O14 0.062054 0.707771 0.656995
#
# Coordination Sequence:
#
# PCOD9138907 Si02
#       7
#     4   4   4   4   4   4   4
#     4  12  25  45  76 100 141 191 239 284 369 426
#     4  10  24  40  67  91 142 172 227 276 344 397
#     4  10  24  41  66  98 134 178 228 278 335 425
#     4  10  26  42  69 100 140 179 230 284 344 422
#     4  12  25  48  72 103 143 188 240 297 359 431
#     4  12  27  45  71 107 142 183 242 305 355 418
#     4  12  27  45  75 107 144 185 238 296 368 415
#
# _framework density 25.679480000000002
#
# number of rings (size 3 to 8) (size 9 to 14) (size 15 to 20)
#    0.857    0.000    0.000    6.857    6.000    1.143 
#    0.000    0.000    0.000    0.000    0.000    0.000 
#    0.000    0.000    0.000    0.000    0.000    0.000 
#
# Total GULP energy -78398.698239 kJ/mol
# GULP energy per Si atom -5599.907017 kJ/mol
# Density = 2.562103 g / cm^3
# Si number density = 25.679480 Si / 1000 Ang^3
#
#
#
# Elastic Constant Matrix: (Units=GPa)
#
#
# Indices 1 2 3 4 5 6 
#
# 1 107.9079 23.9425 17.7937 0.0000 18.9703 0.0000
# 2 23.9425 108.6507 -4.8713 0.0000 7.7478 0.0000
# 3 17.7937 -4.8713 56.2520 0.0000 8.2798 0.0000
# 4 0.0000 0.0000 0.0000 34.3561 0.0000 2.4652
# 5 18.9703 7.7478 8.2798 0.0000 46.4512 0.0000
# 6 0.0000 0.0000 0.0000 2.4652 0.0000 -1.8409
#
#
#
# Elastic Compliance Matrix: (Units=1/GPa)
#
#
# Indices 1 2 3 4 5 6 
#
# 1 0.010911 -0.002294 -0.003133 0.000000 -0.003515 0.000000
# 2 -0.002294 0.009859 0.001729 0.000000 -0.001016 0.000000
# 3 -0.003133 0.001729 0.019278 0.000000 -0.002445 0.000000
# 4 0.000000 0.000000 0.000000 0.026555 0.000000 0.035560
# 5 -0.003515 -0.001016 -0.002445 0.000000 0.023569 0.000000
# 6 0.000000 0.000000 0.000000 0.035560 0.000000 -0.495588
#
#
# Mechanical properties :
#
#
# Convention : Reuss Voigt Hill
#
# Bulk Modulus (GPa) = 30.62579 38.50449 34.56514
# Shear Modulus (GPa) = -12.91532 31.52300 9.30384
#
# Velocity S-wave (km/s) = -2.24507 3.50745 1.90550
# Velocity P-wave (km/s) = 2.28727 5.60623 4.28143
#
# Compressibility (1/GPa) = 0.03265221
#
# Stress axis : x y z
#
# Youngs Moduli (GPa) = 91.65368 101.42721 51.87341
#
# Poissons Ratio (x) = 0.23268 0.16250
# Poissons Ratio (y) = 0.21026 -0.08969
# Poissons Ratio (z) = 0.28711 -0.17537
#
# Static dielectric constant tensor:
#      x y z
#    x 1.967230 0.000000 -0.007390 
#    y 0.000000 2.109470 0.000000 
#    z -0.007390 0.000000 1.993850 
# 
# From -- ./inp_files/4176.got.cif
#   From: 2010.05.17/outbox.cif.g08.bks.cpg/sg9_3_cif.got.tgz:4176.got - 2010.06.03 20:04:27.
