data_PCOD9138106
_publ_section_title
;
Structure prediction by ZEFSAII (Michael W. Deem and Ramdas Pophale) SiO2 
 PCOD9138106
Probable space group: C C
;
_chemical_formula_sum "Si O2"
_cell_formula_units_Z 20
_cell_length_a 22.395309
_cell_length_b 6.745205
_cell_length_c 9.291747
_cell_angle_alpha 90.000000
_cell_angle_beta 34.437237
_cell_angle_gamma 90.000000
_cell_volume 793.751581
_symmetry_space_group_name_H-M "C C"
_symmetry_group_IT_number 9
_symmetry_cell_setting 'monoclinic'
loop_
_space_group_symop_operation_xyz
x,y,z
x,-y,1/2+z
1/2+x,1/2+y,z
1/2+x,1/2-y,1/2+z
loop_
_atom_site_type_symbol
_atom_site_label
_atom_site_fract_x
_atom_site_fract_y
_atom_site_fract_z
Si Si1 0.013470 0.545781 0.802480
Si Si2 0.471157 0.247531 0.621925
Si Si3 0.179323 0.816402 0.364364
Si Si4 0.803961 0.948889 0.430561
Si Si5 0.194853 0.275650 0.363654
O O1 0.938266 0.665808 0.844731
O O2 0.112183 0.699929 0.620483
O O3 0.075318 0.361821 0.606021
O O4 0.957518 0.440288 0.045240
O O5 0.595889 0.286530 0.398082
O O6 0.417781 0.452042 0.683534
O O7 0.193892 0.041559 0.371311
O O8 0.285151 0.712907 0.094708
O O9 0.742331 0.135333 0.623024
O O10 0.757730 0.865803 0.374996
#
# Coordination Sequence:
#
# PCOD9138106 Si02
#       5
#     4   4   4   4   4
#     4   9  20  46  73 107 143 200 238 303 384 438
#     4  10  22  49  73 108 150 188 255 304 368 453
#     4   9  23  45  78 104 151 199 236 317 376 440
#     4  11  25  47  72 114 149 193 256 304 373 455
#     4  11  22  49  74 105 155 194 245 312 377 440
#
# _framework density 25.196802999999999
#
# number of rings (size 3 to 8) (size 9 to 14) (size 15 to 20)
#    1.200    0.800    2.000    0.000    0.000    6.400 
#   14.400    0.000    0.000    0.000    0.000    0.000 
#    0.000    0.000    0.000    0.000    0.000    0.000 
#
# Total GULP energy -55816.499495 kJ/mol
# GULP energy per Si atom -5581.649949 kJ/mol
# Density = 2.513945 g / cm^3
# Si number density = 25.196803 Si / 1000 Ang^3
#
#
#
# Elastic Constant Matrix: (Units=GPa)
#
#
# Indices 1 2 3 4 5 6 
#
# 1 104.6645 58.8898 19.1668 0.0000 0.3805 0.0000
# 2 58.8898 212.3475 33.2519 0.0000 0.1722 0.0000
# 3 19.1668 33.2519 66.8807 0.0000 5.6313 0.0000
# 4 0.0000 0.0000 0.0000 37.8893 0.0000 -5.0680
# 5 0.3805 0.1722 5.6313 0.0000 13.0545 0.0000
# 6 0.0000 0.0000 0.0000 -5.0680 0.0000 29.4459
#
#
#
# Elastic Compliance Matrix: (Units=1/GPa)
#
#
# Indices 1 2 3 4 5 6 
#
# 1 0.011534 -0.002900 -0.001908 0.000000 0.000525 0.000000
# 2 -0.002900 0.005851 -0.002157 0.000000 0.000938 0.000000
# 3 -0.001908 -0.002157 0.017188 0.000000 -0.007330 0.000000
# 4 0.000000 0.000000 0.000000 0.027015 0.000000 0.004650
# 5 0.000525 0.000938 -0.007330 0.000000 0.079736 0.000000
# 6 0.000000 0.000000 0.000000 0.004650 0.000000 0.034761
#
#
# Mechanical properties :
#
#
# Convention : Reuss Voigt Hill
#
# Bulk Modulus (GPa) = 48.44161 67.38997 57.91579
# Shear Modulus (GPa) = 25.39438 34.25023 29.82230
#
# Velocity S-wave (km/s) = 3.17810 3.69088 3.44404
# Velocity P-wave (km/s) = 5.72137 6.70574 6.23302
#
# Compressibility (1/GPa) = 0.02064341
#
# Stress axis : x y z
#
# Youngs Moduli (GPa) = 86.70306 170.92449 58.17987
#
# Poissons Ratio (x) = 0.49573 0.11098
# Poissons Ratio (y) = 0.25147 0.12547
# Poissons Ratio (z) = 0.16539 0.36861
#
# Static dielectric constant tensor:
#      x y z
#    x 2.034880 0.000000 -0.010510 
#    y 0.000000 1.931110 0.000000 
#    z -0.010510 0.000000 2.139320 
# 
# From -- ./inp_files/21026.got.cif
#   From: 2010.05.17/outbox.cif.g08.bks.cpg/sg9_11_cif.got.tgz:21026.got - 2010.06.03 20:04:27.
