data_PCOD9138028
_publ_section_title
;
Structure prediction by ZEFSAII (Michael W. Deem and Ramdas Pophale) SiO2 
 PCOD9138028
Probable space group: C C
;
_chemical_formula_sum "Si O2"
_cell_formula_units_Z 32
_cell_length_a 16.253761
_cell_length_b 11.290863
_cell_length_c 9.310497
_cell_angle_alpha 90.000000
_cell_angle_beta 125.771419
_cell_angle_gamma 90.000000
_cell_volume 1386.325028
_symmetry_space_group_name_H-M "C C"
_symmetry_group_IT_number 9
_symmetry_cell_setting 'monoclinic'
loop_
_space_group_symop_operation_xyz
x,y,z
x,-y,1/2+z
1/2+x,1/2+y,z
1/2+x,1/2-y,1/2+z
loop_
_atom_site_type_symbol
_atom_site_label
_atom_site_fract_x
_atom_site_fract_y
_atom_site_fract_z
Si Si1 0.881100 0.113972 0.080680
Si Si2 0.666259 0.390499 0.997654
Si Si3 0.077123 0.632125 0.963929
Si Si4 0.366942 0.111313 0.896778
Si Si5 0.815615 0.362117 0.907568
Si Si6 0.183406 0.463806 0.858061
Si Si7 0.977776 0.967455 0.402704
Si Si8 0.830036 0.772454 0.131824
O O1 0.868535 0.251949 0.041193
O O2 0.906533 0.073517 0.267546
O O3 0.963609 0.055778 0.057325
O O4 0.774943 0.056027 0.924107
O O5 0.612772 0.262953 0.956226
O O6 0.762909 0.390637 0.201410
O O7 0.713240 0.396081 0.886732
O O8 0.588534 0.493040 0.965231
O O9 0.140346 0.589924 0.168378
O O10 0.101859 0.536698 0.866384
O O11 0.961860 0.636857 0.894451
O O12 0.381586 0.979638 0.973359
O O13 0.357057 0.202733 0.016057
O O14 0.802227 0.316163 0.731789
O O15 0.236700 0.360127 0.004456
O O16 0.926844 0.851649 0.278630
#
# Coordination Sequence:
#
# PCOD9138028 Si02
#       8
#     4   4   4   4   4   4   4   4
#     4  10  22  46  76 105 142 190 252 299 362 450
#     4  12  28  47  71 111 151 189 248 312 377 442
#     4  12  28  44  76 108 146 200 246 303 383 444
#     4  12  29  49  69 107 156 192 245 317 378 442
#     4  11  25  47  70 103 152 190 232 319 375 436
#     4  11  23  48  76 108 143 198 254 304 360 466
#     4  10  25  43  77 106 139 191 249 299 364 440
#     4  10  24  52  75 102 147 202 252 303 371 454
#
# _framework density 23.082609999999999
#
# number of rings (size 3 to 8) (size 9 to 14) (size 15 to 20)
#    0.000    1.000    2.500    3.000   10.500    0.000 
#    2.250    0.000    0.000    0.000    0.000    0.000 
#    0.000    0.000    0.000    0.000    0.000    0.000 
#
# Total GULP energy -89648.193635 kJ/mol
# GULP energy per Si atom -5603.012102 kJ/mol
# Density = 2.303007 g / cm^3
# Si number density = 23.082610 Si / 1000 Ang^3
#
#
#
# Elastic Constant Matrix: (Units=GPa)
#
#
# Indices 1 2 3 4 5 6 
#
# 1 157.5468 41.2709 40.6055 0.0000 -11.2314 0.0000
# 2 41.2709 96.3079 19.8262 0.0000 -8.7097 0.0000
# 3 40.6055 19.8262 61.1777 0.0000 1.6035 0.0000
# 4 0.0000 0.0000 0.0000 25.7927 0.0000 -5.2517
# 5 -11.2314 -8.7097 1.6035 0.0000 31.0050 0.0000
# 6 0.0000 0.0000 0.0000 -5.2517 0.0000 49.7127
#
#
#
# Elastic Compliance Matrix: (Units=1/GPa)
#
#
# Indices 1 2 3 4 5 6 
#
# 1 0.008414 -0.002361 -0.004889 0.000000 0.002637 0.000000
# 2 -0.002361 0.012139 -0.002437 0.000000 0.002681 0.000000
# 3 -0.004889 -0.002437 0.020473 0.000000 -0.003514 0.000000
# 4 0.000000 0.000000 0.000000 0.039623 0.000000 0.004186
# 5 0.002637 0.002681 -0.003514 0.000000 0.034143 0.000000
# 6 0.000000 0.000000 0.000000 0.004186 0.000000 0.020558
#
#
# Mechanical properties :
#
#
# Convention : Reuss Voigt Hill
#
# Bulk Modulus (GPa) = 46.18473 57.60416 51.89445
# Shear Modulus (GPa) = 30.87565 35.52407 33.19986
#
# Velocity S-wave (km/s) = 3.66131 3.92726 3.79662
# Velocity P-wave (km/s) = 6.15837 6.75088 6.46142
#
# Compressibility (1/GPa) = 0.02165218
#
# Stress axis : x y z
#
# Youngs Moduli (GPa) = 118.85397 82.37767 48.84598
#
# Poissons Ratio (x) = 0.19446 0.23878
# Poissons Ratio (y) = 0.28057 0.11906
# Poissons Ratio (z) = 0.58102 0.20079
#
# Static dielectric constant tensor:
#      x y z
#    x 1.851750 0.000000 0.020150 
#    y 0.000000 1.848040 0.000000 
#    z 0.020150 0.000000 1.872280 
# 
# From -- ./inp_files/9331.got.cif
#   From: 2010.05.17/outbox.cif.g08.bks.cpg/sg9_5_cif.got.tgz:9331.got - 2010.06.03 20:04:27.
