data_PCOD9138419
_publ_section_title
;
Structure prediction by ZEFSAII (Michael W. Deem and Ramdas Pophale) SiO2 
 PCOD9138419
Probable space group: C C
;
_chemical_formula_sum "Si O2"
_cell_formula_units_Z 24
_cell_length_a 17.396679
_cell_length_b 5.190842
_cell_length_c 17.802994
_cell_angle_alpha 90.000000
_cell_angle_beta 143.498973
_cell_angle_gamma 90.000000
_cell_volume 956.302570
_symmetry_space_group_name_H-M "C C"
_symmetry_group_IT_number 9
_symmetry_cell_setting 'monoclinic'
loop_
_space_group_symop_operation_xyz
x,y,z
x,-y,1/2+z
1/2+x,1/2+y,z
1/2+x,1/2-y,1/2+z
loop_
_atom_site_type_symbol
_atom_site_label
_atom_site_fract_x
_atom_site_fract_y
_atom_site_fract_z
Si Si1 0.484970 0.699588 0.571810
Si Si2 0.761720 0.164474 0.504318
Si Si3 0.628758 0.330506 0.932472
Si Si4 0.124594 0.602147 0.775188
Si Si5 0.369866 0.674381 0.318984
Si Si6 0.728978 0.664558 0.229660
O O1 0.401605 0.620661 0.579050
O O2 0.541753 0.977014 0.643089
O O3 0.397950 0.716171 0.429564
O O4 0.594495 0.494291 0.633356
O O5 0.730143 0.437798 0.513912
O O6 0.673619 0.144387 0.359934
O O7 0.707705 0.930806 0.511476
O O8 0.505953 0.382600 0.887087
O O9 0.576861 0.274752 0.806847
O O10 0.241757 0.758075 0.828267
O O11 0.269020 0.441853 0.226791
O O12 0.316787 0.955430 0.256867
#
# Coordination Sequence:
#
# PCOD9138419 Si02
#       6
#     4   4   4   4   4   4
#     4  12  24  43  74 104 132 191 233 282 336 417
#     4  10  23  45  70  93 140 177 235 276 341 406
#     4  10  23  47  65  99 136 186 214 297 344 391
#     4  10  23  43  69 100 135 177 237 267 343 408
#     4  12  26  46  71  96 154 172 232 289 345 407
#     4  12  25  46  67 106 131 189 227 287 343 407
#
# _framework density 25.09666
#
# number of rings (size 3 to 8) (size 9 to 14) (size 15 to 20)
#    1.000    0.000    3.333    3.000    4.667    0.000 
#    3.000    0.000    0.000    0.000    0.000    0.000 
#    0.000    0.000    0.000    0.000    0.000    0.000 
#
# Total GULP energy -66859.235163 kJ/mol
# GULP energy per Si atom -5571.602930 kJ/mol
# Density = 2.503954 g / cm^3
# Si number density = 25.096660 Si / 1000 Ang^3
#
#
#
# Elastic Constant Matrix: (Units=GPa)
#
#
# Indices 1 2 3 4 5 6 
#
# 1 139.6250 21.5056 16.8149 -0.0001 2.5611 0.0002
# 2 21.5056 158.6196 39.6554 -0.0001 -15.1325 0.0004
# 3 16.8149 39.6554 54.2368 -0.0001 -8.1683 0.0000
# 4 -0.0001 -0.0001 -0.0001 12.1827 -0.0001 13.5966
# 5 2.5611 -15.1325 -8.1683 -0.0001 26.7027 0.0001
# 6 0.0002 0.0004 0.0000 13.5966 0.0001 30.0370
#
#
#
# Elastic Compliance Matrix: (Units=1/GPa)
#
#
# Indices 1 2 3 4 5 6 
#
# 1 0.007551 -0.000660 -0.002122 0.000000 -0.001747 0.000000
# 2 -0.000660 0.007973 -0.005173 0.000000 0.002999 0.000000
# 3 -0.002122 -0.005173 0.023552 0.000000 0.004476 0.000000
# 4 0.000000 0.000000 0.000000 0.165893 0.000001 -0.075093
# 5 -0.001747 0.002999 0.004476 0.000001 0.040686 -0.000001
# 6 0.000000 0.000000 0.000000 -0.075093 -0.000001 0.067284
#
#
# Mechanical properties :
#
#
# Convention : Reuss Voigt Hill
#
# Bulk Modulus (GPa) = 43.16572 56.49257 49.82914
# Shear Modulus (GPa) = 14.85567 32.08484 23.47025
#
# Velocity S-wave (km/s) = 2.43562 3.57942 3.06141
# Velocity P-wave (km/s) = 5.01465 6.29618 5.69160
#
# Compressibility (1/GPa) = 0.02316653
#
# Stress axis : x y z
#
# Youngs Moduli (GPa) = 132.42811 125.41713 42.45902
#
# Poissons Ratio (x) = 0.08279 0.09008
# Poissons Ratio (y) = 0.08741 0.21966
# Poissons Ratio (z) = 0.28096 0.64883
#
# Static dielectric constant tensor:
#      x y z
#    x 1.973630 0.000000 0.011970 
#    y 0.000000 2.123410 0.000000 
#    z 0.011970 0.000000 2.065210 
# 
# From -- ./inp_files/21029.got.cif
#   From: 2010.05.17/outbox.cif.g08.bks.cpg/sg9_11_cif.got.tgz:21029.got - 2010.06.03 20:04:27.
