data_PCOD9138197
_publ_section_title
;
Structure prediction by ZEFSAII (Michael W. Deem and Ramdas Pophale) SiO2 
 PCOD9138197
Probable space group: C C
;
_chemical_formula_sum "Si O2"
_cell_formula_units_Z 28
_cell_length_a 15.310649
_cell_length_b 7.841639
_cell_length_c 16.297659
_cell_angle_alpha 90.000000
_cell_angle_beta 34.257907
_cell_angle_gamma 90.000000
_cell_volume 1101.467216
_symmetry_space_group_name_H-M "C C"
_symmetry_group_IT_number 9
_symmetry_cell_setting 'monoclinic'
loop_
_space_group_symop_operation_xyz
x,y,z
x,-y,1/2+z
1/2+x,1/2+y,z
1/2+x,1/2-y,1/2+z
loop_
_atom_site_type_symbol
_atom_site_label
_atom_site_fract_x
_atom_site_fract_y
_atom_site_fract_z
Si Si1 0.086230 0.577693 0.513150
Si Si2 0.078653 0.356035 0.213441
Si Si3 0.157890 0.079744 0.402532
Si Si4 0.032750 0.279819 0.798304
Si Si5 0.466664 0.265871 0.168498
Si Si6 0.791815 0.761730 0.734718
Si Si7 0.426035 0.423231 0.934049
O O1 0.097152 0.622981 0.600955
O O2 0.238297 0.592625 0.339412
O O3 0.016849 0.388323 0.568185
O O4 0.963226 0.713595 0.571933
O O5 0.991829 0.518669 0.323128
O O6 0.982940 0.189803 0.312942
O O7 0.260351 0.363434 0.098357
O O8 0.289110 0.218899 0.321980
O O9 0.028827 0.071820 0.572776
O O10 0.062647 0.107828 0.393415
O O11 0.250194 0.905376 0.320815
O O12 0.181203 0.270923 0.741845
O O13 0.057629 0.239857 0.683216
O O14 0.923356 0.124215 0.913201
#
# Coordination Sequence:
#
# PCOD9138197 Si02
#       7
#     4   4   4   4   4   4   4
#     4  10  23  41  62  98 125 175 218 276 337 403
#     4  11  25  45  69 102 138 181 233 284 350 410
#     4  10  23  41  62  98 125 175 218 276 337 403
#     4  10  26  42  68 102 134 184 230 286 340 414
#     4  10  23  41  65  92 134 167 227 273 340 400
#     4  10  23  41  65  92 134 167 227 273 340 400
#     4  11  25  45  69 102 138 181 233 284 350 410
#
# _framework density 25.420638
#
# number of rings (size 3 to 8) (size 9 to 14) (size 15 to 20)
#    0.000    1.714    0.000    1.714   12.000    2.286 
#    0.000    0.000    0.000    0.000    0.000    0.000 
#    0.000    0.000    0.000    0.000    0.000    0.000 
#
# Total GULP energy -78247.676340 kJ/mol
# GULP energy per Si atom -5589.119739 kJ/mol
# Density = 2.536278 g / cm^3
# Si number density = 25.420638 Si / 1000 Ang^3
#
#
#
# Elastic Constant Matrix: (Units=GPa)
#
#
# Indices 1 2 3 4 5 6 
#
# 1 76.2275 12.8633 8.8730 0.0000 4.5699 0.0000
# 2 12.8633 91.2369 45.1878 0.0000 -6.7272 0.0000
# 3 8.8730 45.1878 135.7670 0.0000 -23.6191 0.0000
# 4 0.0000 0.0000 0.0000 44.8582 0.0000 -6.3042
# 5 4.5699 -6.7272 -23.6191 0.0000 31.3067 0.0000
# 6 0.0000 0.0000 0.0000 -6.3042 0.0000 15.2363
#
#
#
# Elastic Compliance Matrix: (Units=1/GPa)
#
#
# Indices 1 2 3 4 5 6 
#
# 1 0.013689 -0.001736 -0.000840 0.000000 -0.003005 0.000000
# 2 -0.001736 0.013352 -0.004360 0.000000 -0.000167 0.000000
# 3 -0.000840 -0.004360 0.010049 0.000000 0.006767 0.000000
# 4 0.000000 0.000000 0.000000 0.023669 0.000000 0.009793
# 5 -0.003005 -0.000167 0.006767 0.000000 0.037450 0.000000
# 6 0.000000 0.000000 0.000000 0.009793 0.000000 0.069685
#
#
# Mechanical properties :
#
#
# Convention : Reuss Voigt Hill
#
# Bulk Modulus (GPa) = 43.06583 48.56438 45.81510
# Shear Modulus (GPa) = 26.38471 34.03406 30.20938
#
# Velocity S-wave (km/s) = 3.22518 3.66298 3.45103
# Velocity P-wave (km/s) = 5.55402 6.08569 5.82592
#
# Compressibility (1/GPa) = 0.02322027
#
# Stress axis : x y z
#
# Youngs Moduli (GPa) = 73.04917 74.89448 99.51549
#
# Poissons Ratio (x) = 0.13000 0.08356
# Poissons Ratio (y) = 0.12679 0.43384
# Poissons Ratio (z) = 0.06134 0.32651
#
# Static dielectric constant tensor:
#      x y z
#    x 2.004720 0.000000 -0.025720 
#    y 0.000000 2.085570 0.000000 
#    z -0.025720 0.000000 1.970290 
# 
# From -- ./inp_files/10363.got.cif
#   From: 2010.05.17/outbox.cif.g08.bks.cpg/sg9_6_cif.got.tgz:10363.got - 2010.06.03 20:04:27.
