data_PCOD9138751
_publ_section_title
;
Structure prediction by ZEFSAII (Michael W. Deem and Ramdas Pophale) SiO2 
 PCOD9138751
Probable space group: C C
;
_chemical_formula_sum "Si O2"
_cell_formula_units_Z 32
_cell_length_a 5.164680
_cell_length_b 22.422061
_cell_length_c 12.631365
_cell_angle_alpha 90.000000
_cell_angle_beta 91.943781
_cell_angle_gamma 90.000000
_cell_volume 1461.905376
_symmetry_space_group_name_H-M "C C"
_symmetry_group_IT_number 9
_symmetry_cell_setting 'monoclinic'
loop_
_space_group_symop_operation_xyz
x,y,z
x,-y,1/2+z
1/2+x,1/2+y,z
1/2+x,1/2-y,1/2+z
loop_
_atom_site_type_symbol
_atom_site_label
_atom_site_fract_x
_atom_site_fract_y
_atom_site_fract_z
Si Si1 0.668810 0.104800 0.024130
Si Si2 0.415693 0.008406 0.744568
Si Si3 0.968352 0.684841 0.190162
Si Si4 0.699341 0.092258 0.365526
Si Si5 0.063390 0.093019 0.199236
Si Si6 0.628238 0.117593 0.611509
Si Si7 0.645089 0.680291 0.702378
Si Si8 0.663144 0.403273 0.385985
O O1 0.601918 0.166888 0.081097
O O2 0.817897 0.074099 0.125079
O O3 0.399694 0.085542 0.969289
O O4 0.888364 0.103584 0.937843
O O5 0.555424 0.057514 0.674911
O O6 0.188322 0.043551 0.802634
O O7 0.586935 0.972269 0.831676
O O8 0.279569 0.955579 0.678773
O O9 0.675721 0.658724 0.175010
O O10 0.039720 0.752751 0.208400
O O11 0.072919 0.644266 0.289620
O O12 0.989960 0.091890 0.322074
O O13 0.658505 0.104946 0.487346
O O14 0.900556 0.142339 0.657385
O O15 0.395913 0.164590 0.634082
O O16 0.718346 0.656264 0.819735
#
# Coordination Sequence:
#
# PCOD9138751 Si02
#       8
#     4   4   4   4   4   4   4   4
#     4  11  23  43  71 101 135 182 244 278 352 419
#     4  10  25  45  69 105 149 183 239 293 360 425
#     4  10  24  47  71 105 143 188 243 295 355 422
#     4  10  25  43  74 105 144 191 238 292 362 432
#     4  10  23  46  72 110 142 186 240 298 347 438
#     4  11  27  48  71 110 142 194 236 298 366 424
#     4  11  27  47  73 100 153 182 241 304 350 425
#     4  11  24  45  67 108 136 186 233 292 358 417
#
# _framework density 21.889240999999998
#
# number of rings (size 3 to 8) (size 9 to 14) (size 15 to 20)
#    0.000    1.500    1.250    1.500   14.000    2.000 
#    0.000    0.000    0.000    0.000    0.000    0.000 
#    0.000    0.000    0.000    0.000    0.000    0.000 
#
# Total GULP energy -89279.082032 kJ/mol
# GULP energy per Si atom -5579.942627 kJ/mol
# Density = 2.183942 g / cm^3
# Si number density = 21.889241 Si / 1000 Ang^3
#
#
#
# Elastic Constant Matrix: (Units=GPa)
#
#
# Indices 1 2 3 4 5 6 
#
# 1 120.6723 26.1134 38.5235 0.0000 -9.1058 0.0000
# 2 26.1134 116.8352 42.9998 0.0000 -2.5977 0.0000
# 3 38.5235 42.9998 136.8136 0.0000 -25.1663 0.0000
# 4 0.0000 0.0000 0.0000 13.7268 0.0000 -16.4761
# 5 -9.1058 -2.5977 -25.1663 0.0000 44.8469 0.0000
# 6 0.0000 0.0000 0.0000 -16.4761 0.0000 -16.8960
#
#
#
# Elastic Compliance Matrix: (Units=1/GPa)
#
#
# Indices 1 2 3 4 5 6 
#
# 1 0.009282 -0.001291 -0.002091 0.000000 0.000637 0.000000
# 2 -0.001291 0.009924 -0.003009 0.000000 -0.001376 0.000000
# 3 -0.002091 -0.003009 0.009739 0.000000 0.004866 0.000000
# 4 0.000000 0.000000 0.000000 0.033564 0.000000 -0.032730
# 5 0.000637 -0.001376 0.004866 0.000000 0.025078 0.000000
# 6 0.000000 0.000000 0.000000 -0.032730 0.000000 -0.027269
#
#
# Mechanical properties :
#
#
# Convention : Reuss Voigt Hill
#
# Bulk Modulus (GPa) = 61.86566 65.51050 63.68808
# Shear Modulus (GPa) = 63.70449 26.11450 44.90949
#
# Velocity S-wave (km/s) = 5.40058 3.45777 4.53445
# Velocity P-wave (km/s) = 8.19834 6.77752 7.52155
#
# Compressibility (1/GPa) = 0.01616406
#
# Stress axis : x y z
#
# Youngs Moduli (GPa) = 107.73852 100.76249 102.68373
#
# Poissons Ratio (x) = 0.13008 0.21468
# Poissons Ratio (y) = 0.13908 0.30895
# Poissons Ratio (z) = 0.22525 0.30317
#
# Static dielectric constant tensor:
#      x y z
#    x 1.893500 0.000000 -0.006770 
#    y 0.000000 1.795350 0.000000 
#    z -0.006770 0.000000 1.830440 
# 
# From -- ./inp_files/13354.got.cif
#   From: 2010.05.17/outbox.cif.g08.bks.cpg/sg9_7_cif.got.tgz:13354.got - 2010.06.03 20:04:27.
