data_PCOD9138911
_publ_section_title
;
Structure prediction by ZEFSAII (Michael W. Deem and Ramdas Pophale) SiO2 
 PCOD9138911
Probable space group: C C
;
_chemical_formula_sum "Si O2"
_cell_formula_units_Z 32
_cell_length_a 11.947664
_cell_length_b 9.325007
_cell_length_c 13.949312
_cell_angle_alpha 90.000000
_cell_angle_beta 67.845380
_cell_angle_gamma 90.000000
_cell_volume 1439.379975
_symmetry_space_group_name_H-M "C C"
_symmetry_group_IT_number 9
_symmetry_cell_setting 'monoclinic'
loop_
_space_group_symop_operation_xyz
x,y,z
x,-y,1/2+z
1/2+x,1/2+y,z
1/2+x,1/2-y,1/2+z
loop_
_atom_site_type_symbol
_atom_site_label
_atom_site_fract_x
_atom_site_fract_y
_atom_site_fract_z
Si Si1 0.191350 0.993580 0.988710
Si Si2 0.565798 0.770812 0.449493
Si Si3 0.605787 0.414204 0.216880
Si Si4 0.790229 0.223208 0.510619
Si Si5 0.880645 0.111030 0.296780
Si Si6 0.203747 0.581398 0.731257
Si Si7 0.327806 0.935255 0.275782
Si Si8 0.032746 0.619988 0.162387
O O1 0.090677 0.896468 0.968675
O O2 0.307489 0.981936 0.882737
O O3 0.191242 0.936462 0.096607
O O4 0.189326 0.165447 0.004533
O O5 0.424496 0.790774 0.473591
O O6 0.645374 0.824625 0.335098
O O7 0.593252 0.854845 0.539472
O O8 0.513096 0.543892 0.259208
O O9 0.695305 0.403605 0.276742
O O10 0.528493 0.273201 0.216547
O O11 0.811032 0.105119 0.421224
O O12 0.758089 0.172514 0.626608
O O13 0.886744 0.279299 0.268662
O O14 0.804625 0.022189 0.244128
O O15 0.105034 0.482641 0.710624
O O16 0.405619 0.042140 0.187299
#
# Coordination Sequence:
#
# PCOD9138911 Si02
#       8
#     4   4   4   4   4   4   4   4
#     4  10  24  40  70 100 134 188 236 286 352 424
#     4  11  25  45  69 108 142 189 247 290 361 431
#     4  11  24  46  69 100 143 183 240 296 353 425
#     4  11  25  45  69 108 142 189 247 290 361 431
#     4  11  25  45  70 107 141 191 242 290 366 427
#     4  12  24  46  72 102 152 188 236 312 352 432
#     4  11  24  46  69 100 143 183 240 296 353 425
#     4  11  25  45  70 107 141 191 242 290 366 427
#
# _framework density 22.231793
#
# number of rings (size 3 to 8) (size 9 to 14) (size 15 to 20)
#    0.000    1.000    1.250    5.250    8.750    0.000 
#    0.000    2.500    0.000    0.000    0.000    0.000 
#    0.000    0.000    0.000    0.000    0.000    0.000 
#
# Total GULP energy -89369.306252 kJ/mol
# GULP energy per Si atom -5585.581641 kJ/mol
# Density = 2.218119 g / cm^3
# Si number density = 22.231793 Si / 1000 Ang^3
#
#
#
# Elastic Constant Matrix: (Units=GPa)
#
#
# Indices 1 2 3 4 5 6 
#
# 1 82.3907 60.6297 18.3116 0.0000 12.3483 0.0000
# 2 60.6297 108.2747 64.5723 0.0000 -4.4553 0.0000
# 3 18.3116 64.5723 150.2460 0.0000 14.1143 0.0000
# 4 0.0000 0.0000 0.0000 42.0401 0.0000 0.8660
# 5 12.3483 -4.4553 14.1143 0.0000 29.3737 0.0000
# 6 0.0000 0.0000 0.0000 0.8660 0.0000 42.5772
#
#
#
# Elastic Compliance Matrix: (Units=1/GPa)
#
#
# Indices 1 2 3 4 5 6 
#
# 1 0.029343 -0.021744 0.007580 0.000000 -0.019276 0.000000
# 2 -0.021744 0.029173 -0.011690 0.000000 0.019183 0.000000
# 3 0.007580 -0.011690 0.011752 0.000000 -0.010607 0.000000
# 4 0.000000 0.000000 0.000000 0.023797 0.000000 -0.000484
# 5 -0.019276 0.019183 -0.010607 0.000000 0.050153 0.000000
# 6 0.000000 0.000000 0.000000 -0.000484 0.000000 0.023497
#
#
# Mechanical properties :
#
#
# Convention : Reuss Voigt Hill
#
# Bulk Modulus (GPa) = 53.88156 69.77094 61.82625
# Shear Modulus (GPa) = 22.16220 35.95805 29.06012
#
# Velocity S-wave (km/s) = 3.16075 4.02607 3.61937
# Velocity P-wave (km/s) = 6.13264 7.28450 6.73325
#
# Compressibility (1/GPa) = 0.01855922
#
# Stress axis : x y z
#
# Youngs Moduli (GPa) = 34.07978 34.27881 85.09012
#
# Poissons Ratio (x) = 0.74537 -0.64497
# Poissons Ratio (y) = 0.74105 0.99467
# Poissons Ratio (z) = -0.25832 0.40070
#
# Static dielectric constant tensor:
#      x y z
#    x 1.815420 0.000000 0.010800 
#    y 0.000000 1.832340 0.000000 
#    z 0.010800 0.000000 1.817680 
# 
# From -- ./inp_files/24333.got.cif
#   From: 2010.05.17/outbox.cif.g08.bks.cpg/sg9_13_cif.got.tgz:24333.got - 2010.06.03 20:04:27.
