data_PCOD9138019
_publ_section_title
;
Structure prediction by ZEFSAII (Michael W. Deem and Ramdas Pophale) SiO2 
 PCOD9138019
Probable space group: C C
;
_chemical_formula_sum "Si O2"
_cell_formula_units_Z 24
_cell_length_a 9.456064
_cell_length_b 12.581715
_cell_length_c 9.225562
_cell_angle_alpha 90.000000
_cell_angle_beta 120.369677
_cell_angle_gamma 90.000000
_cell_volume 946.986596
_symmetry_space_group_name_H-M "C C"
_symmetry_group_IT_number 9
_symmetry_cell_setting 'monoclinic'
loop_
_space_group_symop_operation_xyz
x,y,z
x,-y,1/2+z
1/2+x,1/2+y,z
1/2+x,1/2-y,1/2+z
loop_
_atom_site_type_symbol
_atom_site_label
_atom_site_fract_x
_atom_site_fract_y
_atom_site_fract_z
Si Si1 0.492680 0.452198 0.389050
Si Si2 0.138180 0.554248 0.177950
Si Si3 0.973360 0.667262 0.567839
Si Si4 0.202035 0.936703 0.775892
Si Si5 0.415214 0.851992 0.349675
Si Si6 0.144201 0.743655 0.395519
O O1 0.316323 0.503997 0.286669
O O2 0.558035 0.427101 0.583585
O O3 0.618054 0.534490 0.383518
O O4 0.521289 0.343615 0.313710
O O5 0.104550 0.638343 0.286110
O O6 0.016816 0.455092 0.124060
O O7 0.091807 0.614269 0.004814
O O8 0.821829 0.660440 0.377434
O O9 0.930580 0.709298 0.705208
O O10 0.123480 0.712768 0.552689
O O11 0.309839 0.039120 0.782982
O O12 0.316720 0.784285 0.419695
#
# Coordination Sequence:
#
# PCOD9138019 Si02
#       6
#     4   4   4   4   4   4
#     4  11  26  45  74 112 156 208 267 333 403 477
#     4  11  26  47  80 111 162 206 265 339 410 475
#     4  11  24  48  75 109 158 211 263 335 406 472
#     4  10  22  46  74 104 152 210 258 330 404 469
#     4  10  24  49  73 113 155 210 267 336 399 489
#     4  11  28  47  78 117 159 213 282 325 404 498
#
# _framework density 25.343547999999998
#
# number of rings (size 3 to 8) (size 9 to 14) (size 15 to 20)
#    0.000    1.333    1.667    2.000   11.667    2.667 
#    3.000    0.000    0.000    0.000    0.000    0.000 
#    0.000    0.000    0.000    0.000    0.000    0.000 
#
# Total GULP energy -67127.341614 kJ/mol
# GULP energy per Si atom -5593.945135 kJ/mol
# Density = 2.528586 g / cm^3
# Si number density = 25.343548 Si / 1000 Ang^3
#
#
#
# Elastic Constant Matrix: (Units=GPa)
#
#
# Indices 1 2 3 4 5 6 
#
# 1 133.7112 29.3453 92.2289 0.0000 -13.0590 0.0000
# 2 29.3453 87.1452 36.9869 0.0000 0.4962 0.0000
# 3 92.2289 36.9869 167.6791 0.0000 5.7084 0.0000
# 4 0.0000 0.0000 0.0000 37.5091 0.0000 -1.9737
# 5 -13.0590 0.4962 5.7084 0.0000 37.3525 0.0000
# 6 0.0000 0.0000 0.0000 -1.9737 0.0000 37.4543
#
#
#
# Elastic Compliance Matrix: (Units=1/GPa)
#
#
# Indices 1 2 3 4 5 6 
#
# 1 0.013339 -0.001464 -0.007211 0.000000 0.005785 0.000000
# 2 -0.001464 0.012824 -0.002011 0.000000 -0.000375 0.000000
# 3 -0.007211 -0.002011 0.010513 0.000000 -0.004101 0.000000
# 4 0.000000 0.000000 0.000000 0.026734 0.000000 0.001409
# 5 0.005785 -0.000375 -0.004101 0.000000 0.029426 0.000000
# 6 0.000000 0.000000 0.000000 0.001409 0.000000 0.026773
#
#
# Mechanical properties :
#
#
# Convention : Reuss Voigt Hill
#
# Bulk Modulus (GPa) = 65.34027 78.40642 71.87334
# Shear Modulus (GPa) = 34.22738 37.79481 36.01109
#
# Velocity S-wave (km/s) = 3.67895 3.86592 3.77360
# Velocity P-wave (km/s) = 6.62450 7.13665 6.88534
#
# Compressibility (1/GPa) = 0.01530450
#
# Stress axis : x y z
#
# Youngs Moduli (GPa) = 74.96901 77.98111 95.12021
#
# Poissons Ratio (x) = 0.11418 0.68589
# Poissons Ratio (y) = 0.10977 0.19124
# Poissons Ratio (z) = 0.54058 0.15678
#
# Static dielectric constant tensor:
#      x y z
#    x 2.004260 0.000000 0.008850 
#    y 0.000000 2.020560 0.000000 
#    z 0.008850 0.000000 2.054760 
# 
# From -- ./inp_files/5283.got.cif
#   From: 2010.05.17/outbox.cif.g08.bks.cpg/sg9_3_cif.got.tgz:5283.got - 2010.06.03 20:04:27.
