data_PCOD9138692
_publ_section_title
;
Structure prediction by ZEFSAII (Michael W. Deem and Ramdas Pophale) SiO2 
 PCOD9138692
Probable space group: C C
;
_chemical_formula_sum "Si O2"
_cell_formula_units_Z 28
_cell_length_a 6.791875
_cell_length_b 13.112203
_cell_length_c 14.122304
_cell_angle_alpha 90.000000
_cell_angle_beta 111.559647
_cell_angle_gamma 90.000000
_cell_volume 1169.689096
_symmetry_space_group_name_H-M "C C"
_symmetry_group_IT_number 9
_symmetry_cell_setting 'monoclinic'
loop_
_space_group_symop_operation_xyz
x,y,z
x,-y,1/2+z
1/2+x,1/2+y,z
1/2+x,1/2-y,1/2+z
loop_
_atom_site_type_symbol
_atom_site_label
_atom_site_fract_x
_atom_site_fract_y
_atom_site_fract_z
Si Si1 0.681440 0.812506 0.905830
Si Si2 0.264674 0.303088 0.277717
Si Si3 0.502961 0.641146 0.312581
Si Si4 0.270868 0.452278 0.449175
Si Si5 0.963893 0.210552 0.623353
Si Si6 0.210053 0.945226 0.032932
Si Si7 0.133718 0.569762 0.136263
O O1 0.856828 0.792286 0.856933
O O2 0.465178 0.759469 0.849720
O O3 0.676900 0.934766 0.914814
O O4 0.130267 0.860749 0.095681
O O5 0.211861 0.383537 0.349641
O O6 0.349057 0.341287 0.192099
O O7 0.940593 0.488307 0.101138
O O8 0.086817 0.215668 0.245862
O O9 0.677310 0.597119 0.418579
O O10 0.349360 0.558205 0.236137
O O11 0.524526 0.469385 0.502146
O O12 0.190641 0.414655 0.536160
O O13 0.774864 0.229602 0.518093
O O14 0.049421 0.322339 0.661102
#
# Coordination Sequence:
#
# PCOD9138692 Si02
#       7
#     4   4   4   4   4   4   4
#     4  10  23  46  64 105 145 184 255 301 361 455
#     4  12  23  45  71 102 151 192 236 320 368 437
#     4  10  24  43  69 105 141 193 251 298 378 449
#     4  10  24  41  72 103 137 195 246 299 375 440
#     4  10  24  46  71 106 144 195 246 306 381 436
#     4  10  25  49  69 106 153 187 254 314 354 460
#     4  12  23  46  74 105 145 198 244 310 377 435
#
# _framework density 23.937984
#
# number of rings (size 3 to 8) (size 9 to 14) (size 15 to 20)
#    0.000    1.714    1.429    3.429    4.000    4.571 
#    7.714    0.000    0.000    0.000    0.000    0.000 
#    0.000    0.000    0.000    0.000    0.000    0.000 
#
# Total GULP energy -78200.712484 kJ/mol
# GULP energy per Si atom -5585.765177 kJ/mol
# Density = 2.388350 g / cm^3
# Si number density = 23.937984 Si / 1000 Ang^3
#
#
#
# Elastic Constant Matrix: (Units=GPa)
#
#
# Indices 1 2 3 4 5 6 
#
# 1 57.8865 13.3990 17.1412 0.0000 12.4771 0.0000
# 2 13.3990 40.2303 -4.2534 0.0000 7.9692 0.0000
# 3 17.1412 -4.2534 103.4284 0.0000 -2.5201 0.0000
# 4 0.0000 0.0000 0.0000 26.0567 0.0000 1.4903
# 5 12.4771 7.9692 -2.5201 0.0000 41.9753 0.0000
# 6 0.0000 0.0000 0.0000 1.4903 0.0000 -26.0993
#
#
#
# Elastic Compliance Matrix: (Units=1/GPa)
#
#
# Indices 1 2 3 4 5 6 
#
# 1 0.021035 -0.006371 -0.003877 0.000000 -0.005276 0.000000
# 2 -0.006371 0.027850 0.002122 0.000000 -0.003266 0.000000
# 3 -0.003877 0.002122 0.010432 0.000000 0.001376 0.000000
# 4 0.000000 0.000000 0.000000 0.038253 0.000000 0.002184
# 5 -0.005276 -0.003266 0.001376 0.000000 0.026095 0.000000
# 6 0.000000 0.000000 0.000000 0.002184 0.000000 -0.038190
#
#
# Mechanical properties :
#
#
# Convention : Reuss Voigt Hill
#
# Bulk Modulus (GPa) = 23.22059 28.23543 25.72801
# Shear Modulus (GPa) = 43.07358 20.07042 31.57200
#
# Velocity S-wave (km/s) = 4.24651 2.89871 3.63562
# Velocity P-wave (km/s) = 5.81078 4.79836 5.32867
#
# Compressibility (1/GPa) = 0.04306524
#
# Stress axis : x y z
#
# Youngs Moduli (GPa) = 47.53993 35.90658 95.86095
#
# Poissons Ratio (x) = 0.22875 0.37162
# Poissons Ratio (y) = 0.30286 -0.20337
# Poissons Ratio (z) = 0.18430 -0.07618
#
# Static dielectric constant tensor:
#      x y z
#    x 1.994150 0.000000 -0.016800 
#    y 0.000000 1.980720 0.000000 
#    z -0.016800 0.000000 1.971290 
# 
# From -- ./inp_files/22601.got.cif
#   From: 2010.05.17/outbox.cif.g08.bks.cpg/sg9_12_cif.got.tgz:22601.got - 2010.06.03 20:04:27.
