data_PCOD9138826
_publ_section_title
;
Structure prediction by ZEFSAII (Michael W. Deem and Ramdas Pophale) SiO2 
 PCOD9138826
Probable space group: C C
;
_chemical_formula_sum "Si O2"
_cell_formula_units_Z 28
_cell_length_a 11.349939
_cell_length_b 7.997807
_cell_length_c 16.270274
_cell_angle_alpha 90.000000
_cell_angle_beta 58.250114
_cell_angle_gamma 90.000000
_cell_volume 1255.910528
_symmetry_space_group_name_H-M "C C"
_symmetry_group_IT_number 9
_symmetry_cell_setting 'monoclinic'
loop_
_space_group_symop_operation_xyz
x,y,z
x,-y,1/2+z
1/2+x,1/2+y,z
1/2+x,1/2-y,1/2+z
loop_
_atom_site_type_symbol
_atom_site_label
_atom_site_fract_x
_atom_site_fract_y
_atom_site_fract_z
Si Si1 0.531810 0.571849 0.491300
Si Si2 0.009145 0.630494 0.879497
Si Si3 0.519317 0.379664 0.188749
Si Si4 0.340727 0.322492 0.818928
Si Si5 0.771153 0.326453 0.804180
Si Si6 0.536518 0.816107 0.973926
Si Si7 0.293519 0.131505 0.678037
O O1 0.464206 0.720490 0.461106
O O2 0.499490 0.588278 0.598995
O O3 0.694471 0.607121 0.413394
O O4 0.507769 0.381368 0.470063
O O5 0.927951 0.671939 0.826874
O O6 0.174057 0.669255 0.813225
O O7 0.988798 0.447257 0.922453
O O8 0.449855 0.529179 0.266671
O O9 0.428885 0.223418 0.250784
O O10 0.679235 0.351481 0.149804
O O11 0.201329 0.346463 0.923087
O O12 0.447289 0.134571 0.585870
O O13 0.757510 0.462872 0.738761
O O14 0.784145 0.773209 0.750310
#
# Coordination Sequence:
#
# PCOD9138826 Si02
#       7
#     4   4   4   4   4   4   4
#     4  10  23  48  71 108 143 185 252 304 354 449
#     4  10  24  47  74 101 149 190 237 308 368 433
#     4  12  24  47  75 102 154 192 245 311 364 442
#     4  12  24  48  70 107 150 194 236 311 368 447
#     4  10  23  48  66 107 146 188 243 303 373 425
#     4  12  25  46  73 111 140 191 250 296 381 426
#     4  12  27  44  71 110 142 194 253 297 370 452
#
# _framework density 22.294582999999999
#
# number of rings (size 3 to 8) (size 9 to 14) (size 15 to 20)
#    0.857    0.000    5.714    0.857    2.000    2.286 
#    7.714    0.000    0.000    0.000    0.000    0.000 
#    0.000    0.000    0.000    0.000    0.000    0.000 
#
# Total GULP energy -78152.633987 kJ/mol
# GULP energy per Si atom -5582.330999 kJ/mol
# Density = 2.224384 g / cm^3
# Si number density = 22.294583 Si / 1000 Ang^3
#
#
#
# Elastic Constant Matrix: (Units=GPa)
#
#
# Indices 1 2 3 4 5 6 
#
# 1 53.2566 18.7222 26.5345 0.0000 -7.8193 0.0000
# 2 18.7222 87.8640 29.4992 0.0000 4.8469 0.0000
# 3 26.5345 29.4992 106.2772 0.0000 -29.9850 0.0000
# 4 0.0000 0.0000 0.0000 20.8808 0.0000 -4.0562
# 5 -7.8193 4.8469 -29.9850 0.0000 34.9404 0.0000
# 6 0.0000 0.0000 0.0000 -4.0562 0.0000 23.1750
#
#
#
# Elastic Compliance Matrix: (Units=1/GPa)
#
#
# Indices 1 2 3 4 5 6 
#
# 1 0.022316 -0.003516 -0.004023 0.000000 0.002029 0.000000
# 2 -0.003516 0.014229 -0.005081 0.000000 -0.007121 0.000000
# 3 -0.004023 -0.005081 0.015529 0.000000 0.013131 0.000000
# 4 0.000000 0.000000 0.000000 0.049576 0.000000 0.008677
# 5 0.002029 -0.007121 0.013131 0.000000 0.041331 0.000000
# 6 0.000000 0.000000 0.000000 0.008677 0.000000 0.044669
#
#
# Mechanical properties :
#
#
# Convention : Reuss Voigt Hill
#
# Bulk Modulus (GPa) = 37.26707 44.10107 40.68407
# Shear Modulus (GPa) = 22.53942 27.30871 24.92406
#
# Velocity S-wave (km/s) = 3.18304 3.50366 3.34719
# Velocity P-wave (km/s) = 5.50101 6.01594 5.76422
#
# Compressibility (1/GPa) = 0.02683334
#
# Stress axis : x y z
#
# Youngs Moduli (GPa) = 44.81186 70.27864 64.39661
#
# Poissons Ratio (x) = 0.24712 0.25907
# Poissons Ratio (y) = 0.15757 0.32718
# Poissons Ratio (z) = 0.18028 0.35706
#
# Static dielectric constant tensor:
#      x y z
#    x 1.800060 0.000000 -0.012650 
#    y 0.000000 1.862020 0.000000 
#    z -0.012650 0.000000 1.801830 
# 
# From -- ./inp_files/24166.got.cif
#   From: 2010.05.17/outbox.cif.g08.bks.cpg/sg9_13_cif.got.tgz:24166.got - 2010.06.03 20:04:27.
