data_PCOD9138953
_publ_section_title
;
Structure prediction by ZEFSAII (Michael W. Deem and Ramdas Pophale) SiO2 
 PCOD9138953
Probable space group: C C
;
_chemical_formula_sum "Si O2"
_cell_formula_units_Z 20
_cell_length_a 5.051405
_cell_length_b 26.931366
_cell_length_c 5.580950
_cell_angle_alpha 90.000000
_cell_angle_beta 104.552757
_cell_angle_gamma 90.000000
_cell_volume 734.880425
_symmetry_space_group_name_H-M "C C"
_symmetry_group_IT_number 9
_symmetry_cell_setting 'monoclinic'
loop_
_space_group_symop_operation_xyz
x,y,z
x,-y,1/2+z
1/2+x,1/2+y,z
1/2+x,1/2-y,1/2+z
loop_
_atom_site_type_symbol
_atom_site_label
_atom_site_fract_x
_atom_site_fract_y
_atom_site_fract_z
Si Si1 0.259010 0.209042 0.445710
Si Si2 0.517775 0.385330 0.978109
Si Si3 0.469474 0.507696 0.366512
Si Si4 0.045997 0.313734 0.510985
Si Si5 0.119772 0.409122 0.281893
O O1 0.016439 0.168145 0.350551
O O2 0.338384 0.192923 0.734298
O O3 0.236927 0.267939 0.469772
O O4 0.440300 0.199840 0.251813
O O5 0.380930 0.435457 0.845221
O O6 0.362425 0.380951 0.194189
O O7 0.834887 0.403280 0.073430
O O8 0.622895 0.499792 0.152503
O O9 0.232817 0.465435 0.323954
O O10 0.081374 0.373170 0.500658
#
# Coordination Sequence:
#
# PCOD9138953 Si02
#       5
#     4   4   4   4   4
#     4  11  24  43  71 106 145 186 236 294 359 428
#     4  10  24  46  71 104 144 189 240 296 357 423
#     4  10  24  42  68  98 136 184 236 290 346 414
#     4  11  24  43  71 106 145 186 236 294 359 428
#     4  10  24  46  71 104 144 189 240 296 357 423
#
# _framework density 27.215311
#
# number of rings (size 3 to 8) (size 9 to 14) (size 15 to 20)
#    0.000    1.600    0.000    2.400    0.000   24.000 
#    0.000    2.000    0.000    0.000    0.000    0.000 
#    0.000    0.000    0.000    0.000    0.000    0.000 
#
# Total GULP energy -55724.085661 kJ/mol
# GULP energy per Si atom -5572.408566 kJ/mol
# Density = 2.715337 g / cm^3
# Si number density = 27.215311 Si / 1000 Ang^3
#
#
#
# Elastic Constant Matrix: (Units=GPa)
#
#
# Indices 1 2 3 4 5 6 
#
# 1 98.3808 51.0322 38.1111 0.0000 -28.2343 0.0000
# 2 51.0322 260.5327 51.5912 0.0000 -3.1925 0.0000
# 3 38.1111 51.5912 141.8498 0.0000 -26.7068 0.0000
# 4 0.0000 0.0000 0.0000 58.0604 0.0000 -2.1528
# 5 -28.2343 -3.1925 -26.7068 0.0000 24.8480 0.0000
# 6 0.0000 0.0000 0.0000 -2.1528 0.0000 48.9250
#
#
#
# Elastic Compliance Matrix: (Units=1/GPa)
#
#
# Indices 1 2 3 4 5 6 
#
# 1 0.017346 -0.003192 0.000168 0.000000 0.019481 0.000000
# 2 -0.003192 0.004761 -0.001807 0.000000 -0.004958 0.000000
# 3 0.000168 -0.001807 0.009596 0.000000 0.010273 0.000000
# 4 0.000000 0.000000 0.000000 0.017252 0.000000 0.000759
# 5 0.019481 -0.004958 0.010273 0.000000 0.072785 0.000000
# 6 0.000000 0.000000 0.000000 0.000759 0.000000 0.020473
#
#
# Mechanical properties :
#
#
# Convention : Reuss Voigt Hill
#
# Bulk Modulus (GPa) = 45.37135 86.91468 66.14301
# Shear Modulus (GPa) = 31.40280 50.36858 40.88569
#
# Velocity S-wave (km/s) = 3.40054 4.30669 3.88016
# Velocity P-wave (km/s) = 5.66796 7.53229 6.66563
#
# Compressibility (1/GPa) = 0.02204034
#
# Stress axis : x y z
#
# Youngs Moduli (GPa) = 57.64984 210.05220 104.21079
#
# Poissons Ratio (x) = 0.67056 -0.01755
# Poissons Ratio (y) = 0.18404 0.18834
# Poissons Ratio (z) = -0.00971 0.37963
#
# Static dielectric constant tensor:
#      x y z
#    x 2.249890 0.000000 0.135370 
#    y 0.000000 2.210530 0.000000 
#    z 0.135370 0.000000 2.377200 
# 
# From -- ./inp_files/296.got.cif
#   From: 2010.05.17/outbox.cif.g08.bks.cpg/sg9_1_cif.got.tgz:296.got - 2010.06.03 20:04:27.
