data_PCOD9138283
_publ_section_title
;
Structure prediction by ZEFSAII (Michael W. Deem and Ramdas Pophale) SiO2 
 PCOD9138283
Probable space group: C C
;
_chemical_formula_sum "Si O2"
_cell_formula_units_Z 32
_cell_length_a 9.039735
_cell_length_b 30.109248
_cell_length_c 5.115745
_cell_angle_alpha 90.000000
_cell_angle_beta 79.179557
_cell_angle_gamma 90.000000
_cell_volume 1367.645107
_symmetry_space_group_name_H-M "C C"
_symmetry_group_IT_number 9
_symmetry_cell_setting 'monoclinic'
loop_
_space_group_symop_operation_xyz
x,y,z
x,-y,1/2+z
1/2+x,1/2+y,z
1/2+x,1/2-y,1/2+z
loop_
_atom_site_type_symbol
_atom_site_label
_atom_site_fract_x
_atom_site_fract_y
_atom_site_fract_z
Si Si1 0.662840 0.798286 0.791740
Si Si2 0.374306 0.160023 0.166025
Si Si3 0.488658 0.601059 0.937944
Si Si4 0.828386 0.016275 0.852171
Si Si5 0.665669 0.260050 0.784572
Si Si6 0.316278 0.102845 0.675062
Si Si7 0.485076 0.019441 0.432714
Si Si8 0.949308 0.158801 0.448703
O O1 0.539569 0.831292 0.718003
O O2 0.709687 0.769294 0.522129
O O3 0.789027 0.827250 0.888759
O O4 0.608947 0.767103 0.050559
O O5 0.303027 0.208635 0.148271
O O6 0.293975 0.134169 0.430318
O O7 0.366014 0.132384 0.904209
O O8 0.357033 0.564448 0.963551
O O9 0.653219 0.582362 0.801312
O O10 0.448778 0.638123 0.735511
O O11 0.506007 0.623602 0.213603
O O12 0.900537 0.016017 0.542159
O O13 0.660470 0.996298 0.851768
O O14 0.542651 0.295736 0.915148
O O15 0.444282 0.066995 0.561652
O O16 0.419340 0.014839 0.166077
#
# Coordination Sequence:
#
# PCOD9138283 Si02
#       8
#     4   4   4   4   4   4   4   4
#     4  12  26  40  68 104 132 180 228 284 334 392
#     4  12  25  44  69  99 137 178 229 276 335 395
#     4  12  24  44  69  96 135 181 223 273 332 404
#     4  10  23  42  66  96 130 170 213 271 335 392
#     4  12  22  46  66  96 140 176 228 278 340 392
#     4  12  24  44  69  96 135 181 223 273 332 404
#     4  10  23  42  66  96 130 170 213 271 335 392
#     4  12  25  44  69  99 137 178 229 276 335 395
#
# _framework density 23.397881999999999
#
# number of rings (size 3 to 8) (size 9 to 14) (size 15 to 20)
#    0.000    0.500    2.500    6.000    0.000    7.000 
#    0.000    0.000    0.000    0.000    0.000    0.000 
#    0.000    0.000    0.000    0.000    0.000    0.000 
#
# Total GULP energy -89419.043794 kJ/mol
# GULP energy per Si atom -5588.690237 kJ/mol
# Density = 2.334463 g / cm^3
# Si number density = 23.397882 Si / 1000 Ang^3
#
#
#
# Elastic Constant Matrix: (Units=GPa)
#
#
# Indices 1 2 3 4 5 6 
#
# 1 88.5187 19.7970 -6.3079 0.0000 6.1472 0.0000
# 2 19.7970 59.2161 22.8970 0.0000 -8.0480 0.0000
# 3 -6.3079 22.8970 105.8887 0.0000 30.0318 0.0000
# 4 0.0000 0.0000 0.0000 36.1189 0.0000 -0.5876
# 5 6.1472 -8.0480 30.0318 0.0000 35.7832 0.0000
# 6 0.0000 0.0000 0.0000 -0.5876 0.0000 40.3623
#
#
#
# Elastic Compliance Matrix: (Units=1/GPa)
#
#
# Indices 1 2 3 4 5 6 
#
# 1 0.013895 -0.007587 0.004763 0.000000 -0.008091 0.000000
# 2 -0.007587 0.025643 -0.010502 0.000000 0.015885 0.000000
# 3 0.004763 -0.010502 0.016931 0.000000 -0.017390 0.000000
# 4 0.000000 0.000000 0.000000 0.027693 0.000000 0.000403
# 5 -0.008091 0.015885 -0.017390 0.000000 0.047503 0.000000
# 6 0.000000 0.000000 0.000000 0.000403 0.000000 0.024781
#
#
# Mechanical properties :
#
#
# Convention : Reuss Voigt Hill
#
# Bulk Modulus (GPa) = 33.53776 36.26618 34.90197
# Shear Modulus (GPa) = 25.90171 36.93536 31.41854
#
# Velocity S-wave (km/s) = 3.33079 3.97744 3.66839
# Velocity P-wave (km/s) = 5.39972 6.05201 5.73515
#
# Compressibility (1/GPa) = 0.02981714
#
# Stress axis : x y z
#
# Youngs Moduli (GPa) = 71.96816 38.99644 59.06485
#
# Poissons Ratio (x) = 0.29585 -0.28132
# Poissons Ratio (y) = 0.54599 0.62031
# Poissons Ratio (z) = -0.34278 0.40955
#
# Static dielectric constant tensor:
#      x y z
#    x 1.981410 0.000000 -0.090000 
#    y 0.000000 1.887260 0.000000 
#    z -0.090000 0.000000 1.971250 
# 
# From -- ./inp_files/1272.got.cif
#   From: 2010.05.17/outbox.cif.g08.bks.cpg/sg9_1_cif.got.tgz:1272.got - 2010.06.03 20:04:27.
