data_PCOD9138183
_publ_section_title
;
Structure prediction by ZEFSAII (Michael W. Deem and Ramdas Pophale) SiO2 
 PCOD9138183
Probable space group: C C
;
_chemical_formula_sum "Si O2"
_cell_formula_units_Z 32
_cell_length_a 5.144817
_cell_length_b 30.579988
_cell_length_c 8.444600
_cell_angle_alpha 90.000000
_cell_angle_beta 84.865485
_cell_angle_gamma 90.000000
_cell_volume 1323.244633
_symmetry_space_group_name_H-M "C C"
_symmetry_group_IT_number 9
_symmetry_cell_setting 'monoclinic'
loop_
_space_group_symop_operation_xyz
x,y,z
x,-y,1/2+z
1/2+x,1/2+y,z
1/2+x,1/2-y,1/2+z
loop_
_atom_site_type_symbol
_atom_site_label
_atom_site_fract_x
_atom_site_fract_y
_atom_site_fract_z
Si Si1 0.293540 0.992645 0.456720
Si Si2 0.444530 0.565860 0.449978
Si Si3 0.584952 0.602616 0.909292
Si Si4 0.763182 0.213987 0.577254
Si Si5 0.279302 0.128804 0.230157
Si Si6 0.106300 0.544081 0.189813
Si Si7 0.810246 0.722406 0.367530
Si Si8 0.615903 0.118103 0.699908
O O1 0.129577 0.948471 0.446691
O O2 0.564406 0.977238 0.522693
O O3 0.387860 0.016081 0.293157
O O4 0.115282 0.031246 0.538048
O O5 0.612141 0.607473 0.382689
O O6 0.351451 0.544125 0.290487
O O7 0.199024 0.581945 0.565501
O O8 0.316309 0.611637 0.834741
O O9 0.823269 0.614852 0.779417
O O10 0.619740 0.627889 0.073936
O O11 0.766984 0.240703 0.739384
O O12 0.551591 0.233435 0.467552
O O13 0.671835 0.164821 0.619072
O O14 0.048122 0.215717 0.483506
O O15 0.513053 0.094390 0.189894
O O16 0.366550 0.176700 0.274564
#
# Coordination Sequence:
#
# PCOD9138183 Si02
#       8
#     4   4   4   4   4   4   4   4
#     4  10  24  42  61 107 135 189 244 300 355 426
#     4  11  24  44  74  94 143 195 241 298 364 434
#     4  11  28  44  72 107 148 191 245 304 355 434
#     4  12  28  49  80 112 151 190 249 296 380 435
#     4  10  25  46  70 103 144 190 241 291 375 429
#     4  10  23  40  69  94 140 184 243 292 363 423
#     4  12  27  50  78 113 149 192 241 308 363 454
#     4  12  27  47  74 106 146 193 244 299 369 433
#
# _framework density 24.182979
#
# number of rings (size 3 to 8) (size 9 to 14) (size 15 to 20)
#    0.000    1.000    1.250    3.000   14.000    2.000 
#    0.000    0.000    0.000    0.000    0.000    0.000 
#    0.000    0.000    0.000    0.000    0.000    0.000 
#
# Total GULP energy -89663.735745 kJ/mol
# GULP energy per Si atom -5603.983484 kJ/mol
# Density = 2.412794 g / cm^3
# Si number density = 24.182979 Si / 1000 Ang^3
#
#
#
# Elastic Constant Matrix: (Units=GPa)
#
#
# Indices 1 2 3 4 5 6 
#
# 1 91.3206 6.4835 24.2608 0.0000 13.3017 0.0000
# 2 6.4835 72.8488 15.6425 0.0000 -4.6995 0.0000
# 3 24.2608 15.6425 86.0388 0.0000 5.6325 0.0000
# 4 0.0000 0.0000 0.0000 6.1969 0.0000 18.3473
# 5 13.3017 -4.6995 5.6325 0.0000 51.3149 0.0000
# 6 0.0000 0.0000 0.0000 18.3473 0.0000 11.0483
#
#
#
# Elastic Compliance Matrix: (Units=1/GPa)
#
#
# Indices 1 2 3 4 5 6 
#
# 1 0.012252 -0.000599 -0.003157 0.000000 -0.002884 0.000000
# 2 -0.000599 0.014446 -0.002573 0.000000 0.001761 0.000000
# 3 -0.003157 -0.002573 0.013036 0.000000 -0.000848 0.000000
# 4 0.000000 0.000000 0.000000 -0.041201 0.000000 0.068420
# 5 -0.002884 0.001761 -0.000848 0.000000 0.020489 0.000000
# 6 0.000000 0.000000 0.000000 0.068420 0.000000 -0.023109
#
#
# Mechanical properties :
#
#
# Convention : Reuss Voigt Hill
#
# Bulk Modulus (GPa) = 36.93143 38.10909 37.52026
# Shear Modulus (GPa) = 284.13838 27.30011 155.71924
#
# Velocity S-wave (km/s) = 10.85128 3.36355 8.03317
# Velocity P-wave (km/s) = 13.12651 5.55675 10.07925
#
# Compressibility (1/GPa) = 0.02707721
#
# Stress axis : x y z
#
# Youngs Moduli (GPa) = 81.62093 69.22148 76.70960
#
# Poissons Ratio (x) = 0.04143 0.24218
# Poissons Ratio (y) = 0.04885 0.19737
# Poissons Ratio (z) = 0.25768 0.17810
#
# Static dielectric constant tensor:
#      x y z
#    x 1.916930 0.000000 -0.019580 
#    y 0.000000 1.877080 0.000000 
#    z -0.019580 0.000000 1.950310 
# 
# From -- ./inp_files/4512.got.cif
#   From: 2010.05.17/outbox.cif.g08.bks.cpg/sg9_3_cif.got.tgz:4512.got - 2010.06.03 20:04:27.
