data_PCOD9138909
_publ_section_title
;
Structure prediction by ZEFSAII (Michael W. Deem and Ramdas Pophale) SiO2 
 PCOD9138909
Probable space group: C C
;
_chemical_formula_sum "Si O2"
_cell_formula_units_Z 28
_cell_length_a 30.718960
_cell_length_b 5.135449
_cell_length_c 9.067294
_cell_angle_alpha 90.000000
_cell_angle_beta 123.470033
_cell_angle_gamma 90.000000
_cell_volume 1193.217120
_symmetry_space_group_name_H-M "C C"
_symmetry_group_IT_number 9
_symmetry_cell_setting 'monoclinic'
loop_
_space_group_symop_operation_xyz
x,y,z
x,-y,1/2+z
1/2+x,1/2+y,z
1/2+x,1/2-y,1/2+z
loop_
_atom_site_type_symbol
_atom_site_label
_atom_site_fract_x
_atom_site_fract_y
_atom_site_fract_z
Si Si1 0.438760 0.792421 0.949910
Si Si2 0.278342 0.299139 0.480185
Si Si3 0.817152 0.689577 0.224966
Si Si4 0.663514 0.187581 0.638339
Si Si5 0.580444 0.540171 0.397238
Si Si6 0.607093 0.951821 0.779791
Si Si7 0.476586 0.284942 0.852912
O O1 0.378316 0.861672 0.813523
O O2 0.449303 0.514618 0.893457
O O3 0.473614 0.017248 0.939115
O O4 0.450146 0.768957 0.144839
O O5 0.308121 0.241732 0.381656
O O6 0.298615 0.560915 0.595918
O O7 0.218295 0.314697 0.317534
O O8 0.286401 0.062078 0.608717
O O9 0.634418 0.465709 0.580951
O O10 0.662522 0.100362 0.467067
O O11 0.621745 0.997686 0.639486
O O12 0.585944 0.773743 0.294307
O O13 0.533366 0.606711 0.415559
O O14 0.572618 0.278013 0.284475
#
# Coordination Sequence:
#
# PCOD9138909 Si02
#       7
#     4   4   4   4   4   4   4
#     4  12  26  48  76 104 149 185 252 303 371 425
#     4  12  27  44  78 104 151 188 249 289 382 426
#     4  12  26  47  72 111 142 194 241 312 359 439
#     4  10  26  43  71 100 146 183 238 286 353 431
#     4  10  26  42  70 101 144 181 237 287 351 432
#     4  10  24  40  68  94 146 178 232 286 342 412
#     4  12  27  48  77 108 142 197 239 303 370 439
#
# _framework density 23.465971
#
# number of rings (size 3 to 8) (size 9 to 14) (size 15 to 20)
#    0.857    0.000    0.000    6.000    8.000    0.000 
#    0.000    0.000    0.000    0.000    0.000    0.000 
#    0.000    0.000    0.000    0.000    0.000    0.000 
#
# Total GULP energy -78344.584967 kJ/mol
# GULP energy per Si atom -5596.041783 kJ/mol
# Density = 2.341256 g / cm^3
# Si number density = 23.465971 Si / 1000 Ang^3
#
#
#
# Elastic Constant Matrix: (Units=GPa)
#
#
# Indices 1 2 3 4 5 6 
#
# 1 67.3166 11.1432 12.5670 0.0000 3.4934 0.0000
# 2 11.1432 155.5584 29.0230 0.0000 -13.1610 0.0000
# 3 12.5670 29.0230 106.2037 0.0000 -10.1811 0.0000
# 4 0.0000 0.0000 0.0000 32.3279 0.0000 1.8772
# 5 3.4934 -13.1610 -10.1811 0.0000 38.6266 0.0000
# 6 0.0000 0.0000 0.0000 1.8772 0.0000 33.0320
#
#
#
# Elastic Compliance Matrix: (Units=1/GPa)
#
#
# Indices 1 2 3 4 5 6 
#
# 1 0.015460 -0.000962 -0.001777 0.000000 -0.002194 0.000000
# 2 -0.000962 0.006968 -0.001595 0.000000 0.002041 0.000000
# 3 -0.001777 -0.001595 0.010285 0.000000 0.002328 0.000000
# 4 0.000000 0.000000 0.000000 0.031035 0.000000 -0.001764
# 5 -0.002194 0.002041 0.002328 0.000000 0.027396 0.000000
# 6 0.000000 0.000000 0.000000 -0.001764 0.000000 0.030374
#
#
# Mechanical properties :
#
#
# Convention : Reuss Voigt Hill
#
# Bulk Modulus (GPa) = 41.58650 48.28278 44.93464
# Shear Modulus (GPa) = 36.17946 39.22033 37.69989
#
# Velocity S-wave (km/s) = 3.93082 4.09267 4.01256
# Velocity P-wave (km/s) = 6.19373 6.55390 6.37636
#
# Compressibility (1/GPa) = 0.02404627
#
# Stress axis : x y z
#
# Youngs Moduli (GPa) = 64.68325 143.52347 97.22791
#
# Poissons Ratio (x) = 0.13801 0.17277
# Poissons Ratio (y) = 0.06220 0.15504
# Poissons Ratio (z) = 0.11494 0.22887
#
# Static dielectric constant tensor:
#      x y z
#    x 1.882450 0.000000 0.017010 
#    y 0.000000 1.882900 0.000000 
#    z 0.017010 0.000000 1.942590 
# 
# From -- ./inp_files/12604.got.cif
#   From: 2010.05.17/outbox.cif.g08.bks.cpg/sg9_7_cif.got.tgz:12604.got - 2010.06.03 20:04:27.
