data_PCOD9138975
_publ_section_title
;
Structure prediction by ZEFSAII (Michael W. Deem and Ramdas Pophale) SiO2 
 PCOD9138975
Probable space group: C C
;
_chemical_formula_sum "Si O2"
_cell_formula_units_Z 32
_cell_length_a 14.947657
_cell_length_b 9.159538
_cell_length_c 20.010316
_cell_angle_alpha 90.000000
_cell_angle_beta 149.603035
_cell_angle_gamma 90.000000
_cell_volume 1386.247964
_symmetry_space_group_name_H-M "C C"
_symmetry_group_IT_number 9
_symmetry_cell_setting 'monoclinic'
loop_
_space_group_symop_operation_xyz
x,y,z
x,-y,1/2+z
1/2+x,1/2+y,z
1/2+x,1/2-y,1/2+z
loop_
_atom_site_type_symbol
_atom_site_label
_atom_site_fract_x
_atom_site_fract_y
_atom_site_fract_z
Si Si1 0.292930 0.115487 0.891330
Si Si2 0.342407 0.811148 0.273032
Si Si3 0.610442 0.802203 0.337499
Si Si4 0.995843 0.322757 0.056485
Si Si5 0.918564 0.018965 0.168760
Si Si6 0.263894 0.581051 0.436408
Si Si7 0.320770 0.490956 0.257057
Si Si8 0.571490 0.530283 0.037462
O O1 0.356473 0.167040 0.860323
O O2 0.265029 0.246597 0.925800
O O3 0.096576 0.054542 0.757020
O O4 0.415526 0.979096 0.986449
O O5 0.530775 0.791957 0.359923
O O6 0.243392 0.655765 0.203740
O O7 0.246635 0.942718 0.171796
O O8 0.815783 0.750906 0.469468
O O9 0.482066 0.688909 0.215691
O O10 0.609858 0.970264 0.311970
O O11 0.187648 0.376912 0.207480
O O12 0.063324 0.203245 0.046300
O O13 0.865458 0.962266 0.208175
O O14 0.781373 0.968083 0.024448
O O15 0.431054 0.535094 0.499560
O O16 0.497062 0.496600 0.415628
#
# Coordination Sequence:
#
# PCOD9138975 Si02
#       8
#     4   4   4   4   4   4   4   4
#     4  11  23  43  72  99 143 192 246 309 368 440
#     4  11  23  44  76 106 143 195 252 309 369 450
#     4   9  24  43  69 105 144 191 249 304 376 440
#     4  10  25  43  70 104 147 197 240 317 375 438
#     4  10  24  43  63 103 146 184 242 307 367 447
#     4  11  22  42  69 101 138 190 243 300 371 439
#     4  11  25  43  70 105 147 195 248 305 375 451
#     4  11  24  43  71 103 142 194 248 301 379 445
#
# _framework density 23.083891999999999
#
# number of rings (size 3 to 8) (size 9 to 14) (size 15 to 20)
#    0.000    1.500    2.500    0.750    3.500    8.000 
#    0.000    2.500    0.000    0.000    0.000    0.000 
#    0.000    0.000    0.000    0.000    0.000    0.000 
#
# Total GULP energy -89133.218311 kJ/mol
# GULP energy per Si atom -5570.826144 kJ/mol
# Density = 2.303135 g / cm^3
# Si number density = 23.083892 Si / 1000 Ang^3
#
#
#
# Elastic Constant Matrix: (Units=GPa)
#
#
# Indices 1 2 3 4 5 6 
#
# 1 79.1805 34.6380 19.6534 0.0000 -21.6643 0.0000
# 2 34.6380 145.0939 35.9290 -0.0001 -2.5787 0.0000
# 3 19.6534 35.9290 63.4397 -0.0001 -11.5970 0.0000
# 4 0.0000 -0.0001 -0.0001 30.6287 0.0000 7.5849
# 5 -21.6643 -2.5787 -11.5970 0.0000 36.8044 0.0000
# 6 0.0000 0.0000 0.0000 7.5849 0.0000 23.9233
#
#
#
# Elastic Compliance Matrix: (Units=1/GPa)
#
#
# Indices 1 2 3 4 5 6 
#
# 1 0.017121 -0.003524 -0.001603 0.000000 0.009326 0.000000
# 2 -0.003524 0.008771 -0.004396 0.000000 -0.002845 0.000000
# 3 -0.001603 -0.004396 0.019652 0.000000 0.004941 0.000000
# 4 0.000000 0.000000 0.000000 0.035431 0.000000 -0.011233
# 5 0.009326 -0.002845 0.004941 0.000000 0.034018 0.000000
# 6 0.000000 0.000000 0.000000 -0.011233 0.000000 0.045362
#
#
# Mechanical properties :
#
#
# Convention : Reuss Voigt Hill
#
# Bulk Modulus (GPa) = 37.73924 52.01721 44.87823
# Shear Modulus (GPa) = 26.56260 31.43752 29.00006
#
# Velocity S-wave (km/s) = 3.39588 3.69437 3.54826
# Velocity P-wave (km/s) = 5.63562 6.38598 6.02250
#
# Compressibility (1/GPa) = 0.02649762
#
# Stress axis : x y z
#
# Youngs Moduli (GPa) = 58.40893 114.00595 50.88414
#
# Poissons Ratio (x) = 0.40181 0.08157
# Poissons Ratio (y) = 0.20586 0.22368
# Poissons Ratio (z) = 0.09363 0.50117
#
# Static dielectric constant tensor:
#      x y z
#    x 1.845900 0.000000 -0.001260 
#    y 0.000000 2.003800 0.000000 
#    z -0.001260 0.000000 1.995600 
# 
# From -- ./inp_files/33723.got.cif
#   From: 2010.05.17/outbox.cif.g08.bks.cpg/sg9_17_cif.got.tgz:33723.got - 2010.06.03 20:04:27.
