data_PCOD9138599
_publ_section_title
;
Structure prediction by ZEFSAII (Michael W. Deem and Ramdas Pophale) SiO2 
 PCOD9138599
Probable space group: C C
;
_chemical_formula_sum "Si O2"
_cell_formula_units_Z 28
_cell_length_a 12.231552
_cell_length_b 7.288672
_cell_length_c 14.296699
_cell_angle_alpha 90.000000
_cell_angle_beta 59.956397
_cell_angle_gamma 90.000000
_cell_volume 1103.329915
_symmetry_space_group_name_H-M "C C"
_symmetry_group_IT_number 9
_symmetry_cell_setting 'monoclinic'
loop_
_space_group_symop_operation_xyz
x,y,z
x,-y,1/2+z
1/2+x,1/2+y,z
1/2+x,1/2-y,1/2+z
loop_
_atom_site_type_symbol
_atom_site_label
_atom_site_fract_x
_atom_site_fract_y
_atom_site_fract_z
Si Si1 0.117530 0.615234 0.579630
Si Si2 0.469610 0.379833 0.329141
Si Si3 0.466940 0.583814 0.048862
Si Si4 0.699807 0.067321 0.743999
Si Si5 0.323892 0.106899 0.282621
Si Si6 0.782674 0.804959 0.855250
Si Si7 0.077380 0.763385 0.105815
O O1 0.108134 0.602091 0.695811
O O2 0.234377 0.720996 0.482053
O O3 0.158936 0.405597 0.538109
O O4 0.001868 0.722681 0.581592
O O5 0.484876 0.409161 0.430927
O O6 0.377584 0.204416 0.353017
O O7 0.401362 0.556239 0.310865
O O8 0.586843 0.332582 0.209214
O O9 0.329836 0.508941 0.139798
O O10 0.566511 0.436041 0.045581
O O11 0.715768 0.263706 0.787051
O O12 0.681452 0.917730 0.834009
O O13 0.441922 0.156143 0.164058
O O14 0.300318 0.895048 0.305494
#
# Coordination Sequence:
#
# PCOD9138599 Si02
#       7
#     4   4   4   4   4   4   4
#     4  12  26  40  68 104 129 179 233 281 337 410
#     4   9  21  41  67  94 131 175 218 278 332 412
#     4  11  22  45  65  97 134 178 225 274 345 404
#     4  10  23  45  65  94 139 173 223 282 331 412
#     4   8  20  42  67  92 128 183 211 265 354 389
#     4  11  21  42  66  96 133 174 224 282 342 400
#     4   9  23  43  62  97 134 172 224 272 341 405
#
# _framework density 25.377721000000001
#
# number of rings (size 3 to 8) (size 9 to 14) (size 15 to 20)
#    0.857    1.143    2.857    0.857    2.000    4.571 
#    5.143    0.000    0.000    0.000    0.000    0.000 
#    0.000    0.000    0.000    0.000    0.000    0.000 
#
# Total GULP energy -78143.509050 kJ/mol
# GULP energy per Si atom -5581.679218 kJ/mol
# Density = 2.531996 g / cm^3
# Si number density = 25.377721 Si / 1000 Ang^3
#
#
#
# Elastic Constant Matrix: (Units=GPa)
#
#
# Indices 1 2 3 4 5 6 
#
# 1 46.7507 32.3779 34.9456 0.0000 19.5888 0.0000
# 2 32.3779 198.9747 70.5251 0.0000 18.4549 0.0000
# 3 34.9456 70.5251 138.8203 0.0000 45.9715 0.0000
# 4 0.0000 0.0000 0.0000 42.5933 0.0000 -1.2350
# 5 19.5888 18.4549 45.9715 0.0000 50.4501 0.0000
# 6 0.0000 0.0000 0.0000 -1.2350 0.0000 24.3166
#
#
#
# Elastic Compliance Matrix: (Units=1/GPa)
#
#
# Indices 1 2 3 4 5 6 
#
# 1 0.028898 -0.002800 -0.003546 0.000000 -0.006966 0.000000
# 2 -0.002800 0.006426 -0.003067 0.000000 0.001531 0.000000
# 3 -0.003546 -0.003067 0.012642 0.000000 -0.009021 0.000000
# 4 0.000000 0.000000 0.000000 0.023512 0.000000 0.001194
# 5 -0.006966 0.001531 -0.009021 0.000000 0.030186 0.000000
# 6 0.000000 0.000000 0.000000 0.001194 0.000000 0.041185
#
#
# Mechanical properties :
#
#
# Convention : Reuss Voigt Hill
#
# Bulk Modulus (GPa) = 34.31552 73.36032 53.83792
# Shear Modulus (GPa) = 29.17369 39.91849 34.54609
#
# Velocity S-wave (km/s) = 3.39422 3.97038 3.69355
# Velocity P-wave (km/s) = 5.37701 7.07026 6.28096
#
# Compressibility (1/GPa) = 0.02914133
#
# Stress axis : x y z
#
# Youngs Moduli (GPa) = 34.60468 155.60734 79.10432
#
# Poissons Ratio (x) = 0.43564 0.28047
# Poissons Ratio (y) = 0.09688 0.24262
# Poissons Ratio (z) = 0.12269 0.47726
#
# Static dielectric constant tensor:
#      x y z
#    x 2.163020 0.000000 -0.058330 
#    y 0.000000 2.051910 0.000000 
#    z -0.058330 0.000000 2.042460 
# 
# From -- ./inp_files/25234.got.cif
#   From: 2010.05.17/outbox.cif.g08.bks.cpg/sg9_13_cif.got.tgz:25234.got - 2010.06.03 20:04:27.
