data_PCOD9138497
_publ_section_title
;
Structure prediction by ZEFSAII (Michael W. Deem and Ramdas Pophale) SiO2 
 PCOD9138497
Probable space group: C C
;
_chemical_formula_sum "Si O2"
_cell_formula_units_Z 32
_cell_length_a 15.357812
_cell_length_b 6.154379
_cell_length_c 15.735675
_cell_angle_alpha 90.000000
_cell_angle_beta 71.700805
_cell_angle_gamma 90.000000
_cell_volume 1412.088322
_symmetry_space_group_name_H-M "C C"
_symmetry_group_IT_number 9
_symmetry_cell_setting 'monoclinic'
loop_
_space_group_symop_operation_xyz
x,y,z
x,-y,1/2+z
1/2+x,1/2+y,z
1/2+x,1/2-y,1/2+z
loop_
_atom_site_type_symbol
_atom_site_label
_atom_site_fract_x
_atom_site_fract_y
_atom_site_fract_z
Si Si1 0.398300 0.595629 0.191390
Si Si2 0.364717 0.897730 0.945131
Si Si3 0.221021 0.492358 0.493221
Si Si4 0.759080 0.673455 0.841903
Si Si5 0.554769 0.080627 0.664125
Si Si6 0.161176 0.100701 0.251283
Si Si7 0.834668 0.277476 0.590168
Si Si8 0.992049 0.803909 0.285826
O O1 0.306958 0.729054 0.242369
O O2 0.487122 0.740384 0.145892
O O3 0.386872 0.407705 0.125988
O O4 0.420584 0.480308 0.274337
O O5 0.278424 0.731677 0.976184
O O6 0.455440 0.773134 0.887257
O O7 0.335723 0.064807 0.879052
O O8 0.383183 0.026397 0.026279
O O9 0.213986 0.623450 0.406237
O O10 0.125404 0.487009 0.573562
O O11 0.281725 0.651202 0.532544
O O12 0.691239 0.474818 0.836513
O O13 0.606665 0.188713 0.730745
O O14 0.491883 0.893096 0.720611
O O15 0.092437 0.905620 0.249512
O O16 0.256615 0.123659 0.173729
#
# Coordination Sequence:
#
# PCOD9138497 Si02
#       8
#     4   4   4   4   4   4   4   4
#     4  11  23  42  69  99 129 177 227 264 329 402
#     4  11  22  42  69  94 131 177 223 274 330 390
#     4  10  23  44  67  93 136 174 216 277 334 389
#     4  11  23  42  68  98 128 174 226 268 325 402
#     4  10  23  44  66  98 135 171 214 280 335 389
#     4  10  24  40  66  98 128 173 222 267 327 396
#     4  10  24  40  67  98 131 177 223 267 330 403
#     4  11  22  42  68  94 134 175 217 277 330 391
#
# _framework density 22.661473000000001
#
# number of rings (size 3 to 8) (size 9 to 14) (size 15 to 20)
#    0.000    1.500    2.500    1.500    5.250    1.000 
#    6.750    0.000    0.000    0.000    0.000    0.000 
#    0.000    0.000    0.000    0.000    0.000    0.000 
#
# Total GULP energy -89266.081334 kJ/mol
# GULP energy per Si atom -5579.130083 kJ/mol
# Density = 2.260989 g / cm^3
# Si number density = 22.661473 Si / 1000 Ang^3
#
#
#
# Elastic Constant Matrix: (Units=GPa)
#
#
# Indices 1 2 3 4 5 6 
#
# 1 50.8392 26.5979 17.2021 0.0000 -8.2060 0.0000
# 2 26.5979 96.8728 38.8525 0.0001 -18.8646 0.0001
# 3 17.2021 38.8525 54.2573 0.0000 -17.5656 0.0000
# 4 0.0000 0.0001 0.0000 39.0107 0.0000 -1.3850
# 5 -8.2060 -18.8646 -17.5656 0.0000 36.8069 0.0000
# 6 0.0000 0.0001 0.0000 -1.3850 0.0000 30.0004
#
#
#
# Elastic Compliance Matrix: (Units=1/GPa)
#
#
# Indices 1 2 3 4 5 6 
#
# 1 0.023600 -0.004786 -0.003720 0.000000 0.001033 0.000000
# 2 -0.004786 0.015724 -0.008845 0.000000 0.002771 0.000000
# 3 -0.003720 -0.008845 0.028632 0.000000 0.008301 0.000000
# 4 0.000000 0.000000 0.000000 0.025676 0.000000 0.001185
# 5 0.001033 0.002771 0.008301 0.000000 0.032781 0.000000
# 6 0.000000 0.000000 0.000000 0.001185 0.000000 0.033388
#
#
# Mechanical properties :
#
#
# Convention : Reuss Voigt Hill
#
# Bulk Modulus (GPa) = 30.07397 40.80824 35.44111
# Shear Modulus (GPa) = 24.32059 29.11804 26.71932
#
# Velocity S-wave (km/s) = 3.27955 3.58846 3.43747
# Velocity P-wave (km/s) = 5.25741 5.93433 5.60609
#
# Compressibility (1/GPa) = 0.03325135
#
# Stress axis : x y z
#
# Youngs Moduli (GPa) = 42.37376 63.59694 34.92653
#
# Poissons Ratio (x) = 0.30440 0.12994
# Poissons Ratio (y) = 0.20282 0.30893
# Poissons Ratio (z) = 0.15765 0.56252
#
# Static dielectric constant tensor:
#      x y z
#    x 1.843300 0.000000 0.032460 
#    y 0.000000 1.913040 0.000000 
#    z 0.032460 0.000000 1.863240 
# 
# From -- ./inp_files/26348.got.cif
#   From: 2010.05.17/outbox.cif.g08.bks.cpg/sg9_14_cif.got.tgz:26348.got - 2010.06.03 20:04:27.
