data_PCOD9138416
_publ_section_title
;
Structure prediction by ZEFSAII (Michael W. Deem and Ramdas Pophale) SiO2 
 PCOD9138416
Probable space group: C C
;
_chemical_formula_sum "Si O2"
_cell_formula_units_Z 32
_cell_length_a 8.037872
_cell_length_b 22.617875
_cell_length_c 14.608704
_cell_angle_alpha 90.000000
_cell_angle_beta 145.319842
_cell_angle_gamma 90.000000
_cell_volume 1511.168362
_symmetry_space_group_name_H-M "C C"
_symmetry_group_IT_number 9
_symmetry_cell_setting 'monoclinic'
loop_
_space_group_symop_operation_xyz
x,y,z
x,-y,1/2+z
1/2+x,1/2+y,z
1/2+x,1/2-y,1/2+z
loop_
_atom_site_type_symbol
_atom_site_label
_atom_site_fract_x
_atom_site_fract_y
_atom_site_fract_z
Si Si1 0.859510 0.870107 0.116180
Si Si2 0.251284 0.781658 0.398155
Si Si3 0.077069 0.856168 0.500641
Si Si4 0.320889 0.423695 0.724990
Si Si5 0.637570 0.546113 0.889061
Si Si6 0.705368 0.676210 0.337087
Si Si7 0.191234 0.641900 0.351814
Si Si8 0.795482 0.778478 0.517467
O O1 0.030386 0.812002 0.226995
O O2 0.994279 0.921884 0.237177
O O3 0.522430 0.853172 0.977544
O O4 0.874201 0.885899 0.016689
O O5 0.196496 0.812135 0.472695
O O6 0.217470 0.711695 0.381108
O O7 0.565118 0.792611 0.493319
O O8 0.008599 0.916385 0.416268
O O9 0.345520 0.870293 0.689813
O O10 0.830218 0.825049 0.449790
O O11 0.527613 0.479463 0.837969
O O12 0.482103 0.378788 0.729989
O O13 0.299349 0.383788 0.805798
O O14 0.990235 0.444209 0.549974
O O15 0.709082 0.717102 0.429754
O O16 0.607123 0.720358 0.210802
#
# Coordination Sequence:
#
# PCOD9138416 Si02
#       8
#     4   4   4   4   4   4   4   4
#     4  11  24  41  68 101 139 184 230 282 349 405
#     4  11  23  41  66 100 148 185 221 283 346 417
#     4  10  23  43  68  96 141 186 226 282 348 412
#     4  11  24  49  73  95 137 183 235 290 351 408
#     4  10  24  48  72  96 134 185 235 290 347 406
#     4  12  25  42  68 103 144 183 228 284 345 423
#     4  11  20  41  65  99 137 179 225 282 346 409
#     4  12  25  41  64 108 140 183 232 279 346 420
#
# _framework density 21.175668999999999
#
# number of rings (size 3 to 8) (size 9 to 14) (size 15 to 20)
#    0.000    1.000    2.500    5.250    5.250    0.000 
#    4.500    1.250    0.000    0.000    0.000    0.000 
#    0.000    0.000    0.000    0.000    0.000    0.000 
#
# Total GULP energy -89315.937415 kJ/mol
# GULP energy per Si atom -5582.246088 kJ/mol
# Density = 2.112747 g / cm^3
# Si number density = 21.175669 Si / 1000 Ang^3
#
#
#
# Elastic Constant Matrix: (Units=GPa)
#
#
# Indices 1 2 3 4 5 6 
#
# 1 55.1414 6.4575 15.0109 0.0000 5.9975 0.0000
# 2 6.4575 109.9194 30.2354 0.0000 5.1593 0.0000
# 3 15.0109 30.2354 104.3630 0.0000 -6.5211 0.0000
# 4 0.0000 0.0000 0.0000 28.6949 0.0000 11.7655
# 5 5.9975 5.1593 -6.5211 0.0000 35.9865 0.0000
# 6 0.0000 0.0000 0.0000 11.7655 0.0000 17.4501
#
#
#
# Elastic Compliance Matrix: (Units=1/GPa)
#
#
# Indices 1 2 3 4 5 6 
#
# 1 0.019370 -0.000143 -0.002979 0.000000 -0.003748 0.000000
# 2 -0.000143 0.010025 -0.003006 0.000000 -0.001958 0.000000
# 3 -0.002979 -0.003006 0.011065 0.000000 0.002932 0.000000
# 4 0.000000 0.000000 0.000000 0.048164 0.000000 -0.032474
# 5 -0.003748 -0.001958 0.002932 0.000000 0.029225 0.000000
# 6 0.000000 0.000000 0.000000 -0.032474 0.000000 0.079202
#
#
# Mechanical properties :
#
#
# Convention : Reuss Voigt Hill
#
# Bulk Modulus (GPa) = 35.45563 41.42574 38.44068
# Shear Modulus (GPa) = 22.86155 30.94096 26.90125
#
# Velocity S-wave (km/s) = 3.28931 3.82665 3.56811
# Velocity P-wave (km/s) = 5.58624 6.25538 5.93025
#
# Compressibility (1/GPa) = 0.02820426
#
# Stress axis : x y z
#
# Youngs Moduli (GPa) = 51.62496 99.75293 90.37854
#
# Poissons Ratio (x) = 0.01423 0.26924
# Poissons Ratio (y) = 0.00736 0.27169
# Poissons Ratio (z) = 0.15379 0.29987
#
# Static dielectric constant tensor:
#      x y z
#    x 1.867860 0.000000 0.000200 
#    y 0.000000 1.858220 0.000000 
#    z 0.000200 0.000000 1.803960 
# 
# From -- ./inp_files/6091.got.cif
#   From: 2010.05.17/outbox.cif.g08.bks.cpg/sg9_4_cif.got.tgz:6091.got - 2010.06.03 20:04:27.
