data_PCOD9138170
_publ_section_title
;
Structure prediction by ZEFSAII (Michael W. Deem and Ramdas Pophale) SiO2 
 PCOD9138170
Probable space group: C C
;
_chemical_formula_sum "Si O2"
_cell_formula_units_Z 24
_cell_length_a 6.469293
_cell_length_b 25.574755
_cell_length_c 5.917134
_cell_angle_alpha 90.000000
_cell_angle_beta 104.263154
_cell_angle_gamma 90.000000
_cell_volume 948.815191
_symmetry_space_group_name_H-M "C C"
_symmetry_group_IT_number 9
_symmetry_cell_setting 'monoclinic'
loop_
_space_group_symop_operation_xyz
x,y,z
x,-y,1/2+z
1/2+x,1/2+y,z
1/2+x,1/2-y,1/2+z
loop_
_atom_site_type_symbol
_atom_site_label
_atom_site_fract_x
_atom_site_fract_y
_atom_site_fract_z
Si Si1 0.533580 0.476964 0.794950
Si Si2 0.013383 0.522305 0.157320
Si Si3 0.013699 0.138632 0.424162
Si Si4 0.817259 0.171384 0.778951
Si Si5 0.548793 0.139138 0.082277
Si Si6 0.197996 0.784990 0.666669
O O1 0.593588 0.496400 0.555579
O O2 0.273614 0.480597 0.725843
O O3 0.586865 0.415469 0.838340
O O4 0.953204 0.504458 0.398276
O O5 0.956874 0.583125 0.114482
O O6 0.164859 0.187573 0.403062
O O7 0.974999 0.135120 0.679524
O O8 0.767357 0.146044 0.281118
O O9 0.721460 0.223492 0.643412
O O10 0.629203 0.139918 0.845769
O O11 0.976059 0.197940 0.998853
O O12 0.390691 0.185821 0.095638
#
# Coordination Sequence:
#
# PCOD9138170 Si02
#       6
#     4   4   4   4   4   4
#     4   9  19  34  65  96 133 176 220 270 328 395
#     4   9  19  36  62  99 132 174 223 269 327 399
#     4  10  23  40  66  95 130 171 219 269 331 396
#     4  11  24  41  65  94 128 169 220 274 335 398
#     4  10  23  40  67  94 130 173 216 272 331 393
#     4  11  24  43  63  96 127 169 220 276 334 399
#
# _framework density 25.294706999999999
#
# number of rings (size 3 to 8) (size 9 to 14) (size 15 to 20)
#    0.000    2.000    0.000    2.000   14.000    5.333 
#    0.000    1.667    0.000    0.000    0.000    0.000 
#    0.000    0.000    0.000    0.000    0.000    0.000 
#
# Total GULP energy -67032.629802 kJ/mol
# GULP energy per Si atom -5586.052484 kJ/mol
# Density = 2.523713 g / cm^3
# Si number density = 25.294707 Si / 1000 Ang^3
#
#
#
# Elastic Constant Matrix: (Units=GPa)
#
#
# Indices 1 2 3 4 5 6 
#
# 1 81.4020 44.8134 48.9146 0.0000 -51.0790 0.0000
# 2 44.8134 111.0360 63.8391 0.0000 -18.2728 0.0000
# 3 48.9146 63.8391 111.2663 0.0000 -29.8546 0.0000
# 4 0.0000 0.0000 0.0000 27.1648 0.0000 -10.2633
# 5 -51.0790 -18.2728 -29.8546 0.0000 63.3979 0.0000
# 6 0.0000 0.0000 0.0000 -10.2633 0.0000 33.2536
#
#
#
# Elastic Compliance Matrix: (Units=1/GPa)
#
#
# Indices 1 2 3 4 5 6 
#
# 1 0.032826 -0.007045 -0.004392 0.000000 0.022349 0.000000
# 2 -0.007045 0.014956 -0.006696 0.000000 -0.004519 0.000000
# 3 -0.004392 -0.006696 0.015215 0.000000 0.001696 0.000000
# 4 0.000000 0.000000 0.000000 0.041672 0.000000 0.012861
# 5 0.022349 -0.004519 0.001696 0.000000 0.033276 0.000000
# 6 0.000000 0.000000 0.000000 0.012861 0.000000 0.034041
#
#
# Mechanical properties :
#
#
# Convention : Reuss Voigt Hill
#
# Bulk Modulus (GPa) = 37.41106 68.75984 53.08545
# Shear Modulus (GPa) = 23.02410 34.50574 28.76492
#
# Velocity S-wave (km/s) = 3.02028 3.69744 3.37589
# Velocity P-wave (km/s) = 5.19471 6.74319 6.01895
#
# Compressibility (1/GPa) = 0.02673006
#
# Stress axis : x y z
#
# Youngs Moduli (GPa) = 30.46343 66.86392 65.72303
#
# Poissons Ratio (x) = 0.47108 0.28867
# Poissons Ratio (y) = 0.21463 0.44009
# Poissons Ratio (z) = 0.13380 0.44773
#
# Static dielectric constant tensor:
#      x y z
#    x 2.029130 0.000000 -0.021560 
#    y 0.000000 2.292420 0.000000 
#    z -0.021560 0.000000 2.291020 
# 
# From -- ./inp_files/385.got.cif
#   From: 2010.05.17/outbox.cif.g08.bks.cpg/sg9_1_cif.got.tgz:385.got - 2010.06.03 20:04:27.
