data_PCOD9138169
_publ_section_title
;
Structure prediction by ZEFSAII (Michael W. Deem and Ramdas Pophale) SiO2 
 PCOD9138169
Probable space group: C C
;
_chemical_formula_sum "Si O2"
_cell_formula_units_Z 28
_cell_length_a 10.704952
_cell_length_b 10.439519
_cell_length_c 14.686336
_cell_angle_alpha 90.000000
_cell_angle_beta 50.009516
_cell_angle_gamma 90.000000
_cell_volume 1257.457032
_symmetry_space_group_name_H-M "C C"
_symmetry_group_IT_number 9
_symmetry_cell_setting 'monoclinic'
loop_
_space_group_symop_operation_xyz
x,y,z
x,-y,1/2+z
1/2+x,1/2+y,z
1/2+x,1/2-y,1/2+z
loop_
_atom_site_type_symbol
_atom_site_label
_atom_site_fract_x
_atom_site_fract_y
_atom_site_fract_z
Si Si1 0.245990 0.188858 0.358250
Si Si2 0.067040 0.850658 0.420562
Si Si3 0.011691 0.969767 0.097268
Si Si4 0.560429 0.934327 0.947116
Si Si5 0.396665 0.462878 0.339337
Si Si6 0.642639 0.865764 0.260978
Si Si7 0.419224 0.054346 0.710060
O O1 0.130818 0.126200 0.488174
O O2 0.315915 0.322919 0.360652
O O3 0.154109 0.230055 0.307494
O O4 0.383962 0.086621 0.267707
O O5 0.016505 0.705062 0.430696
O O6 0.252870 0.868577 0.303849
O O7 0.967865 0.952011 0.405988
O O8 0.040412 0.893691 0.536610
O O9 0.030394 0.976161 0.197158
O O10 0.826018 0.922183 0.169381
O O11 0.751297 0.938005 0.888864
O O12 0.545011 0.040856 0.876427
O O13 0.461986 0.960182 0.084781
O O14 0.558242 0.875690 0.203402
#
# Coordination Sequence:
#
# PCOD9138169 Si02
#       7
#     4   4   4   4   4   4   4
#     4   9  21  41  65  92 122 165 218 254 318 383
#     4  11  24  41  63  93 131 165 210 262 318 387
#     4   9  21  42  62  91 123 163 212 257 323 375
#     4  10  24  42  63  96 124 165 217 258 322 380
#     4  10  23  40  69  90 127 169 208 268 318 375
#     4  10  23  40  66  91 127 164 210 267 317 377
#     4  11  24  40  62  95 126 165 211 260 320 383
#
# _framework density 22.267161999999999
#
# number of rings (size 3 to 8) (size 9 to 14) (size 15 to 20)
#    0.000    2.286    0.000    1.714   12.000    6.857 
#    0.000    0.000    0.000    0.000    0.000    0.000 
#    0.000    0.000    0.000    0.000    0.000    0.000 
#
# Total GULP energy -78232.915208 kJ/mol
# GULP energy per Si atom -5588.065372 kJ/mol
# Density = 2.221648 g / cm^3
# Si number density = 22.267162 Si / 1000 Ang^3
#
#
#
# Elastic Constant Matrix: (Units=GPa)
#
#
# Indices 1 2 3 4 5 6 
#
# 1 41.5324 -5.4298 0.9475 0.0000 12.2794 0.0000
# 2 -5.4298 53.4361 7.0536 0.0000 6.3303 0.0000
# 3 0.9475 7.0536 105.9230 0.0000 5.1838 0.0000
# 4 0.0000 0.0000 0.0000 6.0156 0.0000 1.2008
# 5 12.2794 6.3303 5.1838 0.0000 22.5734 0.0000
# 6 0.0000 0.0000 0.0000 1.2008 0.0000 24.7005
#
#
#
# Elastic Compliance Matrix: (Units=1/GPa)
#
#
# Indices 1 2 3 4 5 6 
#
# 1 0.030011 0.005126 0.000262 0.000000 -0.017823 0.000000
# 2 0.005126 0.020345 -0.000996 0.000000 -0.008265 0.000000
# 3 0.000262 -0.000996 0.009606 0.000000 -0.002069 0.000000
# 4 0.000000 0.000000 0.000000 0.167862 0.000000 -0.008161
# 5 -0.017823 -0.008265 -0.002069 0.000000 0.056789 0.000000
# 6 0.000000 0.000000 0.000000 -0.008161 0.000000 0.040882
#
#
# Mechanical properties :
#
#
# Convention : Reuss Voigt Hill
#
# Bulk Modulus (GPa) = 14.54587 22.89269 18.71928
# Shear Modulus (GPa) = 14.72206 23.87924 19.30065
#
# Velocity S-wave (km/s) = 2.57408 3.27830 2.94730
# Velocity P-wave (km/s) = 3.92188 4.96315 4.47292
#
# Compressibility (1/GPa) = 0.06874803
#
# Stress axis : x y z
#
# Youngs Moduli (GPa) = 33.32066 49.15100 104.10067
#
# Poissons Ratio (x) = -0.25196 -0.02732
# Poissons Ratio (y) = -0.17081 0.10370
# Poissons Ratio (z) = -0.00874 0.04896
#
# Static dielectric constant tensor:
#      x y z
#    x 1.879630 0.000000 0.019110 
#    y 0.000000 1.803090 0.000000 
#    z 0.019110 0.000000 1.783960 
# 
# From -- ./inp_files/20868.got.cif
#   From: 2010.05.17/outbox.cif.g08.bks.cpg/sg9_11_cif.got.tgz:20868.got - 2010.06.03 20:04:27.
