data_PCOD9138391
_publ_section_title
;
Structure prediction by ZEFSAII (Michael W. Deem and Ramdas Pophale) SiO2 
 PCOD9138391
Probable space group: C C
;
_chemical_formula_sum "Si O2"
_cell_formula_units_Z 28
_cell_length_a 14.202744
_cell_length_b 8.363697
_cell_length_c 12.102941
_cell_angle_alpha 90.000000
_cell_angle_beta 59.773630
_cell_angle_gamma 90.000000
_cell_volume 1242.215438
_symmetry_space_group_name_H-M "C C"
_symmetry_group_IT_number 9
_symmetry_cell_setting 'monoclinic'
loop_
_space_group_symop_operation_xyz
x,y,z
x,-y,1/2+z
1/2+x,1/2+y,z
1/2+x,1/2-y,1/2+z
loop_
_atom_site_type_symbol
_atom_site_label
_atom_site_fract_x
_atom_site_fract_y
_atom_site_fract_z
Si Si1 0.997580 0.166200 0.120560
Si Si2 0.582228 0.133498 0.767223
Si Si3 0.433087 0.867290 0.944370
Si Si4 0.307912 0.359457 0.042354
Si Si5 0.887921 0.092843 0.830186
Si Si6 0.245572 0.941225 0.452504
Si Si7 0.254632 0.807776 0.778081
O O1 0.012894 0.296817 0.208407
O O2 0.923946 0.024032 0.211799
O O3 0.954776 0.263885 0.040489
O O4 0.115638 0.080378 0.036020
O O5 0.693837 0.062200 0.649528
O O6 0.633657 0.284690 0.802172
O O7 0.516124 0.013659 0.881488
O O8 0.454422 0.750401 0.825833
O O9 0.311357 0.942143 0.998911
O O10 0.334494 0.246898 0.131524
O O11 0.383049 0.490964 0.945354
O O12 0.285712 0.235678 0.956484
O O13 0.773864 0.171636 0.859278
O O14 0.272923 0.020519 0.319071
#
# Coordination Sequence:
#
# PCOD9138391 Si02
#       7
#     4   4   4   4   4   4   4
#     4  11  25  45  67 101 139 180 229 290 344 422
#     4   9  23  43  64 102 130 176 231 277 353 411
#     4  11  25  43  69  99 140 182 228 287 355 415
#     4   9  21  40  68  92 136 171 223 284 336 413
#     4  11  23  42  65 103 132 181 230 270 354 417
#     4  10  23  43  66  99 132 181 228 280 351 416
#     4   9  22  42  65  94 133 169 223 286 335 406
#
# _framework density 22.540372000000001
#
# number of rings (size 3 to 8) (size 9 to 14) (size 15 to 20)
#    0.857    1.143    0.000    1.714    6.000    5.714 
#    2.571    0.000    0.000    0.000    0.000    0.000 
#    0.000    0.000    0.000    0.000    0.000    0.000 
#
# Total GULP energy -77960.774575 kJ/mol
# GULP energy per Si atom -5568.626755 kJ/mol
# Density = 2.248907 g / cm^3
# Si number density = 22.540372 Si / 1000 Ang^3
#
#
#
# Elastic Constant Matrix: (Units=GPa)
#
#
# Indices 1 2 3 4 5 6 
#
# 1 83.7805 22.9588 22.7340 0.0000 12.4632 0.0000
# 2 22.9588 67.2158 27.7167 0.0000 4.1675 0.0000
# 3 22.7340 27.7167 59.1604 0.0000 3.3463 0.0000
# 4 0.0000 0.0000 0.0000 42.6132 0.0000 16.0629
# 5 12.4632 4.1675 3.3463 0.0000 35.0558 0.0000
# 6 0.0000 0.0000 0.0000 16.0629 0.0000 35.6878
#
#
#
# Elastic Compliance Matrix: (Units=1/GPa)
#
#
# Indices 1 2 3 4 5 6 
#
# 1 0.014488 -0.003076 -0.003876 0.000000 -0.004415 0.000000
# 2 -0.003076 0.019159 -0.007769 0.000000 -0.000442 0.000000
# 3 -0.003876 -0.007769 0.022021 0.000000 0.000200 0.000000
# 4 0.000000 0.000000 0.000000 0.028262 0.000000 -0.012721
# 5 -0.004415 -0.000442 0.000200 0.000000 0.030129 0.000000
# 6 0.000000 0.000000 0.000000 -0.012721 0.000000 0.033746
#
#
# Mechanical properties :
#
#
# Convention : Reuss Voigt Hill
#
# Bulk Modulus (GPa) = 38.13164 39.66398 38.89781
# Shear Modulus (GPa) = 26.88317 31.78783 29.33550
#
# Velocity S-wave (km/s) = 3.45725 3.75942 3.61150
# Velocity P-wave (km/s) = 5.73503 6.03982 5.88939
#
# Compressibility (1/GPa) = 0.02622494
#
# Stress axis : x y z
#
# Youngs Moduli (GPa) = 69.02465 52.19416 45.41076
#
# Poissons Ratio (x) = 0.16057 0.17602
# Poissons Ratio (y) = 0.21235 0.35279
# Poissons Ratio (z) = 0.26756 0.40549
#
# Static dielectric constant tensor:
#      x y z
#    x 1.886680 0.000000 0.020770 
#    y 0.000000 1.808530 0.000000 
#    z 0.020770 0.000000 1.882410 
# 
# From -- ./inp_files/17687.got.cif
#   From: 2010.05.17/outbox.cif.g08.bks.cpg/sg9_9_cif.got.tgz:17687.got - 2010.06.03 20:04:27.
