data_PCOD9138332
_publ_section_title
;
Structure prediction by ZEFSAII (Michael W. Deem and Ramdas Pophale) SiO2 
 PCOD9138332
Probable space group: C C
;
_chemical_formula_sum "Si O2"
_cell_formula_units_Z 32
_cell_length_a 12.052709
_cell_length_b 21.042018
_cell_length_c 5.177164
_cell_angle_alpha 90.000000
_cell_angle_beta 85.654844
_cell_angle_gamma 90.000000
_cell_volume 1309.223841
_symmetry_space_group_name_H-M "C C"
_symmetry_group_IT_number 9
_symmetry_cell_setting 'monoclinic'
loop_
_space_group_symop_operation_xyz
x,y,z
x,-y,1/2+z
1/2+x,1/2+y,z
1/2+x,1/2-y,1/2+z
loop_
_atom_site_type_symbol
_atom_site_label
_atom_site_fract_x
_atom_site_fract_y
_atom_site_fract_z
Si Si1 0.008970 0.454039 0.281870
Si Si2 0.497237 0.310197 0.036304
Si Si3 0.093798 0.970732 0.422638
Si Si4 0.947881 0.319888 0.810242
Si Si5 0.903592 0.881466 0.558294
Si Si6 0.794261 0.618022 0.975901
Si Si7 0.160563 0.364746 0.590481
Si Si8 0.739445 0.279113 0.122010
O O1 0.018932 0.505619 0.516040
O O2 0.096323 0.399501 0.366885
O O3 0.889148 0.417770 0.289920
O O4 0.472988 0.235423 0.095208
O O5 0.446619 0.337775 0.784882
O O6 0.632112 0.315387 0.019428
O O7 0.437428 0.346598 0.284312
O O8 0.189997 0.926266 0.513257
O O9 0.976450 0.944346 0.534283
O O10 0.105907 0.030566 0.611865
O O11 0.863357 0.371941 0.720030
O O12 0.869077 0.287065 0.028270
O O13 0.066006 0.353533 0.826128
O O14 0.775348 0.900281 0.621422
O O15 0.746176 0.687119 0.900263
O O16 0.210110 0.293218 0.561201
#
# Coordination Sequence:
#
# PCOD9138332 Si02
#       8
#     4   4   4   4   4   4   4   4
#     4  11  27  50  74 105 148 206 261 312 367 450
#     4  11  24  43  69 104 149 189 238 293 385 455
#     4  12  27  45  72 105 140 193 253 308 370 441
#     4  10  23  42  70 111 147 192 240 303 381 466
#     4  12  24  48  67 101 144 197 240 304 369 449
#     4  11  24  42  74 110 150 192 245 321 384 445
#     4  10  25  46  73 109 148 204 248 317 378 466
#     4  11  22  44  73 113 148 193 241 322 390 462
#
# _framework density 24.441960999999999
#
# number of rings (size 3 to 8) (size 9 to 14) (size 15 to 20)
#    0.000    1.000    2.500    3.000    5.250    2.000 
#    4.500    0.000    0.000    0.000    0.000    0.000 
#    0.000    0.000    0.000    0.000    0.000    0.000 
#
# Total GULP energy -89194.200030 kJ/mol
# GULP energy per Si atom -5574.637502 kJ/mol
# Density = 2.438633 g / cm^3
# Si number density = 24.441961 Si / 1000 Ang^3
#
#
#
# Elastic Constant Matrix: (Units=GPa)
#
#
# Indices 1 2 3 4 5 6 
#
# 1 237.3827 5.6857 6.4960 0.0000 16.5069 0.0000
# 2 5.6857 84.4132 21.9666 0.0000 7.9323 0.0000
# 3 6.4960 21.9666 114.6342 0.0000 8.9531 0.0000
# 4 0.0000 0.0000 0.0000 21.1281 0.0000 -3.2006
# 5 16.5069 7.9323 8.9531 0.0000 18.2532 0.0000
# 6 0.0000 0.0000 0.0000 -3.2006 0.0000 40.5717
#
#
#
# Elastic Compliance Matrix: (Units=1/GPa)
#
#
# Indices 1 2 3 4 5 6 
#
# 1 0.004496 0.000071 0.000054 0.000000 -0.004123 0.000000
# 2 0.000071 0.012821 -0.002101 0.000000 -0.004605 0.000000
# 3 0.000054 -0.002101 0.009416 0.000000 -0.003754 0.000000
# 4 0.000000 0.000000 0.000000 0.047903 0.000000 0.003779
# 5 -0.004123 -0.004605 -0.003754 0.000000 0.062356 0.000000
# 6 0.000000 0.000000 0.000000 0.003779 0.000000 0.024946
#
#
# Mechanical properties :
#
#
# Convention : Reuss Voigt Hill
#
# Bulk Modulus (GPa) = 43.89845 56.08076 49.98960
# Shear Modulus (GPa) = 28.82085 42.80937 35.81511
#
# Velocity S-wave (km/s) = 3.43761 4.18960 3.83209
# Velocity P-wave (km/s) = 5.80995 6.81160 6.33061
#
# Compressibility (1/GPa) = 0.02277985
#
# Stress axis : x y z
#
# Youngs Moduli (GPa) = 222.41253 77.99548 106.20005
#
# Poissons Ratio (x) = -0.00551 -0.00570
# Poissons Ratio (y) = -0.01571 0.22315
# Poissons Ratio (z) = -0.01194 0.16388
#
# Static dielectric constant tensor:
#      x y z
#    x 1.946630 0.000000 -0.058290 
#    y 0.000000 2.091650 0.000000 
#    z -0.058290 0.000000 1.981320 
# 
# From -- ./inp_files/1865.got.cif
#   From: 2010.05.17/outbox.cif.g08.bks.cpg/sg9_1_cif.got.tgz:1865.got - 2010.06.03 20:04:27.
