data_PCOD9138735
_publ_section_title
;
Structure prediction by ZEFSAII (Michael W. Deem and Ramdas Pophale) SiO2 
 PCOD9138735
Probable space group: C C
;
_chemical_formula_sum "Si O2"
_cell_formula_units_Z 28
_cell_length_a 5.637542
_cell_length_b 19.442139
_cell_length_c 11.826656
_cell_angle_alpha 90.000000
_cell_angle_beta 55.276016
_cell_angle_gamma 90.000000
_cell_volume 1065.412468
_symmetry_space_group_name_H-M "C C"
_symmetry_group_IT_number 9
_symmetry_cell_setting 'monoclinic'
loop_
_space_group_symop_operation_xyz
x,y,z
x,-y,1/2+z
1/2+x,1/2+y,z
1/2+x,1/2-y,1/2+z
loop_
_atom_site_type_symbol
_atom_site_label
_atom_site_fract_x
_atom_site_fract_y
_atom_site_fract_z
Si Si1 0.280420 0.515657 0.316670
Si Si2 0.318598 0.127098 0.451000
Si Si3 0.640213 0.990777 0.611296
Si Si4 0.206997 0.126643 0.251444
Si Si5 0.443018 0.732466 0.939498
Si Si6 0.312529 0.871156 0.207825
Si Si7 0.253445 0.745821 0.595306
O O1 0.290569 0.488951 0.445469
O O2 0.295038 0.483497 0.186249
O O3 0.507363 0.576003 0.238523
O O4 0.971692 0.553871 0.406514
O O5 0.096045 0.125154 0.409976
O O6 0.531068 0.191986 0.364860
O O7 0.229295 0.144028 0.601020
O O8 0.381246 0.047819 0.685378
O O9 0.513963 0.913317 0.663121
O O10 0.177799 0.202552 0.216493
O O11 0.564763 0.664456 0.847637
O O12 0.588807 0.731264 0.024542
O O13 0.099794 0.740366 0.005675
O O14 0.599223 0.827287 0.160738
#
# Coordination Sequence:
#
# PCOD9138735 Si02
#       7
#     4   4   4   4   4   4   4
#     4  10  23  46  71 101 147 198 254 311 388 467
#     4   9  23  42  69 100 139 198 239 303 386 460
#     4  10  25  45  71 108 145 201 253 320 385 473
#     4  11  25  45  74  98 151 198 250 308 397 460
#     4  11  26  45  76 112 150 192 257 316 383 456
#     4  10  24  49  73 111 153 195 258 323 382 463
#     4  11  28  46  76 112 151 200 249 321 389 461
#
# _framework density 26.280904
#
# number of rings (size 3 to 8) (size 9 to 14) (size 15 to 20)
#    0.000    1.714    0.000    0.857   18.000    4.571 
#    2.571    0.000    0.000    0.000    0.000    0.000 
#    0.000    0.000    0.000    0.000    0.000    0.000 
#
# Total GULP energy -77971.638809 kJ/mol
# GULP energy per Si atom -5569.402772 kJ/mol
# Density = 2.622109 g / cm^3
# Si number density = 26.280904 Si / 1000 Ang^3
#
#
#
# Elastic Constant Matrix: (Units=GPa)
#
#
# Indices 1 2 3 4 5 6 
#
# 1 138.9416 19.3966 54.7249 0.0000 10.5803 0.0000
# 2 19.3966 88.3993 11.9824 0.0000 9.5289 0.0000
# 3 54.7249 11.9824 82.9821 0.0000 21.1238 0.0000
# 4 0.0000 0.0000 0.0000 38.2922 0.0000 6.4426
# 5 10.5803 9.5289 21.1238 0.0000 58.4526 0.0000
# 6 0.0000 0.0000 0.0000 6.4426 0.0000 44.6261
#
#
#
# Elastic Compliance Matrix: (Units=1/GPa)
#
#
# Indices 1 2 3 4 5 6 
#
# 1 0.009902 -0.001372 -0.006534 0.000000 0.000793 0.000000
# 2 -0.001372 0.011835 -0.000414 0.000000 -0.001531 0.000000
# 3 -0.006534 -0.000414 0.017732 0.000000 -0.005158 0.000000
# 4 0.000000 0.000000 0.000000 0.026765 0.000000 -0.003864
# 5 0.000793 -0.001531 -0.005158 0.000000 0.019078 0.000000
# 6 0.000000 0.000000 0.000000 -0.003864 0.000000 0.022966
#
#
# Mechanical properties :
#
#
# Convention : Reuss Voigt Hill
#
# Bulk Modulus (GPa) = 43.80455 53.61453 48.70954
# Shear Modulus (GPa) = 37.72779 43.22211 40.47495
#
# Velocity S-wave (km/s) = 3.79299 4.05979 3.92866
# Velocity P-wave (km/s) = 5.99052 6.51312 6.25728
#
# Compressibility (1/GPa) = 0.02282868
#
# Stress axis : x y z
#
# Youngs Moduli (GPa) = 100.99028 84.49783 56.39384
#
# Poissons Ratio (x) = 0.11597 0.36846
# Poissons Ratio (y) = 0.13861 0.02335
# Poissons Ratio (z) = 0.65984 0.03498
#
# Static dielectric constant tensor:
#      x y z
#    x 2.150180 0.000000 -0.078450 
#    y 0.000000 2.192280 0.000000 
#    z -0.078450 0.000000 2.146030 
# 
# From -- ./inp_files/13296.got.cif
#   From: 2010.05.17/outbox.cif.g08.bks.cpg/sg9_7_cif.got.tgz:13296.got - 2010.06.03 20:04:27.
