data_PCOD9138258
_publ_section_title
;
Structure prediction by ZEFSAII (Michael W. Deem and Ramdas Pophale) SiO2 
 PCOD9138258
Probable space group: C C
;
_chemical_formula_sum "Si O2"
_cell_formula_units_Z 28
_cell_length_a 24.759682
_cell_length_b 5.070923
_cell_length_c 12.385387
_cell_angle_alpha 90.000000
_cell_angle_beta 40.468900
_cell_angle_gamma 90.000000
_cell_volume 1009.275928
_symmetry_space_group_name_H-M "C C"
_symmetry_group_IT_number 9
_symmetry_cell_setting 'monoclinic'
loop_
_space_group_symop_operation_xyz
x,y,z
x,-y,1/2+z
1/2+x,1/2+y,z
1/2+x,1/2-y,1/2+z
loop_
_atom_site_type_symbol
_atom_site_label
_atom_site_fract_x
_atom_site_fract_y
_atom_site_fract_z
Si Si1 0.472780 0.886028 0.147110
Si Si2 0.420603 0.119500 0.489587
Si Si3 0.226862 0.105389 0.830588
Si Si4 0.282979 0.064673 0.980083
Si Si5 0.040976 0.738233 0.882222
Si Si6 0.697663 0.051141 0.180289
Si Si7 0.059069 0.064087 0.659255
O O1 0.449857 0.760600 0.062751
O O2 0.381696 0.928977 0.333366
O O3 0.523282 0.683237 0.143379
O O4 0.518533 0.161827 0.040511
O O5 0.321369 0.101598 0.635694
O O6 0.453731 0.822753 0.457404
O O7 0.480229 0.246965 0.308568
O O8 0.184993 0.316009 0.815311
O O9 0.252380 0.182875 0.912682
O O10 0.151765 0.893795 0.966731
O O11 0.242351 0.269215 0.125284
O O12 0.252199 0.764908 0.034136
O O13 0.110748 0.514074 0.756826
O O14 0.079287 0.968311 0.753183
#
# Coordination Sequence:
#
# PCOD9138258 Si02
#       7
#     4   4   4   4   4   4   4
#     4   9  23  43  60 104 130 183 234 285 359 421
#     4   9  23  44  60 101 136 174 243 289 338 445
#     4  11  23  44  70 103 140 192 239 291 370 423
#     4  11  26  45  72 101 146 182 240 296 356 421
#     4  10  23  42  61  98 137 167 243 279 344 429
#     4  12  25  46  69 107 140 184 242 296 346 444
#     4  12  21  44  70  90 143 188 223 304 363 413
#
# _framework density 27.742660000000001
#
# number of rings (size 3 to 8) (size 9 to 14) (size 15 to 20)
#    0.857    0.571    2.857    1.714    2.000    3.429 
#    5.143    0.000    0.000    0.000    0.000    0.000 
#    0.000    0.000    0.000    0.000    0.000    0.000 
#
# Total GULP energy -78043.077919 kJ/mol
# GULP energy per Si atom -5574.505566 kJ/mol
# Density = 2.767952 g / cm^3
# Si number density = 27.742660 Si / 1000 Ang^3
#
#
#
# Elastic Constant Matrix: (Units=GPa)
#
#
# Indices 1 2 3 4 5 6 
#
# 1 90.0277 17.1381 33.4078 0.0014 -8.7233 0.0034
# 2 17.1381 74.2845 41.7796 -0.0369 -6.5985 0.0013
# 3 33.4078 41.7796 262.5294 -0.0133 -15.9592 0.0035
# 4 0.0014 -0.0369 -0.0133 41.2555 -0.0045 -7.9827
# 5 -8.7233 -6.5985 -15.9592 -0.0045 55.3616 0.0016
# 6 0.0034 0.0013 0.0035 -7.9827 0.0016 36.3948
#
#
#
# Elastic Compliance Matrix: (Units=1/GPa)
#
#
# Indices 1 2 3 4 5 6 
#
# 1 0.012041 -0.002025 -0.001129 -0.000003 0.001330 -0.000002
# 2 -0.002025 0.015192 -0.002106 0.000014 0.000885 0.000003
# 3 -0.001129 -0.002106 0.004338 0.000000 0.000822 0.000000
# 4 -0.000003 0.000014 0.000000 0.025314 0.000003 0.005552
# 5 0.001330 0.000885 0.000822 0.000003 0.018615 0.000000
# 6 -0.000002 0.000003 0.000000 0.005552 0.000000 0.028694
#
#
# Mechanical properties :
#
#
# Convention : Reuss Voigt Hill
#
# Bulk Modulus (GPa) = 47.50432 67.94364 57.72398
# Shear Modulus (GPa) = 41.07415 48.90345 44.98880
#
# Velocity S-wave (km/s) = 3.85195 4.20307 4.03134
# Velocity P-wave (km/s) = 6.07814 6.93529 6.52081
#
# Compressibility (1/GPa) = 0.02105072
#
# Stress axis : x y z
#
# Youngs Moduli (GPa) = 83.04921 65.82375 230.52468
#
# Poissons Ratio (x) = 0.13327 0.26030
# Poissons Ratio (y) = 0.16815 0.48555
# Poissons Ratio (z) = 0.09378 0.13864
#
# Static dielectric constant tensor:
#      x y z
#    x 2.213460 0.000000 0.139790 
#    y 0.000000 2.198840 0.000010 
#    z 0.139790 0.000010 2.165130 
# 
# From -- ./inp_files/28194.got.cif
#   From: 2010.05.17/outbox.cif.g08.bks.cpg/sg9_15_cif.got.tgz:28194.got - 2010.06.03 20:04:27.
