data_PCOD9138743
_publ_section_title
;
Structure prediction by ZEFSAII (Michael W. Deem and Ramdas Pophale) SiO2 
 PCOD9138743
Probable space group: C C
;
_chemical_formula_sum "Si O2"
_cell_formula_units_Z 32
_cell_length_a 13.852788
_cell_length_b 23.408035
_cell_length_c 8.839677
_cell_angle_alpha 90.000000
_cell_angle_beta 151.536891
_cell_angle_gamma 90.000000
_cell_volume 1366.111149
_symmetry_space_group_name_H-M "C C"
_symmetry_group_IT_number 9
_symmetry_cell_setting 'monoclinic'
loop_
_space_group_symop_operation_xyz
x,y,z
x,-y,1/2+z
1/2+x,1/2+y,z
1/2+x,1/2-y,1/2+z
loop_
_atom_site_type_symbol
_atom_site_label
_atom_site_fract_x
_atom_site_fract_y
_atom_site_fract_z
Si Si1 0.921740 0.904742 0.229620
Si Si2 0.021922 0.529174 0.173946
Si Si3 0.547002 0.678795 0.114781
Si Si4 0.394519 0.076358 0.326709
Si Si5 0.747851 0.293773 0.302451
Si Si6 0.414036 0.874127 0.306740
Si Si7 0.866252 0.705240 0.309673
Si Si8 0.316163 0.330974 0.790226
O O1 0.893255 0.869555 0.346526
O O2 0.152683 0.924617 0.527133
O O3 0.758530 0.954862 0.999717
O O4 0.873880 0.863135 0.024097
O O5 0.934444 0.551040 0.213753
O O6 0.989672 0.463847 0.085716
O O7 0.919918 0.564501 0.893740
O O8 0.712525 0.648276 0.447272
O O9 0.663120 0.693640 0.120456
O O10 0.460615 0.741287 0.031495
O O11 0.465752 0.142512 0.435177
O O12 0.919271 0.332361 0.460897
O O13 0.806121 0.280226 0.555275
O O14 0.748304 0.234146 0.217750
O O15 0.529471 0.325654 0.995643
O O16 0.606792 0.863293 0.464479
#
# Coordination Sequence:
#
# PCOD9138743 Si02
#       8
#     4   4   4   4   4   4   4   4
#     4  10  23  46  71  99 138 183 231 285 353 418
#     4  11  26  47  77  98 136 193 238 289 355 409
#     4  11  25  41  68 107 143 179 228 295 352 422
#     4  11  25  47  74 104 136 184 244 293 338 417
#     4  12  19  39  66  98 132 190 224 270 348 429
#     4  11  26  42  65 101 141 181 232 294 348 405
#     4  11  23  42  69 102 142 185 229 281 355 417
#     4  11  21  36  68  97 134 181 228 271 347 429
#
# _framework density 23.424157000000001
#
# number of rings (size 3 to 8) (size 9 to 14) (size 15 to 20)
#    0.000    1.000    6.250    0.000    7.000    1.000 
#    0.000    0.000    0.000    0.000    0.000    0.000 
#    0.000    0.000    0.000    0.000    0.000    0.000 
#
# Total GULP energy -89334.985210 kJ/mol
# GULP energy per Si atom -5583.436576 kJ/mol
# Density = 2.337084 g / cm^3
# Si number density = 23.424157 Si / 1000 Ang^3
#
#
#
# Elastic Constant Matrix: (Units=GPa)
#
#
# Indices 1 2 3 4 5 6 
#
# 1 72.6530 8.6608 32.7909 0.0000 22.9878 0.0000
# 2 8.6608 66.7334 34.8265 0.0000 10.0206 0.0000
# 3 32.7909 34.8265 108.2184 0.0000 4.3802 0.0000
# 4 0.0000 0.0000 0.0000 31.5662 0.0000 2.2362
# 5 22.9878 10.0206 4.3802 0.0000 37.1206 0.0000
# 6 0.0000 0.0000 0.0000 2.2362 0.0000 23.5074
#
#
#
# Elastic Compliance Matrix: (Units=1/GPa)
#
#
# Indices 1 2 3 4 5 6 
#
# 1 0.020360 0.002640 -0.006511 0.000000 -0.012553 0.000000
# 2 0.002640 0.019028 -0.006681 0.000000 -0.005983 0.000000
# 3 -0.006511 -0.006681 0.013190 0.000000 0.004279 0.000000
# 4 0.000000 0.000000 0.000000 0.031894 0.000000 -0.003034
# 5 -0.012553 -0.005983 0.004279 0.000000 0.035823 0.000000
# 6 0.000000 0.000000 0.000000 -0.003034 0.000000 0.042828
#
#
# Mechanical properties :
#
#
# Convention : Reuss Voigt Hill
#
# Bulk Modulus (GPa) = 31.77214 44.46237 38.11726
# Shear Modulus (GPa) = 25.67822 29.86063 27.76943
#
# Velocity S-wave (km/s) = 3.31453 3.57428 3.44685
# Velocity P-wave (km/s) = 5.31426 6.00471 5.67001
#
# Compressibility (1/GPa) = 0.03147412
#
# Stress axis : x y z
#
# Youngs Moduli (GPa) = 49.11707 52.55544 75.81329
#
# Poissons Ratio (x) = -0.13876 0.49360
# Poissons Ratio (y) = -0.12969 0.50653
# Poissons Ratio (z) = 0.31979 0.35114
#
# Static dielectric constant tensor:
#      x y z
#    x 1.891580 0.000000 -0.022710 
#    y 0.000000 1.992570 0.000000 
#    z -0.022710 0.000000 1.952640 
# 
# From -- ./inp_files/10164.got.cif
#   From: 2010.05.17/outbox.cif.g08.bks.cpg/sg9_6_cif.got.tgz:10164.got - 2010.06.03 20:04:27.
