data_PCOD9138762
_publ_section_title
;
Structure prediction by ZEFSAII (Michael W. Deem and Ramdas Pophale) SiO2 
 PCOD9138762
Probable space group: C C
;
_chemical_formula_sum "Si O2"
_cell_formula_units_Z 32
_cell_length_a 14.291544
_cell_length_b 9.385103
_cell_length_c 10.608230
_cell_angle_alpha 90.000000
_cell_angle_beta 61.903557
_cell_angle_gamma 90.000000
_cell_volume 1255.181604
_symmetry_space_group_name_H-M "C C"
_symmetry_group_IT_number 9
_symmetry_cell_setting 'monoclinic'
loop_
_space_group_symop_operation_xyz
x,y,z
x,-y,1/2+z
1/2+x,1/2+y,z
1/2+x,1/2-y,1/2+z
loop_
_atom_site_type_symbol
_atom_site_label
_atom_site_fract_x
_atom_site_fract_y
_atom_site_fract_z
Si Si1 0.344660 0.105335 0.332690
Si Si2 0.620241 0.622328 0.385394
Si Si3 0.178616 0.426171 0.938079
Si Si4 0.979561 0.839617 0.183500
Si Si5 0.365328 0.892610 0.099760
Si Si6 0.924755 0.160856 0.244513
Si Si7 0.122471 0.173992 0.808001
Si Si8 0.098363 0.366913 0.258145
O O1 0.218588 0.084021 0.412285
O O2 0.367795 0.269917 0.286285
O O3 0.391071 0.068810 0.440253
O O4 0.389244 0.011879 0.189254
O O5 0.528941 0.701972 0.519169
O O6 0.571077 0.476031 0.372768
O O7 0.664447 0.721561 0.246953
O O8 0.305749 0.392255 0.859950
O O9 0.132731 0.276093 0.918604
O O10 0.132125 0.534889 0.859397
O O11 0.137482 0.446267 0.106759
O O12 0.055916 0.765729 0.236285
O O13 0.982649 0.009937 0.190083
O O14 0.410851 0.743860 0.121030
O O15 0.239482 0.866156 0.186852
O O16 0.987421 0.279218 0.290731
#
# Coordination Sequence:
#
# PCOD9138762 Si02
#       8
#     4   4   4   4   4   4   4   4
#     4  11  26  46  78 107 151 201 252 320 387 467
#     4  11  25  47  73 110 147 198 257 313 385 465
#     4  11  29  51  77 116 160 200 264 327 392 480
#     4  12  25  45  74 111 142 199 255 312 387 464
#     4  10  25  47  72 109 152 195 251 317 387 465
#     4  11  27  48  77 115 155 200 262 325 395 475
#     4  10  23  46  74 101 152 190 250 315 377 457
#     4  12  28  50  81 111 161 211 255 329 402 467
#
# _framework density 25.494319999999998
#
# number of rings (size 3 to 8) (size 9 to 14) (size 15 to 20)
#    0.000    1.000    2.500    1.500    7.000    8.000 
#    0.000    1.250    0.000    0.000    0.000    0.000 
#    0.000    0.000    0.000    0.000    0.000    0.000 
#
# Total GULP energy -89281.377568 kJ/mol
# GULP energy per Si atom -5580.086098 kJ/mol
# Density = 2.543629 g / cm^3
# Si number density = 25.494320 Si / 1000 Ang^3
#
#
#
# Elastic Constant Matrix: (Units=GPa)
#
#
# Indices 1 2 3 4 5 6 
#
# 1 115.2273 21.2893 56.6294 0.0000 11.2953 0.0000
# 2 21.2893 119.1162 70.3717 0.0000 17.3149 0.0000
# 3 56.6294 70.3717 156.9382 0.0000 32.8478 0.0000
# 4 0.0000 0.0000 0.0000 33.4749 0.0000 3.1369
# 5 11.2953 17.3149 32.8478 0.0000 47.7199 0.0000
# 6 0.0000 0.0000 0.0000 3.1369 0.0000 42.4364
#
#
#
# Elastic Compliance Matrix: (Units=1/GPa)
#
#
# Indices 1 2 3 4 5 6 
#
# 1 0.010571 0.000492 -0.004059 0.000000 0.000113 0.000000
# 2 0.000492 0.011465 -0.005168 0.000000 -0.000719 0.000000
# 3 -0.004059 -0.005168 0.011170 0.000000 -0.004853 0.000000
# 4 0.000000 0.000000 0.000000 0.030082 0.000000 -0.002224
# 5 0.000113 -0.000719 -0.004853 0.000000 0.024530 0.000000
# 6 0.000000 0.000000 0.000000 -0.002224 0.000000 0.023729
#
#
# Mechanical properties :
#
#
# Convention : Reuss Voigt Hill
#
# Bulk Modulus (GPa) = 63.54761 76.42914 69.98837
# Shear Modulus (GPa) = 37.24089 40.92566 39.08327
#
# Velocity S-wave (km/s) = 3.82613 4.01095 3.91963
# Velocity P-wave (km/s) = 6.67078 7.17595 6.92797
#
# Compressibility (1/GPa) = 0.01573623
#
# Stress axis : x y z
#
# Youngs Moduli (GPa) = 94.59627 87.22293 89.52948
#
# Poissons Ratio (x) = -0.04292 0.36339
# Poissons Ratio (y) = -0.04655 0.46268
# Poissons Ratio (z) = 0.38395 0.45076
#
# Static dielectric constant tensor:
#      x y z
#    x 2.042220 0.000000 -0.015810 
#    y 0.000000 1.979890 0.000000 
#    z -0.015810 0.000000 2.096900 
# 
# From -- ./inp_files/9068.got.cif
#   From: 2010.05.17/outbox.cif.g08.bks.cpg/sg9_5_cif.got.tgz:9068.got - 2010.06.03 20:04:27.
