data_PCOD9138392
_publ_section_title
;
Structure prediction by ZEFSAII (Michael W. Deem and Ramdas Pophale) SiO2 
 PCOD9138392
Probable space group: C C
;
_chemical_formula_sum "Si O2"
_cell_formula_units_Z 24
_cell_length_a 15.093107
_cell_length_b 13.479860
_cell_length_c 5.314979
_cell_angle_alpha 90.000000
_cell_angle_beta 65.384246
_cell_angle_gamma 90.000000
_cell_volume 983.077075
_symmetry_space_group_name_H-M "C C"
_symmetry_group_IT_number 9
_symmetry_cell_setting 'monoclinic'
loop_
_space_group_symop_operation_xyz
x,y,z
x,-y,1/2+z
1/2+x,1/2+y,z
1/2+x,1/2-y,1/2+z
loop_
_atom_site_type_symbol
_atom_site_label
_atom_site_fract_x
_atom_site_fract_y
_atom_site_fract_z
Si Si1 0.381590 0.959983 0.125000
Si Si2 0.460988 0.242044 0.357012
Si Si3 0.590722 0.755458 0.203736
Si Si4 0.654902 0.458652 0.493878
Si Si5 0.890628 0.957753 0.528705
Si Si6 0.170724 0.539752 0.757499
O O1 0.268530 0.981410 0.311162
O O2 0.422801 0.965958 0.361332
O O3 0.394220 0.853613 0.980641
O O4 0.537184 0.235851 0.498480
O O5 0.399207 0.342899 0.454825
O O6 0.514863 0.243906 0.025312
O O7 0.662156 0.848032 0.172155
O O8 0.644144 0.649993 0.124930
O O9 0.615453 0.533133 0.755249
O O10 0.934499 0.021657 0.249805
O O11 0.779804 0.998658 0.675377
O O12 0.125761 0.472735 0.588164
#
# Coordination Sequence:
#
# PCOD9138392 Si02
#       6
#     4   4   4   4   4   4
#     4  10  23  44  68  94 129 180 228 275 332 415
#     4  12  26  42  68 104 139 179 225 294 352 404
#     4  12  26  42  68 104 139 179 225 294 352 404
#     4  10  23  44  68  94 129 180 228 275 332 415
#     4  10  23  43  66  99 132 183 230 280 341 420
#     4  10  23  43  66  99 132 183 230 280 341 420
#
# _framework density 24.413143999999999
#
# number of rings (size 3 to 8) (size 9 to 14) (size 15 to 20)
#    0.000    1.333    0.000    4.000    4.667    8.000 
#   12.000    0.000    0.000    0.000    0.000    0.000 
#    0.000    0.000    0.000    0.000    0.000    0.000 
#
# Total GULP energy -67101.726337 kJ/mol
# GULP energy per Si atom -5591.810528 kJ/mol
# Density = 2.435758 g / cm^3
# Si number density = 24.413144 Si / 1000 Ang^3
#
#
#
# Elastic Constant Matrix: (Units=GPa)
#
#
# Indices 1 2 3 4 5 6 
#
# 1 71.3583 0.4332 33.2385 0.0000 -4.0642 0.0000
# 2 0.4332 122.5565 18.7862 0.0000 -1.7762 0.0000
# 3 33.2385 18.7862 181.6515 0.0000 26.2553 0.0000
# 4 0.0000 0.0000 0.0000 48.1073 0.0000 -1.2338
# 5 -4.0642 -1.7762 26.2553 0.0000 42.0863 0.0000
# 6 0.0000 0.0000 0.0000 -1.2338 0.0000 37.7551
#
#
#
# Elastic Compliance Matrix: (Units=1/GPa)
#
#
# Indices 1 2 3 4 5 6 
#
# 1 0.015851 0.000534 -0.003495 0.000000 0.003734 0.000000
# 2 0.000534 0.008345 -0.001120 0.000000 0.001103 0.000000
# 3 -0.003495 -0.001120 0.006942 0.000000 -0.004716 0.000000
# 4 0.000000 0.000000 0.000000 0.020804 0.000000 0.000680
# 5 0.003734 0.001103 -0.004716 0.000000 0.027110 0.000000
# 6 0.000000 0.000000 0.000000 0.000680 0.000000 0.026509
#
#
# Mechanical properties :
#
#
# Convention : Reuss Voigt Hill
#
# Bulk Modulus (GPa) = 43.52465 53.38690 48.45577
# Shear Modulus (GPa) = 41.19197 47.13032 44.16114
#
# Velocity S-wave (km/s) = 4.11212 4.39855 4.25774
# Velocity P-wave (km/s) = 6.35713 6.90738 6.63796
#
# Compressibility (1/GPa) = 0.02297549
#
# Stress axis : x y z
#
# Youngs Moduli (GPa) = 63.08615 119.82808 144.04982
#
# Poissons Ratio (x) = -0.06397 0.50351
# Poissons Ratio (y) = -0.03368 0.16135
# Poissons Ratio (z) = 0.22051 0.13422
#
# Static dielectric constant tensor:
#      x y z
#    x 2.626390 0.000000 -0.201410 
#    y 0.000000 1.907750 0.000000 
#    z -0.201410 0.000000 2.080890 
# 
# From -- ./inp_files/2311.got.cif
#   From: 2010.05.17/outbox.cif.g08.bks.cpg/sg9_2_cif.got.tgz:2311.got - 2010.06.03 20:04:27.
