data_PCOD9138959
_publ_section_title
;
Structure prediction by ZEFSAII (Michael W. Deem and Ramdas Pophale) SiO2 
 PCOD9138959
Probable space group: C C
;
_chemical_formula_sum "Si O2"
_cell_formula_units_Z 28
_cell_length_a 23.612043
_cell_length_b 6.274500
_cell_length_c 21.395023
_cell_angle_alpha 90.000000
_cell_angle_beta 21.119285
_cell_angle_gamma 90.000000
_cell_volume 1142.096329
_symmetry_space_group_name_H-M "C C"
_symmetry_group_IT_number 9
_symmetry_cell_setting 'monoclinic'
loop_
_space_group_symop_operation_xyz
x,y,z
x,-y,1/2+z
1/2+x,1/2+y,z
1/2+x,1/2-y,1/2+z
loop_
_atom_site_type_symbol
_atom_site_label
_atom_site_fract_x
_atom_site_fract_y
_atom_site_fract_z
Si Si1 0.073330 0.427325 0.036140
Si Si2 0.085070 0.927346 0.694657
Si Si3 0.329191 0.358160 0.865409
Si Si4 0.543723 0.071165 0.839319
Si Si5 0.909843 0.282228 0.609506
Si Si6 0.114670 0.928850 0.391493
Si Si7 0.248535 0.217759 0.621323
O O1 0.945686 0.293906 0.206721
O O2 0.988718 0.622621 0.090053
O O3 0.217812 0.485860 0.932508
O O4 0.128185 0.265547 0.925092
O O5 0.212714 0.793964 0.524067
O O6 0.940553 0.985845 0.798338
O O7 0.030255 0.765548 0.805664
O O8 0.169661 0.122653 0.640768
O O9 0.717358 0.969520 0.655881
O O10 0.419762 0.885673 0.949279
O O11 0.499968 0.136824 0.954362
O O12 0.738613 0.385640 0.781551
O O13 0.941031 0.030471 0.574948
O O14 0.158401 0.863208 0.276471
#
# Coordination Sequence:
#
# PCOD9138959 Si02
#       7
#     4   4   4   4   4   4   4
#     4  11  22  46  64  96 130 173 216 260 314 389
#     4  11  22  46  64  96 130 173 216 260 314 389
#     4  10  24  42  70  82 134 186 212 252 310 380
#     4  11  24  40  66 101 131 164 210 269 330 381
#     4  11  24  40  66 101 131 164 210 269 330 381
#     4  11  24  40  66 101 131 164 210 269 330 381
#     4  11  24  40  66 101 131 164 210 269 330 381
#
# _framework density 24.51632
#
# number of rings (size 3 to 8) (size 9 to 14) (size 15 to 20)
#    0.000    1.143    5.714    0.000    4.000    1.143 
#    0.000    8.571    0.000    0.000    0.000    0.000 
#    0.000    0.000    0.000    0.000    0.000    0.000 
#
# Total GULP energy -78436.383339 kJ/mol
# GULP energy per Si atom -5602.598810 kJ/mol
# Density = 2.446052 g / cm^3
# Si number density = 24.516320 Si / 1000 Ang^3
#
#
#
# Elastic Constant Matrix: (Units=GPa)
#
#
# Indices 1 2 3 4 5 6 
#
# 1 139.6513 -4.6482 30.3143 0.0025 -19.0302 -0.0003
# 2 -4.6482 21.0629 15.0122 0.0052 -8.0111 0.0001
# 3 30.3143 15.0122 92.5682 0.0053 3.3247 0.0020
# 4 0.0025 0.0052 0.0053 37.1490 -0.0012 -12.9827
# 5 -19.0302 -8.0111 3.3247 -0.0012 37.8266 -0.0002
# 6 -0.0003 0.0001 0.0020 -12.9827 -0.0002 5.5859
#
#
#
# Elastic Compliance Matrix: (Units=1/GPa)
#
#
# Indices 1 2 3 4 5 6 
#
# 1 0.009343 0.007908 -0.004586 0.000000 0.006778 0.000001
# 2 0.007908 0.066612 -0.014087 -0.000029 0.019324 -0.000062
# 3 -0.004586 -0.014087 0.014826 -0.000011 -0.006593 -0.000030
# 4 0.000000 -0.000029 -0.000011 0.143377 0.000000 0.333237
# 5 0.006778 0.019324 -0.006593 0.000000 0.034519 0.000004
# 6 0.000001 -0.000062 -0.000030 0.333237 0.000004 0.953533
#
#
# Mechanical properties :
#
#
# Convention : Reuss Voigt Hill
#
# Bulk Modulus (GPa) = 14.43988 37.18211 25.81099
# Shear Modulus (GPa) = 3.94689 30.28590 17.11639
#
# Velocity S-wave (km/s) = 1.27020 3.51855 2.64514
# Velocity P-wave (km/s) = 2.83794 5.63082 4.45870
#
# Compressibility (1/GPa) = 0.06925268
#
# Stress axis : x y z
#
# Youngs Moduli (GPa) = 107.03232 15.01236 67.44992
#
# Poissons Ratio (x) = -0.11872 0.30930
# Poissons Ratio (y) = -0.84643 0.95013
# Poissons Ratio (z) = 0.49081 0.21147
#
# Static dielectric constant tensor:
#      x y z
#    x 1.915490 0.000000 -0.022290 
#    y 0.000000 1.893570 0.000000 
#    z -0.022290 0.000000 1.953790 
# 
# From -- ./inp_files/11981.got.cif
#   From: 2010.05.17/outbox.cif.g08.bks.cpg/sg9_6_cif.got.tgz:11981.got - 2010.06.03 20:04:27.
