data_PCOD9138489
_publ_section_title
;
Structure prediction by ZEFSAII (Michael W. Deem and Ramdas Pophale) SiO2 
 PCOD9138489
Probable space group: C C
;
_chemical_formula_sum "Si O2"
_cell_formula_units_Z 32
_cell_length_a 17.123014
_cell_length_b 11.767827
_cell_length_c 12.408487
_cell_angle_alpha 90.000000
_cell_angle_beta 142.971200
_cell_angle_gamma 90.000000
_cell_volume 1505.732709
_symmetry_space_group_name_H-M "C C"
_symmetry_group_IT_number 9
_symmetry_cell_setting 'monoclinic'
loop_
_space_group_symop_operation_xyz
x,y,z
x,-y,1/2+z
1/2+x,1/2+y,z
1/2+x,1/2-y,1/2+z
loop_
_atom_site_type_symbol
_atom_site_label
_atom_site_fract_x
_atom_site_fract_y
_atom_site_fract_z
Si Si1 0.231730 0.251253 0.614550
Si Si2 0.733385 0.619791 0.007030
Si Si3 0.998631 0.346122 0.497821
Si Si4 0.526165 0.345197 0.469662
Si Si5 0.104324 0.903638 0.796157
Si Si6 0.999722 0.587906 0.394799
Si Si7 0.171723 0.638888 0.386061
Si Si8 0.357595 0.472702 0.656452
O O1 0.101741 0.271444 0.541903
O O2 0.352363 0.193909 0.811234
O O3 0.197199 0.176955 0.470367
O O4 0.278547 0.375740 0.630064
O O5 0.644344 0.637898 0.015168
O O6 0.869225 0.565062 0.185272
O O7 0.659613 0.531119 0.851466
O O8 0.748828 0.743580 0.974209
O O9 0.049170 0.339252 0.675311
O O10 0.015963 0.479319 0.487635
O O11 0.574917 0.367204 0.643242
O O12 0.479783 0.214322 0.419578
O O13 0.418305 0.432998 0.305042
O O14 0.974012 0.912299 0.722326
O O15 0.118239 0.603098 0.443744
O O16 0.270734 0.537855 0.471282
#
# Coordination Sequence:
#
# PCOD9138489 Si02
#       8
#     4   4   4   4   4   4   4   4
#     4  12  26  47  63 107 141 179 231 284 338 418
#     4  10  23  44  65  98 136 171 232 279 330 412
#     4  12  28  44  74  98 145 184 228 286 346 407
#     4  10  25  42  70  99 133 184 222 284 345 404
#     4  11  25  43  71  98 140 186 220 282 348 403
#     4  11  23  46  65 101 133 171 233 284 327 413
#     4  11  26  43  71 100 134 184 226 285 344 407
#     4  11  24  45  67 101 140 173 234 282 338 414
#
# _framework density 21.252112
#
# number of rings (size 3 to 8) (size 9 to 14) (size 15 to 20)
#    0.000    1.000    5.000    0.000    7.000    2.000 
#    0.000    0.000    0.000    0.000    0.000    0.000 
#    0.000    0.000    0.000    0.000    0.000    0.000 
#
# Total GULP energy -89377.358588 kJ/mol
# GULP energy per Si atom -5586.084912 kJ/mol
# Density = 2.120374 g / cm^3
# Si number density = 21.252112 Si / 1000 Ang^3
#
#
#
# Elastic Constant Matrix: (Units=GPa)
#
#
# Indices 1 2 3 4 5 6 
#
# 1 19.4418 18.4099 14.0859 0.0000 11.3131 0.0000
# 2 18.4099 98.7143 21.9392 0.0000 -8.0676 0.0000
# 3 14.0859 21.9392 103.7690 0.0000 -1.9198 0.0000
# 4 0.0000 0.0000 0.0000 32.9274 0.0000 14.7383
# 5 11.3131 -8.0676 -1.9198 0.0000 33.1468 0.0000
# 6 0.0000 0.0000 0.0000 14.7383 0.0000 13.4770
#
#
#
# Elastic Compliance Matrix: (Units=1/GPa)
#
#
# Indices 1 2 3 4 5 6 
#
# 1 0.100694 -0.019756 -0.010227 0.000000 -0.039768 0.000000
# 2 -0.019756 0.014710 -0.000238 0.000000 0.010309 0.000000
# 3 -0.010227 -0.000238 0.011151 0.000000 0.004079 0.000000
# 4 0.000000 0.000000 0.000000 0.059489 0.000000 -0.065056
# 5 -0.039768 0.010309 0.004079 0.000000 0.046487 0.000000
# 6 0.000000 0.000000 0.000000 -0.065056 0.000000 0.145345
#
#
# Mechanical properties :
#
#
# Convention : Reuss Voigt Hill
#
# Bulk Modulus (GPa) = 15.12573 36.75499 25.94036
# Shear Modulus (GPa) = 10.86121 27.07626 18.96873
#
# Velocity S-wave (km/s) = 2.26313 3.57326 2.99081
# Velocity P-wave (km/s) = 3.73654 5.86144 4.91519
#
# Compressibility (1/GPa) = 0.06611253
#
# Stress axis : x y z
#
# Youngs Moduli (GPa) = 9.93113 67.98077 89.68008
#
# Poissons Ratio (x) = 1.34303 0.91718
# Poissons Ratio (y) = 0.19620 0.02131
# Poissons Ratio (z) = 0.10157 0.01615
#
# Static dielectric constant tensor:
#      x y z
#    x 1.781220 0.000000 0.011960 
#    y 0.000000 1.764300 0.000000 
#    z 0.011960 0.000000 1.753850 
# 
# From -- ./inp_files/18268.got.cif
#   From: 2010.05.17/outbox.cif.g08.bks.cpg/sg9_10_cif.got.tgz:18268.got - 2010.06.03 20:04:27.
