data_PCOD9138837
_publ_section_title
;
Structure prediction by ZEFSAII (Michael W. Deem and Ramdas Pophale) SiO2 
 PCOD9138837
Probable space group: C C
;
_chemical_formula_sum "Si O2"
_cell_formula_units_Z 32
_cell_length_a 15.632676
_cell_length_b 15.886475
_cell_length_c 10.033731
_cell_angle_alpha 90.000000
_cell_angle_beta 34.060530
_cell_angle_gamma 90.000000
_cell_volume 1395.611097
_symmetry_space_group_name_H-M "C C"
_symmetry_group_IT_number 9
_symmetry_cell_setting 'monoclinic'
loop_
_space_group_symop_operation_xyz
x,y,z
x,-y,1/2+z
1/2+x,1/2+y,z
1/2+x,1/2-y,1/2+z
loop_
_atom_site_type_symbol
_atom_site_label
_atom_site_fract_x
_atom_site_fract_y
_atom_site_fract_z
Si Si1 0.525850 0.804970 0.934830
Si Si2 0.162051 0.423510 0.963222
Si Si3 0.378305 0.341716 0.891677
Si Si4 0.193802 0.075601 0.295494
Si Si5 0.922320 0.457255 0.912999
Si Si6 0.134049 0.134190 0.646550
Si Si7 0.918994 0.010905 0.521772
Si Si8 0.719329 0.685196 0.000584
O O1 0.621516 0.839261 0.936876
O O2 0.529112 0.882644 0.827418
O O3 0.579763 0.718753 0.794184
O O4 0.352798 0.808255 0.217786
O O5 0.299275 0.402374 0.887066
O O6 0.244924 0.484984 0.756319
O O7 0.022617 0.472996 0.207717
O O8 0.400268 0.394301 0.995282
O O9 0.554705 0.315906 0.641033
O O10 0.261959 0.264401 0.039526
O O11 0.172376 0.143227 0.439869
O O12 0.222174 0.110340 0.107740
O O13 0.037902 0.022162 0.489407
O O14 0.332354 0.010758 0.142886
O O15 0.786024 0.408826 0.011850
O O16 0.002857 0.062936 0.830879
#
# Coordination Sequence:
#
# PCOD9138837 Si02
#       8
#     4   4   4   4   4   4   4   4
#     4  12  27  44  74 115 155 196 262 316 384 447
#     4  12  24  47  75 111 147 203 257 312 380 467
#     4  11  25  43  72 107 148 196 256 313 378 454
#     4  10  23  48  73 107 153 203 252 313 389 455
#     4  11  26  46  77 110 156 205 260 313 384 468
#     4  11  26  46  73 115 156 200 253 329 384 449
#     4  10  24  43  75 103 150 204 255 310 384 462
#     4  11  25  45  73 112 147 205 257 312 377 464
#
# _framework density 22.929023000000001
#
# number of rings (size 3 to 8) (size 9 to 14) (size 15 to 20)
#    0.000    1.000    1.250    3.750   12.250    1.000 
#    4.500    0.000    0.000    0.000    0.000    0.000 
#    0.000    0.000    0.000    0.000    0.000    0.000 
#
# Total GULP energy -89194.640523 kJ/mol
# GULP energy per Si atom -5574.665033 kJ/mol
# Density = 2.287684 g / cm^3
# Si number density = 22.929023 Si / 1000 Ang^3
#
#
#
# Elastic Constant Matrix: (Units=GPa)
#
#
# Indices 1 2 3 4 5 6 
#
# 1 68.3042 25.5396 59.4365 0.0001 -9.4453 -0.0001
# 2 25.5396 114.9357 55.8138 0.0000 1.4192 0.0000
# 3 59.4365 55.8138 121.5689 -0.0001 -15.5683 -0.0001
# 4 0.0001 0.0000 -0.0001 45.4884 0.0000 -5.4637
# 5 -9.4453 1.4192 -15.5683 0.0000 36.1584 0.0001
# 6 -0.0001 0.0000 -0.0001 -5.4637 0.0001 32.9541
#
#
#
# Elastic Compliance Matrix: (Units=1/GPa)
#
#
# Indices 1 2 3 4 5 6 
#
# 1 0.025557 0.000378 -0.012505 0.000000 0.001277 0.000000
# 2 0.000378 0.011478 -0.005821 0.000000 -0.002858 0.000000
# 3 -0.012505 -0.005821 0.017593 0.000000 0.004537 0.000000
# 4 0.000000 0.000000 0.000000 0.022430 0.000000 0.003719
# 5 0.001277 -0.002858 0.004537 0.000000 0.030055 0.000000
# 6 0.000000 0.000000 0.000000 0.003719 0.000000 0.030962
#
#
# Mechanical properties :
#
#
# Convention : Reuss Voigt Hill
#
# Bulk Modulus (GPa) = 53.38220 65.15428 59.26824
# Shear Modulus (GPa) = 27.74442 33.85478 30.79960
#
# Velocity S-wave (km/s) = 3.48230 3.84670 3.66902
# Velocity P-wave (km/s) = 6.28495 6.94311 6.62221
#
# Compressibility (1/GPa) = 0.01873284
#
# Stress axis : x y z
#
# Youngs Moduli (GPa) = 39.12752 87.12041 56.84071
#
# Poissons Ratio (x) = -0.03292 0.71081
# Poissons Ratio (y) = -0.01478 0.33085
# Poissons Ratio (z) = 0.48930 0.50709
#
# Static dielectric constant tensor:
#      x y z
#    x 1.941900 0.000000 0.081780 
#    y 0.000000 2.018420 0.000000 
#    z 0.081780 0.000000 1.961060 
# 
# From -- ./inp_files/7653.got.cif
#   From: 2010.05.17/outbox.cif.g08.bks.cpg/sg9_4_cif.got.tgz:7653.got - 2010.06.03 20:04:27.
