data_PCOD9138324
_publ_section_title
;
Structure prediction by ZEFSAII (Michael W. Deem and Ramdas Pophale) SiO2 
 PCOD9138324
Probable space group: C C
;
_chemical_formula_sum "Si O2"
_cell_formula_units_Z 32
_cell_length_a 11.142139
_cell_length_b 19.151344
_cell_length_c 9.060327
_cell_angle_alpha 90.000000
_cell_angle_beta 55.331194
_cell_angle_gamma 90.000000
_cell_volume 1590.095626
_symmetry_space_group_name_H-M "C C"
_symmetry_group_IT_number 9
_symmetry_cell_setting 'monoclinic'
loop_
_space_group_symop_operation_xyz
x,y,z
x,-y,1/2+z
1/2+x,1/2+y,z
1/2+x,1/2-y,1/2+z
loop_
_atom_site_type_symbol
_atom_site_label
_atom_site_fract_x
_atom_site_fract_y
_atom_site_fract_z
Si Si1 0.733990 0.949020 0.034940
Si Si2 0.680753 0.584535 0.457798
Si Si3 0.162781 0.414108 0.418797
Si Si4 0.467968 0.165798 0.255430
Si Si5 0.698409 0.185402 0.356854
Si Si6 0.575215 0.452766 0.721322
Si Si7 0.532326 0.321686 0.537904
Si Si8 0.454179 0.327613 0.263075
O O1 0.681006 0.936117 0.237311
O O2 0.700369 0.880829 0.962336
O O3 0.909074 0.961672 0.898533
O O4 0.656606 0.016338 0.020937
O O5 0.835582 0.616246 0.394884
O O6 0.626388 0.520509 0.596006
O O7 0.676542 0.560815 0.291258
O O8 0.562320 0.646167 0.560743
O O9 0.309163 0.372564 0.357546
O O10 0.031530 0.364164 0.558431
O O11 0.596435 0.167975 0.287562
O O12 0.419239 0.245956 0.274992
O O13 0.633594 0.253868 0.480758
O O14 0.864140 0.197952 0.189268
O O15 0.573932 0.386260 0.612566
O O16 0.533687 0.341175 0.363767
#
# Coordination Sequence:
#
# PCOD9138324 Si02
#       8
#     4   4   4   4   4   4   4   4
#     4  11  23  42  71  94 127 177 224 271 321 393
#     4  12  25  43  67  98 133 176 221 272 327 390
#     4  12  23  43  68  97 131 175 221 271 326 392
#     4  11  26  42  64 102 135 169 218 273 335 383
#     4  10  23  44  67  98 132 171 220 269 332 392
#     4  11  23  44  67  97 130 174 225 269 324 393
#     4  10  23  42  69  97 130 173 219 271 328 395
#     4  11  22  42  69  93 130 177 220 264 323 398
#
# _framework density 20.124576000000001
#
# number of rings (size 3 to 8) (size 9 to 14) (size 15 to 20)
#    0.000    1.000    3.750    2.250    7.000    4.000 
#    4.500    0.000    0.000    0.000    0.000    0.000 
#    0.000    0.000    0.000    0.000    0.000    0.000 
#
# Total GULP energy -89486.650909 kJ/mol
# GULP energy per Si atom -5592.915682 kJ/mol
# Density = 2.007877 g / cm^3
# Si number density = 20.124576 Si / 1000 Ang^3
#
#
#
# Elastic Constant Matrix: (Units=GPa)
#
#
# Indices 1 2 3 4 5 6 
#
# 1 37.3823 38.0780 18.5011 0.0000 -3.3754 0.0000
# 2 38.0780 118.8754 64.4042 0.0000 6.4072 0.0000
# 3 18.5011 64.4042 90.8151 0.0000 8.0955 0.0000
# 4 0.0000 0.0000 0.0000 35.3951 0.0000 -2.9160
# 5 -3.3754 6.4072 8.0955 0.0000 30.7427 0.0000
# 6 0.0000 0.0000 0.0000 -2.9160 0.0000 24.9353
#
#
#
# Elastic Compliance Matrix: (Units=1/GPa)
#
#
# Indices 1 2 3 4 5 6 
#
# 1 0.041348 -0.014163 0.000976 0.000000 0.007235 0.000000
# 2 -0.014163 0.018515 -0.009997 0.000000 -0.002781 0.000000
# 3 0.000976 -0.009997 0.018133 0.000000 -0.002584 0.000000
# 4 0.000000 0.000000 0.000000 0.028527 0.000000 0.003336
# 5 0.007235 -0.002781 -0.002584 0.000000 0.034582 0.000000
# 6 0.000000 0.000000 0.000000 0.003336 0.000000 0.040494
#
#
# Mechanical properties :
#
#
# Convention : Reuss Voigt Hill
#
# Bulk Modulus (GPa) = 31.61910 54.33771 42.97840
# Shear Modulus (GPa) = 20.96347 26.62060 23.79203
#
# Velocity S-wave (km/s) = 3.23102 3.64096 3.44210
# Velocity P-wave (km/s) = 5.44657 6.68841 6.09917
#
# Compressibility (1/GPa) = 0.03162645
#
# Stress axis : x y z
#
# Youngs Moduli (GPa) = 24.18525 54.01015 55.14859
#
# Poissons Ratio (x) = 0.76494 -0.05381
# Poissons Ratio (y) = 0.34253 0.55133
# Poissons Ratio (z) = -0.02360 0.53995
#
# Static dielectric constant tensor:
#      x y z
#    x 1.705250 0.000000 -0.003890 
#    y 0.000000 1.689340 0.000000 
#    z -0.003890 0.000000 1.720360 
# 
# From -- ./inp_files/8010.got.cif
#   From: 2010.05.17/outbox.cif.g08.bks.cpg/sg9_5_cif.got.tgz:8010.got - 2010.06.03 20:04:27.
