data_PCOD9138048
_publ_section_title
;
Structure prediction by ZEFSAII (Michael W. Deem and Ramdas Pophale) SiO2 
 PCOD9138048
Probable space group: C C
;
_chemical_formula_sum "Si O2"
_cell_formula_units_Z 24
_cell_length_a 20.383652
_cell_length_b 5.048538
_cell_length_c 13.827159
_cell_angle_alpha 90.000000
_cell_angle_beta 40.662953
_cell_angle_gamma 90.000000
_cell_volume 927.186357
_symmetry_space_group_name_H-M "C C"
_symmetry_group_IT_number 9
_symmetry_cell_setting 'monoclinic'
loop_
_space_group_symop_operation_xyz
x,y,z
x,-y,1/2+z
1/2+x,1/2+y,z
1/2+x,1/2-y,1/2+z
loop_
_atom_site_type_symbol
_atom_site_label
_atom_site_fract_x
_atom_site_fract_y
_atom_site_fract_z
Si Si1 0.313100 0.144445 0.909640
Si Si2 0.280215 0.512245 0.294659
Si Si3 0.003993 0.511536 0.909387
Si Si4 0.871643 0.007223 0.006285
Si Si5 0.476664 0.215023 0.147286
Si Si6 0.640055 0.272394 0.104942
O O1 0.282623 0.189693 0.831479
O O2 0.416523 0.986412 0.784219
O O3 0.330692 0.414678 0.948437
O O4 0.220355 0.980548 0.056430
O O5 0.278144 0.468687 0.184101
O O6 0.390961 0.399465 0.197325
O O7 0.198213 0.385239 0.455428
O O8 0.960658 0.794978 0.925127
O O9 0.022352 0.553547 0.004293
O O10 0.916814 0.291765 0.985084
O O11 0.094188 0.405796 0.741513
O O12 0.548222 0.376585 0.140344
#
# Coordination Sequence:
#
# PCOD9138048 Si02
#       6
#     4   4   4   4   4   4
#     4  11  23  44  74 106 151 200 250 317 386 451
#     4  10  24  44  69 103 145 198 247 303 390 441
#     4  11  24  46  75 107 142 201 248 304 380 444
#     4  11  24  46  75 101 150 197 246 304 377 456
#     4  10  22  47  70 104 152 198 247 314 373 463
#     4  11  25  43  71 113 148 192 258 316 380 449
#
# _framework density 25.884763
#
# number of rings (size 3 to 8) (size 9 to 14) (size 15 to 20)
#    0.000    1.333    3.333    1.000    4.667    2.667 
#    3.000    0.000    0.000    0.000    0.000    0.000 
#    0.000    0.000    0.000    0.000    0.000    0.000 
#
# Total GULP energy -67050.596979 kJ/mol
# GULP energy per Si atom -5587.549748 kJ/mol
# Density = 2.582585 g / cm^3
# Si number density = 25.884763 Si / 1000 Ang^3
#
#
#
# Elastic Constant Matrix: (Units=GPa)
#
#
# Indices 1 2 3 4 5 6 
#
# 1 117.1928 17.8383 42.9886 -0.0826 22.2368 0.0368
# 2 17.8383 60.3528 20.9926 -0.1110 12.4613 0.1202
# 3 42.9886 20.9926 176.5550 -0.0941 26.5732 0.0939
# 4 -0.0826 -0.1110 -0.0941 41.0553 0.0266 1.8224
# 5 22.2368 12.4613 26.5732 0.0266 41.6515 0.0003
# 6 0.0368 0.1202 0.0939 1.8224 0.0003 36.6220
#
#
#
# Elastic Compliance Matrix: (Units=1/GPa)
#
#
# Indices 1 2 3 4 5 6 
#
# 1 0.010130 -0.001610 -0.001696 0.000015 -0.003844 -0.000001
# 2 -0.001610 0.018255 -0.001201 0.000048 -0.003836 -0.000058
# 3 -0.001696 -0.001201 0.006670 0.000011 -0.002990 -0.000012
# 4 0.000015 0.000048 0.000011 0.024412 -0.000045 -0.001215
# 5 -0.003844 -0.003836 -0.002990 -0.000045 0.029116 0.000026
# 6 -0.000001 -0.000058 -0.000012 -0.001215 0.000026 0.027367
#
#
# Mechanical properties :
#
#
# Convention : Reuss Voigt Hill
#
# Bulk Modulus (GPa) = 38.40363 57.52663 47.96513
# Shear Modulus (GPa) = 37.41267 42.01783 39.71525
#
# Velocity S-wave (km/s) = 3.80591 4.03335 3.92128
# Velocity P-wave (km/s) = 5.84652 6.63045 6.25079
#
# Compressibility (1/GPa) = 0.02603921
#
# Stress axis : x y z
#
# Youngs Moduli (GPa) = 98.71942 54.77914 149.92712
#
# Poissons Ratio (x) = 0.08821 0.25434
# Poissons Ratio (y) = 0.15896 0.18008
# Poissons Ratio (z) = 0.16747 0.06580
#
# Static dielectric constant tensor:
#      x y z
#    x 2.107370 -0.000010 -0.020190 
#    y -0.000010 2.053090 0.000000 
#    z -0.020190 0.000000 2.078820 
# 
# From -- ./inp_files/26224.got.cif
#   From: 2010.05.17/outbox.cif.g08.bks.cpg/sg9_14_cif.got.tgz:26224.got - 2010.06.03 20:04:27.
