data_PCOD9138703
_publ_section_title
;
Structure prediction by ZEFSAII (Michael W. Deem and Ramdas Pophale) SiO2 
 PCOD9138703
Probable space group: C C
;
_chemical_formula_sum "Si O2"
_cell_formula_units_Z 32
_cell_length_a 16.822314
_cell_length_b 7.221045
_cell_length_c 11.576832
_cell_angle_alpha 90.000000
_cell_angle_beta 67.056694
_cell_angle_gamma 90.000000
_cell_volume 1295.041722
_symmetry_space_group_name_H-M "C C"
_symmetry_group_IT_number 9
_symmetry_cell_setting 'monoclinic'
loop_
_space_group_symop_operation_xyz
x,y,z
x,-y,1/2+z
1/2+x,1/2+y,z
1/2+x,1/2-y,1/2+z
loop_
_atom_site_type_symbol
_atom_site_label
_atom_site_fract_x
_atom_site_fract_y
_atom_site_fract_z
Si Si1 0.449380 0.761391 0.146750
Si Si2 0.605418 0.746205 0.896915
Si Si3 0.644430 0.288988 0.127222
Si Si4 0.584851 0.158716 0.927251
Si Si5 0.830154 0.867767 0.520163
Si Si6 0.408083 0.744244 0.412370
Si Si7 0.210475 0.925061 0.745421
Si Si8 0.874010 0.412796 0.798074
O O1 0.364245 0.727804 0.118481
O O2 0.446129 0.659385 0.270816
O O3 0.451740 0.978715 0.186115
O O4 0.525303 0.694480 0.021618
O O5 0.679129 0.592788 0.849021
O O6 0.623099 0.954872 0.924316
O O7 0.594418 0.275810 0.037865
O O8 0.689431 0.483715 0.134641
O O9 0.727354 0.154286 0.073233
O O10 0.584953 0.240895 0.271052
O O11 0.487717 0.167829 0.936178
O O12 0.645932 0.256971 0.799702
O O13 0.859433 0.080122 0.502765
O O14 0.872285 0.759113 0.386733
O O15 0.351501 0.914176 0.396630
O O16 0.304323 0.874531 0.737621
#
# Coordination Sequence:
#
# PCOD9138703 Si02
#       8
#     4   4   4   4   4   4   4   4
#     4  10  23  48  67 102 149 176 241 295 348 435
#     4  10  25  46  69 104 149 186 228 305 356 427
#     4  10  25  44  72 106 145 183 238 299 359 429
#     4  12  24  46  72 107 141 194 236 294 372 422
#     4  12  22  49  72 102 144 187 238 304 350 429
#     4  10  27  44  72 108 136 193 240 285 373 416
#     4  10  23  46  67 105 143 185 241 289 359 426
#     4  10  23  47  69 102 139 190 238 291 361 414
#
# _framework density 24.709629
#
# number of rings (size 3 to 8) (size 9 to 14) (size 15 to 20)
#    1.500    0.000    2.500    1.500    3.500    2.000 
#    9.000    0.000    0.000    0.000    0.000    0.000 
#    0.000    0.000    0.000    0.000    0.000    0.000 
#
# Total GULP energy -89307.357518 kJ/mol
# GULP energy per Si atom -5581.709845 kJ/mol
# Density = 2.465339 g / cm^3
# Si number density = 24.709629 Si / 1000 Ang^3
#
#
#
# Elastic Constant Matrix: (Units=GPa)
#
#
# Indices 1 2 3 4 5 6 
#
# 1 62.4836 -5.2937 15.6435 0.0000 11.2429 0.0000
# 2 -5.2937 85.4255 -1.3897 0.0000 -8.5302 0.0000
# 3 15.6435 -1.3897 105.9590 0.0000 2.7316 0.0000
# 4 0.0000 0.0000 0.0000 38.9709 0.0000 -1.8494
# 5 11.2429 -8.5302 2.7316 0.0000 42.7944 0.0000
# 6 0.0000 0.0000 0.0000 -1.8494 0.0000 0.9134
#
#
#
# Elastic Compliance Matrix: (Units=1/GPa)
#
#
# Indices 1 2 3 4 5 6 
#
# 1 0.017446 0.000611 -0.002457 0.000000 -0.004305 0.000000
# 2 0.000611 0.011966 0.000009 0.000000 0.002224 0.000000
# 3 -0.002457 0.000009 0.009800 0.000000 0.000022 0.000000
# 4 0.000000 0.000000 0.000000 0.028388 0.000000 0.057474
# 5 -0.004305 0.002224 0.000022 0.000000 0.024940 0.000000
# 6 0.000000 0.000000 0.000000 0.057474 0.000000 1.211113
#
#
# Mechanical properties :
#
#
# Convention : Reuss Voigt Hill
#
# Bulk Modulus (GPa) = 28.13757 30.19870 29.16813
# Shear Modulus (GPa) = 3.79026 32.86294 18.32660
#
# Velocity S-wave (km/s) = 1.23986 3.65082 2.72633
# Velocity P-wave (km/s) = 3.66902 5.47899 4.66267
#
# Compressibility (1/GPa) = 0.03553968
#
# Stress axis : x y z
#
# Youngs Moduli (GPa) = 57.32111 83.56856 102.04227
#
# Poissons Ratio (x) = -0.05108 0.25068
# Poissons Ratio (y) = -0.03504 -0.00096
# Poissons Ratio (z) = 0.14082 -0.00078
#
# Static dielectric constant tensor:
#      x y z
#    x 1.945970 0.000000 -0.040950 
#    y 0.000000 1.956000 0.000000 
#    z -0.040950 0.000000 2.031750 
# 
# From -- ./inp_files/26464.got.cif
#   From: 2010.05.17/outbox.cif.g08.bks.cpg/sg9_14_cif.got.tgz:26464.got - 2010.06.03 20:04:27.
