data_PCOD9138656
_publ_section_title
;
Structure prediction by ZEFSAII (Michael W. Deem and Ramdas Pophale) SiO2 
 PCOD9138656
Probable space group: C C
;
_chemical_formula_sum "Si O2"
_cell_formula_units_Z 32
_cell_length_a 21.021323
_cell_length_b 13.971763
_cell_length_c 10.123930
_cell_angle_alpha 90.000000
_cell_angle_beta 152.502621
_cell_angle_gamma 90.000000
_cell_volume 1372.864968
_symmetry_space_group_name_H-M "C C"
_symmetry_group_IT_number 9
_symmetry_cell_setting 'monoclinic'
loop_
_space_group_symop_operation_xyz
x,y,z
x,-y,1/2+z
1/2+x,1/2+y,z
1/2+x,1/2-y,1/2+z
loop_
_atom_site_type_symbol
_atom_site_label
_atom_site_fract_x
_atom_site_fract_y
_atom_site_fract_z
Si Si1 0.480790 0.386149 0.837650
Si Si2 0.577150 0.336615 0.278667
Si Si3 0.737560 0.177002 0.734413
Si Si4 0.339615 0.043837 0.220986
Si Si5 0.094998 0.361490 0.243892
Si Si6 0.255736 0.542089 0.527405
Si Si7 0.289453 0.091728 0.846782
Si Si8 0.286397 0.682296 0.349011
O O1 0.394645 0.324820 0.574154
O O2 0.384690 0.471355 0.723600
O O3 0.522128 0.314042 0.031167
O O4 0.624522 0.424007 0.046117
O O5 0.663548 0.254494 0.507714
O O6 0.681614 0.423297 0.449480
O O7 0.437198 0.360804 0.096099
O O8 0.653000 0.185163 0.716960
O O9 0.744636 0.080990 0.656470
O O10 0.431158 0.132017 0.446184
O O11 0.352564 0.948087 0.329113
O O12 0.357630 0.038116 0.097005
O O13 0.127887 0.472449 0.275451
O O14 0.180282 0.333142 0.531331
O O15 0.245094 0.629222 0.406379
O O16 0.309430 0.204423 0.904377
#
# Coordination Sequence:
#
# PCOD9138656 Si02
#       8
#     4   4   4   4   4   4   4   4
#     4  10  23  45  72 108 142 188 242 300 369 431
#     4  11  24  47  70 104 147 184 242 298 360 435
#     4  11  24  42  76 103 143 190 245 301 357 434
#     4  11  27  47  69 106 145 192 236 302 366 429
#     4  11  25  44  73 106 142 192 245 291 369 428
#     4  11  23  42  77 103 138 191 241 297 364 437
#     4  11  27  47  72 105 152 185 244 302 366 425
#     4  12  25  48  75 107 147 188 241 303 359 439
#
# _framework density 23.308920000000001
#
# number of rings (size 3 to 8) (size 9 to 14) (size 15 to 20)
#    0.000    1.000    2.500    4.500   10.500    1.000 
#    0.000    0.000    0.000    0.000    0.000    0.000 
#    0.000    0.000    0.000    0.000    0.000    0.000 
#
# Total GULP energy -89308.723499 kJ/mol
# GULP energy per Si atom -5581.795219 kJ/mol
# Density = 2.325587 g / cm^3
# Si number density = 23.308920 Si / 1000 Ang^3
#
#
#
# Elastic Constant Matrix: (Units=GPa)
#
#
# Indices 1 2 3 4 5 6 
#
# 1 61.6958 10.0550 30.4155 0.0000 -12.5133 0.0000
# 2 10.0550 57.7209 26.7575 0.0000 -29.5794 0.0000
# 3 30.4155 26.7575 127.6611 0.0000 -23.5149 0.0000
# 4 0.0000 0.0000 0.0000 24.1035 0.0000 -11.6626
# 5 -12.5133 -29.5794 -23.5149 0.0000 42.9254 0.0000
# 6 0.0000 0.0000 0.0000 -11.6626 0.0000 30.8010
#
#
#
# Elastic Compliance Matrix: (Units=1/GPa)
#
#
# Indices 1 2 3 4 5 6 
#
# 1 0.018798 0.000379 -0.003894 0.000000 0.003608 0.000000
# 2 0.000379 0.027504 -0.002607 0.000000 0.017636 0.000000
# 3 -0.003894 -0.002607 0.009751 0.000000 0.002410 0.000000
# 4 0.000000 0.000000 0.000000 0.050794 0.000000 0.019233
# 5 0.003608 0.017636 0.002410 0.000000 0.037821 0.000000
# 6 0.000000 0.000000 0.000000 0.019233 0.000000 0.039749
#
#
# Mechanical properties :
#
#
# Convention : Reuss Voigt Hill
#
# Bulk Modulus (GPa) = 22.82485 42.39267 32.60876
# Shear Modulus (GPa) = 23.66715 31.55597 27.61156
#
# Velocity S-wave (km/s) = 3.18994 3.68341 3.44552
# Velocity P-wave (km/s) = 4.83541 6.02635 5.46343
#
# Compressibility (1/GPa) = 0.04381189
#
# Stress axis : x y z
#
# Youngs Moduli (GPa) = 53.19693 36.35769 102.55066
#
# Poissons Ratio (x) = -0.01379 0.39929
# Poissons Ratio (y) = -0.02018 0.26733
# Poissons Ratio (z) = 0.20712 0.09478
#
# Static dielectric constant tensor:
#      x y z
#    x 1.975930 0.000000 0.034160 
#    y 0.000000 1.872280 0.000000 
#    z 0.034160 0.000000 1.922850 
# 
# From -- ./inp_files/11797.got.cif
#   From: 2010.05.17/outbox.cif.g08.bks.cpg/sg9_6_cif.got.tgz:11797.got - 2010.06.03 20:04:27.
