data_PCOD9138571
_publ_section_title
;
Structure prediction by ZEFSAII (Michael W. Deem and Ramdas Pophale) SiO2 
 PCOD9138571
Probable space group: C C
;
_chemical_formula_sum "Si O2"
_cell_formula_units_Z 28
_cell_length_a 5.404392
_cell_length_b 19.152922
_cell_length_c 14.560726
_cell_angle_alpha 90.000000
_cell_angle_beta 129.723546
_cell_angle_gamma 90.000000
_cell_volume 1159.227319
_symmetry_space_group_name_H-M "C C"
_symmetry_group_IT_number 9
_symmetry_cell_setting 'monoclinic'
loop_
_space_group_symop_operation_xyz
x,y,z
x,-y,1/2+z
1/2+x,1/2+y,z
1/2+x,1/2-y,1/2+z
loop_
_atom_site_type_symbol
_atom_site_label
_atom_site_fract_x
_atom_site_fract_y
_atom_site_fract_z
Si Si1 0.456800 0.740812 0.130320
Si Si2 0.920997 0.919448 0.666432
Si Si3 0.657808 0.560355 0.022262
Si Si4 0.115009 0.075871 0.405971
Si Si5 0.331469 0.306194 0.929908
Si Si6 0.781627 0.148457 0.613661
Si Si7 0.882204 0.823891 0.329399
O O1 0.465759 0.663404 0.166145
O O2 0.717162 0.768594 0.118409
O O3 0.513772 0.798521 0.225219
O O4 0.127789 0.753430 0.999421
O O5 0.543878 0.935616 0.596153
O O6 0.055684 0.949234 0.603325
O O7 0.135333 0.941185 0.803778
O O8 0.526134 0.493860 0.936789
O O9 0.491287 0.629553 0.939629
O O10 0.442489 0.107040 0.527622
O O11 0.853648 0.138288 0.353976
O O12 0.038373 0.253385 0.866516
O O13 0.384180 0.353271 0.033205
O O14 0.957860 0.132819 0.752062
#
# Coordination Sequence:
#
# PCOD9138571 Si02
#       7
#     4   4   4   4   4   4   4
#     4   9  22  41  70 110 143 188 250 302 378 431
#     4  12  28  49  78 107 150 197 253 309 373 461
#     4  12  30  50  75 112 152 200 252 306 386 453
#     4  11  29  46  74 108 149 200 248 309 380 463
#     4  11  21  43  73 105 147 192 250 304 377 439
#     4   9  23  43  71 105 147 191 242 307 377 434
#     4  10  23  44  73 107 152 188 251 317 369 441
#
# _framework density 24.154021
#
# number of rings (size 3 to 8) (size 9 to 14) (size 15 to 20)
#    0.857    0.571    1.429    1.714   10.000    2.286 
#    0.000    0.000    0.000    0.000    0.000    0.000 
#    0.000    0.000    0.000    0.000    0.000    0.000 
#
# Total GULP energy -78071.824602 kJ/mol
# GULP energy per Si atom -5576.558900 kJ/mol
# Density = 2.409905 g / cm^3
# Si number density = 24.154021 Si / 1000 Ang^3
#
#
#
# Elastic Constant Matrix: (Units=GPa)
#
#
# Indices 1 2 3 4 5 6 
#
# 1 78.2910 14.6425 32.3085 0.0000 -23.2339 0.0000
# 2 14.6425 109.1709 28.4487 0.0000 -9.4694 0.0000
# 3 32.3085 28.4487 103.3368 0.0000 -30.5664 0.0000
# 4 0.0000 0.0000 0.0000 13.7001 0.0000 -2.3359
# 5 -23.2339 -9.4694 -30.5664 0.0000 51.5758 0.0000
# 6 0.0000 0.0000 0.0000 -2.3359 0.0000 16.0498
#
#
#
# Elastic Compliance Matrix: (Units=1/GPa)
#
#
# Indices 1 2 3 4 5 6 
#
# 1 0.015747 -0.000841 -0.003200 0.000000 0.005043 0.000000
# 2 -0.000841 0.009915 -0.002474 0.000000 -0.000025 0.000000
# 3 -0.003200 -0.002474 0.013093 0.000000 0.005864 0.000000
# 4 0.000000 0.000000 0.000000 0.074849 0.000000 0.010894
# 5 0.005043 -0.000025 0.005864 0.000000 0.025131 0.000000
# 6 0.000000 0.000000 0.000000 0.010894 0.000000 0.063892
#
#
# Mechanical properties :
#
#
# Convention : Reuss Voigt Hill
#
# Bulk Modulus (GPa) = 38.87186 49.06645 43.96915
# Shear Modulus (GPa) = 22.29816 30.62509 26.46163
#
# Velocity S-wave (km/s) = 3.04166 3.56463 3.31348
# Velocity P-wave (km/s) = 5.33515 6.10739 5.73429
#
# Compressibility (1/GPa) = 0.02572555
#
# Stress axis : x y z
#
# Youngs Moduli (GPa) = 63.50295 100.85422 76.37504
#
# Poissons Ratio (x) = 0.08479 0.24443
# Poissons Ratio (y) = 0.05339 0.18896
# Poissons Ratio (z) = 0.20323 0.24952
#
# Static dielectric constant tensor:
#      x y z
#    x 2.007170 0.000000 -0.013450 
#    y 0.000000 1.909680 0.000000 
#    z -0.013450 0.000000 2.010750 
# 
# From -- ./inp_files/22257.got.cif
#   From: 2010.05.17/outbox.cif.g08.bks.cpg/sg9_12_cif.got.tgz:22257.got - 2010.06.03 20:04:27.
