data_PCOD9138892
_publ_section_title
;
Structure prediction by ZEFSAII (Michael W. Deem and Ramdas Pophale) SiO2 
 PCOD9138892
Probable space group: C C
;
_chemical_formula_sum "Si O2"
_cell_formula_units_Z 28
_cell_length_a 5.011267
_cell_length_b 9.275339
_cell_length_c 27.481866
_cell_angle_alpha 90.000000
_cell_angle_beta 71.392700
_cell_angle_gamma 90.000000
_cell_volume 1210.618079
_symmetry_space_group_name_H-M "C C"
_symmetry_group_IT_number 9
_symmetry_cell_setting 'monoclinic'
loop_
_space_group_symop_operation_xyz
x,y,z
x,-y,1/2+z
1/2+x,1/2+y,z
1/2+x,1/2-y,1/2+z
loop_
_atom_site_type_symbol
_atom_site_label
_atom_site_fract_x
_atom_site_fract_y
_atom_site_fract_z
Si Si1 0.289660 0.523076 0.839870
Si Si2 0.331708 0.110653 0.942347
Si Si3 0.909652 0.987254 0.148039
Si Si4 0.827223 0.552474 0.534222
Si Si5 0.922832 0.884414 0.979402
Si Si6 0.357969 0.852064 0.801327
Si Si7 0.847473 0.340987 0.685383
O O1 0.350563 0.688219 0.820943
O O2 0.580954 0.441829 0.832517
O O3 0.063863 0.533070 0.896677
O O4 0.126406 0.435783 0.807099
O O5 0.364003 0.280038 0.937971
O O6 0.031700 0.036917 0.951332
O O7 0.368145 0.087830 0.998281
O O8 0.123403 0.972820 0.090462
O O9 0.835676 0.825308 0.169269
O O10 0.082124 0.072824 0.179390
O O11 0.632164 0.078647 0.150838
O O12 0.676094 0.651278 0.502008
O O13 0.139135 0.603728 0.527193
O O14 0.359185 0.848228 0.742877
#
# Coordination Sequence:
#
# PCOD9138892 Si02
#       7
#     4   4   4   4   4   4   4
#     4  12  27  44  76 101 139 182 232 277 356 405
#     4  10  26  41  68  98 139 176 223 274 333 410
#     4  12  27  44  76 101 139 182 231 279 354 408
#     4  10  26  41  68  98 139 175 225 272 335 408
#     4  10  24  39  66  90 144 169 223 267 332 387
#     4  12  26  48  69 102 135 180 232 294 340 410
#     4  12  26  47  71 100 137 178 234 291 346 402
#
# _framework density 23.128682999999999
#
# number of rings (size 3 to 8) (size 9 to 14) (size 15 to 20)
#    0.857    0.000    0.000    6.000   10.000    0.000 
#    0.000    0.000    0.000    0.000    0.000    0.000 
#    0.000    0.000    0.000    0.000    0.000    0.000 
#
# Total GULP energy -78253.273310 kJ/mol
# GULP energy per Si atom -5589.519522 kJ/mol
# Density = 2.307604 g / cm^3
# Si number density = 23.128683 Si / 1000 Ang^3
#
#
#
# Elastic Constant Matrix: (Units=GPa)
#
#
# Indices 1 2 3 4 5 6 
#
# 1 92.6816 26.7918 -23.8143 0.0000 -9.3120 0.0000
# 2 26.7918 136.8507 8.3223 0.0000 8.2272 0.0000
# 3 -23.8143 8.3223 85.3674 0.0000 -11.3729 -0.0001
# 4 0.0000 0.0000 0.0000 20.4290 0.0000 4.4807
# 5 -9.3120 8.2272 -11.3729 0.0000 30.4680 0.0000
# 6 0.0000 0.0000 -0.0001 4.4807 0.0000 20.1259
#
#
#
# Elastic Compliance Matrix: (Units=1/GPa)
#
#
# Indices 1 2 3 4 5 6 
#
# 1 0.013812 -0.003441 0.005130 0.000000 0.007065 0.000000
# 2 -0.003441 0.008374 -0.002334 0.000000 -0.004184 0.000000
# 3 0.005130 -0.002334 0.014381 0.000000 0.007566 0.000000
# 4 0.000000 0.000000 0.000000 0.051463 0.000000 -0.011457
# 5 0.007065 -0.004184 0.007566 0.000000 0.038935 0.000000
# 6 0.000000 0.000000 0.000000 -0.011457 0.000000 0.052238
#
#
# Mechanical properties :
#
#
# Convention : Reuss Voigt Hill
#
# Bulk Modulus (GPa) = 28.34644 37.49993 32.92319
# Shear Modulus (GPa) = 26.00762 34.44457 30.22610
#
# Velocity S-wave (km/s) = 3.35696 3.86328 3.61898
# Velocity P-wave (km/s) = 5.22572 6.01238 5.63280
#
# Compressibility (1/GPa) = 0.03527780
#
# Stress axis : x y z
#
# Youngs Moduli (GPa) = 72.39953 119.41287 69.53841
#
# Poissons Ratio (x) = 0.41088 -0.35672
# Poissons Ratio (y) = 0.24911 0.16228
# Poissons Ratio (z) = -0.37140 0.27867
#
# Static dielectric constant tensor:
#      x y z
#    x 1.864960 0.000000 0.041540 
#    y 0.000000 1.951950 0.000000 
#    z 0.041540 0.000000 1.889050 
# 
# From -- ./inp_files/36245.got.cif
#   From: 2010.05.17/outbox.cif.g08.bks.cpg/sg9_19_cif.got.tgz:36245.got - 2010.06.03 20:04:27.
