data_PCOD9138041
_publ_section_title
;
Structure prediction by ZEFSAII (Michael W. Deem and Ramdas Pophale) SiO2 
 PCOD9138041
Probable space group: C C
;
_chemical_formula_sum "Si O2"
_cell_formula_units_Z 28
_cell_length_a 13.342162
_cell_length_b 6.402571
_cell_length_c 14.180378
_cell_angle_alpha 90.000000
_cell_angle_beta 74.602296
_cell_angle_gamma 90.000000
_cell_volume 1167.866569
_symmetry_space_group_name_H-M "C C"
_symmetry_group_IT_number 9
_symmetry_cell_setting 'monoclinic'
loop_
_space_group_symop_operation_xyz
x,y,z
x,-y,1/2+z
1/2+x,1/2+y,z
1/2+x,1/2-y,1/2+z
loop_
_atom_site_type_symbol
_atom_site_label
_atom_site_fract_x
_atom_site_fract_y
_atom_site_fract_z
Si Si1 0.938870 0.950370 0.176580
Si Si2 0.793549 0.767177 0.821028
Si Si3 0.487213 0.281669 0.483516
Si Si4 0.110986 0.089986 0.768983
Si Si5 0.732305 0.754144 0.147857
Si Si6 0.777058 0.582250 0.473891
Si Si7 0.155406 0.471563 0.501741
O O1 0.837160 0.817376 0.175570
O O2 0.031599 0.837121 0.208080
O O3 0.897676 0.129231 0.258198
O O4 0.979336 0.064105 0.073351
O O5 0.716583 0.722614 0.753067
O O6 0.804103 0.551554 0.874876
O O7 0.734932 0.921821 0.907224
O O8 0.553846 0.381057 0.382748
O O9 0.373055 0.229371 0.475596
O O10 0.544338 0.068180 0.502002
O O11 0.148232 0.855240 0.736286
O O12 0.758917 0.578603 0.063134
O O13 0.686349 0.941774 0.096934
O O14 0.676703 0.727750 0.487560
#
# Coordination Sequence:
#
# PCOD9138041 Si02
#       7
#     4   4   4   4   4   4   4
#     4  12  25  49  77 111 157 199 255 325 384 461
#     4  10  26  46  71 110 146 197 255 307 389 450
#     4  11  24  47  72 115 151 204 261 312 392 456
#     4  11  26  46  73 113 146 202 255 309 384 465
#     4  11  25  46  72 106 152 199 254 316 387 458
#     4  11  24  47  78 105 150 204 254 320 386 460
#     4  10  22  47  69 100 152 195 246 321 372 450
#
# _framework density 23.975345000000001
#
# number of rings (size 3 to 8) (size 9 to 14) (size 15 to 20)
#    0.000    1.143    2.857    1.714    6.000    2.286 
#    5.143    0.000    0.000    0.000    0.000    0.000 
#    0.000    0.000    0.000    0.000    0.000    0.000 
#
# Total GULP energy -78476.820282 kJ/mol
# GULP energy per Si atom -5605.487163 kJ/mol
# Density = 2.392078 g / cm^3
# Si number density = 23.975345 Si / 1000 Ang^3
#
#
#
# Elastic Constant Matrix: (Units=GPa)
#
#
# Indices 1 2 3 4 5 6 
#
# 1 116.8713 32.4059 27.7820 0.0000 21.8479 0.0000
# 2 32.4059 89.5705 38.6673 0.0000 8.7508 0.0000
# 3 27.7820 38.6673 88.7340 0.0000 7.5668 0.0000
# 4 0.0000 0.0000 0.0000 40.7250 0.0000 0.3294
# 5 21.8479 8.7508 7.5668 0.0000 43.4215 0.0000
# 6 0.0000 0.0000 0.0000 0.3294 0.0000 50.4524
#
#
#
# Elastic Compliance Matrix: (Units=1/GPa)
#
#
# Indices 1 2 3 4 5 6 
#
# 1 0.010538 -0.002607 -0.001783 0.000000 -0.004466 0.000000
# 2 -0.002607 0.014529 -0.005458 0.000000 -0.000665 0.000000
# 3 -0.001783 -0.005458 0.014248 0.000000 -0.000486 0.000000
# 4 0.000000 0.000000 0.000000 0.024556 0.000000 -0.000160
# 5 -0.004466 -0.000665 -0.000486 0.000000 0.025496 0.000000
# 6 0.000000 0.000000 0.000000 -0.000160 0.000000 0.019822
#
#
# Mechanical properties :
#
#
# Convention : Reuss Voigt Hill
#
# Bulk Modulus (GPa) = 50.97017 54.76513 52.86765
# Shear Modulus (GPa) = 36.92130 40.00782 38.46456
#
# Velocity S-wave (km/s) = 3.92850 4.08941 4.00976
# Velocity P-wave (km/s) = 6.47171 6.72232 6.59821
#
# Compressibility (1/GPa) = 0.01961932
#
# Stress axis : x y z
#
# Youngs Moduli (GPa) = 94.89604 68.82890 70.18664
#
# Poissons Ratio (x) = 0.17941 0.12511
# Poissons Ratio (y) = 0.24736 0.38310
# Poissons Ratio (z) = 0.16916 0.37569
#
# Static dielectric constant tensor:
#      x y z
#    x 1.871130 0.000000 0.021690 
#    y 0.000000 1.933410 0.000000 
#    z 0.021690 0.000000 1.895220 
# 
# From -- ./inp_files/25230.got.cif
#   From: 2010.05.17/outbox.cif.g08.bks.cpg/sg9_13_cif.got.tgz:25230.got - 2010.06.03 20:04:27.
