data_PCOD9138721
_publ_section_title
;
Structure prediction by ZEFSAII (Michael W. Deem and Ramdas Pophale) SiO2 
 PCOD9138721
Probable space group: C C
;
_chemical_formula_sum "Si O2"
_cell_formula_units_Z 28
_cell_length_a 4.824390
_cell_length_b 17.934985
_cell_length_c 14.479549
_cell_angle_alpha 90.000000
_cell_angle_beta 64.599271
_cell_angle_gamma 90.000000
_cell_volume 1131.735179
_symmetry_space_group_name_H-M "C C"
_symmetry_group_IT_number 9
_symmetry_cell_setting 'monoclinic'
loop_
_space_group_symop_operation_xyz
x,y,z
x,-y,1/2+z
1/2+x,1/2+y,z
1/2+x,1/2-y,1/2+z
loop_
_atom_site_type_symbol
_atom_site_label
_atom_site_fract_x
_atom_site_fract_y
_atom_site_fract_z
Si Si1 0.949630 0.614881 0.736500
Si Si2 0.440091 0.444883 0.846923
Si Si3 0.306345 0.104439 0.461429
Si Si4 0.779357 0.890535 0.367446
Si Si5 0.363690 0.736565 0.582661
Si Si6 0.366096 0.330979 0.550300
Si Si7 0.938564 0.011576 0.136192
O O1 0.592942 0.616783 0.763387
O O2 0.993574 0.619032 0.840998
O O3 0.121349 0.683907 0.668179
O O4 0.132467 0.539893 0.683293
O O5 0.722589 0.426821 0.871984
O O6 0.296353 0.524267 0.898094
O O7 0.504938 0.456938 0.729734
O O8 0.171177 0.386565 0.909180
O O9 0.117868 0.179502 0.506462
O O10 0.187630 0.043222 0.552943
O O11 0.809351 0.836463 0.448748
O O12 0.550786 0.790250 0.625568
O O13 0.158088 0.784367 0.541733
O O14 0.395202 0.414331 0.583153
#
# Coordination Sequence:
#
# PCOD9138721 Si02
#       7
#     4   4   4   4   4   4   4
#     4  10  23  46  69  95 133 182 226 268 347 414
#     4  11  23  42  72 105 129 172 233 280 336 395
#     4  11  24  46  69  95 140 181 220 274 344 407
#     4  11  22  42  72 100 130 178 228 280 335 410
#     4  11  26  46  65  97 143 181 220 272 347 414
#     4  12  25  44  66 102 136 173 226 285 338 393
#     4  10  25  42  73 100 129 173 227 293 325 397
#
# _framework density 24.740770000000001
#
# number of rings (size 3 to 8) (size 9 to 14) (size 15 to 20)
#    0.000    1.143    1.429    4.286    2.000   10.286 
#   15.429    0.000    0.000    0.000    0.000    0.000 
#    0.000    0.000    0.000    0.000    0.000    0.000 
#
# Total GULP energy -78425.536155 kJ/mol
# GULP energy per Si atom -5601.824011 kJ/mol
# Density = 2.468446 g / cm^3
# Si number density = 24.740770 Si / 1000 Ang^3
#
#
#
# Elastic Constant Matrix: (Units=GPa)
#
#
# Indices 1 2 3 4 5 6 
#
# 1 104.6968 17.6703 15.5852 0.0000 -0.2511 0.0000
# 2 17.6703 119.0047 35.1929 0.0000 14.3082 0.0000
# 3 15.5852 35.1929 77.5494 0.0000 11.4670 0.0000
# 4 0.0000 0.0000 0.0000 24.5228 0.0000 2.5058
# 5 -0.2511 14.3082 11.4670 0.0000 35.4861 0.0000
# 6 0.0000 0.0000 0.0000 2.5058 0.0000 32.4397
#
#
#
# Elastic Compliance Matrix: (Units=1/GPa)
#
#
# Indices 1 2 3 4 5 6 
#
# 1 0.009990 -0.001121 -0.001655 0.000000 0.001058 0.000000
# 2 -0.001121 0.010068 -0.003930 0.000000 -0.002797 0.000000
# 3 -0.001655 -0.003930 0.015520 0.000000 -0.003442 0.000000
# 4 0.000000 0.000000 0.000000 0.041103 0.000000 -0.003175
# 5 0.001058 -0.002797 -0.003442 0.000000 0.030428 0.000000
# 6 0.000000 0.000000 0.000000 -0.003175 0.000000 0.031072
#
#
# Mechanical properties :
#
#
# Convention : Reuss Voigt Hill
#
# Bulk Modulus (GPa) = 45.11581 48.68307 46.89944
# Shear Modulus (GPa) = 31.45029 34.00989 32.73009
#
# Velocity S-wave (km/s) = 3.56925 3.71165 3.64114
# Velocity P-wave (km/s) = 5.93810 6.17158 6.05597
#
# Compressibility (1/GPa) = 0.02216518
#
# Stress axis : x y z
#
# Youngs Moduli (GPa) = 100.10488 99.32419 64.43218
#
# Poissons Ratio (x) = 0.11133 0.10665
# Poissons Ratio (y) = 0.11221 0.25322
# Poissons Ratio (z) = 0.16570 0.39035
#
# Static dielectric constant tensor:
#      x y z
#    x 1.930290 0.000000 -0.005910 
#    y 0.000000 1.964630 0.000000 
#    z -0.005910 0.000000 1.998210 
# 
# From -- ./inp_files/21896.got.cif
#   From: 2010.05.17/outbox.cif.g08.bks.cpg/sg9_11_cif.got.tgz:21896.got - 2010.06.03 20:04:27.
