data_PCOD9138152
_publ_section_title
;
Structure prediction by ZEFSAII (Michael W. Deem and Ramdas Pophale) SiO2 
 PCOD9138152
Probable space group: C C
;
_chemical_formula_sum "Si O2"
_cell_formula_units_Z 28
_cell_length_a 12.589142
_cell_length_b 13.088689
_cell_length_c 7.072803
_cell_angle_alpha 90.000000
_cell_angle_beta 68.132101
_cell_angle_gamma 90.000000
_cell_volume 1081.565725
_symmetry_space_group_name_H-M "C C"
_symmetry_group_IT_number 9
_symmetry_cell_setting 'monoclinic'
loop_
_space_group_symop_operation_xyz
x,y,z
x,-y,1/2+z
1/2+x,1/2+y,z
1/2+x,1/2-y,1/2+z
loop_
_atom_site_type_symbol
_atom_site_label
_atom_site_fract_x
_atom_site_fract_y
_atom_site_fract_z
Si Si1 0.473320 0.156036 0.495680
Si Si2 0.956188 0.122535 0.049810
Si Si3 0.222031 0.589587 0.418681
Si Si4 0.439463 0.186685 0.963777
Si Si5 0.687571 0.136442 0.876757
Si Si6 0.032273 0.093152 0.389557
Si Si7 0.767839 0.642001 0.379536
O O1 0.479155 0.274045 0.422268
O O2 0.599800 0.108905 0.398113
O O3 0.444085 0.164695 0.737984
O O4 0.365651 0.106587 0.459733
O O5 0.832317 0.129100 0.233447
O O6 0.049861 0.119226 0.157253
O O7 0.968958 0.014760 0.938876
O O8 0.211748 0.636887 0.634584
O O9 0.235765 0.467828 0.425942
O O10 0.550669 0.134532 0.981952
O O11 0.459216 0.307149 0.996330
O O12 0.328277 0.143958 0.136005
O O13 0.734569 0.239335 0.937480
O O14 0.146996 0.087110 0.436085
#
# Coordination Sequence:
#
# PCOD9138152 Si02
#       7
#     4   4   4   4   4   4   4
#     4  10  25  42  70  99 129 173 229 264 340 384
#     4  11  23  44  65  97 132 177 217 278 319 402
#     4  11  23  43  68  98 130 174 222 279 321 396
#     4   9  21  45  65  94 136 175 214 277 321 396
#     4  10  23  39  67  98 131 170 226 263 332 391
#     4  10  24  43  66 100 133 172 226 262 339 392
#     4  11  23  46  67  98 135 177 212 281 328 395
#
# _framework density 25.888393000000001
#
# number of rings (size 3 to 8) (size 9 to 14) (size 15 to 20)
#    0.000    1.714    0.000    4.286    8.000    1.143 
#    5.143    0.000    0.000    0.000    0.000    0.000 
#    0.000    0.000    0.000    0.000    0.000    0.000 
#
# Total GULP energy -78439.442916 kJ/mol
# GULP energy per Si atom -5602.817351 kJ/mol
# Density = 2.582947 g / cm^3
# Si number density = 25.888393 Si / 1000 Ang^3
#
#
#
# Elastic Constant Matrix: (Units=GPa)
#
#
# Indices 1 2 3 4 5 6 
#
# 1 206.9242 26.4939 26.0644 0.0000 -3.9080 0.0000
# 2 26.4939 83.4882 3.6165 0.0000 -15.9995 0.0000
# 3 26.0644 3.6165 63.1630 0.0000 -3.2117 0.0000
# 4 0.0000 0.0000 0.0000 23.8911 0.0000 0.4465
# 5 -3.9080 -15.9995 -3.2117 0.0000 46.4864 0.0000
# 6 0.0000 0.0000 0.0000 0.4465 0.0000 7.7847
#
#
#
# Elastic Compliance Matrix: (Units=1/GPa)
#
#
# Indices 1 2 3 4 5 6 
#
# 1 0.005303 -0.001642 -0.002108 0.000000 -0.000265 0.000000
# 2 -0.001642 0.013349 0.000141 0.000000 0.004466 0.000000
# 3 -0.002108 0.000141 0.016746 0.000000 0.001028 0.000000
# 4 0.000000 0.000000 0.000000 0.041902 0.000000 -0.002403
# 5 -0.000265 0.004466 0.001028 0.000000 0.023097 0.000000
# 6 0.000000 0.000000 0.000000 -0.002403 0.000000 0.128596
#
#
# Mechanical properties :
#
#
# Convention : Reuss Voigt Hill
#
# Bulk Modulus (GPa) = 35.48794 51.76947 43.62870
# Shear Modulus (GPa) = 20.35785 35.45914 27.90849
#
# Velocity S-wave (km/s) = 2.80727 3.70495 3.28690
# Velocity P-wave (km/s) = 4.92397 6.19216 5.59412
#
# Compressibility (1/GPa) = 0.02817859
#
# Stress axis : x y z
#
# Youngs Moduli (GPa) = 188.55476 74.91359 59.71528
#
# Poissons Ratio (x) = 0.12304 0.12588
# Poissons Ratio (y) = 0.30970 -0.00839
# Poissons Ratio (z) = 0.39746 -0.01053
#
# Static dielectric constant tensor:
#      x y z
#    x 2.028930 0.000000 0.044990 
#    y 0.000000 2.019620 0.000000 
#    z 0.044990 0.000000 2.047360 
# 
# From -- ./inp_files/7370.got.cif
#   From: 2010.05.17/outbox.cif.g08.bks.cpg/sg9_4_cif.got.tgz:7370.got - 2010.06.03 20:04:27.
