data_PCOD9138325
_publ_section_title
;
Structure prediction by ZEFSAII (Michael W. Deem and Ramdas Pophale) SiO2 
 PCOD9138325
Probable space group: C C
;
_chemical_formula_sum "Si O2"
_cell_formula_units_Z 28
_cell_length_a 4.792216
_cell_length_b 13.314378
_cell_length_c 18.619161
_cell_angle_alpha 90.000000
_cell_angle_beta 113.024654
_cell_angle_gamma 90.000000
_cell_volume 1093.362279
_symmetry_space_group_name_H-M "C C"
_symmetry_group_IT_number 9
_symmetry_cell_setting 'monoclinic'
loop_
_space_group_symop_operation_xyz
x,y,z
x,-y,1/2+z
1/2+x,1/2+y,z
1/2+x,1/2-y,1/2+z
loop_
_atom_site_type_symbol
_atom_site_label
_atom_site_fract_x
_atom_site_fract_y
_atom_site_fract_z
Si Si1 0.529820 0.583505 0.535540
Si Si2 0.825659 0.288961 0.299485
Si Si3 0.304248 0.797341 0.569474
Si Si4 0.235625 0.817034 0.733656
Si Si5 0.661543 0.002346 0.108635
Si Si6 0.308117 0.590328 0.923294
Si Si7 0.570549 0.026194 0.760377
O O1 0.430323 0.694610 0.547447
O O2 0.473394 0.517100 0.600684
O O3 0.306834 0.519124 0.461633
O O4 0.880398 0.565651 0.549992
O O5 0.966544 0.199769 0.263974
O O6 0.021667 0.333923 0.385282
O O7 0.845980 0.380093 0.246272
O O8 0.494626 0.258108 0.288131
O O9 0.207082 0.790300 0.644759
O O10 0.048441 0.844574 0.491796
O O11 0.562859 0.882666 0.592595
O O12 0.385862 0.925612 0.757304
O O13 0.693167 0.976579 0.193746
O O14 0.335330 0.551375 0.844170
#
# Coordination Sequence:
#
# PCOD9138325 Si02
#       7
#     4   4   4   4   4   4   4
#     4  11  23  43  65  95 132 177 210 277 332 387
#     4  10  24  42  65  97 131 172 222 274 321 395
#     4  10  23  42  69  98 132 173 223 271 327 398
#     4  11  23  43  71  94 128 180 224 263 329 395
#     4  10  23  43  67  97 127 174 226 263 325 399
#     4   9  24  44  63 102 137 169 222 278 335 384
#     4   9  22  43  66  97 133 171 219 276 323 392
#
# _framework density 25.609081
#
# number of rings (size 3 to 8) (size 9 to 14) (size 15 to 20)
#    0.857    1.143    0.000    1.714    2.000   12.571 
#    5.143    0.000    0.000    0.000    0.000    0.000 
#    0.000    0.000    0.000    0.000    0.000    0.000 
#
# Total GULP energy -78229.167444 kJ/mol
# GULP energy per Si atom -5587.797675 kJ/mol
# Density = 2.555079 g / cm^3
# Si number density = 25.609081 Si / 1000 Ang^3
#
#
#
# Elastic Constant Matrix: (Units=GPa)
#
#
# Indices 1 2 3 4 5 6 
#
# 1 76.3148 11.4175 8.3078 0.0000 6.8712 0.0000
# 2 11.4175 117.0641 22.2225 0.0000 4.0088 0.0000
# 3 8.3078 22.2225 115.3168 0.0000 21.0923 0.0000
# 4 0.0000 0.0000 0.0000 42.7934 0.0000 -5.2877
# 5 6.8712 4.0088 21.0923 0.0000 23.7389 0.0000
# 6 0.0000 0.0000 0.0000 -5.2877 0.0000 32.9778
#
#
#
# Elastic Compliance Matrix: (Units=1/GPa)
#
#
# Indices 1 2 3 4 5 6 
#
# 1 0.013621 -0.001187 -0.000081 0.000000 -0.003670 0.000000
# 2 -0.001187 0.008970 -0.001706 0.000000 0.000345 0.000000
# 3 -0.000081 -0.001706 0.010686 0.000000 -0.009183 0.000000
# 4 0.000000 0.000000 0.000000 0.023840 0.000000 0.003823
# 5 -0.003670 0.000345 -0.009183 0.000000 0.051288 0.000000
# 6 0.000000 0.000000 0.000000 0.003823 0.000000 0.030936
#
#
# Mechanical properties :
#
#
# Convention : Reuss Voigt Hill
#
# Bulk Modulus (GPa) = 36.59344 43.62126 40.10735
# Shear Modulus (GPa) = 32.38335 37.68521 35.03428
#
# Velocity S-wave (km/s) = 3.55988 3.84025 3.70272
# Velocity P-wave (km/s) = 5.58724 6.06084 5.82885
#
# Compressibility (1/GPa) = 0.02732731
#
# Stress axis : x y z
#
# Youngs Moduli (GPa) = 73.41865 111.48013 93.57991
#
# Poissons Ratio (x) = 0.13237 0.00760
# Poissons Ratio (y) = 0.08717 0.15966
# Poissons Ratio (z) = 0.00596 0.19020
#
# Static dielectric constant tensor:
#      x y z
#    x 2.019450 0.000000 -0.003930 
#    y 0.000000 2.056940 0.000000 
#    z -0.003930 0.000000 2.088160 
# 
# From -- ./inp_files/32160.got.cif
#   From: 2010.05.17/outbox.cif.g08.bks.cpg/sg9_17_cif.got.tgz:32160.got - 2010.06.03 20:04:27.
