data_PCOD9138883
_publ_section_title
;
Structure prediction by ZEFSAII (Michael W. Deem and Ramdas Pophale) SiO2 
 PCOD9138883
Probable space group: C C
;
_chemical_formula_sum "Si O2"
_cell_formula_units_Z 20
_cell_length_a 5.183327
_cell_length_b 9.169789
_cell_length_c 20.294153
_cell_angle_alpha 90.000000
_cell_angle_beta 119.630024
_cell_angle_gamma 90.000000
_cell_volume 838.448850
_symmetry_space_group_name_H-M "C C"
_symmetry_group_IT_number 9
_symmetry_cell_setting 'monoclinic'
loop_
_space_group_symop_operation_xyz
x,y,z
x,-y,1/2+z
1/2+x,1/2+y,z
1/2+x,1/2-y,1/2+z
loop_
_atom_site_type_symbol
_atom_site_label
_atom_site_fract_x
_atom_site_fract_y
_atom_site_fract_z
Si Si1 0.071020 0.060630 0.913560
Si Si2 0.905617 0.169083 0.499731
Si Si3 0.432137 0.846471 0.733432
Si Si4 0.833866 0.343408 0.870076
Si Si5 0.318910 0.177185 0.677272
O O1 0.342773 0.175159 0.956757
O O2 0.789182 0.171157 0.874092
O O3 0.088186 0.964203 0.849939
O O4 0.051672 0.952195 0.972242
O O5 0.562150 0.119740 0.458404
O O6 0.076474 0.186141 0.588573
O O7 0.487716 0.856460 0.818910
O O8 0.672819 0.756205 0.722180
O O9 0.116022 0.761016 0.692251
O O10 0.389469 0.008339 0.699807
#
# Coordination Sequence:
#
# PCOD9138883 Si02
#       5
#     4   4   4   4   4
#     4  10  24  38  70  94 134 170 240 276 338 396
#     4  10  26  42  71  96 138 177 235 276 343 408
#     4  12  28  46  73 103 145 184 231 289 354 411
#     4  10  26  42  71  96 138 177 235 276 343 408
#     4  12  28  46  73 103 145 184 231 289 354 411
#
# _framework density 23.853573999999998
#
# number of rings (size 3 to 8) (size 9 to 14) (size 15 to 20)
#    1.200    0.000    0.000    3.600   14.000    0.000 
#    0.000    0.000    0.000    0.000    0.000    0.000 
#    0.000    0.000    0.000    0.000    0.000    0.000 
#
# Total GULP energy -55839.571770 kJ/mol
# GULP energy per Si atom -5583.957177 kJ/mol
# Density = 2.379928 g / cm^3
# Si number density = 23.853574 Si / 1000 Ang^3
#
#
#
# Elastic Constant Matrix: (Units=GPa)
#
#
# Indices 1 2 3 4 5 6 
#
# 1 69.2413 58.2565 7.2097 0.0000 -6.5970 0.0000
# 2 58.2565 214.9227 41.5334 0.0000 -17.4682 0.0000
# 3 7.2097 41.5334 101.4527 0.0000 14.7059 0.0000
# 4 0.0000 0.0000 0.0000 31.7896 0.0000 -10.3713
# 5 -6.5970 -17.4682 14.7059 0.0000 36.8278 0.0000
# 6 0.0000 0.0000 0.0000 -10.3713 0.0000 39.1455
#
#
#
# Elastic Compliance Matrix: (Units=1/GPa)
#
#
# Indices 1 2 3 4 5 6 
#
# 1 0.018783 -0.005173 0.000691 0.000000 0.000635 0.000000
# 2 -0.005173 0.006919 -0.002979 0.000000 0.003544 0.000000
# 3 0.000691 -0.002979 0.011903 0.000000 -0.006042 0.000000
# 4 0.000000 0.000000 0.000000 0.034433 0.000000 0.009123
# 5 0.000635 0.003544 -0.006042 0.000000 0.031361 0.000000
# 6 0.000000 0.000000 0.000000 0.009123 0.000000 0.027963
#
#
# Mechanical properties :
#
#
# Convention : Reuss Voigt Hill
#
# Bulk Modulus (GPa) = 44.08528 66.62397 55.35463
# Shear Modulus (GPa) = 32.50025 40.12705 36.31365
#
# Velocity S-wave (km/s) = 3.69520 4.10594 3.90597
# Velocity P-wave (km/s) = 6.06034 7.10418 6.60292
#
# Compressibility (1/GPa) = 0.02268331
#
# Stress axis : x y z
#
# Youngs Moduli (GPa) = 53.23853 144.53384 84.01295
#
# Poissons Ratio (x) = 0.74772 -0.05805
# Poissons Ratio (y) = 0.27542 0.25024
# Poissons Ratio (z) = -0.03679 0.43051
#
# Static dielectric constant tensor:
#      x y z
#    x 1.970220 0.000000 0.057440 
#    y 0.000000 1.966830 0.000000 
#    z 0.057440 0.000000 1.913510 
# 
# From -- ./inp_files/28375.got.cif
#   From: 2010.05.17/outbox.cif.g08.bks.cpg/sg9_15_cif.got.tgz:28375.got - 2010.06.03 20:04:27.
