data_PCOD9138915
_publ_section_title
;
Structure prediction by ZEFSAII (Michael W. Deem and Ramdas Pophale) SiO2 
 PCOD9138915
Probable space group: C C
;
_chemical_formula_sum "Si O2"
_cell_formula_units_Z 20
_cell_length_a 18.660165
_cell_length_b 5.021554
_cell_length_c 8.918550
_cell_angle_alpha 90.000000
_cell_angle_beta 106.350226
_cell_angle_gamma 90.000000
_cell_volume 801.898684
_symmetry_space_group_name_H-M "C C"
_symmetry_group_IT_number 9
_symmetry_cell_setting 'monoclinic'
loop_
_space_group_symop_operation_xyz
x,y,z
x,-y,1/2+z
1/2+x,1/2+y,z
1/2+x,1/2-y,1/2+z
loop_
_atom_site_type_symbol
_atom_site_label
_atom_site_fract_x
_atom_site_fract_y
_atom_site_fract_z
Si Si1 0.112710 0.832415 0.996040
Si Si2 0.873868 0.430633 0.741728
Si Si3 0.666540 0.852199 0.850044
Si Si4 0.450469 0.288136 0.030707
Si Si5 0.318480 0.435131 0.571840
O O1 0.116647 0.603622 0.871927
O O2 0.028287 0.863169 0.005530
O O3 0.144095 0.101301 0.940841
O O4 0.156548 0.729732 0.170661
O O5 0.902539 0.593147 0.898378
O O6 0.948479 0.360730 0.689290
O O7 0.830416 0.151766 0.711693
O O8 0.817269 0.635004 0.626022
O O9 0.749059 0.957325 0.938271
O O10 0.397806 0.538860 0.032997
#
# Coordination Sequence:
#
# PCOD9138915 Si02
#       5
#     4   4   4   4   4
#     4  12  28  47  71 104 144 186 230 292 351 422
#     4  10  24  40  71 101 125 179 223 290 317 411
#     4  12  28  46  72 103 145 184 233 287 359 409
#     4  10  26  42  74  93 141 169 240 266 350 394
#     4  10  26  41  72  95 139 172 234 273 341 406
#
# _framework density 24.940807
#
# number of rings (size 3 to 8) (size 9 to 14) (size 15 to 20)
#    1.200    0.000    0.000    3.600   14.000    0.000 
#    0.000    0.000    0.000    0.000    0.000    0.000 
#    0.000    0.000    0.000    0.000    0.000    0.000 
#
# Total GULP energy -55914.004851 kJ/mol
# GULP energy per Si atom -5591.400485 kJ/mol
# Density = 2.488404 g / cm^3
# Si number density = 24.940807 Si / 1000 Ang^3
#
#
#
# Elastic Constant Matrix: (Units=GPa)
#
#
# Indices 1 2 3 4 5 6 
#
# 1 123.1624 38.1183 2.5314 0.0000 -2.5365 0.0000
# 2 38.1183 136.7852 1.0857 0.0000 -18.4495 0.0000
# 3 2.5314 1.0857 51.6185 0.0000 -2.1124 0.0000
# 4 0.0000 0.0000 0.0000 32.7056 0.0000 -23.2829
# 5 -2.5365 -18.4495 -2.1124 0.0000 35.7320 0.0000
# 6 0.0000 0.0000 0.0000 -23.2829 0.0000 64.4253
#
#
#
# Elastic Compliance Matrix: (Units=1/GPa)
#
#
# Indices 1 2 3 4 5 6 
#
# 1 0.008911 -0.002577 -0.000412 0.000000 -0.000723 0.000000
# 2 -0.002577 0.008603 0.000120 0.000000 0.004266 0.000000
# 3 -0.000412 0.000120 0.019439 0.000000 0.001182 0.000000
# 4 0.000000 0.000000 0.000000 0.041167 0.000000 0.014877
# 5 -0.000723 0.004266 0.001182 0.000000 0.030208 0.000000
# 6 0.000000 0.000000 0.000000 0.014877 0.000000 0.020898
#
#
# Mechanical properties :
#
#
# Convention : Reuss Voigt Hill
#
# Bulk Modulus (GPa) = 32.03717 43.89300 37.96508
# Shear Modulus (GPa) = 34.39502 44.56130 39.47816
#
# Velocity S-wave (km/s) = 3.71761 4.23150 3.98285
# Velocity P-wave (km/s) = 5.59470 6.44292 6.03373
#
# Compressibility (1/GPa) = 0.03121374
#
# Stress axis : x y z
#
# Youngs Moduli (GPa) = 112.22554 116.23237 51.44309
#
# Poissons Ratio (x) = 0.29957 0.02121
# Poissons Ratio (y) = 0.28924 -0.00617
# Poissons Ratio (z) = 0.04627 -0.01395
#
# Static dielectric constant tensor:
#      x y z
#    x 1.988130 0.000000 -0.049470 
#    y 0.000000 1.813410 0.000000 
#    z -0.049470 0.000000 2.072740 
# 
# From -- ./inp_files/10210.got.cif
#   From: 2010.05.17/outbox.cif.g08.bks.cpg/sg9_6_cif.got.tgz:10210.got - 2010.06.03 20:04:27.
