data_PCOD9138518
_publ_section_title
;
Structure prediction by ZEFSAII (Michael W. Deem and Ramdas Pophale) SiO2 
 PCOD9138518
Probable space group: C C
;
_chemical_formula_sum "Si O2"
_cell_formula_units_Z 28
_cell_length_a 19.989349
_cell_length_b 9.535492
_cell_length_c 9.671746
_cell_angle_alpha 90.000000
_cell_angle_beta 142.078723
_cell_angle_gamma 90.000000
_cell_volume 1132.984011
_symmetry_space_group_name_H-M "C C"
_symmetry_group_IT_number 9
_symmetry_cell_setting 'monoclinic'
loop_
_space_group_symop_operation_xyz
x,y,z
x,-y,1/2+z
1/2+x,1/2+y,z
1/2+x,1/2-y,1/2+z
loop_
_atom_site_type_symbol
_atom_site_label
_atom_site_fract_x
_atom_site_fract_y
_atom_site_fract_z
Si Si1 0.748430 0.572864 0.924690
Si Si2 0.051266 0.133629 0.110127
Si Si3 0.835455 0.374543 0.286418
Si Si4 0.551945 0.772504 0.660433
Si Si5 0.627505 0.948129 0.213354
Si Si6 0.240427 0.403376 0.656749
Si Si7 0.456589 0.543111 0.685861
O O1 0.662531 0.448495 0.753103
O O2 0.838452 0.591069 0.953925
O O3 0.668368 0.708446 0.803756
O O4 0.807820 0.514530 0.157920
O O5 0.071060 0.297621 0.121012
O O6 0.012889 0.089606 0.201949
O O7 0.964910 0.062143 0.863228
O O8 0.734623 0.264617 0.126130
O O9 0.934813 0.278649 0.389294
O O10 0.528574 0.676152 0.752703
O O11 0.558297 0.938031 0.683217
O O12 0.733677 0.946826 0.485613
O O13 0.649779 0.017407 0.101121
O O14 0.344469 0.435235 0.921646
#
# Coordination Sequence:
#
# PCOD9138518 Si02
#       7
#     4   4   4   4   4   4   4
#     4  11  22  47  75 102 149 197 243 312 374 452
#     4  11  23  42  72 102 136 190 238 299 376 446
#     4  11  24  46  73 108 142 199 251 301 382 460
#     4  10  24  43  72 103 146 188 242 309 373 441
#     4  12  24  44  69 103 142 182 238 307 381 428
#     4  11  24  44  67 101 143 185 238 306 365 452
#     4  10  23  44  68  99 138 187 242 290 371 449
#
# _framework density 24.713498999999999
#
# number of rings (size 3 to 8) (size 9 to 14) (size 15 to 20)
#    0.000    1.143    2.857    3.429    0.000    3.429 
#    5.143    0.000    0.000    0.000    0.000    0.000 
#    0.000    0.000    0.000    0.000    0.000    0.000 
#
# Total GULP energy -77943.475441 kJ/mol
# GULP energy per Si atom -5567.391103 kJ/mol
# Density = 2.465725 g / cm^3
# Si number density = 24.713499 Si / 1000 Ang^3
#
#
#
# Elastic Constant Matrix: (Units=GPa)
#
#
# Indices 1 2 3 4 5 6 
#
# 1 80.6962 37.3875 42.6310 0.0000 -11.2974 0.0000
# 2 37.3875 152.2355 16.0535 0.0000 -2.5622 0.0000
# 3 42.6310 16.0535 100.8373 0.0000 -13.1672 0.0000
# 4 0.0000 0.0000 0.0000 37.5807 0.0000 7.1955
# 5 -11.2974 -2.5622 -13.1672 0.0000 38.1057 0.0000
# 6 0.0000 0.0000 0.0000 7.1955 0.0000 23.3123
#
#
#
# Elastic Compliance Matrix: (Units=1/GPa)
#
#
# Indices 1 2 3 4 5 6 
#
# 1 0.018004 -0.003672 -0.006663 0.000000 0.002788 0.000000
# 2 -0.003672 0.007430 0.000306 0.000000 -0.000483 0.000000
# 3 -0.006663 0.000306 0.013017 0.000000 0.002543 0.000000
# 4 0.000000 0.000000 0.000000 0.028281 0.000000 -0.008729
# 5 0.002788 -0.000483 0.002543 0.000000 0.027916 0.000000
# 6 0.000000 0.000000 0.000000 -0.008729 0.000000 0.045590
#
#
# Mechanical properties :
#
#
# Convention : Reuss Voigt Hill
#
# Bulk Modulus (GPa) = 54.36462 58.43477 56.39969
# Shear Modulus (GPa) = 30.04353 35.64624 32.84488
#
# Velocity S-wave (km/s) = 3.49043 3.80199 3.64954
# Velocity P-wave (km/s) = 6.18788 6.55513 6.37415
#
# Compressibility (1/GPa) = 0.01839432
#
# Stress axis : x y z
#
# Youngs Moduli (GPa) = 55.54434 134.58724 76.82223
#
# Poissons Ratio (x) = 0.49420 0.51184
# Poissons Ratio (y) = 0.20396 -0.02354
# Poissons Ratio (z) = 0.37007 -0.04124
#
# Static dielectric constant tensor:
#      x y z
#    x 2.073400 0.000000 0.090620 
#    y 0.000000 1.979430 0.000000 
#    z 0.090620 0.000000 2.190970 
# 
# From -- ./inp_files/11423.got.cif
#   From: 2010.05.17/outbox.cif.g08.bks.cpg/sg9_6_cif.got.tgz:11423.got - 2010.06.03 20:04:27.
