data_PCOD9138757
_publ_section_title
;
Structure prediction by ZEFSAII (Michael W. Deem and Ramdas Pophale) SiO2 
 PCOD9138757
Probable space group: C C
;
_chemical_formula_sum "Si O2"
_cell_formula_units_Z 24
_cell_length_a 13.713209
_cell_length_b 7.564548
_cell_length_c 23.183124
_cell_angle_alpha 90.000000
_cell_angle_beta 23.036248
_cell_angle_gamma 90.000000
_cell_volume 941.063137
_symmetry_space_group_name_H-M "C C"
_symmetry_group_IT_number 9
_symmetry_cell_setting 'monoclinic'
loop_
_space_group_symop_operation_xyz
x,y,z
x,-y,1/2+z
1/2+x,1/2+y,z
1/2+x,1/2-y,1/2+z
loop_
_atom_site_type_symbol
_atom_site_label
_atom_site_fract_x
_atom_site_fract_y
_atom_site_fract_z
Si Si1 0.043920 0.472962 0.368110
Si Si2 0.222525 0.168735 0.344652
Si Si3 0.529701 0.613828 0.160615
Si Si4 0.534203 0.589493 0.763383
Si Si5 0.831138 0.920437 0.600144
Si Si6 0.666514 0.996065 0.060957
O O1 0.037252 0.290285 0.408034
O O2 0.245622 0.580504 0.296164
O O3 0.176742 0.480115 0.233981
O O4 0.752291 0.524239 0.521014
O O5 0.354225 0.293074 0.320121
O O6 0.413651 0.105368 0.191303
O O7 0.104472 0.003858 0.443521
O O8 0.552595 0.591710 0.217220
O O9 0.599916 0.792616 0.090435
O O10 0.780394 0.710776 0.636588
O O11 0.394527 0.557120 0.898538
O O12 0.721351 0.967235 0.597780
#
# Coordination Sequence:
#
# PCOD9138757 Si02
#       6
#     4   4   4   4   4   4
#     4  11  26  47  75 106 156 192 255 310 379 452
#     4  10  23  46  73 108 149 196 250 314 379 452
#     4  11  27  48  74 109 150 203 250 310 383 448
#     4  10  26  47  74 106 157 191 257 316 379 448
#     4  11  25  43  76 105 149 196 247 314 379 439
#     4  11  25  45  74 108 145 202 253 306 385 449
#
# _framework density 25.503070999999998
#
# number of rings (size 3 to 8) (size 9 to 14) (size 15 to 20)
#    0.000    1.333    1.667    1.000   16.333    0.000 
#    9.000    0.000    0.000    0.000    0.000    0.000 
#    0.000    0.000    0.000    0.000    0.000    0.000 
#
# Total GULP energy -67020.680639 kJ/mol
# GULP energy per Si atom -5585.056720 kJ/mol
# Density = 2.544503 g / cm^3
# Si number density = 25.503071 Si / 1000 Ang^3
#
#
#
# Elastic Constant Matrix: (Units=GPa)
#
#
# Indices 1 2 3 4 5 6 
#
# 1 67.8302 13.6143 18.9560 -0.0012 20.1928 0.0015
# 2 13.6143 88.4869 27.0527 -0.0035 -0.0190 -0.0005
# 3 18.9560 27.0527 120.2700 -0.0385 19.4039 -0.0010
# 4 -0.0012 -0.0035 -0.0385 52.8759 -0.0008 -1.9945
# 5 20.1928 -0.0190 19.4039 -0.0008 53.0085 -0.0007
# 6 0.0015 -0.0005 -0.0010 -1.9945 -0.0007 14.2325
#
#
#
# Elastic Compliance Matrix: (Units=1/GPa)
#
#
# Indices 1 2 3 4 5 6 
#
# 1 0.017385 -0.002301 -0.001226 -0.000001 -0.006175 -0.000002
# 2 -0.002301 0.012497 -0.002753 -0.000001 0.001889 0.000000
# 3 -0.001226 -0.002753 0.009620 0.000007 -0.003055 0.000001
# 4 -0.000001 -0.000001 0.000007 0.019013 -0.000002 0.002664
# 5 -0.006175 0.001889 -0.003055 -0.000002 0.022336 0.000001
# 6 -0.000002 0.000000 0.000001 0.002664 0.000001 0.070635
#
#
# Mechanical properties :
#
#
# Convention : Reuss Voigt Hill
#
# Bulk Modulus (GPa) = 37.11751 43.98145 40.54948
# Shear Modulus (GPa) = 28.89695 38.48764 33.69230
#
# Velocity S-wave (km/s) = 3.36977 3.88898 3.63865
# Velocity P-wave (km/s) = 5.45218 6.11952 5.79546
#
# Compressibility (1/GPa) = 0.02694146
#
# Stress axis : x y z
#
# Youngs Moduli (GPa) = 57.51926 80.01757 103.94898
#
# Poissons Ratio (x) = 0.18414 0.12748
# Poissons Ratio (y) = 0.13237 0.28618
# Poissons Ratio (z) = 0.07054 0.22029
#
# Static dielectric constant tensor:
#      x y z
#    x 2.029740 0.000000 -0.118370 
#    y 0.000000 2.106080 0.000010 
#    z -0.118370 0.000010 2.105710 
# 
# From -- ./inp_files/17518.got.cif
#   From: 2010.05.17/outbox.cif.g08.bks.cpg/sg9_9_cif.got.tgz:17518.got - 2010.06.03 20:04:27.
