data_PCOD9138820
_publ_section_title
;
Structure prediction by ZEFSAII (Michael W. Deem and Ramdas Pophale) SiO2 
 PCOD9138820
Probable space group: C C
;
_chemical_formula_sum "Si O2"
_cell_formula_units_Z 28
_cell_length_a 5.274560
_cell_length_b 13.079558
_cell_length_c 18.916980
_cell_angle_alpha 90.000000
_cell_angle_beta 122.940848
_cell_angle_gamma 90.000000
_cell_volume 1095.250233
_symmetry_space_group_name_H-M "C C"
_symmetry_group_IT_number 9
_symmetry_cell_setting 'monoclinic'
loop_
_space_group_symop_operation_xyz
x,y,z
x,-y,1/2+z
1/2+x,1/2+y,z
1/2+x,1/2-y,1/2+z
loop_
_atom_site_type_symbol
_atom_site_label
_atom_site_fract_x
_atom_site_fract_y
_atom_site_fract_z
Si Si1 0.331310 0.077300 0.903880
Si Si2 0.154284 0.845034 0.661896
Si Si3 0.132928 0.050139 0.617193
Si Si4 0.566798 0.087515 0.346914
Si Si5 0.824110 0.118385 0.711196
Si Si6 0.610005 0.252204 0.035285
Si Si7 0.750147 0.364379 0.933060
O O1 0.035523 0.094461 0.810714
O O2 0.566810 0.026194 0.882383
O O3 0.317294 0.983256 0.956722
O O4 0.406699 0.175354 0.960796
O O5 0.338635 0.908204 0.747759
O O6 0.330433 0.737746 0.690165
O O7 0.808500 0.808822 0.622340
O O8 0.126480 0.930242 0.595797
O O9 0.945462 0.060754 0.660787
O O10 0.992580 0.138537 0.545220
O O11 0.481215 0.085715 0.675406
O O12 0.400940 0.156368 0.381232
O O13 0.886622 0.132782 0.373134
O O14 0.844642 0.289989 0.009566
#
# Coordination Sequence:
#
# PCOD9138820 Si02
#       7
#     4   4   4   4   4   4   4
#     4  10  24  47  75 103 141 186 241 293 346 423
#     4  11  25  47  74 105 145 186 237 298 348 424
#     4  11  26  48  68 106 146 183 235 297 353 419
#     4  10  23  47  76  93 144 186 237 291 347 407
#     4  11  25  46  76 104 131 193 242 283 356 425
#     4  11  27  44  72 109 144 192 233 289 371 416
#     4  10  24  47  69 106 139 186 235 299 347 420
#
# _framework density 25.564933
#
# number of rings (size 3 to 8) (size 9 to 14) (size 15 to 20)
#    0.857    0.571    1.429    1.714    2.000   12.571 
#    5.143    0.000    0.000    0.000    0.000    0.000 
#    0.000    0.000    0.000    0.000    0.000    0.000 
#
# Total GULP energy -78132.601503 kJ/mol
# GULP energy per Si atom -5580.900107 kJ/mol
# Density = 2.550675 g / cm^3
# Si number density = 25.564933 Si / 1000 Ang^3
#
#
#
# Elastic Constant Matrix: (Units=GPa)
#
#
# Indices 1 2 3 4 5 6 
#
# 1 104.4559 11.1113 22.5438 0.0000 8.5595 0.0000
# 2 11.1113 156.6187 12.8842 0.0000 11.1889 0.0000
# 3 22.5438 12.8842 85.9212 0.0000 20.1419 0.0000
# 4 0.0000 0.0000 0.0000 46.2904 0.0000 2.9309
# 5 8.5595 11.1889 20.1419 0.0000 28.0818 0.0000
# 6 0.0000 0.0000 0.0000 2.9309 0.0000 31.0079
#
#
#
# Elastic Compliance Matrix: (Units=1/GPa)
#
#
# Indices 1 2 3 4 5 6 
#
# 1 0.010225 -0.000444 -0.002317 0.000000 -0.001278 0.000000
# 2 -0.000444 0.006606 -0.000347 0.000000 -0.002248 0.000000
# 3 -0.002317 -0.000347 0.014546 0.000000 -0.009589 0.000000
# 4 0.000000 0.000000 0.000000 0.021733 0.000000 -0.002054
# 5 -0.001278 -0.002248 -0.009589 0.000000 0.043773 0.000000
# 6 0.000000 0.000000 0.000000 -0.002054 0.000000 0.032444
#
#
# Mechanical properties :
#
#
# Convention : Reuss Voigt Hill
#
# Bulk Modulus (GPa) = 39.74209 48.89716 44.31962
# Shear Modulus (GPa) = 34.73920 41.10647 37.92283
#
# Velocity S-wave (km/s) = 3.69027 4.01424 3.85566
# Velocity P-wave (km/s) = 5.80834 6.37603 6.09879
#
# Compressibility (1/GPa) = 0.02516224
#
# Stress axis : x y z
#
# Youngs Moduli (GPa) = 97.79624 151.38813 68.74567
#
# Poissons Ratio (x) = 0.06714 0.15926
# Poissons Ratio (y) = 0.04338 0.02387
# Poissons Ratio (z) = 0.22657 0.05257
#
# Static dielectric constant tensor:
#      x y z
#    x 2.036890 0.000000 0.012670 
#    y 0.000000 2.072030 0.000000 
#    z 0.012670 0.000000 2.116620 
# 
# From -- ./inp_files/32054.got.cif
#   From: 2010.05.17/outbox.cif.g08.bks.cpg/sg9_17_cif.got.tgz:32054.got - 2010.06.03 20:04:27.
