data_PCOD9138292
_publ_section_title
;
Structure prediction by ZEFSAII (Michael W. Deem and Ramdas Pophale) SiO2 
 PCOD9138292
Probable space group: C C
;
_chemical_formula_sum "Si O2"
_cell_formula_units_Z 28
_cell_length_a 6.520821
_cell_length_b 22.259922
_cell_length_c 7.906362
_cell_angle_alpha 90.000000
_cell_angle_beta 80.580954
_cell_angle_gamma 90.000000
_cell_volume 1132.159316
_symmetry_space_group_name_H-M "C C"
_symmetry_group_IT_number 9
_symmetry_cell_setting 'monoclinic'
loop_
_space_group_symop_operation_xyz
x,y,z
x,-y,1/2+z
1/2+x,1/2+y,z
1/2+x,1/2-y,1/2+z
loop_
_atom_site_type_symbol
_atom_site_label
_atom_site_fract_x
_atom_site_fract_y
_atom_site_fract_z
Si Si1 0.838460 0.574668 0.069880
Si Si2 0.832917 0.753063 0.778696
Si Si3 0.152226 0.974211 0.276100
Si Si4 0.435649 0.129425 0.593816
Si Si5 0.750319 0.919246 0.290060
Si Si6 0.238525 0.185783 0.286272
Si Si7 0.403258 0.704726 0.909694
O O1 0.795986 0.532787 0.236582
O O2 0.782516 0.642168 0.125656
O O3 0.670793 0.546470 0.966171
O O4 0.057663 0.570276 0.944563
O O5 0.921625 0.687183 0.719233
O O6 0.629771 0.733910 0.908392
O O7 0.993041 0.799866 0.841633
O O8 0.782779 0.783388 0.601840
O O9 0.265409 0.921149 0.158062
O O10 0.910795 0.974094 0.260042
O O11 0.651483 0.098373 0.621442
O O12 0.366574 0.155281 0.422559
O O13 0.877265 0.862590 0.350077
O O14 0.322384 0.253172 0.269691
#
# Coordination Sequence:
#
# PCOD9138292 Si02
#       7
#     4   4   4   4   4   4   4
#     4  11  26  46  75 104 140 195 247 304 371 442
#     4  11  23  39  68 101 146 189 245 296 368 428
#     4  11  24  47  72 101 143 187 248 308 365 430
#     4  10  23  42  67 104 140 196 236 297 367 436
#     4  11  23  45  74 101 144 188 246 299 370 438
#     4  11  24  42  69 106 150 181 244 298 357 447
#     4  11  23  41  69 107 145 198 238 298 370 439
#
# _framework density 24.7315
#
# number of rings (size 3 to 8) (size 9 to 14) (size 15 to 20)
#    0.000    1.143    2.857    2.571    2.000    6.857 
#    0.000    4.286    0.000    0.000    0.000    0.000 
#    0.000    0.000    0.000    0.000    0.000    0.000 
#
# Total GULP energy -78183.658254 kJ/mol
# GULP energy per Si atom -5584.547018 kJ/mol
# Density = 2.467521 g / cm^3
# Si number density = 24.731500 Si / 1000 Ang^3
#
#
#
# Elastic Constant Matrix: (Units=GPa)
#
#
# Indices 1 2 3 4 5 6 
#
# 1 131.3744 34.9947 34.2284 0.0000 -7.1244 0.0000
# 2 34.9947 94.0030 31.7762 0.0000 -11.6537 0.0000
# 3 34.2284 31.7762 76.0859 0.0000 1.7029 0.0000
# 4 0.0000 0.0000 0.0000 34.6099 0.0000 -14.5399
# 5 -7.1244 -11.6537 1.7029 0.0000 30.2902 0.0000
# 6 0.0000 0.0000 0.0000 -14.5399 0.0000 27.4849
#
#
#
# Elastic Compliance Matrix: (Units=1/GPa)
#
#
# Indices 1 2 3 4 5 6 
#
# 1 0.009101 -0.002101 -0.003250 0.000000 0.001515 0.000000
# 2 -0.002101 0.013699 -0.004889 0.000000 0.005051 0.000000
# 3 -0.003250 -0.004889 0.016727 0.000000 -0.003586 0.000000
# 4 0.000000 0.000000 0.000000 0.037150 0.000000 0.019653
# 5 0.001515 0.005051 -0.003586 0.000000 0.035515 0.000000
# 6 0.000000 0.000000 0.000000 0.019653 0.000000 0.046780
#
#
# Mechanical properties :
#
#
# Convention : Reuss Voigt Hill
#
# Bulk Modulus (GPa) = 52.50542 55.94022 54.22282
# Shear Modulus (GPa) = 26.91037 31.84127 29.37582
#
# Velocity S-wave (km/s) = 3.30222 3.59204 3.45017
# Velocity P-wave (km/s) = 5.98463 6.31441 6.15173
#
# Compressibility (1/GPa) = 0.01904565
#
# Stress axis : x y z
#
# Youngs Moduli (GPa) = 109.88320 72.99760 59.78246
#
# Poissons Ratio (x) = 0.15340 0.19431
# Poissons Ratio (y) = 0.23091 0.29227
# Poissons Ratio (z) = 0.35716 0.35688
#
# Static dielectric constant tensor:
#      x y z
#    x 2.044020 0.000000 0.045770 
#    y 0.000000 2.006210 0.000000 
#    z 0.045770 0.000000 2.039400 
# 
# From -- ./inp_files/4007.got.cif
#   From: 2010.05.17/outbox.cif.g08.bks.cpg/sg9_3_cif.got.tgz:4007.got - 2010.06.03 20:04:27.
