data_PCOD9138834
_publ_section_title
;
Structure prediction by ZEFSAII (Michael W. Deem and Ramdas Pophale) SiO2 
 PCOD9138834
Probable space group: C C
;
_chemical_formula_sum "Si O2"
_cell_formula_units_Z 32
_cell_length_a 12.079805
_cell_length_b 7.672659
_cell_length_c 13.350855
_cell_angle_alpha 90.000000
_cell_angle_beta 64.234931
_cell_angle_gamma 90.000000
_cell_volume 1114.394863
_symmetry_space_group_name_H-M "C C"
_symmetry_group_IT_number 9
_symmetry_cell_setting 'monoclinic'
loop_
_space_group_symop_operation_xyz
x,y,z
x,-y,1/2+z
1/2+x,1/2+y,z
1/2+x,1/2-y,1/2+z
loop_
_atom_site_type_symbol
_atom_site_label
_atom_site_fract_x
_atom_site_fract_y
_atom_site_fract_z
Si Si1 0.986710 0.498805 0.443020
Si Si2 0.566507 0.339737 0.028673
Si Si3 0.595740 0.643129 0.149678
Si Si4 0.792243 0.226948 0.070772
Si Si5 0.886800 0.973225 0.351574
Si Si6 0.914195 0.455791 0.243284
Si Si7 0.218901 0.728239 0.327101
Si Si8 0.824134 0.777641 0.187948
O O1 0.865509 0.587518 0.541341
O O2 0.955979 0.493521 0.337993
O O3 0.039000 0.305544 0.451395
O O4 0.093937 0.642353 0.408164
O O5 0.621999 0.536102 0.037647
O O6 0.663746 0.239883 0.061715
O O7 0.424581 0.400727 0.098749
O O8 0.522964 0.507740 0.253633
O O9 0.499417 0.799943 0.170074
O O10 0.711109 0.726314 0.163427
O O11 0.752802 0.171106 0.198699
O O12 0.875077 0.113538 0.962368
O O13 0.807083 0.855954 0.304946
O O14 0.817627 0.156079 0.369104
O O15 0.765834 0.425610 0.300695
O O16 0.922825 0.624697 0.172851
#
# Coordination Sequence:
#
# PCOD9138834 Si02
#       8
#     4   4   4   4   4   4   4   4
#     4  12  25  47  79 109 160 205 254 324 384 466
#     4  11  24  45  72 110 148 202 255 312 394 458
#     4  10  24  44  72 110 150 189 256 319 387 463
#     4  12  25  46  80 114 151 211 262 316 398 464
#     4  10  23  48  72 114 155 199 256 325 381 472
#     4  11  24  44  72 109 146 195 255 318 378 450
#     4  11  25  48  74 111 155 201 260 322 387 460
#     4  11  22  46  77 103 151 198 252 326 387 451
#
# _framework density 28.715133999999999
#
# number of rings (size 3 to 8) (size 9 to 14) (size 15 to 20)
#    0.000    1.000    2.500    3.750    3.500    0.000 
#   13.500    8.750    0.000    0.000    0.000    0.000 
#    0.000    0.000    0.000    0.000    0.000    0.000 
#
# Total GULP energy -89296.879672 kJ/mol
# GULP energy per Si atom -5581.054979 kJ/mol
# Density = 2.864978 g / cm^3
# Si number density = 28.715134 Si / 1000 Ang^3
#
#
#
# Elastic Constant Matrix: (Units=GPa)
#
#
# Indices 1 2 3 4 5 6 
#
# 1 183.4455 37.4621 31.2565 0.0000 5.6239 0.0000
# 2 37.4621 71.7014 18.7881 0.0000 14.5502 0.0000
# 3 31.2565 18.7881 108.8870 0.0000 2.4037 0.0000
# 4 0.0000 0.0000 0.0000 35.9326 0.0000 4.2593
# 5 5.6239 14.5502 2.4037 0.0000 56.9263 0.0000
# 6 0.0000 0.0000 0.0000 4.2593 0.0000 48.0731
#
#
#
# Elastic Compliance Matrix: (Units=1/GPa)
#
#
# Indices 1 2 3 4 5 6 
#
# 1 0.006274 -0.002979 -0.001291 0.000000 0.000196 0.000000
# 2 -0.002979 0.016812 -0.001959 0.000000 -0.003920 0.000000
# 3 -0.001291 -0.001959 0.009888 0.000000 0.000211 0.000000
# 4 0.000000 0.000000 0.000000 0.028125 0.000000 -0.002492
# 5 0.000196 -0.003920 0.000211 0.000000 0.018540 0.000000
# 6 0.000000 0.000000 0.000000 -0.002492 0.000000 0.021022
#
#
# Mechanical properties :
#
#
# Convention : Reuss Voigt Hill
#
# Bulk Modulus (GPa) = 48.74596 59.89414 54.32005
# Shear Modulus (GPa) = 41.68095 46.62153 44.15124
#
# Velocity S-wave (km/s) = 3.81403 4.03375 3.92543
# Velocity P-wave (km/s) = 6.03393 6.52673 6.28516
#
# Compressibility (1/GPa) = 0.02051452
#
# Stress axis : x y z
#
# Youngs Moduli (GPa) = 159.39816 59.48066 101.13427
#
# Poissons Ratio (x) = 0.17721 0.13058
# Poissons Ratio (y) = 0.47489 0.19814
# Poissons Ratio (z) = 0.20580 0.11653
#
# Static dielectric constant tensor:
#      x y z
#    x 2.172830 0.000000 -0.100710 
#    y 0.000000 2.423000 0.000000 
#    z -0.100710 0.000000 2.449280 
# 
# From -- ./inp_files/24200.got.cif
#   From: 2010.05.17/outbox.cif.g08.bks.cpg/sg9_13_cif.got.tgz:24200.got - 2010.06.03 20:04:27.
