data_PCOD9138487
_publ_section_title
;
Structure prediction by ZEFSAII (Michael W. Deem and Ramdas Pophale) SiO2 
 PCOD9138487
Probable space group: C C
;
_chemical_formula_sum "Si O2"
_cell_formula_units_Z 32
_cell_length_a 7.190794
_cell_length_b 15.156070
_cell_length_c 11.668616
_cell_angle_alpha 90.000000
_cell_angle_beta 86.655505
_cell_angle_gamma 90.000000
_cell_volume 1269.528580
_symmetry_space_group_name_H-M "C C"
_symmetry_group_IT_number 9
_symmetry_cell_setting 'monoclinic'
loop_
_space_group_symop_operation_xyz
x,y,z
x,-y,1/2+z
1/2+x,1/2+y,z
1/2+x,1/2-y,1/2+z
loop_
_atom_site_type_symbol
_atom_site_label
_atom_site_fract_x
_atom_site_fract_y
_atom_site_fract_z
Si Si1 0.500000 0.530678 0.489630
Si Si2 0.389529 0.850646 0.623625
Si Si3 0.946492 0.151918 0.079074
Si Si4 0.871603 0.813369 0.834153
Si Si5 0.864597 0.847710 0.178285
Si Si6 0.601428 0.143365 0.879520
Si Si7 0.385519 0.027450 0.347082
Si Si8 0.556320 0.177470 0.495122
O O1 0.400142 0.439063 0.519470
O O2 0.404137 0.600542 0.409576
O O3 0.502984 0.583011 0.611810
O O4 0.688435 0.511497 0.414881
O O5 0.433731 0.752243 0.665894
O O6 0.532663 0.866197 0.513994
O O7 0.388634 0.919230 0.727995
O O8 0.172774 0.850718 0.589091
O O9 0.855958 0.155311 0.206539
O O10 0.904130 0.247650 0.026982
O O11 0.032574 0.741290 0.844496
O O12 0.688220 0.774261 0.897257
O O13 0.800882 0.866663 0.309437
O O14 0.677063 0.846064 0.103778
O O15 0.483789 0.065225 0.825729
O O16 0.484312 0.090461 0.436816
#
# Coordination Sequence:
#
# PCOD9138487 Si02
#       8
#     4   4   4   4   4   4   4   4
#     4  11  22  43  68  99 125 176 223 272 329 399
#     4  11  22  44  65  96 136 180 220 272 338 395
#     4  11  21  42  70  94 131 181 219 266 339 397
#     4  11  21  45  68  89 136 175 219 267 332 408
#     4  10  23  44  71  90 133 183 219 271 337 394
#     4  12  22  42  71  94 133 182 223 265 341 396
#     4  12  26  40  67 106 134 168 229 283 328 396
#     4  10  23  44  64  98 132 169 220 276 330 389
#
# _framework density 25.206205000000001
#
# number of rings (size 3 to 8) (size 9 to 14) (size 15 to 20)
#    0.000    1.000    8.750    0.000    3.500    0.000 
#    4.500    2.500    0.000    0.000    0.000    0.000 
#    0.000    0.000    0.000    0.000    0.000    0.000 
#
# Total GULP energy -89529.401808 kJ/mol
# GULP energy per Si atom -5595.587613 kJ/mol
# Density = 2.514883 g / cm^3
# Si number density = 25.206205 Si / 1000 Ang^3
#
#
#
# Elastic Constant Matrix: (Units=GPa)
#
#
# Indices 1 2 3 4 5 6 
#
# 1 42.9733 16.7135 29.6250 0.0000 -21.0205 0.0000
# 2 16.7135 128.1295 64.2228 0.0000 -1.9567 0.0000
# 3 29.6250 64.2228 175.4810 0.0000 -36.1678 0.0000
# 4 0.0000 0.0000 0.0000 42.5658 0.0000 -9.2449
# 5 -21.0205 -1.9567 -36.1678 0.0000 49.6160 0.0000
# 6 0.0000 0.0000 0.0000 -9.2449 0.0000 18.3800
#
#
#
# Elastic Compliance Matrix: (Units=1/GPa)
#
#
# Indices 1 2 3 4 5 6 
#
# 1 0.031507 -0.003058 -0.001734 0.000000 0.011964 0.000000
# 2 -0.003058 0.010139 -0.003976 0.000000 -0.003794 0.000000
# 3 -0.001734 -0.003976 0.008547 0.000000 0.005339 0.000000
# 4 0.000000 0.000000 0.000000 0.026374 0.000000 0.013266
# 5 0.011964 -0.003794 0.005339 0.000000 0.028966 0.000000
# 6 0.000000 0.000000 0.000000 0.013266 0.000000 0.061080
#
#
# Mechanical properties :
#
#
# Convention : Reuss Voigt Hill
#
# Bulk Modulus (GPa) = 30.62228 63.07849 46.85038
# Shear Modulus (GPa) = 25.63650 37.84719 31.74184
#
# Velocity S-wave (km/s) = 3.19261 3.87913 3.55249
# Velocity P-wave (km/s) = 5.07597 6.71884 5.95434
#
# Compressibility (1/GPa) = 0.03265597
#
# Stress axis : x y z
#
# Youngs Moduli (GPa) = 31.73886 98.63280 116.99974
#
# Poissons Ratio (x) = 0.30161 0.20289
# Poissons Ratio (y) = 0.09706 0.46523
# Poissons Ratio (z) = 0.05504 0.39220
#
# Static dielectric constant tensor:
#      x y z
#    x 2.151880 0.000000 0.053700 
#    y 0.000000 1.938110 0.000000 
#    z 0.053700 0.000000 1.989230 
# 
# From -- ./inp_files/14611.got.cif
#   From: 2010.05.17/outbox.cif.g08.bks.cpg/sg9_8_cif.got.tgz:14611.got - 2010.06.03 20:04:27.
