data_PCOD9138078
_publ_section_title
;
Structure prediction by ZEFSAII (Michael W. Deem and Ramdas Pophale) SiO2 
 PCOD9138078
Probable space group: C C
;
_chemical_formula_sum "Si O2"
_cell_formula_units_Z 20
_cell_length_a 28.722153
_cell_length_b 4.951481
_cell_length_c 11.060174
_cell_angle_alpha 90.000000
_cell_angle_beta 153.714121
_cell_angle_gamma 90.000000
_cell_volume 696.579908
_symmetry_space_group_name_H-M "C C"
_symmetry_group_IT_number 9
_symmetry_cell_setting 'monoclinic'
loop_
_space_group_symop_operation_xyz
x,y,z
x,-y,1/2+z
1/2+x,1/2+y,z
1/2+x,1/2-y,1/2+z
loop_
_atom_site_type_symbol
_atom_site_label
_atom_site_fract_x
_atom_site_fract_y
_atom_site_fract_z
Si Si1 0.661200 0.968755 0.909930
Si Si2 0.229612 0.160050 0.383464
Si Si3 0.513721 0.537949 0.103359
Si Si4 0.984748 0.944915 0.289479
Si Si5 0.814303 0.406823 0.340709
O O1 0.606523 0.689450 0.821677
O O2 0.564316 0.176243 0.692585
O O3 0.748401 0.121409 0.195886
O O4 0.707298 0.034624 0.882687
O O5 0.289359 0.028924 0.640830
O O6 0.279612 0.088524 0.372114
O O7 0.110409 0.043962 0.092756
O O8 0.456730 0.575087 0.096837
O O9 0.445031 0.461082 0.827443
O O10 0.935993 0.652454 0.149674
#
# Coordination Sequence:
#
# PCOD9138078 Si02
#       5
#     4   4   4   4   4
#     4   9  23  47  76 104 159 205 254 333 397 461
#     4   9  20  47  75 112 162 201 265 336 386 480
#     4  11  24  49  76 110 157 211 259 332 400 469
#     4  11  23  48  78 116 158 217 266 332 408 488
#     4  10  22  47  79 116 156 216 264 331 409 480
#
# _framework density 28.711713
#
# number of rings (size 3 to 8) (size 9 to 14) (size 15 to 20)
#    1.200    0.800    2.000    0.000    0.000    6.400 
#   10.800    6.000    0.000    0.000    0.000    0.000 
#    0.000    0.000    0.000    0.000    0.000    0.000 
#
# Total GULP energy -55772.189154 kJ/mol
# GULP energy per Si atom -5577.218915 kJ/mol
# Density = 2.864636 g / cm^3
# Si number density = 28.711713 Si / 1000 Ang^3
#
#
#
# Elastic Constant Matrix: (Units=GPa)
#
#
# Indices 1 2 3 4 5 6 
#
# 1 192.4781 34.9907 64.5171 0.0000 -82.3763 0.0000
# 2 34.9907 100.0005 41.8102 0.0000 -26.8021 0.0000
# 3 64.5171 41.8102 166.3140 0.0000 -38.1161 0.0000
# 4 0.0000 0.0000 0.0000 52.2624 0.0000 -3.7012
# 5 -82.3763 -26.8021 -38.1161 0.0000 49.7148 0.0000
# 6 0.0000 0.0000 0.0000 -3.7012 0.0000 30.2167
#
#
#
# Elastic Compliance Matrix: (Units=1/GPa)
#
#
# Indices 1 2 3 4 5 6 
#
# 1 0.018234 0.002135 -0.000512 0.000000 0.030972 0.000000
# 2 0.002135 0.012407 -0.001945 0.000000 0.008735 0.000000
# 3 -0.000512 -0.001945 0.007601 0.000000 0.003931 0.000000
# 4 0.000000 0.000000 0.000000 0.019302 0.000000 0.002364
# 5 0.030972 0.008735 0.003931 0.000000 0.079158 0.000000
# 6 0.000000 0.000000 0.000000 0.002364 0.000000 0.033384
#
#
# Mechanical properties :
#
#
# Convention : Reuss Voigt Hill
#
# Bulk Modulus (GPa) = 26.59700 82.38097 54.48899
# Shear Modulus (GPa) = 27.28299 47.60376 37.44338
#
# Velocity S-wave (km/s) = 3.08594 4.07626 3.61517
# Velocity P-wave (km/s) = 4.68838 7.13507 6.03698
#
# Compressibility (1/GPa) = 0.03759822
#
# Stress axis : x y z
#
# Youngs Moduli (GPa) = 54.84150 80.59658 131.55746
#
# Poissons Ratio (x) = -0.17207 0.06735
# Poissons Ratio (y) = -0.11708 0.25594
# Poissons Ratio (z) = 0.02808 0.15680
#
# Static dielectric constant tensor:
#      x y z
#    x 2.301010 0.000000 -0.039740 
#    y 0.000000 2.300670 0.000000 
#    z -0.039740 0.000000 2.288990 
# 
# From -- ./inp_files/21372.got.cif
#   From: 2010.05.17/outbox.cif.g08.bks.cpg/sg9_11_cif.got.tgz:21372.got - 2010.06.03 20:04:27.
