data_PCOD9138875
_publ_section_title
;
Structure prediction by ZEFSAII (Michael W. Deem and Ramdas Pophale) SiO2 
 PCOD9138875
Probable space group: C C
;
_chemical_formula_sum "Si O2"
_cell_formula_units_Z 24
_cell_length_a 7.651486
_cell_length_b 11.865129
_cell_length_c 9.918709
_cell_angle_alpha 90.000000
_cell_angle_beta 68.114246
_cell_angle_gamma 90.000000
_cell_volume 835.580185
_symmetry_space_group_name_H-M "C C"
_symmetry_group_IT_number 9
_symmetry_cell_setting 'monoclinic'
loop_
_space_group_symop_operation_xyz
x,y,z
x,-y,1/2+z
1/2+x,1/2+y,z
1/2+x,1/2-y,1/2+z
loop_
_atom_site_type_symbol
_atom_site_label
_atom_site_fract_x
_atom_site_fract_y
_atom_site_fract_z
Si Si1 0.273870 0.984839 0.410020
Si Si2 0.973151 0.886930 0.708055
Si Si3 0.144981 0.223030 0.783090
Si Si4 0.158868 0.686997 0.567450
Si Si5 0.674289 0.031545 0.939684
Si Si6 0.588704 0.284403 0.995715
O O1 0.245517 0.894166 0.298873
O O2 0.483998 0.982847 0.407056
O O3 0.120376 0.946072 0.566368
O O4 0.211361 0.112770 0.401124
O O5 0.786619 0.825251 0.706279
O O6 0.085498 0.768752 0.704181
O O7 0.871332 0.981503 0.827772
O O8 0.050080 0.200692 0.667600
O O9 0.069707 0.271042 0.949311
O O10 0.185952 0.663930 0.953574
O O11 0.139495 0.552524 0.576890
O O12 0.380047 0.712226 0.493699
#
# Coordination Sequence:
#
# PCOD9138875 Si02
#       6
#     4   4   4   4   4   4
#     4  11  26  54  80 128 173 223 294 350 434 517
#     4  10  23  52  85 117 173 223 278 363 417 518
#     4  10  24  50  82 119 169 226 281 352 421 522
#     4  10  24  54  82 126 172 218 293 347 432 520
#     4  11  25  54  82 124 173 225 291 359 433 510
#     4  12  26  52  87 124 172 231 283 359 439 503
#
# _framework density 28.722560000000001
#
# number of rings (size 3 to 8) (size 9 to 14) (size 15 to 20)
#    0.000    1.333    3.333    1.000    2.333    4.000 
#   21.000    0.000    0.000    0.000    0.000    0.000 
#    0.000    0.000    0.000    0.000    0.000    0.000 
#
# Total GULP energy -67131.911172 kJ/mol
# GULP energy per Si atom -5594.325931 kJ/mol
# Density = 2.865719 g / cm^3
# Si number density = 28.722560 Si / 1000 Ang^3
#
#
#
# Elastic Constant Matrix: (Units=GPa)
#
#
# Indices 1 2 3 4 5 6 
#
# 1 86.6048 49.0595 47.8002 0.0000 -11.8414 0.0000
# 2 49.0595 293.0470 62.1567 0.0000 3.4914 0.0000
# 3 47.8002 62.1567 112.9538 0.0000 -8.4162 0.0000
# 4 0.0000 0.0000 0.0000 51.7430 0.0000 -9.6144
# 5 -11.8414 3.4914 -8.4162 0.0000 37.4487 0.0000
# 6 0.0000 0.0000 0.0000 -9.6144 0.0000 61.3447
#
#
#
# Elastic Compliance Matrix: (Units=1/GPa)
#
#
# Indices 1 2 3 4 5 6 
#
# 1 0.016087 -0.001538 -0.005666 0.000000 0.003957 0.000000
# 2 -0.001538 0.004037 -0.001663 0.000000 -0.001237 0.000000
# 3 -0.005666 -0.001663 0.012249 0.000000 0.001116 0.000000
# 4 0.000000 0.000000 0.000000 0.019906 0.000000 0.003120
# 5 0.003957 -0.001237 0.001116 0.000000 0.028320 0.000000
# 6 0.000000 0.000000 0.000000 0.003120 0.000000 0.016790
#
#
# Mechanical properties :
#
#
# Convention : Reuss Voigt Hill
#
# Bulk Modulus (GPa) = 68.31391 90.07094 79.19243
# Shear Modulus (GPa) = 41.66524 52.34655 47.00589
#
# Velocity S-wave (km/s) = 3.81282 4.27369 4.04982
# Velocity P-wave (km/s) = 6.57413 7.46858 7.03558
#
# Compressibility (1/GPa) = 0.01463831
#
# Stress axis : x y z
#
# Youngs Moduli (GPa) = 62.16386 247.68463 81.63780
#
# Poissons Ratio (x) = 0.38103 0.46258
# Poissons Ratio (y) = 0.09563 0.13575
# Poissons Ratio (z) = 0.35223 0.41186
#
# Static dielectric constant tensor:
#      x y z
#    x 2.193600 0.000000 0.014720 
#    y 0.000000 2.209220 0.000000 
#    z 0.014720 0.000000 2.401460 
# 
# From -- ./inp_files/4948.got.cif
#   From: 2010.05.17/outbox.cif.g08.bks.cpg/sg9_3_cif.got.tgz:4948.got - 2010.06.03 20:04:27.
