data_PCOD9138645
_publ_section_title
;
Structure prediction by ZEFSAII (Michael W. Deem and Ramdas Pophale) SiO2 
 PCOD9138645
Probable space group: C C
;
_chemical_formula_sum "Si O2"
_cell_formula_units_Z 32
_cell_length_a 10.920709
_cell_length_b 10.145611
_cell_length_c 11.163201
_cell_angle_alpha 90.000000
_cell_angle_beta 81.551096
_cell_angle_gamma 90.000000
_cell_volume 1223.428940
_symmetry_space_group_name_H-M "C C"
_symmetry_group_IT_number 9
_symmetry_cell_setting 'monoclinic'
loop_
_space_group_symop_operation_xyz
x,y,z
x,-y,1/2+z
1/2+x,1/2+y,z
1/2+x,1/2-y,1/2+z
loop_
_atom_site_type_symbol
_atom_site_label
_atom_site_fract_x
_atom_site_fract_y
_atom_site_fract_z
Si Si1 0.036620 0.731663 0.811180
Si Si2 0.656648 0.234218 0.199267
Si Si3 0.876854 0.880172 0.515160
Si Si4 0.128078 0.255460 0.047716
Si Si5 0.511490 0.619999 0.552552
Si Si6 0.828831 0.555492 0.740959
Si Si7 0.188232 0.491804 0.892567
Si Si8 0.778536 0.519338 0.994612
O O1 0.121646 0.780461 0.689938
O O2 0.101035 0.612462 0.871653
O O3 0.924256 0.672018 0.752355
O O4 0.995830 0.830170 0.919448
O O5 0.763565 0.201741 0.086378
O O6 0.530425 0.263981 0.146021
O O7 0.695264 0.373136 0.253853
O O8 0.668237 0.116677 0.291834
O O9 0.002917 0.794940 0.498972
O O10 0.821405 0.942357 0.401384
O O11 0.911666 0.007402 0.591627
O O12 0.149316 0.408832 0.016725
O O13 0.247323 0.173888 0.987211
O O14 0.645114 0.547999 0.528553
O O15 0.834269 0.469585 0.861043
O O16 0.852543 0.499514 0.606223
#
# Coordination Sequence:
#
# PCOD9138645 Si02
#       8
#     4   4   4   4   4   4   4   4
#     4  12  25  42  67 101 147 181 232 299 352 437
#     4  11  22  46  67 103 140 182 237 296 345 434
#     4  11  24  46  74 100 139 191 234 294 357 421
#     4  11  25  46  69 102 137 184 245 286 356 434
#     4  10  24  42  73 101 139 185 237 285 365 418
#     4  11  23  41  73  97 144 180 231 297 363 415
#     4  12  26  44  70 102 144 186 238 293 363 421
#     4  10  23  45  71 104 134 187 238 296 353 434
#
# _framework density 26.155995000000001
#
# number of rings (size 3 to 8) (size 9 to 14) (size 15 to 20)
#    0.000    1.000    3.750    2.250    1.750    1.000 
#    2.250    0.000    0.000    0.000    0.000    0.000 
#    0.000    0.000    0.000    0.000    0.000    0.000 
#
# Total GULP energy -89488.061710 kJ/mol
# GULP energy per Si atom -5593.003857 kJ/mol
# Density = 2.609646 g / cm^3
# Si number density = 26.155995 Si / 1000 Ang^3
#
#
#
# Elastic Constant Matrix: (Units=GPa)
#
#
# Indices 1 2 3 4 5 6 
#
# 1 59.1679 26.8508 16.7781 0.0000 18.2616 0.0000
# 2 26.8508 80.6690 24.3150 0.0000 11.1113 0.0000
# 3 16.7781 24.3150 153.8700 0.0000 14.3786 0.0000
# 4 0.0000 0.0000 0.0000 47.6509 0.0000 9.8251
# 5 18.2616 11.1113 14.3786 0.0000 30.7131 0.0000
# 6 0.0000 0.0000 0.0000 9.8251 0.0000 47.2524
#
#
#
# Elastic Compliance Matrix: (Units=1/GPa)
#
#
# Indices 1 2 3 4 5 6 
#
# 1 0.023314 -0.006028 -0.000521 0.000000 -0.011438 0.000000
# 2 -0.006028 0.015042 -0.001617 0.000000 -0.001101 0.000000
# 3 -0.000521 -0.001617 0.007035 0.000000 -0.002399 0.000000
# 4 0.000000 0.000000 0.000000 0.021926 0.000000 -0.004559
# 5 -0.011438 -0.001101 -0.002399 0.000000 0.040882 0.000000
# 6 0.000000 0.000000 0.000000 -0.004559 0.000000 0.022111
#
#
# Mechanical properties :
#
#
# Convention : Reuss Voigt Hill
#
# Bulk Modulus (GPa) = 34.41081 47.73273 41.07177
# Shear Modulus (GPa) = 31.98411 40.17417 36.07914
#
# Velocity S-wave (km/s) = 3.50068 3.92337 3.71803
# Velocity P-wave (km/s) = 5.43362 6.22998 5.84538
#
# Compressibility (1/GPa) = 0.02906064
#
# Stress axis : x y z
#
# Youngs Moduli (GPa) = 42.89198 66.48216 142.13703
#
# Poissons Ratio (x) = 0.40074 0.07403
# Poissons Ratio (y) = 0.25854 0.22981
# Poissons Ratio (z) = 0.02234 0.10749
#
# Static dielectric constant tensor:
#      x y z
#    x 2.039740 0.000000 -0.015460 
#    y 0.000000 2.084540 0.000000 
#    z -0.015460 0.000000 2.134020 
# 
# From -- ./inp_files/16443.got.cif
#   From: 2010.05.17/outbox.cif.g08.bks.cpg/sg9_9_cif.got.tgz:16443.got - 2010.06.03 20:04:27.
