data_PCOD9138711
_publ_section_title
;
Structure prediction by ZEFSAII (Michael W. Deem and Ramdas Pophale) SiO2 
 PCOD9138711
Probable space group: C C
;
_chemical_formula_sum "Si O2"
_cell_formula_units_Z 32
_cell_length_a 8.630766
_cell_length_b 11.858635
_cell_length_c 18.261751
_cell_angle_alpha 90.000000
_cell_angle_beta 134.301292
_cell_angle_gamma 90.000000
_cell_volume 1337.653135
_symmetry_space_group_name_H-M "C C"
_symmetry_group_IT_number 9
_symmetry_cell_setting 'monoclinic'
loop_
_space_group_symop_operation_xyz
x,y,z
x,-y,1/2+z
1/2+x,1/2+y,z
1/2+x,1/2-y,1/2+z
loop_
_atom_site_type_symbol
_atom_site_label
_atom_site_fract_x
_atom_site_fract_y
_atom_site_fract_z
Si Si1 0.500000 0.757743 0.689870
Si Si2 0.982559 0.431677 0.808418
Si Si3 0.633556 0.867700 0.128344
Si Si4 0.473335 0.270913 0.823824
Si Si5 0.819242 0.427897 0.511689
Si Si6 0.851627 0.983120 0.335639
Si Si7 0.027233 0.144154 0.180035
Si Si8 0.589218 0.084988 0.968721
O O1 0.302355 0.671335 0.622385
O O2 0.733011 0.715962 0.740340
O O3 0.435370 0.859077 0.614043
O O4 0.516369 0.811445 0.777851
O O5 0.130149 0.513887 0.808107
O O6 0.056603 0.468093 0.914121
O O7 0.723526 0.438891 0.724929
O O8 0.787494 0.930071 0.237669
O O9 0.545806 0.752949 0.134655
O O10 0.431477 0.948742 0.046505
O O11 0.429803 0.388536 0.850637
O O12 0.554754 0.307876 0.771123
O O13 0.611780 0.184768 0.916855
O O14 0.296093 0.412025 0.589880
O O15 0.884742 0.384829 0.452639
O O16 0.562645 0.424659 0.438891
#
# Coordination Sequence:
#
# PCOD9138711 Si02
#       8
#     4   4   4   4   4   4   4   4
#     4  10  23  46  68 104 148 193 247 314 379 450
#     4  10  24  43  68 104 146 193 248 311 373 459
#     4  11  23  45  71 101 148 195 241 324 376 451
#     4  11  22  45  69 102 150 188 251 313 372 462
#     4  12  24  46  71 104 148 199 255 311 393 459
#     4  11  23  44  71  99 143 194 244 309 383 455
#     4  11  24  44  71 108 150 194 258 315 387 463
#     4  12  25  43  73 110 143 204 250 313 387 459
#
# _framework density 23.922495999999999
#
# number of rings (size 3 to 8) (size 9 to 14) (size 15 to 20)
#    0.000    1.000    3.750    3.000    3.500    1.000 
#   11.250    0.000    0.000    0.000    0.000    0.000 
#    0.000    0.000    0.000    0.000    0.000    0.000 
#
# Total GULP energy -89412.389692 kJ/mol
# GULP energy per Si atom -5588.274356 kJ/mol
# Density = 2.386805 g / cm^3
# Si number density = 23.922496 Si / 1000 Ang^3
#
#
#
# Elastic Constant Matrix: (Units=GPa)
#
#
# Indices 1 2 3 4 5 6 
#
# 1 110.4643 22.1409 37.9499 0.0000 15.4539 0.0000
# 2 22.1409 83.5108 29.1332 0.0000 -10.7494 0.0000
# 3 37.9499 29.1332 107.1407 0.0000 9.1010 0.0000
# 4 0.0000 0.0000 0.0000 35.0344 0.0000 0.9446
# 5 15.4539 -10.7494 9.1010 0.0000 35.3281 0.0000
# 6 0.0000 0.0000 0.0000 0.9446 0.0000 30.4587
#
#
#
# Elastic Compliance Matrix: (Units=1/GPa)
#
#
# Indices 1 2 3 4 5 6 
#
# 1 0.011257 -0.002634 -0.002847 0.000000 -0.004992 0.000000
# 2 -0.002634 0.014795 -0.003650 0.000000 0.006594 0.000000
# 3 -0.002847 -0.003650 0.011576 0.000000 -0.002847 0.000000
# 4 0.000000 0.000000 0.000000 0.028567 0.000000 -0.000886
# 5 -0.004992 0.006594 -0.002847 0.000000 0.033230 0.000000
# 6 0.000000 0.000000 0.000000 -0.000886 0.000000 0.032859
#
#
# Mechanical properties :
#
#
# Convention : Reuss Voigt Hill
#
# Bulk Modulus (GPa) = 51.63646 53.28486 52.46066
# Shear Modulus (GPa) = 31.84666 34.29036 33.06851
#
# Velocity S-wave (km/s) = 3.65258 3.79013 3.72199
# Velocity P-wave (km/s) = 6.27855 6.44016 6.35987
#
# Compressibility (1/GPa) = 0.01936616
#
# Stress axis : x y z
#
# Youngs Moduli (GPa) = 88.83231 67.59031 86.38273
#
# Poissons Ratio (x) = 0.17803 0.24594
# Poissons Ratio (y) = 0.23398 0.31531
# Poissons Ratio (z) = 0.25291 0.24672
#
# Static dielectric constant tensor:
#      x y z
#    x 1.938800 0.000000 0.004690 
#    y 0.000000 1.923140 0.000000 
#    z 0.004690 0.000000 1.893720 
# 
# From -- ./inp_files/35020.got.cif
#   From: 2010.05.17/outbox.cif.g08.bks.cpg/sg9_18_cif.got.tgz:35020.got - 2010.06.03 20:04:27.
