data_PCOD9138840
_publ_section_title
;
Structure prediction by ZEFSAII (Michael W. Deem and Ramdas Pophale) SiO2 
 PCOD9138840
Probable space group: C C
;
_chemical_formula_sum "Si O2"
_cell_formula_units_Z 28
_cell_length_a 8.229209
_cell_length_b 15.697162
_cell_length_c 8.832977
_cell_angle_alpha 90.000000
_cell_angle_beta 77.141251
_cell_angle_gamma 90.000000
_cell_volume 1112.387392
_symmetry_space_group_name_H-M "C C"
_symmetry_group_IT_number 9
_symmetry_cell_setting 'monoclinic'
loop_
_space_group_symop_operation_xyz
x,y,z
x,-y,1/2+z
1/2+x,1/2+y,z
1/2+x,1/2-y,1/2+z
loop_
_atom_site_type_symbol
_atom_site_label
_atom_site_fract_x
_atom_site_fract_y
_atom_site_fract_z
Si Si1 0.272160 0.521294 0.440980
Si Si2 0.651634 0.169089 0.612369
Si Si3 0.566784 0.680570 0.953201
Si Si4 0.302393 0.215846 0.322785
Si Si5 0.563789 0.920823 0.705390
Si Si6 0.823599 0.569196 0.710345
Si Si7 0.595332 0.569021 0.236866
O O1 0.272671 0.588945 0.577817
O O2 0.163562 0.445323 0.532211
O O3 0.183679 0.573407 0.324371
O O4 0.456778 0.511284 0.345060
O O5 0.683864 0.241508 0.483000
O O6 0.688132 0.216735 0.759104
O O7 0.465392 0.133143 0.622435
O O8 0.400567 0.725203 0.922983
O O9 0.684867 0.625637 0.820209
O O10 0.529947 0.626893 0.113110
O O11 0.460888 0.166432 0.211915
O O12 0.178213 0.132716 0.345647
O O13 0.440432 0.000235 0.771752
O O14 0.724314 0.498107 0.634983
#
# Coordination Sequence:
#
# PCOD9138840 Si02
#       7
#     4   4   4   4   4   4   4
#     4  11  24  48  71 113 149 192 254 302 379 451
#     4  10  24  45  72 108 147 191 245 315 371 443
#     4  11  24  45  77 106 149 194 247 311 378 442
#     4  10  23  48  74 113 142 198 245 313 378 432
#     4  10  24  46  79 105 152 194 246 313 371 454
#     4  10  25  45  70 104 149 190 248 296 376 445
#     4  10  26  47  73 109 148 197 249 308 373 463
#
# _framework density 25.171087
#
# number of rings (size 3 to 8) (size 9 to 14) (size 15 to 20)
#    0.000    1.714    1.429    0.000   14.000    2.286 
#    5.143    0.000    0.000    0.000    0.000    0.000 
#    0.000    0.000    0.000    0.000    0.000    0.000 
#
# Total GULP energy -77983.990432 kJ/mol
# GULP energy per Si atom -5570.285031 kJ/mol
# Density = 2.511380 g / cm^3
# Si number density = 25.171087 Si / 1000 Ang^3
#
#
#
# Elastic Constant Matrix: (Units=GPa)
#
#
# Indices 1 2 3 4 5 6 
#
# 1 106.3914 51.1748 47.0239 0.0000 -7.6001 0.0000
# 2 51.1748 136.8197 43.5748 0.0000 -3.9094 0.0000
# 3 47.0239 43.5748 55.4710 0.0000 -14.0832 0.0000
# 4 0.0000 0.0000 0.0000 40.9878 0.0000 4.6113
# 5 -7.6001 -3.9094 -14.0832 0.0000 31.8285 0.0000
# 6 0.0000 0.0000 0.0000 4.6113 0.0000 25.4025
#
#
#
# Elastic Compliance Matrix: (Units=1/GPa)
#
#
# Indices 1 2 3 4 5 6 
#
# 1 0.015589 -0.002032 -0.012096 0.000000 -0.001879 0.000000
# 2 -0.002032 0.010188 -0.006856 0.000000 -0.002267 0.000000
# 3 -0.012096 -0.006856 0.036860 0.000000 0.012579 0.000000
# 4 0.000000 0.000000 0.000000 0.024906 0.000000 -0.004521
# 5 -0.001879 -0.002267 0.012579 0.000000 0.036257 0.000000
# 6 0.000000 0.000000 0.000000 -0.004521 0.000000 0.040187
#
#
# Mechanical properties :
#
#
# Convention : Reuss Voigt Hill
#
# Bulk Modulus (GPa) = 48.38031 64.69213 56.53622
# Shear Modulus (GPa) = 23.49143 30.10435 26.79789
#
# Velocity S-wave (km/s) = 3.05826 3.46206 3.26641
# Velocity P-wave (km/s) = 5.63320 6.46049 6.06097
#
# Compressibility (1/GPa) = 0.02066957
#
# Stress axis : x y z
#
# Youngs Moduli (GPa) = 64.14957 98.15823 27.12939
#
# Poissons Ratio (x) = 0.19946 0.32815
# Poissons Ratio (y) = 0.13036 0.18600
# Poissons Ratio (z) = 0.77593 0.67296
#
# Static dielectric constant tensor:
#      x y z
#    x 2.045200 0.000000 0.015800 
#    y 0.000000 1.978320 0.000000 
#    z 0.015800 0.000000 2.022030 
# 
# From -- ./inp_files/5352.got.cif
#   From: 2010.05.17/outbox.cif.g08.bks.cpg/sg9_3_cif.got.tgz:5352.got - 2010.06.03 20:04:27.
