data_PCOD9138871
_publ_section_title
;
Structure prediction by ZEFSAII (Michael W. Deem and Ramdas Pophale) SiO2 
 PCOD9138871
Probable space group: C C
;
_chemical_formula_sum "Si O2"
_cell_formula_units_Z 28
_cell_length_a 5.259908
_cell_length_b 17.829166
_cell_length_c 10.722128
_cell_angle_alpha 90.000000
_cell_angle_beta 97.083601
_cell_angle_gamma 90.000000
_cell_volume 997.843880
_symmetry_space_group_name_H-M "C C"
_symmetry_group_IT_number 9
_symmetry_cell_setting 'monoclinic'
loop_
_space_group_symop_operation_xyz
x,y,z
x,-y,1/2+z
1/2+x,1/2+y,z
1/2+x,1/2-y,1/2+z
loop_
_atom_site_type_symbol
_atom_site_label
_atom_site_fract_x
_atom_site_fract_y
_atom_site_fract_z
Si Si1 0.000000 0.356561 0.416850
Si Si2 0.370081 0.239100 0.506356
Si Si3 0.585128 0.909555 0.114979
Si Si4 0.907203 0.986480 0.477466
Si Si5 0.537881 0.692360 0.761995
Si Si6 0.735364 0.477763 0.749094
Si Si7 0.285023 0.170695 0.153274
O O1 0.844065 0.374830 0.531542
O O2 0.107582 0.272775 0.438391
O O3 0.799021 0.353327 0.292484
O O4 0.238672 0.412921 0.436672
O O5 0.531244 0.264428 0.394373
O O6 0.513448 0.288252 0.622127
O O7 0.388910 0.153747 0.550144
O O8 0.706704 0.947079 0.997340
O O9 0.811429 0.863024 0.200942
O O10 0.030108 0.019517 0.123237
O O11 0.102194 0.000103 0.373234
O O12 0.468822 0.025027 0.698380
O O13 0.493742 0.763613 0.672669
O O14 0.802113 0.389746 0.761918
#
# Coordination Sequence:
#
# PCOD9138871 Si02
#       7
#     4   4   4   4   4   4   4
#     4  11  24  53  86 121 177 230 296 375 463 535
#     4  10  24  49  82 121 166 230 293 366 449 543
#     4  11  28  56  86 131 180 237 307 375 458 548
#     4  12  30  54  90 131 180 241 303 380 465 545
#     4  10  26  49  87 123 174 238 294 380 457 545
#     4  12  29  54  91 130 179 240 309 377 457 554
#     4  10  23  51  80 121 168 230 290 359 449 540
#
# _framework density 28.060503000000001
#
# number of rings (size 3 to 8) (size 9 to 14) (size 15 to 20)
#    0.000    1.143    2.857    0.000    4.000   10.286 
#    0.000    1.429    0.000    0.000    0.000    0.000 
#    0.000    0.000    0.000    0.000    0.000    0.000 
#
# Total GULP energy -78277.828307 kJ/mol
# GULP energy per Si atom -5591.273450 kJ/mol
# Density = 2.799664 g / cm^3
# Si number density = 28.060503 Si / 1000 Ang^3
#
#
#
# Elastic Constant Matrix: (Units=GPa)
#
#
# Indices 1 2 3 4 5 6 
#
# 1 164.5944 47.8044 36.5048 0.0000 15.2273 0.0000
# 2 47.8044 156.8012 53.3610 0.0000 -1.2327 0.0000
# 3 36.5048 53.3610 163.7458 0.0000 0.0239 0.0000
# 4 0.0000 0.0000 0.0000 49.8407 0.0000 3.4880
# 5 15.2273 -1.2327 0.0239 0.0000 51.6335 0.0000
# 6 0.0000 0.0000 0.0000 3.4880 0.0000 23.1885
#
#
#
# Elastic Compliance Matrix: (Units=1/GPa)
#
#
# Indices 1 2 3 4 5 6 
#
# 1 0.007016 -0.001826 -0.000969 0.000000 -0.002112 0.000000
# 2 -0.001826 0.007650 -0.002086 0.000000 0.000722 0.000000
# 3 -0.000969 -0.002086 0.007003 0.000000 0.000233 0.000000
# 4 0.000000 0.000000 0.000000 0.020277 0.000000 -0.003050
# 5 -0.002112 0.000722 0.000233 0.000000 0.020007 0.000000
# 6 0.000000 0.000000 0.000000 -0.003050 0.000000 0.043584
#
#
# Mechanical properties :
#
#
# Convention : Reuss Voigt Hill
#
# Bulk Modulus (GPa) = 83.98227 84.49797 84.24012
# Shear Modulus (GPa) = 41.92264 48.09729 45.00997
#
# Velocity S-wave (km/s) = 3.86943 4.14461 4.00938
# Velocity P-wave (km/s) = 7.06805 7.28573 7.17771
#
# Compressibility (1/GPa) = 0.01190728
#
# Stress axis : x y z
#
# Youngs Moduli (GPa) = 142.52840 130.72391 142.80166
#
# Poissons Ratio (x) = 0.23869 0.13835
# Poissons Ratio (y) = 0.26025 0.29787
# Poissons Ratio (z) = 0.13808 0.27268
#
# Static dielectric constant tensor:
#      x y z
#    x 2.276380 0.000000 -0.081120 
#    y 0.000000 2.208960 0.000000 
#    z -0.081120 0.000000 2.276150 
# 
# From -- ./inp_files/13312.got.cif
#   From: 2010.05.17/outbox.cif.g08.bks.cpg/sg9_7_cif.got.tgz:13312.got - 2010.06.03 20:04:27.
