data_PCOD9138793
_publ_section_title
;
Structure prediction by ZEFSAII (Michael W. Deem and Ramdas Pophale) SiO2 
 PCOD9138793
Probable space group: C C
;
_chemical_formula_sum "Si O2"
_cell_formula_units_Z 28
_cell_length_a 8.451651
_cell_length_b 12.146168
_cell_length_c 13.810250
_cell_angle_alpha 90.000000
_cell_angle_beta 128.963281
_cell_angle_gamma 90.000000
_cell_volume 1102.326402
_symmetry_space_group_name_H-M "C C"
_symmetry_group_IT_number 9
_symmetry_cell_setting 'monoclinic'
loop_
_space_group_symop_operation_xyz
x,y,z
x,-y,1/2+z
1/2+x,1/2+y,z
1/2+x,1/2-y,1/2+z
loop_
_atom_site_type_symbol
_atom_site_label
_atom_site_fract_x
_atom_site_fract_y
_atom_site_fract_z
Si Si1 0.517780 0.351214 0.855440
Si Si2 0.127019 0.786080 0.701230
Si Si3 0.243127 0.965030 0.192222
Si Si4 0.338397 0.027954 0.027008
Si Si5 0.305060 0.572706 0.451147
Si Si6 0.574365 0.879286 0.454980
Si Si7 0.547551 0.261741 0.452324
O O1 0.471676 0.304529 0.730784
O O2 0.698986 0.439750 0.916951
O O3 0.340978 0.406284 0.851376
O O4 0.599147 0.249353 0.950842
O O5 0.322038 0.724311 0.822024
O O6 0.053616 0.739400 0.570269
O O7 0.202299 0.909288 0.705432
O O8 0.358069 0.901466 0.319315
O O9 0.026993 0.912807 0.083707
O O10 0.376893 0.973141 0.146051
O O11 0.533887 0.069563 0.044477
O O12 0.189515 0.132521 0.987381
O O13 0.233864 0.452070 0.456682
O O14 0.149601 0.659515 0.435964
#
# Coordination Sequence:
#
# PCOD9138793 Si02
#       7
#     4   4   4   4   4   4   4
#     4  11  25  44  73 107 144 194 249 309 369 454
#     4  11  25  45  74 109 155 196 251 317 375 450
#     4  10  24  47  69 103 153 190 251 317 367 459
#     4  10  23  47  70 105 151 185 251 313 362 458
#     4  11  25  46  74 109 144 201 256 304 386 446
#     4  12  24  48  72 103 145 196 248 308 387 439
#     4  11  24  47  80 108 152 206 248 310 392 448
#
# _framework density 25.400825999999999
#
# number of rings (size 3 to 8) (size 9 to 14) (size 15 to 20)
#    0.000    1.143    4.286    0.000    8.000    3.429 
#    2.571    0.000    0.000    0.000    0.000    0.000 
#    0.000    0.000    0.000    0.000    0.000    0.000 
#
# Total GULP energy -78452.755907 kJ/mol
# GULP energy per Si atom -5603.768279 kJ/mol
# Density = 2.534301 g / cm^3
# Si number density = 25.400826 Si / 1000 Ang^3
#
#
#
# Elastic Constant Matrix: (Units=GPa)
#
#
# Indices 1 2 3 4 5 6 
#
# 1 156.2654 32.8640 49.5558 0.0000 -24.8517 0.0000
# 2 32.8640 100.7635 -3.8768 0.0000 -5.2867 0.0000
# 3 49.5558 -3.8768 108.7187 0.0000 -7.6464 0.0000
# 4 0.0000 0.0000 0.0000 32.9683 0.0000 -1.1756
# 5 -24.8517 -5.2867 -7.6464 0.0000 48.8302 0.0000
# 6 0.0000 0.0000 0.0000 -1.1756 0.0000 45.5417
#
#
#
# Elastic Compliance Matrix: (Units=1/GPa)
#
#
# Indices 1 2 3 4 5 6 
#
# 1 0.008782 -0.002826 -0.003853 0.000000 0.003560 0.000000
# 2 -0.002826 0.010911 0.001677 0.000000 0.000006 0.000000
# 3 -0.003853 0.001677 0.011010 0.000000 -0.000055 0.000000
# 4 0.000000 0.000000 0.000000 0.030360 0.000000 0.000784
# 5 0.003560 0.000006 -0.000055 0.000000 0.022283 0.000000
# 6 0.000000 0.000000 0.000000 0.000784 0.000000 0.021978
#
#
# Mechanical properties :
#
#
# Convention : Reuss Voigt Hill
#
# Bulk Modulus (GPa) = 48.30939 58.09263 53.20101
# Shear Modulus (GPa) = 40.90755 44.61502 42.76128
#
# Velocity S-wave (km/s) = 4.01743 4.19554 4.10745
# Velocity P-wave (km/s) = 6.37023 6.81102 6.59431
#
# Compressibility (1/GPa) = 0.02069991
#
# Stress axis : x y z
#
# Youngs Moduli (GPa) = 113.87218 91.65345 90.82361
#
# Poissons Ratio (x) = 0.25898 0.34997
# Poissons Ratio (y) = 0.32176 -0.15235
# Poissons Ratio (z) = 0.43878 -0.15374
#
# Static dielectric constant tensor:
#      x y z
#    x 2.016700 0.000000 -0.023660 
#    y 0.000000 1.973630 0.000000 
#    z -0.023660 0.000000 2.025600 
# 
# From -- ./inp_files/14214.got.cif
#   From: 2010.05.17/outbox.cif.g08.bks.cpg/sg9_8_cif.got.tgz:14214.got - 2010.06.03 20:04:27.
