data_PCOD9138270
_publ_section_title
;
Structure prediction by ZEFSAII (Michael W. Deem and Ramdas Pophale) SiO2 
 PCOD9138270
Probable space group: C C
;
_chemical_formula_sum "Si O2"
_cell_formula_units_Z 28
_cell_length_a 9.100734
_cell_length_b 28.218165
_cell_length_c 8.751003
_cell_angle_alpha 90.000000
_cell_angle_beta 148.393543
_cell_angle_gamma 90.000000
_cell_volume 1177.774572
_symmetry_space_group_name_H-M "C C"
_symmetry_group_IT_number 9
_symmetry_cell_setting 'monoclinic'
loop_
_space_group_symop_operation_xyz
x,y,z
x,-y,1/2+z
1/2+x,1/2+y,z
1/2+x,1/2-y,1/2+z
loop_
_atom_site_type_symbol
_atom_site_label
_atom_site_fract_x
_atom_site_fract_y
_atom_site_fract_z
Si Si1 0.262870 0.933151 0.750000
Si Si2 0.567693 0.778640 0.616911
Si Si3 0.805668 0.066846 0.293410
Si Si4 0.000629 0.278640 0.926327
Si Si5 0.357532 0.126069 0.772760
Si Si6 0.710979 0.126073 0.770614
Si Si7 0.534261 0.508666 0.771700
O O1 0.194613 0.959124 0.533647
O O2 0.032150 0.890900 0.571807
O O3 0.230103 0.972775 0.851031
O O4 0.569393 0.912030 0.033214
O O5 0.393219 0.734314 0.393086
O O6 0.436087 0.824025 0.419225
O O7 0.534140 0.782723 0.771598
O O8 0.036379 0.109093 0.471575
O O9 0.873921 0.040875 0.509759
O O10 0.838395 0.027219 0.192353
O O11 0.499146 0.087970 0.010192
O O12 0.175104 0.234314 0.150163
O O13 0.132306 0.324025 0.124048
O O14 0.534261 0.123332 0.771694
#
# Coordination Sequence:
#
# PCOD9138270 Si02
#       7
#     4   4   4   4   4   4   4
#     4  11  25  41  64  94 127 170 209 263 304 372
#     4  10  23  42  65  93 124 161 206 255 311 378
#     4  11  25  41  64  94 127 170 209 263 304 372
#     4  10  23  42  65  93 124 161 206 255 311 378
#     4  12  24  42  64  96 130 163 210 257 312 373
#     4  12  24  42  64  96 130 163 210 257 312 373
#     4  10  24  44  64  90 130 168 216 256 316 358
#
# _framework density 23.773651000000001
#
# number of rings (size 3 to 8) (size 9 to 14) (size 15 to 20)
#    0.000    1.143    2.857    1.714    4.000    8.000 
#    0.000    0.000    0.000    0.000    0.000    0.000 
#    0.000    0.000    0.000    0.000    0.000    0.000 
#
# Total GULP energy -78347.189436 kJ/mol
# GULP energy per Si atom -5596.227817 kJ/mol
# Density = 2.371954 g / cm^3
# Si number density = 23.773651 Si / 1000 Ang^3
#
#
#
# Elastic Constant Matrix: (Units=GPa)
#
#
# Indices 1 2 3 4 5 6 
#
# 1 44.9655 27.6508 27.0457 0.0000 -4.3054 0.0000
# 2 27.6508 102.7623 36.1989 0.0000 -22.6947 0.0000
# 3 27.0457 36.1989 104.9882 0.0000 9.1167 0.0000
# 4 0.0000 0.0000 0.0000 67.2919 0.0000 -19.1736
# 5 -4.3054 -22.6947 9.1167 0.0000 31.1374 0.0000
# 6 0.0000 0.0000 0.0000 -19.1736 0.0000 22.0507
#
#
#
# Elastic Compliance Matrix: (Units=1/GPa)
#
#
# Indices 1 2 3 4 5 6 
#
# 1 0.029247 -0.005423 -0.005820 0.000000 0.001796 0.000000
# 2 -0.005423 0.015651 -0.005053 0.000000 0.012137 0.000000
# 3 -0.005820 -0.005053 0.013499 0.000000 -0.008440 0.000000
# 4 0.000000 0.000000 0.000000 0.019755 0.000000 0.017178
# 5 0.001796 0.012137 -0.008440 0.000000 0.043681 0.000000
# 6 0.000000 0.000000 0.000000 0.017178 0.000000 0.060286
#
#
# Mechanical properties :
#
#
# Convention : Reuss Voigt Hill
#
# Bulk Modulus (GPa) = 38.75326 48.27855 43.51590
# Shear Modulus (GPa) = 22.39004 34.88404 28.63704
#
# Velocity S-wave (km/s) = 3.07221 3.83474 3.47446
# Velocity P-wave (km/s) = 5.37782 6.32129 5.86854
#
# Compressibility (1/GPa) = 0.02580428
#
# Stress axis : x y z
#
# Youngs Moduli (GPa) = 34.19195 63.89480 74.07703
#
# Poissons Ratio (x) = 0.34648 0.43116
# Poissons Ratio (y) = 0.18541 0.37433
# Poissons Ratio (z) = 0.19901 0.32287
#
# Static dielectric constant tensor:
#      x y z
#    x 1.915410 0.000000 -0.007170 
#    y 0.000000 1.908740 0.000000 
#    z -0.007170 0.000000 1.835110 
# 
# From -- ./inp_files/2006.got.cif
#   From: 2010.05.17/outbox.cif.g08.bks.cpg/sg9_2_cif.got.tgz:2006.got - 2010.06.03 20:04:27.
