data_PCOD9138413
_publ_section_title
;
Structure prediction by ZEFSAII (Michael W. Deem and Ramdas Pophale) SiO2 
 PCOD9138413
Probable space group: C C
;
_chemical_formula_sum "Si O2"
_cell_formula_units_Z 32
_cell_length_a 8.992795
_cell_length_b 17.712316
_cell_length_c 13.919574
_cell_angle_alpha 90.000000
_cell_angle_beta 142.246688
_cell_angle_gamma 90.000000
_cell_volume 1357.481732
_symmetry_space_group_name_H-M "C C"
_symmetry_group_IT_number 9
_symmetry_cell_setting 'monoclinic'
loop_
_space_group_symop_operation_xyz
x,y,z
x,-y,1/2+z
1/2+x,1/2+y,z
1/2+x,1/2-y,1/2+z
loop_
_atom_site_type_symbol
_atom_site_label
_atom_site_fract_x
_atom_site_fract_y
_atom_site_fract_z
Si Si1 0.637920 0.432662 0.179970
Si Si2 0.821901 0.289059 0.157981
Si Si3 0.777111 0.611848 0.451609
Si Si4 0.276557 0.943577 0.472950
Si Si5 0.155622 0.471748 0.409939
Si Si6 0.213966 0.625123 0.131603
Si Si7 0.958647 0.855591 0.451867
Si Si8 0.250529 0.214513 0.282198
O O1 0.712079 0.349766 0.176132
O O2 0.659063 0.431682 0.306834
O O3 0.864134 0.485215 0.256379
O O4 0.370850 0.465246 0.015147
O O5 0.668474 0.211791 0.078541
O O6 0.086851 0.248646 0.288033
O O7 0.836793 0.331522 0.065562
O O8 0.866358 0.529105 0.519791
O O9 0.485022 0.607115 0.301931
O O10 0.869066 0.643202 0.396422
O O11 0.515208 0.893371 0.608238
O O12 0.098368 0.919302 0.464607
O O13 0.177308 0.431252 0.524525
O O14 0.233235 0.403177 0.379235
O O15 0.915106 0.787577 0.353093
O O16 0.100703 0.817388 0.615441
#
# Coordination Sequence:
#
# PCOD9138413 Si02
#       8
#     4   4   4   4   4   4   4   4
#     4  11  24  45  71 107 142 191 240 298 360 426
#     4  11  22  41  76  97 129 190 248 281 356 435
#     4  11  21  43  69  98 133 184 238 274 359 426
#     4  11  26  42  65 101 148 177 225 303 364 411
#     4  11  21  45  71 101 142 187 235 298 350 432
#     4  10  23  43  68  96 135 181 234 289 349 424
#     4  12  23  45  69 104 141 183 239 296 365 422
#     4  11  22  42  75 102 130 187 239 297 345 448
#
# _framework density 23.573060000000002
#
# number of rings (size 3 to 8) (size 9 to 14) (size 15 to 20)
#    0.000    1.000    6.250    0.750    5.250    2.000 
#    6.750    2.500    0.000    0.000    0.000    0.000 
#    0.000    0.000    0.000    0.000    0.000    0.000 
#
# Total GULP energy -89224.714246 kJ/mol
# GULP energy per Si atom -5576.544640 kJ/mol
# Density = 2.351941 g / cm^3
# Si number density = 23.573060 Si / 1000 Ang^3
#
#
#
# Elastic Constant Matrix: (Units=GPa)
#
#
# Indices 1 2 3 4 5 6 
#
# 1 72.4899 15.0704 9.5628 0.0008 -1.8151 -0.0081
# 2 15.0704 120.9954 14.7254 0.0011 -10.6220 -0.0108
# 3 9.5628 14.7254 61.2822 0.0031 -12.0490 -0.0246
# 4 0.0008 0.0011 0.0031 43.3582 0.0016 -41.0061
# 5 -1.8151 -10.6220 -12.0490 0.0016 27.8757 -0.0134
# 6 -0.0081 -0.0108 -0.0246 -41.0061 -0.0134 296.9163
#
#
#
# Elastic Compliance Matrix: (Units=1/GPa)
#
#
# Indices 1 2 3 4 5 6 
#
# 1 0.014373 -0.001597 -0.001961 0.000000 -0.000521 0.000000
# 2 -0.001597 0.008864 -0.001352 0.000000 0.002689 0.000000
# 3 -0.001961 -0.001352 0.018385 0.000000 0.007304 0.000002
# 4 0.000000 0.000000 0.000000 0.026529 0.000000 0.003664
# 5 -0.000521 0.002689 0.007304 0.000000 0.040021 0.000003
# 6 0.000000 0.000000 0.000002 0.003664 0.000003 0.003874
#
#
# Mechanical properties :
#
#
# Convention : Reuss Voigt Hill
#
# Bulk Modulus (GPa) = 31.44557 37.05385 34.24971
# Shear Modulus (GPa) = 37.74506 87.99060 62.86783
#
# Velocity S-wave (km/s) = 4.00583 6.11619 5.16984
# Velocity P-wave (km/s) = 5.89612 8.10123 7.08499
#
# Compressibility (1/GPa) = 0.03180099
#
# Stress axis : x y z
#
# Youngs Moduli (GPa) = 69.57592 112.81146 54.39236
#
# Poissons Ratio (x) = 0.18018 0.10668
# Poissons Ratio (y) = 0.11112 0.07354
# Poissons Ratio (z) = 0.13646 0.15252
#
# Static dielectric constant tensor:
#      x y z
#    x 1.908470 0.000000 0.062410 
#    y 0.000000 1.751010 0.000000 
#    z 0.062410 0.000000 2.031900 
# 
# From -- ./inp_files/23691.got.cif
#   From: 2010.05.17/outbox.cif.g08.bks.cpg/sg9_12_cif.got.tgz:23691.got - 2010.06.03 20:04:27.
