data_PCOD9138276
_publ_section_title
;
Structure prediction by ZEFSAII (Michael W. Deem and Ramdas Pophale) SiO2 
 PCOD9138276
Probable space group: C C
;
_chemical_formula_sum "Si O2"
_cell_formula_units_Z 24
_cell_length_a 9.209743
_cell_length_b 11.466906
_cell_length_c 9.214176
_cell_angle_alpha 90.000000
_cell_angle_beta 65.533251
_cell_angle_gamma 90.000000
_cell_volume 885.702658
_symmetry_space_group_name_H-M "C C"
_symmetry_group_IT_number 9
_symmetry_cell_setting 'monoclinic'
loop_
_space_group_symop_operation_xyz
x,y,z
x,-y,1/2+z
1/2+x,1/2+y,z
1/2+x,1/2-y,1/2+z
loop_
_atom_site_type_symbol
_atom_site_label
_atom_site_fract_x
_atom_site_fract_y
_atom_site_fract_z
Si Si1 0.779030 0.390231 0.300390
Si Si2 0.148318 0.865924 0.829708
Si Si3 0.920683 0.675804 0.005154
Si Si4 0.013714 0.407022 0.954671
Si Si5 0.943523 0.838950 0.364597
Si Si6 0.372859 0.446210 0.716520
O O1 0.707755 0.515384 0.380183
O O2 0.802407 0.302269 0.420907
O O3 0.634367 0.349587 0.260394
O O4 0.945665 0.394257 0.146296
O O5 0.306707 0.822125 0.687358
O O6 0.064669 0.764542 0.953846
O O7 0.018377 0.898295 0.756968
O O8 0.971184 0.543326 0.948153
O O9 0.198856 0.404298 0.838327
O O10 0.928365 0.298145 0.909611
O O11 0.897297 0.907087 0.537457
O O12 0.871673 0.916138 0.263042
#
# Coordination Sequence:
#
# PCOD9138276 Si02
#       6
#     4   4   4   4   4   4
#     4  10  23  42  65  98 135 181 238 293 356 421
#     4  10  23  42  65  98 136 179 237 296 347 433
#     4  11  23  42  68  97 137 186 235 291 363 421
#     4  11  25  42  70 102 142 189 237 299 360 430
#     4  11  23  47  72 103 144 187 242 295 360 435
#     4  11  25  43  74 104 138 192 237 298 364 424
#
# _framework density 27.097128999999999
#
# number of rings (size 3 to 8) (size 9 to 14) (size 15 to 20)
#    0.000    1.333    1.667    3.000    4.667    2.667 
#    0.000    3.333    0.000    0.000    0.000    0.000 
#    0.000    0.000    0.000    0.000    0.000    0.000 
#
# Total GULP energy -67071.853333 kJ/mol
# GULP energy per Si atom -5589.321111 kJ/mol
# Density = 2.703546 g / cm^3
# Si number density = 27.097129 Si / 1000 Ang^3
#
#
#
# Elastic Constant Matrix: (Units=GPa)
#
#
# Indices 1 2 3 4 5 6 
#
# 1 74.1961 50.9052 73.8532 0.0000 -6.0290 0.0000
# 2 50.9052 228.0970 63.7040 0.0000 -16.0505 0.0000
# 3 73.8532 63.7040 157.0370 0.0000 -35.7995 0.0000
# 4 0.0000 0.0000 0.0000 20.0896 0.0000 -10.2943
# 5 -6.0290 -16.0505 -35.7995 0.0000 47.3868 0.0000
# 6 0.0000 0.0000 0.0000 -10.2943 0.0000 40.5223
#
#
#
# Elastic Compliance Matrix: (Units=1/GPa)
#
#
# Indices 1 2 3 4 5 6 
#
# 1 0.029216 -0.003087 -0.014350 0.000000 -0.008170 0.000000
# 2 -0.003087 0.005272 -0.000446 0.000000 0.001056 0.000000
# 3 -0.014350 -0.000446 0.015520 0.000000 0.009748 0.000000
# 4 0.000000 0.000000 0.000000 0.057226 0.000000 0.014538
# 5 -0.008170 0.001056 0.009748 0.000000 0.027785 0.000000
# 6 0.000000 0.000000 0.000000 0.014538 0.000000 0.028371
#
#
# Mechanical properties :
#
#
# Convention : Reuss Voigt Hill
#
# Bulk Modulus (GPa) = 70.21983 92.91721 81.56852
# Shear Modulus (GPa) = 24.52136 39.65759 32.08947
#
# Velocity S-wave (km/s) = 3.01149 3.82977 3.44501
# Velocity P-wave (km/s) = 6.16948 7.34309 6.78172
#
# Compressibility (1/GPa) = 0.01424099
#
# Stress axis : x y z
#
# Youngs Moduli (GPa) = 34.22807 189.68249 64.43411
#
# Poissons Ratio (x) = 0.58561 0.92463
# Poissons Ratio (y) = 0.10567 0.02874
# Poissons Ratio (z) = 0.49117 0.08459
#
# Static dielectric constant tensor:
#      x y z
#    x 2.256450 0.000000 0.139360 
#    y 0.000000 2.252210 0.000000 
#    z 0.139360 0.000000 2.127510 
# 
# From -- ./inp_files/6870.got.cif
#   From: 2010.05.17/outbox.cif.g08.bks.cpg/sg9_4_cif.got.tgz:6870.got - 2010.06.03 20:04:27.
