data_PCOD9138057
_publ_section_title
;
Structure prediction by ZEFSAII (Michael W. Deem and Ramdas Pophale) SiO2 
 PCOD9138057
Probable space group: C C
;
_chemical_formula_sum "Si O2"
_cell_formula_units_Z 28
_cell_length_a 17.828687
_cell_length_b 4.967657
_cell_length_c 15.816645
_cell_angle_alpha 90.000000
_cell_angle_beta 130.320867
_cell_angle_gamma 90.000000
_cell_volume 1068.038369
_symmetry_space_group_name_H-M "C C"
_symmetry_group_IT_number 9
_symmetry_cell_setting 'monoclinic'
loop_
_space_group_symop_operation_xyz
x,y,z
x,-y,1/2+z
1/2+x,1/2+y,z
1/2+x,1/2-y,1/2+z
loop_
_atom_site_type_symbol
_atom_site_label
_atom_site_fract_x
_atom_site_fract_y
_atom_site_fract_z
Si Si1 0.701250 0.696994 0.883670
Si Si2 0.975687 0.746664 0.862588
Si Si3 0.356253 0.568463 0.046050
Si Si4 0.636718 0.455782 0.165317
Si Si5 0.709045 0.672249 0.548165
Si Si6 0.994531 0.453200 0.044119
Si Si7 0.977178 0.264853 0.758491
O O1 0.684343 0.501059 0.791558
O O2 0.593129 0.804289 0.827515
O O3 0.728836 0.541807 0.989108
O O4 0.784465 0.918703 0.927514
O O5 0.940506 0.554222 0.760998
O O6 0.957344 0.052314 0.820334
O O7 0.095328 0.738765 0.955831
O O8 0.945383 0.603541 0.927864
O O9 0.283657 0.603567 0.072997
O O10 0.436496 0.369288 0.144122
O O11 0.412364 0.822483 0.045899
O O12 0.716205 0.420595 0.149359
O O13 0.562780 0.688144 0.079408
O O14 0.575859 0.176332 0.129608
#
# Coordination Sequence:
#
# PCOD9138057 Si02
#       7
#     4   4   4   4   4   4   4
#     4  11  25  47  75 107 155 199 250 312 392 442
#     4  10  22  47  71  98 144 202 239 305 379 449
#     4  12  27  42  75 113 149 192 258 317 365 462
#     4  11  26  48  75 105 151 203 245 307 382 451
#     4  10  25  46  73 107 150 194 255 305 371 457
#     4  11  25  46  73 108 145 193 254 306 374 452
#     4  11  24  44  74 102 148 199 245 302 387 441
#
# _framework density 26.216286
#
# number of rings (size 3 to 8) (size 9 to 14) (size 15 to 20)
#    0.000    1.143    2.857    2.571   10.000    1.143 
#    2.571    0.000    0.000    0.000    0.000    0.000 
#    0.000    0.000    0.000    0.000    0.000    0.000 
#
# Total GULP energy -78298.981194 kJ/mol
# GULP energy per Si atom -5592.784371 kJ/mol
# Density = 2.615662 g / cm^3
# Si number density = 26.216286 Si / 1000 Ang^3
#
#
#
# Elastic Constant Matrix: (Units=GPa)
#
#
# Indices 1 2 3 4 5 6 
#
# 1 121.1608 37.5558 18.5502 0.0000 -10.2123 0.0000
# 2 37.5558 120.4073 43.1224 -0.0004 -4.4542 0.0003
# 3 18.5502 43.1224 97.2387 -0.0001 -20.1610 0.0000
# 4 0.0000 -0.0004 -0.0001 35.5083 -0.0001 -4.3273
# 5 -10.2123 -4.4542 -20.1610 -0.0001 50.1656 0.0000
# 6 0.0000 0.0003 0.0000 -4.3273 0.0000 34.6495
#
#
#
# Elastic Compliance Matrix: (Units=1/GPa)
#
#
# Indices 1 2 3 4 5 6 
#
# 1 0.009273 -0.002754 -0.000226 0.000000 0.001552 0.000000
# 2 -0.002754 0.010734 -0.004531 0.000000 -0.001429 0.000000
# 3 -0.000226 -0.004531 0.013356 0.000000 0.004920 0.000000
# 4 0.000000 0.000000 0.000000 0.028598 0.000000 0.003571
# 5 0.001552 -0.001429 0.004920 0.000000 0.022100 0.000000
# 6 0.000000 0.000000 0.000000 0.003571 0.000000 0.029306
#
#
# Mechanical properties :
#
#
# Convention : Reuss Voigt Hill
#
# Bulk Modulus (GPa) = 54.52106 59.69594 57.10850
# Shear Modulus (GPa) = 37.17404 40.03658 38.60531
#
# Velocity S-wave (km/s) = 3.76969 3.91213 3.84157
# Velocity P-wave (km/s) = 6.30787 6.57468 6.44265
#
# Compressibility (1/GPa) = 0.01834154
#
# Stress axis : x y z
#
# Youngs Moduli (GPa) = 107.84558 93.16216 74.87046
#
# Poissons Ratio (x) = 0.25656 0.01691
# Poissons Ratio (y) = 0.29699 0.33924
# Poissons Ratio (z) = 0.02435 0.42212
#
# Static dielectric constant tensor:
#      x y z
#    x 2.056670 0.000000 -0.006210 
#    y 0.000000 2.097960 0.000000 
#    z -0.006210 0.000000 2.125610 
# 
# From -- ./inp_files/26280.got.cif
#   From: 2010.05.17/outbox.cif.g08.bks.cpg/sg9_14_cif.got.tgz:26280.got - 2010.06.03 20:04:27.
