data_PCOD9138679
_publ_section_title
;
Structure prediction by ZEFSAII (Michael W. Deem and Ramdas Pophale) SiO2 
 PCOD9138679
Probable space group: C C
;
_chemical_formula_sum "Si O2"
_cell_formula_units_Z 32
_cell_length_a 5.350394
_cell_length_b 30.415157
_cell_length_c 8.097340
_cell_angle_alpha 90.000000
_cell_angle_beta 99.336050
_cell_angle_gamma 90.000000
_cell_volume 1300.250496
_symmetry_space_group_name_H-M "C C"
_symmetry_group_IT_number 9
_symmetry_cell_setting 'monoclinic'
loop_
_space_group_symop_operation_xyz
x,y,z
x,-y,1/2+z
1/2+x,1/2+y,z
1/2+x,1/2-y,1/2+z
loop_
_atom_site_type_symbol
_atom_site_label
_atom_site_fract_x
_atom_site_fract_y
_atom_site_fract_z
Si Si1 0.093690 0.120660 0.023120
Si Si2 0.197810 0.785760 0.405511
Si Si3 0.706958 0.581729 0.579096
Si Si4 0.703184 0.742469 0.527980
Si Si5 0.942854 0.845145 0.871979
Si Si6 0.281533 0.528011 0.491236
Si Si7 0.517700 0.098548 0.281839
Si Si8 0.633657 0.062563 0.839845
O O1 0.352412 0.095145 0.100515
O O2 0.030888 0.139046 0.201012
O O3 0.132459 0.163425 0.917782
O O4 0.854885 0.093589 0.931887
O O5 0.476247 0.777885 0.511352
O O6 0.237646 0.772560 0.219722
O O7 0.963897 0.759121 0.469212
O O8 0.511355 0.622125 0.532479
O O9 0.583477 0.533530 0.543360
O O10 0.863591 0.589654 0.430642
O O11 0.862986 0.583780 0.763973
O O12 0.570545 0.701209 0.420981
O O13 0.642815 0.853439 0.819627
O O14 0.223261 0.559720 0.326977
O O15 0.204113 0.546884 0.660741
O O16 0.152445 0.481994 0.445315
#
# Coordination Sequence:
#
# PCOD9138679 Si02
#       8
#     4   4   4   4   4   4   4   4
#     4  11  26  44  70 106 148 189 248 302 378 444
#     4  12  29  49  77 115 156 201 258 313 386 457
#     4   9  22  42  67  99 137 182 241 294 368 434
#     4  12  28  51  80 113 157 203 253 318 379 463
#     4  10  23  45  76 100 145 191 243 295 380 443
#     4  10  24  43  65  99 136 189 239 294 372 437
#     4   9  22  43  70  96 138 182 240 295 364 444
#     4  11  26  41  69  98 143 183 244 301 365 442
#
# _framework density 24.610644000000001
#
# number of rings (size 3 to 8) (size 9 to 14) (size 15 to 20)
#    0.000    1.500    0.000    2.250   19.250    3.000 
#    0.000    0.000    0.000    0.000    0.000    0.000 
#    0.000    0.000    0.000    0.000    0.000    0.000 
#
# Total GULP energy -89327.865860 kJ/mol
# GULP energy per Si atom -5582.991616 kJ/mol
# Density = 2.455463 g / cm^3
# Si number density = 24.610644 Si / 1000 Ang^3
#
#
#
# Elastic Constant Matrix: (Units=GPa)
#
#
# Indices 1 2 3 4 5 6 
#
# 1 62.7422 4.9553 30.2177 0.0000 13.7697 0.0000
# 2 4.9553 100.6797 52.2647 0.0000 16.8870 0.0000
# 3 30.2177 52.2647 186.3100 0.0000 24.6161 0.0000
# 4 0.0000 0.0000 0.0000 51.6155 0.0000 6.1354
# 5 13.7697 16.8870 24.6161 0.0000 47.5797 0.0000
# 6 0.0000 0.0000 0.0000 6.1354 0.0000 30.2454
#
#
#
# Elastic Compliance Matrix: (Units=1/GPa)
#
#
# Indices 1 2 3 4 5 6 
#
# 1 0.018085 0.001236 -0.002716 0.000000 -0.004267 0.000000
# 2 0.001236 0.012022 -0.003179 0.000000 -0.002980 0.000000
# 3 -0.002716 -0.003179 0.006920 0.000000 -0.001666 0.000000
# 4 0.000000 0.000000 0.000000 0.019853 0.000000 -0.004027
# 5 -0.004267 -0.002980 -0.001666 0.000000 0.024172 0.000000
# 6 0.000000 0.000000 0.000000 -0.004027 0.000000 0.033880
#
#
# Mechanical properties :
#
#
# Convention : Reuss Voigt Hill
#
# Bulk Modulus (GPa) = 36.09111 58.28969 47.19040
# Shear Modulus (GPa) = 37.45705 43.37439 40.41572
#
# Velocity S-wave (km/s) = 3.90550 4.20268 4.05681
# Velocity P-wave (km/s) = 5.91894 6.87649 6.41561
#
# Compressibility (1/GPa) = 0.02770766
#
# Stress axis : x y z
#
# Youngs Moduli (GPa) = 55.29360 83.18223 144.51235
#
# Poissons Ratio (x) = -0.10278 0.39250
# Poissons Ratio (y) = -0.06832 0.45942
# Poissons Ratio (z) = 0.15018 0.26445
#
# Static dielectric constant tensor:
#      x y z
#    x 2.309470 0.000000 0.037300 
#    y 0.000000 2.026710 0.000000 
#    z 0.037300 0.000000 1.940880 
# 
# From -- ./inp_files/4302.got.cif
#   From: 2010.05.17/outbox.cif.g08.bks.cpg/sg9_3_cif.got.tgz:4302.got - 2010.06.03 20:04:27.
