data_PCOD9138330
_publ_section_title
;
Structure prediction by ZEFSAII (Michael W. Deem and Ramdas Pophale) SiO2 
 PCOD9138330
Probable space group: C C
;
_chemical_formula_sum "Si O2"
_cell_formula_units_Z 32
_cell_length_a 29.949446
_cell_length_b 7.402499
_cell_length_c 9.705408
_cell_angle_alpha 90.000000
_cell_angle_beta 35.851160
_cell_angle_gamma 90.000000
_cell_volume 1260.208964
_symmetry_space_group_name_H-M "C C"
_symmetry_group_IT_number 9
_symmetry_cell_setting 'monoclinic'
loop_
_space_group_symop_operation_xyz
x,y,z
x,-y,1/2+z
1/2+x,1/2+y,z
1/2+x,1/2-y,1/2+z
loop_
_atom_site_type_symbol
_atom_site_label
_atom_site_fract_x
_atom_site_fract_y
_atom_site_fract_z
Si Si1 0.869910 0.931253 0.507980
Si Si2 0.547723 0.120721 0.647375
Si Si3 0.242690 0.031104 0.552980
Si Si4 0.640487 0.027225 0.668641
Si Si5 0.653613 0.382730 0.019401
Si Si6 0.405481 0.892416 0.102244
Si Si7 0.281638 0.440086 0.464319
Si Si8 0.002457 0.106624 0.037750
O O1 0.873004 0.729924 0.558856
O O2 0.808158 0.991363 0.549147
O O3 0.853938 0.058517 0.680199
O O4 0.948786 0.954168 0.231175
O O5 0.584178 0.987911 0.440242
O O6 0.538053 0.300105 0.583205
O O7 0.603394 0.139512 0.638650
O O8 0.467280 0.038546 0.898447
O O9 0.214578 0.020728 0.466495
O O10 0.243007 0.246183 0.579212
O O11 0.183259 0.923977 0.794657
O O12 0.329422 0.971246 0.359812
O O13 0.649793 0.829070 0.572220
O O14 0.721990 0.067796 0.533901
O O15 0.569172 0.448085 0.268538
O O16 0.450498 0.757035 0.091416
#
# Coordination Sequence:
#
# PCOD9138330 Si02
#       8
#     4   4   4   4   4   4   4   4
#     4  12  26  45  72 105 151 197 234 314 376 441
#     4  11  22  45  73 103 142 193 246 304 366 437
#     4  11  26  44  78 102 142 194 249 302 363 449
#     4  10  23  42  70 104 144 184 240 313 357 438
#     4  10  24  46  68 104 141 183 241 307 362 427
#     4  12  26  45  74 111 145 195 251 306 371 447
#     4  11  25  46  71 112 147 194 250 300 384 438
#     4  11  26  47  72 105 152 190 249 310 369 449
#
# _framework density 25.392614999999999
#
# number of rings (size 3 to 8) (size 9 to 14) (size 15 to 20)
#    0.000    1.000    3.750    2.250    8.750    2.000 
#    0.000    5.000    0.000    0.000    0.000    0.000 
#    0.000    0.000    0.000    0.000    0.000    0.000 
#
# Total GULP energy -89633.154602 kJ/mol
# GULP energy per Si atom -5602.072163 kJ/mol
# Density = 2.533482 g / cm^3
# Si number density = 25.392615 Si / 1000 Ang^3
#
#
#
# Elastic Constant Matrix: (Units=GPa)
#
#
# Indices 1 2 3 4 5 6 
#
# 1 155.3111 27.1721 33.1758 0.0000 13.5255 0.0000
# 2 27.1721 60.1712 33.4894 0.0000 -1.1873 0.0000
# 3 33.1758 33.4894 118.2682 0.0000 -15.1027 0.0000
# 4 0.0000 0.0000 0.0000 35.0684 0.0000 -1.1852
# 5 13.5255 -1.1873 -15.1027 0.0000 45.0031 0.0000
# 6 0.0000 0.0000 0.0000 -1.1852 0.0000 28.4603
#
#
#
# Elastic Compliance Matrix: (Units=1/GPa)
#
#
# Indices 1 2 3 4 5 6 
#
# 1 0.007503 -0.002454 -0.001782 0.000000 -0.002918 0.000000
# 2 -0.002454 0.020617 -0.005209 0.000000 -0.000467 0.000000
# 3 -0.001782 -0.005209 0.010951 0.000000 0.004073 0.000000
# 4 0.000000 0.000000 0.000000 0.028556 0.000000 0.001189
# 5 -0.002918 -0.000467 0.004073 0.000000 0.024452 0.000000
# 6 0.000000 0.000000 0.000000 0.001189 0.000000 0.035186
#
#
# Mechanical properties :
#
#
# Convention : Reuss Voigt Hill
#
# Bulk Modulus (GPa) = 49.55457 57.93612 53.74534
# Shear Modulus (GPa) = 32.70473 37.70057 35.20265
#
# Velocity S-wave (km/s) = 3.59271 3.85737 3.72739
# Velocity P-wave (km/s) = 6.06365 6.53488 6.30367
#
# Compressibility (1/GPa) = 0.02017977
#
# Stress axis : x y z
#
# Youngs Moduli (GPa) = 133.28333 48.50256 91.31878
#
# Poissons Ratio (x) = 0.11901 0.16277
# Poissons Ratio (y) = 0.32703 0.47572
# Poissons Ratio (z) = 0.23757 0.25267
#
# Static dielectric constant tensor:
#      x y z
#    x 2.005230 0.000000 -0.052250 
#    y 0.000000 2.007060 0.000000 
#    z -0.052250 0.000000 1.986710 
# 
# From -- ./inp_files/12698.got.cif
#   From: 2010.05.17/outbox.cif.g08.bks.cpg/sg9_7_cif.got.tgz:12698.got - 2010.06.03 20:04:27.
