data_PCOD9138180
_publ_section_title
;
Structure prediction by ZEFSAII (Michael W. Deem and Ramdas Pophale) SiO2 
 PCOD9138180
Probable space group: C C
;
_chemical_formula_sum "Si O2"
_cell_formula_units_Z 20
_cell_length_a 6.687623
_cell_length_b 13.510478
_cell_length_c 14.338045
_cell_angle_alpha 90.000000
_cell_angle_beta 139.249123
_cell_angle_gamma 90.000000
_cell_volume 845.655583
_symmetry_space_group_name_H-M "C C"
_symmetry_group_IT_number 9
_symmetry_cell_setting 'monoclinic'
loop_
_space_group_symop_operation_xyz
x,y,z
x,-y,1/2+z
1/2+x,1/2+y,z
1/2+x,1/2-y,1/2+z
loop_
_atom_site_type_symbol
_atom_site_label
_atom_site_fract_x
_atom_site_fract_y
_atom_site_fract_z
Si Si1 0.217960 0.063360 0.909880
Si Si2 0.219019 0.486033 0.969768
Si Si3 0.786373 0.651906 0.418460
Si Si4 0.187605 0.724166 0.711422
Si Si5 0.365839 0.073797 0.175990
O O1 0.947797 0.140767 0.804839
O O2 0.498420 0.070224 0.935779
O O3 0.103557 0.950589 0.852734
O O4 0.362913 0.068607 0.064148
O O5 0.105961 0.386945 0.983326
O O6 0.138633 0.470850 0.833356
O O7 0.567108 0.513314 0.104448
O O8 0.648964 0.733548 0.302027
O O9 0.878527 0.685812 0.553613
O O10 0.306909 0.814578 0.689683
#
# Coordination Sequence:
#
# PCOD9138180 Si02
#       5
#     4   4   4   4   4
#     4  10  23  40  68  96 141 188 219 296 361 390
#     4   9  23  41  65 105 134 184 239 276 361 417
#     4   9  22  38  69  95 134 184 223 289 347 416
#     4  11  20  42  66 100 139 178 236 288 342 427
#     4  11  22  41  70 100 138 188 231 295 345 428
#
# _framework density 23.650289000000001
#
# number of rings (size 3 to 8) (size 9 to 14) (size 15 to 20)
#    1.200    0.800    2.000    1.200    2.800    0.000 
#    0.000    6.000    0.000    0.000    0.000    0.000 
#    0.000    0.000    0.000    0.000    0.000    0.000 
#
# Total GULP energy -55898.298789 kJ/mol
# GULP energy per Si atom -5589.829879 kJ/mol
# Density = 2.359646 g / cm^3
# Si number density = 23.650289 Si / 1000 Ang^3
#
#
#
# Elastic Constant Matrix: (Units=GPa)
#
#
# Indices 1 2 3 4 5 6 
#
# 1 44.7530 -14.1984 11.5346 0.0005 -5.8610 0.0003
# 2 -14.1984 62.0823 27.9379 -0.0004 0.4506 0.0001
# 3 11.5346 27.9379 101.7450 0.0029 -25.0530 0.0018
# 4 0.0005 -0.0004 0.0029 45.3925 0.0016 -3.3292
# 5 -5.8610 0.4506 -25.0530 0.0016 30.6254 0.0007
# 6 0.0003 0.0001 0.0018 -3.3292 0.0007 27.6297
#
#
#
# Elastic Compliance Matrix: (Units=1/GPa)
#
#
# Indices 1 2 3 4 5 6 
#
# 1 0.026397 0.008322 -0.005089 0.000000 0.000766 0.000000
# 2 0.008322 0.021775 -0.008276 0.000001 -0.005498 0.000001
# 3 -0.005089 -0.008276 0.015613 -0.000002 0.011920 -0.000001
# 4 0.000000 0.000001 -0.000002 0.022227 -0.000002 0.002678
# 5 0.000766 -0.005498 0.011920 -0.000002 0.042632 -0.000002
# 6 0.000000 0.000001 -0.000001 0.002678 -0.000002 0.036516
#
#
# Mechanical properties :
#
#
# Convention : Reuss Voigt Hill
#
# Bulk Modulus (GPa) = 18.62275 28.79204 23.70739
# Shear Modulus (GPa) = 25.88717 32.94993 29.41855
#
# Velocity S-wave (km/s) = 3.31204 3.73663 3.53072
# Velocity P-wave (km/s) = 4.74525 5.55131 5.16403
#
# Compressibility (1/GPa) = 0.05369777
#
# Stress axis : x y z
#
# Youngs Moduli (GPa) = 37.88324 45.92370 64.04849
#
# Poissons Ratio (x) = -0.38215 0.32593
# Poissons Ratio (y) = -0.31525 0.53010
# Poissons Ratio (z) = 0.19278 0.38009
#
# Static dielectric constant tensor:
#      x y z
#    x 1.933870 0.000000 -0.004080 
#    y 0.000000 1.912960 0.000000 
#    z -0.004080 0.000000 1.865990 
# 
# From -- ./inp_files/4967.got.cif
#   From: 2010.05.17/outbox.cif.g08.bks.cpg/sg9_3_cif.got.tgz:4967.got - 2010.06.03 20:04:27.
