data_PCOD9138459
_publ_section_title
;
Structure prediction by ZEFSAII (Michael W. Deem and Ramdas Pophale) SiO2 
 PCOD9138459
Probable space group: C C
;
_chemical_formula_sum "Si O2"
_cell_formula_units_Z 32
_cell_length_a 8.043104
_cell_length_b 31.480987
_cell_length_c 7.656811
_cell_angle_alpha 90.000000
_cell_angle_beta 43.279323
_cell_angle_gamma 90.000000
_cell_volume 1329.115362
_symmetry_space_group_name_H-M "C C"
_symmetry_group_IT_number 9
_symmetry_cell_setting 'monoclinic'
loop_
_space_group_symop_operation_xyz
x,y,z
x,-y,1/2+z
1/2+x,1/2+y,z
1/2+x,1/2-y,1/2+z
loop_
_atom_site_type_symbol
_atom_site_label
_atom_site_fract_x
_atom_site_fract_y
_atom_site_fract_z
Si Si1 0.141420 0.614808 0.517060
Si Si2 0.881337 0.416538 0.565439
Si Si3 0.598706 0.656744 0.193384
Si Si4 0.847936 0.058222 0.853015
Si Si5 0.440878 0.536719 0.377765
Si Si6 0.509503 0.271762 0.199397
Si Si7 0.662153 0.637532 0.734526
Si Si8 0.301882 0.244102 0.994850
O O1 0.309451 0.655263 0.433785
O O2 0.299992 0.571588 0.365536
O O3 0.949828 0.627553 0.516549
O O4 0.007865 0.602250 0.797696
O O5 0.690586 0.379716 0.752972
O O6 0.726501 0.457140 0.625716
O O7 0.070869 0.426472 0.568182
O O8 0.777221 0.695747 0.076980
O O9 0.610474 0.645985 0.978629
O O10 0.901125 0.049967 0.608061
O O11 0.019579 0.095256 0.789819
O O12 0.870557 0.011917 0.917633
O O13 0.575954 0.319788 0.203467
O O14 0.406138 0.269741 0.080283
O O15 0.272522 0.253485 0.489350
O O16 0.014338 0.253723 0.186665
#
# Coordination Sequence:
#
# PCOD9138459 Si02
#       8
#     4   4   4   4   4   4   4   4
#     4   9  22  44  67  99 139 180 236 299 360 443
#     4   9  22  42  67  95 133 182 233 292 357 436
#     4  10  23  43  72  98 138 184 243 297 370 438
#     4  11  26  41  72 100 144 187 245 299 364 442
#     4  10  24  43  67 101 140 191 239 295 368 430
#     4  10  25  46  70 103 148 189 248 309 377 448
#     4  11  26  43  70 104 146 187 244 304 378 434
#     4  10  24  42  73 102 140 192 242 303 370 445
#
# _framework density 24.076166000000001
#
# number of rings (size 3 to 8) (size 9 to 14) (size 15 to 20)
#    0.000    2.000    0.000    0.000   15.750    8.000 
#    0.000    0.000    0.000    0.000    0.000    0.000 
#    0.000    0.000    0.000    0.000    0.000    0.000 
#
# Total GULP energy -89260.637377 kJ/mol
# GULP energy per Si atom -5578.789836 kJ/mol
# Density = 2.402137 g / cm^3
# Si number density = 24.076166 Si / 1000 Ang^3
#
#
#
# Elastic Constant Matrix: (Units=GPa)
#
#
# Indices 1 2 3 4 5 6 
#
# 1 129.3540 82.0384 34.3768 0.0000 -33.2802 0.0000
# 2 82.0384 153.7148 25.4602 0.0000 -15.2666 0.0000
# 3 34.3768 25.4602 95.7621 0.0000 -28.2015 0.0000
# 4 0.0000 0.0000 0.0000 25.9808 0.0000 -11.2406
# 5 -33.2802 -15.2666 -28.2015 0.0000 47.9470 0.0000
# 6 0.0000 0.0000 0.0000 -11.2406 0.0000 24.3996
#
#
#
# Elastic Compliance Matrix: (Units=1/GPa)
#
#
# Indices 1 2 3 4 5 6 
#
# 1 0.014015 -0.006588 -0.001249 0.000000 0.006896 0.000000
# 2 -0.006588 0.009973 -0.000844 0.000000 -0.001894 0.000000
# 3 -0.001249 -0.000844 0.013040 0.000000 0.006534 0.000000
# 4 0.000000 0.000000 0.000000 0.048071 0.000000 0.022146
# 5 0.006896 -0.001894 0.006534 0.000000 0.028883 0.000000
# 6 0.000000 0.000000 0.000000 0.022146 0.000000 0.051187
#
#
# Mechanical properties :
#
#
# Convention : Reuss Voigt Hill
#
# Bulk Modulus (GPa) = 50.85081 73.62019 62.23550
# Shear Modulus (GPa) = 26.44286 35.46251 30.95269
#
# Velocity S-wave (km/s) = 3.31766 3.84204 3.58944
# Velocity P-wave (km/s) = 5.98686 7.09409 6.56386
#
# Compressibility (1/GPa) = 0.01966537
#
# Stress axis : x y z
#
# Youngs Moduli (GPa) = 71.35173 100.26604 76.68978
#
# Poissons Ratio (x) = 0.66057 0.09577
# Poissons Ratio (y) = 0.47008 0.06475
# Poissons Ratio (z) = 0.08910 0.08466
#
# Static dielectric constant tensor:
#      x y z
#    x 1.928180 0.000000 -0.075810 
#    y 0.000000 1.979910 0.000000 
#    z -0.075810 0.000000 2.119580 
# 
# From -- ./inp_files/6437.got.cif
#   From: 2010.05.17/outbox.cif.g08.bks.cpg/sg9_4_cif.got.tgz:6437.got - 2010.06.03 20:04:27.
