data_PCOD9138519
_publ_section_title
;
Structure prediction by ZEFSAII (Michael W. Deem and Ramdas Pophale) SiO2 
 PCOD9138519
Probable space group: C C
;
_chemical_formula_sum "Si O2"
_cell_formula_units_Z 32
_cell_length_a 14.952767
_cell_length_b 8.755934
_cell_length_c 26.036242
_cell_angle_alpha 90.000000
_cell_angle_beta 23.166142
_cell_angle_gamma 90.000000
_cell_volume 1341.020008
_symmetry_space_group_name_H-M "C C"
_symmetry_group_IT_number 9
_symmetry_cell_setting 'monoclinic'
loop_
_space_group_symop_operation_xyz
x,y,z
x,-y,1/2+z
1/2+x,1/2+y,z
1/2+x,1/2-y,1/2+z
loop_
_atom_site_type_symbol
_atom_site_label
_atom_site_fract_x
_atom_site_fract_y
_atom_site_fract_z
Si Si1 0.636900 0.730756 0.187980
Si Si2 0.521069 0.795162 0.143419
Si Si3 0.590966 0.594629 0.730318
Si Si4 0.496409 0.147273 0.869259
Si Si5 0.570127 0.623486 0.490326
Si Si6 0.770382 0.869429 0.691064
Si Si7 0.183124 0.378191 0.516082
Si Si8 0.876272 0.763416 0.253579
O O1 0.471195 0.780347 0.230014
O O2 0.725900 0.557227 0.145624
O O3 0.526528 0.756710 0.301487
O O4 0.851556 0.841344 0.070726
O O5 0.326655 0.721600 0.212384
O O6 0.570616 0.959362 0.090840
O O7 0.749220 0.689813 0.019914
O O8 0.725974 0.750511 0.668715
O O9 0.422730 0.605931 0.770421
O O10 0.436456 0.585568 0.863288
O O11 0.690994 0.191839 0.808289
O O12 0.555620 0.977366 0.817479
O O13 0.489992 0.474480 0.562741
O O14 0.593054 0.766134 0.517843
O O15 0.779916 0.627688 0.340739
O O16 0.114304 0.278717 0.601743
#
# Coordination Sequence:
#
# PCOD9138519 Si02
#       8
#     4   4   4   4   4   4   4   4
#     4  11  22  44  68 100 136 183 234 289 353 426
#     4  12  26  43  74 101 139 193 239 295 370 418
#     4  11  26  44  71 106 143 184 241 293 358 428
#     4  11  24  45  68 100 146 179 233 295 356 425
#     4  10  23  44  69 100 144 182 236 297 357 424
#     4  11  26  44  68 107 143 184 237 302 356 430
#     4  11  24  45  71 100 144 189 236 291 355 421
#     4  11  23  43  73  98 141 188 230 290 361 414
#
# _framework density 23.862431000000001
#
# number of rings (size 3 to 8) (size 9 to 14) (size 15 to 20)
#    0.000    1.000    5.000    1.500    7.000    0.000 
#    0.000    2.500    0.000    0.000    0.000    0.000 
#    0.000    0.000    0.000    0.000    0.000    0.000 
#
# Total GULP energy -89290.807651 kJ/mol
# GULP energy per Si atom -5580.675478 kJ/mol
# Density = 2.380812 g / cm^3
# Si number density = 23.862431 Si / 1000 Ang^3
#
#
#
# Elastic Constant Matrix: (Units=GPa)
#
#
# Indices 1 2 3 4 5 6 
#
# 1 126.3241 34.9296 5.0905 -0.0024 22.3570 0.0006
# 2 34.9296 109.9033 -6.6973 -0.0041 6.6292 0.0008
# 3 5.0905 -6.6973 60.2773 -0.0305 20.5305 0.0047
# 4 -0.0024 -0.0041 -0.0305 22.5064 0.0028 -6.9824
# 5 22.3570 6.6292 20.5305 0.0028 27.5758 -0.0023
# 6 0.0006 0.0008 0.0047 -6.9824 -0.0023 24.6958
#
#
#
# Elastic Compliance Matrix: (Units=1/GPa)
#
#
# Indices 1 2 3 4 5 6 
#
# 1 0.010149 -0.002561 0.001944 0.000004 -0.009061 0.000000
# 2 -0.002561 0.010143 0.001965 0.000005 -0.001825 0.000001
# 3 0.001944 0.001965 0.023234 0.000036 -0.019346 0.000004
# 4 0.000004 0.000005 0.000036 0.048704 -0.000035 0.013770
# 5 -0.009061 -0.001825 -0.019346 -0.000035 0.058452 0.000000
# 6 0.000000 0.000001 0.000004 0.013770 0.000000 0.044386
#
#
# Mechanical properties :
#
#
# Convention : Reuss Voigt Hill
#
# Bulk Modulus (GPa) = 21.63445 40.35004 30.99225
# Shear Modulus (GPa) = 24.06415 32.50106 28.28260
#
# Velocity S-wave (km/s) = 3.17906 3.69456 3.44646
# Velocity P-wave (km/s) = 4.74987 5.92839 5.37155
#
# Compressibility (1/GPa) = 0.04622257
#
# Stress axis : x y z
#
# Youngs Moduli (GPa) = 98.52799 98.59442 43.04120
#
# Poissons Ratio (x) = 0.25247 -0.08369
# Poissons Ratio (y) = 0.25230 -0.08457
# Poissons Ratio (z) = -0.19158 -0.19372
#
# Static dielectric constant tensor:
#      x y z
#    x 1.908630 0.000000 0.031110 
#    y 0.000000 1.992850 0.000000 
#    z 0.031110 0.000000 1.925720 
# 
# From -- ./inp_files/35598.got.cif
#   From: 2010.05.17/outbox.cif.g08.bks.cpg/sg9_18_cif.got.tgz:35598.got - 2010.06.03 20:04:27.
