data_PCOD9138246
_publ_section_title
;
Structure prediction by ZEFSAII (Michael W. Deem and Ramdas Pophale) SiO2 
 PCOD9138246
Probable space group: C C
;
_chemical_formula_sum "Si O2"
_cell_formula_units_Z 32
_cell_length_a 9.126269
_cell_length_b 24.736451
_cell_length_c 8.429070
_cell_angle_alpha 90.000000
_cell_angle_beta 44.453215
_cell_angle_gamma 90.000000
_cell_volume 1332.634198
_symmetry_space_group_name_H-M "C C"
_symmetry_group_IT_number 9
_symmetry_cell_setting 'monoclinic'
loop_
_space_group_symop_operation_xyz
x,y,z
x,-y,1/2+z
1/2+x,1/2+y,z
1/2+x,1/2-y,1/2+z
loop_
_atom_site_type_symbol
_atom_site_label
_atom_site_fract_x
_atom_site_fract_y
_atom_site_fract_z
Si Si1 0.400870 0.874784 0.436110
Si Si2 0.112516 0.963425 0.830333
Si Si3 0.435274 0.049608 0.608840
Si Si4 0.048239 0.181367 0.046963
Si Si5 0.116732 0.295081 0.820109
Si Si6 0.812922 0.970638 0.333433
Si Si7 0.205666 0.134924 0.630722
Si Si8 0.262091 0.353286 0.395858
O O1 0.262958 0.917241 0.645367
O O2 0.472384 0.907184 0.221571
O O3 0.235228 0.827435 0.523913
O O4 0.598926 0.852010 0.377860
O O5 0.260398 0.007442 0.798524
O O6 0.977625 0.995114 0.804693
O O7 0.934675 0.946028 0.089720
O O8 0.335321 0.079347 0.532076
O O9 0.634198 0.012333 0.420473
O O10 0.082179 0.236006 0.919769
O O11 0.087297 0.133077 0.892114
O O12 0.805672 0.180303 0.281239
O O13 0.196252 0.309325 0.580296
O O14 0.891009 0.322362 0.997439
O O15 0.735674 0.915766 0.478501
O O16 0.012340 0.152602 0.670823
#
# Coordination Sequence:
#
# PCOD9138246 Si02
#       8
#     4   4   4   4   4   4   4   4
#     4  11  25  48  69 111 154 194 253 312 376 440
#     4  12  25  42  66 105 154 204 244 300 358 447
#     4  11  24  43  68 102 151 203 249 290 360 450
#     4  10  23  47  74 103 134 184 247 313 378 449
#     4  11  23  45  78 100 134 184 249 312 379 451
#     4  12  26  40  67 106 157 201 248 295 368 435
#     4  10  23  41  72 103 140 191 241 300 370 444
#     4  11  25  42  68 108 148 185 245 304 371 446
#
# _framework density 24.012592000000001
#
# number of rings (size 3 to 8) (size 9 to 14) (size 15 to 20)
#    0.000    1.000    5.000    0.750    5.250    0.000 
#    0.000    2.500    0.000    0.000    0.000    0.000 
#    0.000    0.000    0.000    0.000    0.000    0.000 
#
# Total GULP energy -89277.571815 kJ/mol
# GULP energy per Si atom -5579.848238 kJ/mol
# Density = 2.395794 g / cm^3
# Si number density = 24.012592 Si / 1000 Ang^3
#
#
#
# Elastic Constant Matrix: (Units=GPa)
#
#
# Indices 1 2 3 4 5 6 
#
# 1 179.3256 57.3185 47.1516 0.0000 -56.8332 0.0000
# 2 57.3185 106.3502 30.7094 0.0000 -14.4580 0.0000
# 3 47.1516 30.7094 92.9873 0.0000 -28.2416 0.0000
# 4 0.0000 0.0000 0.0000 32.0781 0.0000 -11.1253
# 5 -56.8332 -14.4580 -28.2416 0.0000 47.3562 0.0000
# 6 0.0000 0.0000 0.0000 -11.1253 0.0000 41.5964
#
#
#
# Elastic Compliance Matrix: (Units=1/GPa)
#
#
# Indices 1 2 3 4 5 6 
#
# 1 0.010509 -0.003974 -0.000677 0.000000 0.010996 0.000000
# 2 -0.003974 0.011971 -0.002780 0.000000 -0.002773 0.000000
# 3 -0.000677 -0.002780 0.014057 0.000000 0.006722 0.000000
# 4 0.000000 0.000000 0.000000 0.034361 0.000000 0.009190
# 5 0.010996 -0.002773 0.006722 0.000000 0.037475 0.000000
# 6 0.000000 0.000000 0.000000 0.009190 0.000000 0.026499
#
#
# Mechanical properties :
#
#
# Convention : Reuss Voigt Hill
#
# Bulk Modulus (GPa) = 46.13720 72.11358 59.12539
# Shear Modulus (GPa) = 31.85540 40.43838 36.14689
#
# Velocity S-wave (km/s) = 3.64622 4.10817 3.88407
# Velocity P-wave (km/s) = 6.08129 7.25255 6.69259
#
# Compressibility (1/GPa) = 0.02167448
#
# Stress axis : x y z
#
# Youngs Moduli (GPa) = 95.15231 83.53825 71.13771
#
# Poissons Ratio (x) = 0.33197 0.04818
# Poissons Ratio (y) = 0.37812 0.19779
# Poissons Ratio (z) = 0.06444 0.23226
#
# Static dielectric constant tensor:
#      x y z
#    x 2.019750 0.000000 0.023720 
#    y 0.000000 1.970780 0.000000 
#    z 0.023720 0.000000 1.974150 
# 
# From -- ./inp_files/6436.got.cif
#   From: 2010.05.17/outbox.cif.g08.bks.cpg/sg9_4_cif.got.tgz:6436.got - 2010.06.03 20:04:27.
