data_PCOD9138984
_publ_section_title
;
Structure prediction by ZEFSAII (Michael W. Deem and Ramdas Pophale) SiO2 
 PCOD9138984
Probable space group: C C
;
_chemical_formula_sum "Si O2"
_cell_formula_units_Z 32
_cell_length_a 9.767443
_cell_length_b 8.939375
_cell_length_c 21.545361
_cell_angle_alpha 90.000000
_cell_angle_beta 135.722024
_cell_angle_gamma 90.000000
_cell_volume 1313.361913
_symmetry_space_group_name_H-M "C C"
_symmetry_group_IT_number 9
_symmetry_cell_setting 'monoclinic'
loop_
_space_group_symop_operation_xyz
x,y,z
x,-y,1/2+z
1/2+x,1/2+y,z
1/2+x,1/2-y,1/2+z
loop_
_atom_site_type_symbol
_atom_site_label
_atom_site_fract_x
_atom_site_fract_y
_atom_site_fract_z
Si Si1 0.416980 0.056655 0.751050
Si Si2 0.063625 0.328152 0.892163
Si Si3 0.395287 0.284886 0.842829
Si Si4 0.841431 0.936376 0.255428
Si Si5 0.339892 0.850704 0.943510
Si Si6 0.388333 0.330943 0.668009
Si Si7 0.599447 0.323242 0.614737
Si Si8 0.434761 0.188629 0.999184
O O1 0.561437 0.957460 0.839897
O O2 0.272219 0.943659 0.668700
O O3 0.311119 0.156165 0.770567
O O4 0.492875 0.181958 0.728270
O O5 0.280488 0.290766 0.986506
O O6 0.904014 0.364615 0.892735
O O7 0.992961 0.176543 0.835948
O O8 0.285469 0.438349 0.788402
O O9 0.620480 0.309100 0.892664
O O10 0.406296 0.239784 0.918020
O O11 0.929576 0.036038 0.228642
O O12 0.687128 0.830274 0.171348
O O13 0.386598 0.012747 0.988046
O O14 0.482038 0.721059 0.015900
O O15 0.450044 0.374267 0.619501
O O16 0.157852 0.292995 0.592244
#
# Coordination Sequence:
#
# PCOD9138984 Si02
#       8
#     4   4   4   4   4   4   4   4
#     4  10  26  43  66 107 133 179 229 290 342 410
#     4  11  26  44  73 103 142 184 231 287 351 408
#     4  11  24  44  73  99 141 185 232 283 346 416
#     4  10  24  43  68 101 137 182 224 290 340 415
#     4  12  25  48  67 106 147 180 231 291 350 413
#     4  11  25  46  71 100 142 182 234 284 351 413
#     4  11  25  46  71  99 145 184 224 290 355 406
#     4  12  25  46  69 107 139 186 235 285 347 417
#
# _framework density 24.36495
#
# number of rings (size 3 to 8) (size 9 to 14) (size 15 to 20)
#    0.000    1.000    5.000    0.000   10.500    4.000 
#    0.000    0.000    0.000    0.000    0.000    0.000 
#    0.000    0.000    0.000    0.000    0.000    0.000 
#
# Total GULP energy -89511.095689 kJ/mol
# GULP energy per Si atom -5594.443481 kJ/mol
# Density = 2.430949 g / cm^3
# Si number density = 24.364950 Si / 1000 Ang^3
#
#
#
# Elastic Constant Matrix: (Units=GPa)
#
#
# Indices 1 2 3 4 5 6 
#
# 1 73.2174 -6.1803 -11.4277 0.0000 -3.8393 0.0000
# 2 -6.1803 112.7676 2.9065 0.0000 -5.1493 0.0000
# 3 -11.4277 2.9065 42.0837 0.0000 0.9611 0.0000
# 4 0.0000 0.0000 0.0000 37.3349 0.0000 -1.5543
# 5 -3.8393 -5.1493 0.9611 0.0000 36.9255 0.0000
# 6 0.0000 0.0000 0.0000 -1.5543 0.0000 20.4890
#
#
#
# Elastic Compliance Matrix: (Units=1/GPa)
#
#
# Indices 1 2 3 4 5 6 
#
# 1 0.014398 0.000759 0.003823 0.000000 0.001503 0.000000
# 2 0.000759 0.008982 -0.000445 0.000000 0.001343 0.000000
# 3 0.003823 -0.000445 0.024838 0.000000 -0.000311 0.000000
# 4 0.000000 0.000000 0.000000 0.026869 0.000000 0.002038
# 5 0.001503 0.001343 -0.000311 0.000000 0.027433 0.000000
# 6 0.000000 0.000000 0.000000 0.002038 0.000000 0.048961
#
#
# Mechanical properties :
#
#
# Convention : Reuss Voigt Hill
#
# Bulk Modulus (GPa) = 17.70160 22.07398 19.88779
# Shear Modulus (GPa) = 30.85694 35.13457 32.99575
#
# Velocity S-wave (km/s) = 3.56258 3.80150 3.68398
# Velocity P-wave (km/s) = 4.91971 5.32428 5.12599
#
# Compressibility (1/GPa) = 0.05649208
#
# Stress axis : x y z
#
# Youngs Moduli (GPa) = 69.45637 111.33135 40.26077
#
# Poissons Ratio (x) = -0.08452 -0.15391
# Poissons Ratio (y) = -0.05273 0.01791
# Poissons Ratio (z) = -0.26552 0.04953
#
# Static dielectric constant tensor:
#      x y z
#    x 1.953360 0.000000 0.029310 
#    y 0.000000 1.930840 0.000000 
#    z 0.029310 0.000000 1.925770 
# 
# From -- ./inp_files/29858.got.cif
#   From: 2010.05.17/outbox.cif.g08.bks.cpg/sg9_15_cif.got.tgz:29858.got - 2010.06.03 20:04:27.
