data_PCOD9138343
_publ_section_title
;
Structure prediction by ZEFSAII (Michael W. Deem and Ramdas Pophale) SiO2 
 PCOD9138343
Probable space group: C C
;
_chemical_formula_sum "Si O2"
_cell_formula_units_Z 28
_cell_length_a 18.251706
_cell_length_b 5.011449
_cell_length_c 10.246001
_cell_angle_alpha 90.000000
_cell_angle_beta 75.617935
_cell_angle_gamma 90.000000
_cell_volume 907.805835
_symmetry_space_group_name_H-M "C C"
_symmetry_group_IT_number 9
_symmetry_cell_setting 'monoclinic'
loop_
_space_group_symop_operation_xyz
x,y,z
x,-y,1/2+z
1/2+x,1/2+y,z
1/2+x,1/2-y,1/2+z
loop_
_atom_site_type_symbol
_atom_site_label
_atom_site_fract_x
_atom_site_fract_y
_atom_site_fract_z
Si Si1 0.976480 0.579806 0.329420
Si Si2 0.270808 0.509469 0.197360
Si Si3 0.609125 0.792994 0.951975
Si Si4 0.002555 0.984055 0.672592
Si Si5 0.246917 0.003144 0.865777
Si Si6 0.902962 0.104070 0.458483
Si Si7 0.144860 0.223282 0.604025
O O1 0.988603 0.311493 0.234952
O O2 0.902759 0.419836 0.430151
O O3 0.030260 0.612679 0.431483
O O4 0.051082 0.745189 0.201934
O O5 0.279737 0.239531 0.273230
O O6 0.186094 0.557585 0.184772
O O7 0.291076 0.737811 0.294533
O O8 0.325256 0.498615 0.049639
O O9 0.661099 0.583322 0.849434
O O10 0.592034 0.584131 0.079121
O O11 0.644773 0.068441 0.979319
O O12 0.938735 0.103837 0.828411
O O13 0.958703 0.064318 0.559763
O O14 0.223320 0.952075 0.026097
#
# Coordination Sequence:
#
# PCOD9138343 Si02
#       7
#     4   4   4   4   4   4   4
#     4  10  23  42  71  95 139 177 232 290 349 416
#     4  12  26  47  72 100 152 188 231 297 353 437
#     4  11  23  42  69 109 133 177 243 297 347 415
#     4   9  23  40  69 100 136 180 232 288 350 406
#     4  11  26  43  71 106 140 188 235 289 359 415
#     4  10  24  47  65 101 135 193 226 280 365 419
#     4  11  25  43  75 107 139 183 243 293 361 412
#
# _framework density 30.843602000000001
#
# number of rings (size 3 to 8) (size 9 to 14) (size 15 to 20)
#    0.857    0.571    1.429    2.571   10.000    0.000 
#    2.571    1.429    0.000    0.000    0.000    0.000 
#    0.000    0.000    0.000    0.000    0.000    0.000 
#
# Total GULP energy -78107.509343 kJ/mol
# GULP energy per Si atom -5579.107810 kJ/mol
# Density = 3.077340 g / cm^3
# Si number density = 30.843602 Si / 1000 Ang^3
#
#
#
# Elastic Constant Matrix: (Units=GPa)
#
#
# Indices 1 2 3 4 5 6 
#
# 1 112.2163 27.3290 7.7034 0.0000 -10.9675 0.0000
# 2 27.3290 284.8818 92.5835 0.0000 -16.9025 0.0000
# 3 7.7034 92.5835 172.1530 0.0000 -40.3402 0.0000
# 4 0.0000 0.0000 0.0000 83.7181 0.0000 -6.4835
# 5 -10.9675 -16.9025 -40.3402 0.0000 56.8913 0.0000
# 6 0.0000 0.0000 0.0000 -6.4835 0.0000 47.9149
#
#
#
# Elastic Compliance Matrix: (Units=1/GPa)
#
#
# Indices 1 2 3 4 5 6 
#
# 1 0.009292 -0.000955 0.000541 0.000000 0.001891 0.000000
# 2 -0.000955 0.004361 -0.002449 0.000000 -0.000625 0.000000
# 3 0.000541 -0.002449 0.008342 0.000000 0.005291 0.000000
# 4 0.000000 0.000000 0.000000 0.012071 0.000000 0.001633
# 5 0.001891 -0.000625 0.005291 0.000000 0.021508 0.000000
# 6 0.000000 0.000000 0.000000 0.001633 0.000000 0.021091
#
#
# Mechanical properties :
#
#
# Convention : Reuss Voigt Hill
#
# Bulk Modulus (GPa) = 61.47039 91.60921 76.53980
# Shear Modulus (GPa) = 56.93911 67.14722 62.04317
#
# Velocity S-wave (km/s) = 4.30124 4.67092 4.48989
# Velocity P-wave (km/s) = 6.68136 7.67174 7.19362
#
# Compressibility (1/GPa) = 0.01626799
#
# Stress axis : x y z
#
# Youngs Moduli (GPa) = 107.62392 229.32611 119.88250
#
# Poissons Ratio (x) = 0.21899 -0.06485
# Poissons Ratio (y) = 0.10278 0.29357
# Poissons Ratio (z) = -0.05822 0.56158
#
# Static dielectric constant tensor:
#      x y z
#    x 2.445100 0.000000 -0.016370 
#    y 0.000000 2.427480 0.000000 
#    z -0.016370 0.000000 2.964290 
# 
# From -- ./inp_files/19766.got.cif
#   From: 2010.05.17/outbox.cif.g08.bks.cpg/sg9_10_cif.got.tgz:19766.got - 2010.06.03 20:04:27.
