data_PCOD9138382
_publ_section_title
;
Structure prediction by ZEFSAII (Michael W. Deem and Ramdas Pophale) SiO2 
 PCOD9138382
Probable space group: C C
;
_chemical_formula_sum "Si O2"
_cell_formula_units_Z 28
_cell_length_a 4.987334
_cell_length_b 25.909136
_cell_length_c 9.584128
_cell_angle_alpha 90.000000
_cell_angle_beta 62.949944
_cell_angle_gamma 90.000000
_cell_volume 1102.964011
_symmetry_space_group_name_H-M "C C"
_symmetry_group_IT_number 9
_symmetry_cell_setting 'monoclinic'
loop_
_space_group_symop_operation_xyz
x,y,z
x,-y,1/2+z
1/2+x,1/2+y,z
1/2+x,1/2-y,1/2+z
loop_
_atom_site_type_symbol
_atom_site_label
_atom_site_fract_x
_atom_site_fract_y
_atom_site_fract_z
Si Si1 0.806460 0.050267 0.868250
Si Si2 0.813390 0.298592 0.320214
Si Si3 0.059147 0.901748 0.886100
Si Si4 0.439297 0.999042 0.204810
Si Si5 0.678375 0.831696 0.481800
Si Si6 0.437634 0.132245 0.544381
Si Si7 0.866126 0.813428 0.750808
O O1 0.614480 0.028716 0.786484
O O2 0.749575 0.110078 0.916056
O O3 0.265243 0.949369 0.798166
O O4 0.676093 0.019723 0.034228
O O5 0.460019 0.295565 0.370211
O O6 0.907988 0.347822 0.206781
O O7 0.965293 0.245518 0.238307
O O8 0.894910 0.311333 0.460684
O O9 0.087317 0.857528 0.760348
O O10 0.699780 0.910814 0.971658
O O11 0.156256 0.881482 0.014822
O O12 0.152392 0.961800 0.244476
O O13 0.720673 0.828672 0.638075
O O14 0.595118 0.180385 0.427390
#
# Coordination Sequence:
#
# PCOD9138382 Si02
#       7
#     4   4   4   4   4   4   4
#     4  12  29  49  77 113 151 202 252 323 385 458
#     4  12  27  43  72 109 147 193 247 321 366 450
#     4  10  24  43  75  98 139 195 248 298 366 463
#     4  12  27  49  79 109 149 200 261 309 394 455
#     4  12  29  47  73 108 155 190 252 315 383 443
#     4  10  23  43  66 103 143 185 251 298 374 439
#     4  10  27  44  76  98 152 197 253 292 390 458
#
# _framework density 25.386144000000002
#
# number of rings (size 3 to 8) (size 9 to 14) (size 15 to 20)
#    0.857    0.000    0.000    5.143   12.000    6.857 
#    0.000    0.000    0.000    0.000    0.000    0.000 
#    0.000    0.000    0.000    0.000    0.000    0.000 
#
# Total GULP energy -78327.159806 kJ/mol
# GULP energy per Si atom -5594.797129 kJ/mol
# Density = 2.532836 g / cm^3
# Si number density = 25.386144 Si / 1000 Ang^3
#
#
#
# Elastic Constant Matrix: (Units=GPa)
#
#
# Indices 1 2 3 4 5 6 
#
# 1 117.8754 16.8631 29.9644 0.0000 28.2091 0.0000
# 2 16.8631 155.3876 41.4187 0.0000 28.6612 0.0000
# 3 29.9644 41.4187 131.7931 0.0000 33.6266 0.0000
# 4 0.0000 0.0000 0.0000 38.4755 0.0000 8.5158
# 5 28.2091 28.6612 33.6266 0.0000 51.4408 0.0000
# 6 0.0000 0.0000 0.0000 8.5158 0.0000 28.8679
#
#
#
# Elastic Compliance Matrix: (Units=1/GPa)
#
#
# Indices 1 2 3 4 5 6 
#
# 1 0.009883 0.000091 -0.001056 0.000000 -0.004780 0.000000
# 2 0.000091 0.007423 -0.001543 0.000000 -0.003177 0.000000
# 3 -0.001056 -0.001543 0.009536 0.000000 -0.004795 0.000000
# 4 0.000000 0.000000 0.000000 0.027806 0.000000 -0.008202
# 5 -0.004780 -0.003177 -0.004795 0.000000 0.026966 0.000000
# 6 0.000000 0.000000 0.000000 -0.008202 0.000000 0.037060
#
#
# Mechanical properties :
#
#
# Convention : Reuss Voigt Hill
#
# Bulk Modulus (GPa) = 45.81786 64.61649 55.21718
# Shear Modulus (GPa) = 38.17818 44.87752 41.52785
#
# Velocity S-wave (km/s) = 3.88222 4.20908 4.04895
# Velocity P-wave (km/s) = 6.17924 7.00931 6.60733
#
# Compressibility (1/GPa) = 0.02182555
#
# Stress axis : x y z
#
# Youngs Moduli (GPa) = 101.18538 134.71796 104.86565
#
# Poissons Ratio (x) = -0.01220 0.11072
# Poissons Ratio (y) = -0.00916 0.16179
# Poissons Ratio (z) = 0.10684 0.20784
#
# Static dielectric constant tensor:
#      x y z
#    x 1.978800 0.000000 -0.123970 
#    y 0.000000 1.994980 0.000000 
#    z -0.123970 0.000000 2.021120 
# 
# From -- ./inp_files/4162.got.cif
#   From: 2010.05.17/outbox.cif.g08.bks.cpg/sg9_3_cif.got.tgz:4162.got - 2010.06.03 20:04:27.
