data_PCOD9138623
_publ_section_title
;
Structure prediction by ZEFSAII (Michael W. Deem and Ramdas Pophale) SiO2 
 PCOD9138623
Probable space group: C C
;
_chemical_formula_sum "Si O2"
_cell_formula_units_Z 32
_cell_length_a 23.364383
_cell_length_b 5.327171
_cell_length_c 14.096098
_cell_angle_alpha 90.000000
_cell_angle_beta 130.185539
_cell_angle_gamma 90.000000
_cell_volume 1340.355087
_symmetry_space_group_name_H-M "C C"
_symmetry_group_IT_number 9
_symmetry_cell_setting 'monoclinic'
loop_
_space_group_symop_operation_xyz
x,y,z
x,-y,1/2+z
1/2+x,1/2+y,z
1/2+x,1/2-y,1/2+z
loop_
_atom_site_type_symbol
_atom_site_label
_atom_site_fract_x
_atom_site_fract_y
_atom_site_fract_z
Si Si1 0.404970 0.390424 0.157660
Si Si2 0.070712 0.853377 0.316806
Si Si3 0.077490 0.644513 0.947761
Si Si4 0.788320 0.508517 0.582112
Si Si5 0.695440 0.468915 0.311012
Si Si6 0.208866 0.687955 0.654485
Si Si7 0.822510 0.939891 0.904098
Si Si8 0.912786 0.773760 0.838214
O O1 0.485305 0.391591 0.198169
O O2 0.358001 0.137095 0.108967
O O3 0.417415 0.476752 0.278412
O O4 0.353370 0.557984 0.034083
O O5 0.072940 0.582325 0.367797
O O6 0.122457 0.857722 0.281076
O O7 0.087905 0.085275 0.408077
O O8 0.994926 0.649522 0.909974
O O9 0.152305 0.547895 0.082744
O O10 0.734554 0.616660 0.442075
O O11 0.734724 0.312282 0.582903
O O12 0.834660 0.662856 0.710065
O O13 0.674273 0.622032 0.194662
O O14 0.756055 0.256122 0.352505
O O15 0.286529 0.626501 0.790495
O O16 0.891801 0.811978 0.924203
#
# Coordination Sequence:
#
# PCOD9138623 Si02
#       8
#     4   4   4   4   4   4   4   4
#     4  10  23  45  68  97 141 187 243 300 362 431
#     4  11  25  49  71 104 146 198 235 296 373 437
#     4  11  27  46  77 103 149 192 241 297 373 433
#     4  11  21  42  71  96 144 183 246 298 363 434
#     4  11  26  42  69 106 143 192 246 298 376 437
#     4  12  25  43  70 109 145 191 243 309 363 449
#     4  11  25  42  71 108 139 187 252 303 366 438
#     4  11  22  45  71 103 141 192 240 305 368 441
#
# _framework density 23.874274
#
# number of rings (size 3 to 8) (size 9 to 14) (size 15 to 20)
#    0.000    1.000    5.000    0.750    5.250    1.000 
#    4.500    0.000    0.000    0.000    0.000    0.000 
#    0.000    0.000    0.000    0.000    0.000    0.000 
#
# Total GULP energy -89273.027471 kJ/mol
# GULP energy per Si atom -5579.564217 kJ/mol
# Density = 2.381993 g / cm^3
# Si number density = 23.874274 Si / 1000 Ang^3
#
#
#
# Elastic Constant Matrix: (Units=GPa)
#
#
# Indices 1 2 3 4 5 6 
#
# 1 171.6251 18.5363 -2.7144 0.0000 7.5768 0.0000
# 2 18.5363 38.9152 -0.2058 0.0000 -1.4395 0.0001
# 3 -2.7144 -0.2058 85.3729 0.0000 0.5993 0.0000
# 4 0.0000 0.0000 0.0000 23.5051 0.0000 12.4839
# 5 7.5768 -1.4395 0.5993 0.0000 28.4826 0.0000
# 6 0.0000 0.0001 0.0000 12.4839 0.0000 24.7195
#
#
#
# Elastic Compliance Matrix: (Units=1/GPa)
#
#
# Indices 1 2 3 4 5 6 
#
# 1 0.006238 -0.003038 0.000204 0.000000 -0.001817 0.000000
# 2 -0.003038 0.027224 -0.000046 0.000000 0.002185 0.000000
# 3 0.000204 -0.000046 0.011722 0.000000 -0.000303 0.000000
# 4 0.000000 0.000000 0.000000 0.058138 0.000000 -0.029361
# 5 -0.001817 0.002185 -0.000303 0.000000 0.035709 0.000000
# 6 0.000000 0.000000 0.000000 -0.029361 0.000000 0.055282
#
#
# Mechanical properties :
#
#
# Convention : Reuss Voigt Hill
#
# Bulk Modulus (GPa) = 25.36513 36.34947 30.85730
# Shear Modulus (GPa) = 23.45052 34.02792 28.73922
#
# Velocity S-wave (km/s) = 3.13749 3.77941 3.47331
# Velocity P-wave (km/s) = 4.87572 5.85693 5.38870
#
# Compressibility (1/GPa) = 0.03942421
#
# Stress axis : x y z
#
# Youngs Moduli (GPa) = 160.30342 36.73187 85.31102
#
# Poissons Ratio (x) = 0.11157 -0.01738
# Poissons Ratio (y) = 0.48693 0.00395
# Poissons Ratio (z) = -0.03267 0.00170
#
# Static dielectric constant tensor:
#      x y z
#    x 1.931550 0.000000 -0.039820 
#    y 0.000000 2.007520 0.000000 
#    z -0.039820 0.000000 2.041620 
# 
# From -- ./inp_files/27604.got.cif
#   From: 2010.05.17/outbox.cif.g08.bks.cpg/sg9_14_cif.got.tgz:27604.got - 2010.06.03 20:04:27.
