data_PCOD9138618
_publ_section_title
;
Structure prediction by ZEFSAII (Michael W. Deem and Ramdas Pophale) SiO2 
 PCOD9138618
Probable space group: C C
;
_chemical_formula_sum "Si O2"
_cell_formula_units_Z 28
_cell_length_a 6.265419
_cell_length_b 17.614407
_cell_length_c 11.897129
_cell_angle_alpha 90.000000
_cell_angle_beta 107.588038
_cell_angle_gamma 90.000000
_cell_volume 1251.609500
_symmetry_space_group_name_H-M "C C"
_symmetry_group_IT_number 9
_symmetry_cell_setting 'monoclinic'
loop_
_space_group_symop_operation_xyz
x,y,z
x,-y,1/2+z
1/2+x,1/2+y,z
1/2+x,1/2-y,1/2+z
loop_
_atom_site_type_symbol
_atom_site_label
_atom_site_fract_x
_atom_site_fract_y
_atom_site_fract_z
Si Si1 0.618180 0.714440 0.640180
Si Si2 0.565831 0.133737 0.762035
Si Si3 0.296438 0.159106 0.120635
Si Si4 0.979017 0.457584 0.466887
Si Si5 0.771912 0.918014 0.059060
Si Si6 0.872171 0.394624 0.865778
Si Si7 0.337968 0.268757 0.462535
O O1 0.860681 0.692598 0.724369
O O2 0.468695 0.773926 0.684765
O O3 0.491679 0.633845 0.601223
O O4 0.660425 0.763972 0.534875
O O5 0.499680 0.070025 0.841882
O O6 0.631816 0.106804 0.648424
O O7 0.773198 0.174263 0.854241
O O8 0.274028 0.106368 0.226511
O O9 0.381721 0.104819 0.034340
O O10 0.075652 0.204533 0.048344
O O11 0.816447 0.531195 0.430810
O O12 0.221618 0.491123 0.546830
O O13 0.643756 0.896125 0.922626
O O14 0.818516 0.315916 0.914317
#
# Coordination Sequence:
#
# PCOD9138618 Si02
#       7
#     4   4   4   4   4   4   4
#     4  12  23  44  72 102 140 191 238 292 360 429
#     4  12  25  45  69 105 142 178 248 291 360 434
#     4  12  24  45  72 104 144 184 246 296 358 433
#     4  10  24  46  69 102 142 184 233 295 366 421
#     4  10  24  46  67 102 142 185 231 296 362 419
#     4  10  23  45  67  98 142 181 226 299 351 423
#     4  12  25  45  70 109 138 185 244 295 357 439
#
# _framework density 22.371195
#
# number of rings (size 3 to 8) (size 9 to 14) (size 15 to 20)
#    0.857    0.000    4.286    2.571    6.000    0.000 
#    7.714    0.000    0.000    0.000    0.000    0.000 
#    0.000    0.000    0.000    0.000    0.000    0.000 
#
# Total GULP energy -77994.004408 kJ/mol
# GULP energy per Si atom -5571.000315 kJ/mol
# Density = 2.232028 g / cm^3
# Si number density = 22.371195 Si / 1000 Ang^3
#
#
#
# Elastic Constant Matrix: (Units=GPa)
#
#
# Indices 1 2 3 4 5 6 
#
# 1 45.9916 24.2051 25.0298 0.0000 -0.2154 0.0000
# 2 24.2051 103.6704 35.7047 0.0000 -10.7418 0.0000
# 3 25.0298 35.7047 100.0663 0.0000 -1.7896 0.0000
# 4 0.0000 0.0000 0.0000 42.9187 0.0000 -3.6350
# 5 -0.2154 -10.7418 -1.7896 0.0000 23.0768 0.0000
# 6 0.0000 0.0000 0.0000 -3.6350 0.0000 23.9928
#
#
#
# Elastic Compliance Matrix: (Units=1/GPa)
#
#
# Indices 1 2 3 4 5 6 
#
# 1 0.027030 -0.004805 -0.005089 0.000000 -0.002379 0.000000
# 2 -0.004805 0.012415 -0.003130 0.000000 0.005491 0.000000
# 3 -0.005089 -0.003130 0.012373 0.000000 -0.000545 0.000000
# 4 0.000000 0.000000 0.000000 0.023603 0.000000 0.003576
# 5 -0.002379 0.005491 -0.000545 0.000000 0.045825 0.000000
# 6 0.000000 0.000000 0.000000 0.003576 0.000000 0.042221
#
#
# Mechanical properties :
#
#
# Convention : Reuss Voigt Hill
#
# Bulk Modulus (GPa) = 38.80352 46.62307 42.71329
# Shear Modulus (GPa) = 25.23913 28.98357 27.11135
#
# Velocity S-wave (km/s) = 3.36251 3.60331 3.48499
# Velocity P-wave (km/s) = 5.69721 6.18043 5.94374
#
# Compressibility (1/GPa) = 0.02577086
#
# Stress axis : x y z
#
# Youngs Moduli (GPa) = 36.99536 80.55017 80.81905
#
# Poissons Ratio (x) = 0.38703 0.41131
# Poissons Ratio (y) = 0.17776 0.25293
# Poissons Ratio (z) = 0.18828 0.25209
#
# Static dielectric constant tensor:
#      x y z
#    x 1.884610 0.000000 -0.028590 
#    y 0.000000 1.877900 0.000000 
#    z -0.028590 0.000000 1.829160 
# 
# From -- ./inp_files/13538.got.cif
#   From: 2010.05.17/outbox.cif.g08.bks.cpg/sg9_7_cif.got.tgz:13538.got - 2010.06.03 20:04:27.
