data_PCOD9138801
_publ_section_title
;
Structure prediction by ZEFSAII (Michael W. Deem and Ramdas Pophale) SiO2 
 PCOD9138801
Probable space group: C C
;
_chemical_formula_sum "Si O2"
_cell_formula_units_Z 24
_cell_length_a 20.920820
_cell_length_b 5.169328
_cell_length_c 13.422179
_cell_angle_alpha 90.000000
_cell_angle_beta 139.393067
_cell_angle_gamma 90.000000
_cell_volume 944.772976
_symmetry_space_group_name_H-M "C C"
_symmetry_group_IT_number 9
_symmetry_cell_setting 'monoclinic'
loop_
_space_group_symop_operation_xyz
x,y,z
x,-y,1/2+z
1/2+x,1/2+y,z
1/2+x,1/2-y,1/2+z
loop_
_atom_site_type_symbol
_atom_site_label
_atom_site_fract_x
_atom_site_fract_y
_atom_site_fract_z
Si Si1 0.908860 0.127636 0.477550
Si Si2 0.151178 0.923811 0.558027
Si Si3 0.931862 0.046769 0.272359
Si Si4 0.336890 0.957465 0.566023
Si Si5 0.207005 0.442581 0.688591
Si Si6 0.623806 0.442616 0.238196
O O1 0.876645 0.375308 0.503616
O O2 0.807835 0.965692 0.358981
O O3 0.012928 0.035314 0.643754
O O4 0.927646 0.137007 0.382177
O O5 0.223777 0.165018 0.649735
O O6 0.179315 0.634101 0.566128
O O7 0.048095 0.010267 0.393637
O O8 0.136029 0.861112 0.659834
O O9 0.882812 0.273016 0.151724
O O10 0.878064 0.775029 0.184805
O O11 0.217681 0.964948 0.420650
O O12 0.136592 0.329303 0.692382
#
# Coordination Sequence:
#
# PCOD9138801 Si02
#       6
#     4   4   4   4   4   4
#     4  10  23  47  71  98 136 197 214 284 362 394
#     4   9  19  40  65  90 134 176 211 285 333 385
#     4  11  25  45  69 101 140 177 234 284 338 416
#     4  11  25  45  66 104 140 175 235 292 326 418
#     4   9  19  38  68  93 129 173 225 272 332 403
#     4   8  21  41  65  98 135 176 225 281 335 408
#
# _framework density 25.402929
#
# number of rings (size 3 to 8) (size 9 to 14) (size 15 to 20)
#    1.000    1.333    0.000    1.000    4.667    2.667 
#   15.000    0.000    0.000    0.000    0.000    0.000 
#    0.000    0.000    0.000    0.000    0.000    0.000 
#
# Total GULP energy -66900.457928 kJ/mol
# GULP energy per Si atom -5575.038161 kJ/mol
# Density = 2.534511 g / cm^3
# Si number density = 25.402929 Si / 1000 Ang^3
#
#
#
# Elastic Constant Matrix: (Units=GPa)
#
#
# Indices 1 2 3 4 5 6 
#
# 1 55.9516 -2.6522 45.8457 -0.0001 12.4711 -0.0003
# 2 -2.6522 98.0163 32.4398 0.0013 3.8754 0.0006
# 3 45.8457 32.4398 191.0876 -0.0001 27.1099 0.0000
# 4 -0.0001 0.0013 -0.0001 36.9135 0.0000 2.9864
# 5 12.4711 3.8754 27.1099 0.0000 63.8815 0.0001
# 6 -0.0003 0.0006 0.0000 2.9864 0.0001 -1.5931
#
#
#
# Elastic Compliance Matrix: (Units=1/GPa)
#
#
# Indices 1 2 3 4 5 6 
#
# 1 0.023149 0.002593 -0.005672 0.000000 -0.002269 -0.000003
# 2 0.002593 0.011101 -0.002489 -0.000001 -0.000123 0.000002
# 3 -0.005672 -0.002489 0.007276 0.000000 -0.001830 0.000000
# 4 0.000000 -0.000001 0.000000 0.023523 0.000000 0.044096
# 5 -0.002269 -0.000123 -0.001830 0.000000 0.016881 0.000001
# 6 -0.000003 0.000002 0.000000 0.044096 0.000001 -0.545038
#
#
# Mechanical properties :
#
#
# Convention : Reuss Voigt Hill
#
# Bulk Modulus (GPa) = 32.90517 55.14690 44.02603
# Shear Modulus (GPa) = -11.31627 37.80186 13.24279
#
# Velocity S-wave (km/s) = -2.11291 3.86176 2.28570
# Velocity P-wave (km/s) = 2.65121 6.45293 4.93301
#
# Compressibility (1/GPa) = 0.03039036
#
# Stress axis : x y z
#
# Youngs Moduli (GPa) = 43.19823 90.07952 137.43377
#
# Poissons Ratio (x) = -0.23361 0.77956
# Poissons Ratio (y) = -0.11203 0.34212
# Poissons Ratio (z) = 0.24503 0.22424
#
# Static dielectric constant tensor:
#      x y z
#    x 2.152340 0.000000 -0.021260 
#    y 0.000000 2.247610 0.000000 
#    z -0.021260 0.000000 2.069650 
# 
# From -- ./inp_files/27077.got.cif
#   From: 2010.05.17/outbox.cif.g08.bks.cpg/sg9_14_cif.got.tgz:27077.got - 2010.06.03 20:04:27.
