data_PCOD9138545
_publ_section_title
;
Structure prediction by ZEFSAII (Michael W. Deem and Ramdas Pophale) SiO2 
 PCOD9138545
Probable space group: C C
;
_chemical_formula_sum "Si O2"
_cell_formula_units_Z 28
_cell_length_a 14.426897
_cell_length_b 5.039268
_cell_length_c 14.797036
_cell_angle_alpha 90.000000
_cell_angle_beta 69.614977
_cell_angle_gamma 90.000000
_cell_volume 1008.387820
_symmetry_space_group_name_H-M "C C"
_symmetry_group_IT_number 9
_symmetry_cell_setting 'monoclinic'
loop_
_space_group_symop_operation_xyz
x,y,z
x,-y,1/2+z
1/2+x,1/2+y,z
1/2+x,1/2-y,1/2+z
loop_
_atom_site_type_symbol
_atom_site_label
_atom_site_fract_x
_atom_site_fract_y
_atom_site_fract_z
Si Si1 0.954320 0.320619 0.763250
Si Si2 0.134006 0.960301 0.577888
Si Si3 0.515742 0.992497 0.571279
Si Si4 0.797254 0.928145 0.768716
Si Si5 0.392195 0.587170 0.411908
Si Si6 0.826085 0.719392 0.567067
Si Si7 0.601778 0.823405 0.282398
O O1 0.961088 0.551231 0.686508
O O2 0.896210 0.104911 0.721468
O O3 0.065451 0.207893 0.570085
O O4 0.063507 0.383422 0.765452
O O5 0.242892 0.073599 0.538599
O O6 0.121465 0.848426 0.685273
O O7 0.100960 0.709793 0.529704
O O8 0.400984 0.281008 0.371209
O O9 0.427371 0.053630 0.534451
O O10 0.822264 0.790060 0.856893
O O11 0.701362 0.122979 0.804648
O O12 0.784784 0.757227 0.682912
O O13 0.346189 0.517736 0.523323
O O14 0.503597 0.701142 0.364290
#
# Coordination Sequence:
#
# PCOD9138545 Si02
#       7
#     4   4   4   4   4   4   4
#     4   9  20  45  65 100 136 182 244 297 351 445
#     4  11  24  42  74 105 138 191 249 287 361 451
#     4  11  22  44  72  99 140 189 237 297 362 429
#     4  10  23  44  71 102 144 197 241 305 376 436
#     4  10  25  47  66 112 145 182 257 309 354 457
#     4  12  25  45  73 109 145 194 244 309 375 430
#     4  11  21  45  77  99 146 199 238 302 381 434
#
# _framework density 27.767097
#
# number of rings (size 3 to 8) (size 9 to 14) (size 15 to 20)
#    0.857    0.571    1.429    5.143    0.000    2.286 
#   12.857    0.000    0.000    0.000    0.000    0.000 
#    0.000    0.000    0.000    0.000    0.000    0.000 
#
# Total GULP energy -77979.588709 kJ/mol
# GULP energy per Si atom -5569.970622 kJ/mol
# Density = 2.770390 g / cm^3
# Si number density = 27.767097 Si / 1000 Ang^3
#
#
#
# Elastic Constant Matrix: (Units=GPa)
#
#
# Indices 1 2 3 4 5 6 
#
# 1 183.3945 77.7133 25.3354 0.0023 1.5337 0.0027
# 2 77.7133 108.6152 19.0144 0.0038 -6.7033 0.0070
# 3 25.3354 19.0144 75.2580 0.0006 -1.1025 0.0014
# 4 0.0023 0.0038 0.0006 42.8676 0.0002 -8.9144
# 5 1.5337 -6.7033 -1.1025 0.0002 24.5491 0.0008
# 6 0.0027 0.0070 0.0014 -8.9144 0.0008 35.8791
#
#
#
# Elastic Compliance Matrix: (Units=1/GPa)
#
#
# Indices 1 2 3 4 5 6 
#
# 1 0.008050 -0.005660 -0.001311 0.000000 -0.002107 0.000001
# 2 -0.005660 0.013772 -0.001515 -0.000001 0.004046 -0.000003
# 3 -0.001311 -0.001515 0.014116 0.000000 0.000302 0.000000
# 4 0.000000 -0.000001 0.000000 0.024599 -0.000001 0.006112
# 5 -0.002107 0.004046 0.000302 -0.000001 0.041985 -0.000002
# 6 0.000001 -0.000003 0.000000 0.006112 -0.000002 0.029390
#
#
# Mechanical properties :
#
#
# Convention : Reuss Voigt Hill
#
# Bulk Modulus (GPa) = 52.72569 67.93267 60.32918
# Shear Modulus (GPa) = 32.21563 37.00613 34.61088
#
# Velocity S-wave (km/s) = 3.40988 3.65462 3.53437
# Velocity P-wave (km/s) = 5.87646 6.50589 6.19917
#
# Compressibility (1/GPa) = 0.01896609
#
# Stress axis : x y z
#
# Youngs Moduli (GPa) = 124.22413 72.61343 70.84158
#
# Poissons Ratio (x) = 0.41101 0.09286
# Poissons Ratio (y) = 0.70314 0.10730
# Poissons Ratio (z) = 0.16283 0.10999
#
# Static dielectric constant tensor:
#      x y z
#    x 2.175670 0.000000 0.007000 
#    y 0.000000 2.309060 0.000000 
#    z 0.007000 0.000000 2.320390 
# 
# From -- ./inp_files/30276.got.cif
#   From: 2010.05.17/outbox.cif.g08.bks.cpg/sg9_16_cif.got.tgz:30276.got - 2010.06.03 20:04:27.
