data_PCOD9138159
_publ_section_title
;
Structure prediction by ZEFSAII (Michael W. Deem and Ramdas Pophale) SiO2 
 PCOD9138159
Probable space group: C C
;
_chemical_formula_sum "Si O2"
_cell_formula_units_Z 32
_cell_length_a 12.537183
_cell_length_b 14.988919
_cell_length_c 18.727294
_cell_angle_alpha 90.000000
_cell_angle_beta 152.948359
_cell_angle_gamma 90.000000
_cell_volume 1600.513880
_symmetry_space_group_name_H-M "C C"
_symmetry_group_IT_number 9
_symmetry_cell_setting 'monoclinic'
loop_
_space_group_symop_operation_xyz
x,y,z
x,-y,1/2+z
1/2+x,1/2+y,z
1/2+x,1/2-y,1/2+z
loop_
_atom_site_type_symbol
_atom_site_label
_atom_site_fract_x
_atom_site_fract_y
_atom_site_fract_z
Si Si1 0.280080 0.778865 0.507620
Si Si2 0.096167 0.368471 0.809206
Si Si3 0.311692 0.514982 0.308774
Si Si4 0.628007 0.839225 0.606060
Si Si5 0.926208 0.166838 0.034330
Si Si6 0.712489 0.488469 0.650455
Si Si7 0.448022 0.169587 0.837529
Si Si8 0.296963 0.314167 0.295482
O O1 0.278500 0.682787 0.468334
O O2 0.442893 0.795158 0.673898
O O3 0.394424 0.841455 0.515587
O O4 0.013825 0.799489 0.371045
O O5 0.203126 0.431605 0.811703
O O6 0.930263 0.425823 0.760980
O O7 0.273678 0.573563 0.215894
O O8 0.577873 0.502681 0.494689
O O9 0.208884 0.416174 0.236934
O O10 0.548633 0.829495 0.477678
O O11 0.787134 0.755352 0.725154
O O12 0.099831 0.239804 0.170190
O O13 0.674568 0.167696 0.921282
O O14 0.898800 0.192488 0.935466
O O15 0.042609 0.068550 0.100793
O O16 0.798343 0.580891 0.733524
#
# Coordination Sequence:
#
# PCOD9138159 Si02
#       8
#     4   4   4   4   4   4   4   4
#     4  11  20  41  67  94 127 164 221 267 325 382
#     4  11  21  39  66  96 129 168 216 271 325 394
#     4  10  23  40  64  96 128 172 215 266 337 383
#     4  11  25  43  64  94 127 174 220 270 328 390
#     4  11  24  41  66  96 128 176 213 268 340 388
#     4  11  21  41  62  92 130 168 217 263 329 393
#     4  12  25  44  63  94 133 174 221 269 329 401
#     4  11  21  43  66  98 132 166 221 272 329 397
#
# _framework density 19.993579
#
# number of rings (size 3 to 8) (size 9 to 14) (size 15 to 20)
#    0.000    1.000    3.750    5.250    0.000    2.000 
#    4.500    0.000    0.000    0.000    0.000    0.000 
#    0.000    0.000    0.000    0.000    0.000    0.000 
#
# Total GULP energy -89365.220440 kJ/mol
# GULP energy per Si atom -5585.326278 kJ/mol
# Density = 1.994807 g / cm^3
# Si number density = 19.993579 Si / 1000 Ang^3
#
#
#
# Elastic Constant Matrix: (Units=GPa)
#
#
# Indices 1 2 3 4 5 6 
#
# 1 69.1822 3.1630 1.2817 -0.0010 3.9744 -0.0007
# 2 3.1630 61.4395 39.8580 0.0110 11.0411 0.0000
# 3 1.2817 39.8580 61.2531 0.0142 1.3727 0.0010
# 4 -0.0010 0.0110 0.0142 43.9098 0.0030 -7.7166
# 5 3.9744 11.0411 1.3727 0.0030 29.5621 0.0000
# 6 -0.0007 0.0000 0.0010 -7.7166 0.0000 22.9624
#
#
#
# Elastic Compliance Matrix: (Units=1/GPa)
#
#
# Indices 1 2 3 4 5 6 
#
# 1 0.014578 -0.000443 0.000024 0.000001 -0.001795 0.000001
# 2 -0.000443 0.031248 -0.020085 -0.000001 -0.010678 0.000001
# 3 0.000024 -0.020085 0.029257 -0.000005 0.006140 -0.000003
# 4 0.000001 -0.000001 -0.000005 0.024203 -0.000002 0.008134
# 5 -0.001795 -0.010678 0.006140 -0.000002 0.037772 -0.000001
# 6 0.000001 0.000001 -0.000003 0.008134 -0.000001 0.046283
#
#
# Mechanical properties :
#
#
# Convention : Reuss Voigt Hill
#
# Bulk Modulus (GPa) = 29.34808 31.16447 30.25627
# Shear Modulus (GPa) = 21.21288 29.12500 25.16894
#
# Velocity S-wave (km/s) = 3.26081 3.82084 3.55188
# Velocity P-wave (km/s) = 5.37474 5.92336 5.65570
#
# Compressibility (1/GPa) = 0.03407378
#
# Stress axis : x y z
#
# Youngs Moduli (GPa) = 68.59861 32.00249 34.18004
#
# Poissons Ratio (x) = 0.01418 -0.00080
# Poissons Ratio (y) = 0.03040 0.68649
# Poissons Ratio (z) = -0.00161 0.64276
#
# Static dielectric constant tensor:
#      x y z
#    x 1.693110 0.000000 0.018040 
#    y 0.000000 1.736880 -0.000010 
#    z 0.018040 -0.000010 1.704910 
# 
# From -- ./inp_files/7396.got.cif
#   From: 2010.05.17/outbox.cif.g08.bks.cpg/sg9_4_cif.got.tgz:7396.got - 2010.06.03 20:04:27.
