data_PCOD9138986
_publ_section_title
;
Structure prediction by ZEFSAII (Michael W. Deem and Ramdas Pophale) SiO2 
 PCOD9138986
Probable space group: C C
;
_chemical_formula_sum "Si O2"
_cell_formula_units_Z 28
_cell_length_a 9.393179
_cell_length_b 19.892511
_cell_length_c 8.705070
_cell_angle_alpha 90.000000
_cell_angle_beta 48.949295
_cell_angle_gamma 90.000000
_cell_volume 1226.647952
_symmetry_space_group_name_H-M "C C"
_symmetry_group_IT_number 9
_symmetry_cell_setting 'monoclinic'
loop_
_space_group_symop_operation_xyz
x,y,z
x,-y,1/2+z
1/2+x,1/2+y,z
1/2+x,1/2-y,1/2+z
loop_
_atom_site_type_symbol
_atom_site_label
_atom_site_fract_x
_atom_site_fract_y
_atom_site_fract_z
Si Si1 0.605990 0.115153 0.042670
Si Si2 0.925477 0.793406 0.836570
Si Si3 0.167434 0.965545 0.173583
Si Si4 0.391855 0.617127 0.090157
Si Si5 0.581710 0.039679 0.505969
Si Si6 0.662154 0.398403 0.850535
Si Si7 0.568598 0.846658 0.238575
O O1 0.737189 0.145554 0.079813
O O2 0.380551 0.123403 0.212334
O O3 0.632233 0.034807 0.023232
O O4 0.661917 0.141528 0.836246
O O5 0.047695 0.833243 0.877422
O O6 0.924230 0.713750 0.857431
O O7 0.977055 0.824259 0.634965
O O8 0.714052 0.816646 0.015158
O O9 0.393886 0.957808 0.034849
O O10 0.049875 0.922940 0.382563
O O11 0.136013 0.044301 0.236809
O O12 0.112935 0.936462 0.045064
O O13 0.263477 0.568536 0.288746
O O14 0.519113 0.082244 0.700267
#
# Coordination Sequence:
#
# PCOD9138986 Si02
#       7
#     4   4   4   4   4   4   4
#     4  11  23  43  72 101 140 178 237 299 349 416
#     4  11  26  46  68 101 139 195 232 288 353 431
#     4  11  24  40  70 103 142 178 233 298 345 415
#     4  11  24  42  68 103 139 181 235 288 352 418
#     4  10  24  43  68 105 134 183 228 301 349 416
#     4  11  24  43  67 104 141 184 237 286 360 412
#     4  11  25  45  71  97 145 185 238 282 360 418
#
# _framework density 22.826436000000001
#
# number of rings (size 3 to 8) (size 9 to 14) (size 15 to 20)
#    0.000    1.143    1.429    3.429   18.000    0.000 
#    2.571    1.429    0.000    0.000    0.000    0.000 
#    0.000    0.000    0.000    0.000    0.000    0.000 
#
# Total GULP energy -78266.931368 kJ/mol
# GULP energy per Si atom -5590.495098 kJ/mol
# Density = 2.277448 g / cm^3
# Si number density = 22.826436 Si / 1000 Ang^3
#
#
#
# Elastic Constant Matrix: (Units=GPa)
#
#
# Indices 1 2 3 4 5 6 
#
# 1 96.9386 28.0140 22.7957 0.0000 16.6258 0.0000
# 2 28.0140 66.5939 22.7357 0.0000 4.4104 0.0000
# 3 22.7957 22.7357 84.7789 0.0000 5.8262 0.0000
# 4 0.0000 0.0000 0.0000 15.0223 0.0000 -4.1075
# 5 16.6258 4.4104 5.8262 0.0000 32.8241 0.0000
# 6 0.0000 0.0000 0.0000 -4.1075 0.0000 24.1157
#
#
#
# Elastic Compliance Matrix: (Units=1/GPa)
#
#
# Indices 1 2 3 4 5 6 
#
# 1 0.013023 -0.004448 -0.001920 0.000000 -0.005658 0.000000
# 2 -0.004448 0.018118 -0.003695 0.000000 0.000475 0.000000
# 3 -0.001920 -0.003695 0.013365 0.000000 -0.000903 0.000000
# 4 0.000000 0.000000 0.000000 0.069819 0.000000 0.011892
# 5 -0.005658 0.000475 -0.000903 0.000000 0.033428 0.000000
# 6 0.000000 0.000000 0.000000 0.011892 0.000000 0.043492
#
#
# Mechanical properties :
#
#
# Convention : Reuss Voigt Hill
#
# Bulk Modulus (GPa) = 41.01961 43.93358 42.47659
# Shear Modulus (GPa) = 22.77923 26.04347 24.41135
#
# Velocity S-wave (km/s) = 3.16243 3.38144 3.27377
# Velocity P-wave (km/s) = 5.59856 5.87657 5.73925
#
# Compressibility (1/GPa) = 0.02437859
#
# Stress axis : x y z
#
# Youngs Moduli (GPa) = 76.78619 55.19426 74.82387
#
# Poissons Ratio (x) = 0.24552 0.14366
# Poissons Ratio (y) = 0.34156 0.27650
# Poissons Ratio (z) = 0.14743 0.20396
#
# Static dielectric constant tensor:
#      x y z
#    x 1.855340 0.000000 -0.001820 
#    y 0.000000 1.924090 0.000000 
#    z -0.001820 0.000000 1.907180 
# 
# From -- ./inp_files/5572.got.cif
#   From: 2010.05.17/outbox.cif.g08.bks.cpg/sg9_3_cif.got.tgz:5572.got - 2010.06.03 20:04:27.
