data_PCOD9138077
_publ_section_title
;
Structure prediction by ZEFSAII (Michael W. Deem and Ramdas Pophale) SiO2 
 PCOD9138077
Probable space group: C C
;
_chemical_formula_sum "Si O2"
_cell_formula_units_Z 28
_cell_length_a 6.841560
_cell_length_b 12.559036
_cell_length_c 19.304920
_cell_angle_alpha 90.000000
_cell_angle_beta 135.762867
_cell_angle_gamma 90.000000
_cell_volume 1157.189113
_symmetry_space_group_name_H-M "C C"
_symmetry_group_IT_number 9
_symmetry_cell_setting 'monoclinic'
loop_
_space_group_symop_operation_xyz
x,y,z
x,-y,1/2+z
1/2+x,1/2+y,z
1/2+x,1/2-y,1/2+z
loop_
_atom_site_type_symbol
_atom_site_label
_atom_site_fract_x
_atom_site_fract_y
_atom_site_fract_z
Si Si1 0.468850 0.251720 0.515010
Si Si2 0.620859 0.614662 0.510573
Si Si3 0.998775 0.310847 0.568115
Si Si4 0.462503 0.902902 0.825635
Si Si5 0.531079 0.972803 0.687359
Si Si6 0.937992 0.606507 0.904598
Si Si7 0.840602 0.193638 0.743305
O O1 0.271423 0.149100 0.477659
O O2 0.692841 0.267204 0.511913
O O3 0.133623 0.373296 0.667022
O O4 0.237373 0.345509 0.456389
O O5 0.664468 0.710377 0.578033
O O6 0.755840 0.510254 0.575799
O O7 0.227738 0.577244 0.735802
O O8 0.794119 0.108084 0.418796
O O9 0.961822 0.389421 0.493600
O O10 0.438262 0.944375 0.740687
O O11 0.312928 0.788975 0.791363
O O12 0.373840 0.992549 0.856412
O O13 0.178312 0.734670 0.634103
O O14 0.674224 0.679954 0.816169
#
# Coordination Sequence:
#
# PCOD9138077 Si02
#       7
#     4   4   4   4   4   4   4
#     4  10  22  47  78  98 154 191 248 315 369 445
#     4  10  25  47  73 115 146 199 251 317 378 443
#     4  11  23  48  74 108 148 200 248 312 384 441
#     4  12  25  47  76 108 156 194 254 313 378 457
#     4  11  27  45  78 107 148 199 255 302 382 451
#     4  11  27  45  75 115 152 199 257 306 385 455
#     4  11  25  49  70 115 142 200 259 303 384 446
#
# _framework density 24.196565
#
# number of rings (size 3 to 8) (size 9 to 14) (size 15 to 20)
#    0.000    1.143    4.286    0.857    6.000    5.714 
#    0.000    1.429    0.000    0.000    0.000    0.000 
#    0.000    0.000    0.000    0.000    0.000    0.000 
#
# Total GULP energy -78249.869975 kJ/mol
# GULP energy per Si atom -5589.276427 kJ/mol
# Density = 2.414149 g / cm^3
# Si number density = 24.196565 Si / 1000 Ang^3
#
#
#
# Elastic Constant Matrix: (Units=GPa)
#
#
# Indices 1 2 3 4 5 6 
#
# 1 114.5925 24.5006 11.4660 0.0001 -1.1214 0.0000
# 2 24.5006 80.4096 13.8733 0.0001 1.7659 0.0000
# 3 11.4660 13.8733 28.1125 0.0007 6.2511 0.0001
# 4 0.0001 0.0001 0.0007 52.9197 0.0001 -3.5534
# 5 -1.1214 1.7659 6.2511 0.0001 38.0318 0.0000
# 6 0.0000 0.0000 0.0001 -3.5534 0.0000 41.6141
#
#
#
# Elastic Compliance Matrix: (Units=1/GPa)
#
#
# Indices 1 2 3 4 5 6 
#
# 1 0.009543 -0.002429 -0.002887 0.000000 0.000869 0.000000
# 2 -0.002429 0.014221 -0.006087 0.000000 0.000269 0.000000
# 3 -0.002887 -0.006087 0.041215 -0.000001 -0.006577 0.000000
# 4 0.000000 0.000000 -0.000001 0.019006 0.000000 0.001623
# 5 0.000869 0.000269 -0.006577 0.000000 0.027388 0.000000
# 6 0.000000 0.000000 0.000000 0.001623 0.000000 0.024169
#
#
# Mechanical properties :
#
#
# Convention : Reuss Voigt Hill
#
# Bulk Modulus (GPa) = 23.71137 35.86604 29.78871
# Shear Modulus (GPa) = 29.00157 38.06477 33.53317
#
# Velocity S-wave (km/s) = 3.46581 3.97060 3.72676
# Velocity P-wave (km/s) = 5.08297 5.98964 5.55483
#
# Compressibility (1/GPa) = 0.04217386
#
# Stress axis : x y z
#
# Youngs Moduli (GPa) = 104.78646 70.32021 24.26294
#
# Poissons Ratio (x) = 0.17079 0.07004
# Poissons Ratio (y) = 0.25450 0.14769
# Poissons Ratio (z) = 0.30250 0.42803
#
# Static dielectric constant tensor:
#      x y z
#    x 1.909640 0.000000 -0.003740 
#    y 0.000000 1.970340 0.000000 
#    z -0.003740 0.000000 1.943500 
# 
# From -- ./inp_files/32167.got.cif
#   From: 2010.05.17/outbox.cif.g08.bks.cpg/sg9_17_cif.got.tgz:32167.got - 2010.06.03 20:04:27.
