data_PCOD9138295
_publ_section_title
;
Structure prediction by ZEFSAII (Michael W. Deem and Ramdas Pophale) SiO2 
 PCOD9138295
Probable space group: C C
;
_chemical_formula_sum "Si O2"
_cell_formula_units_Z 32
_cell_length_a 11.320949
_cell_length_b 8.561661
_cell_length_c 14.698607
_cell_angle_alpha 90.000000
_cell_angle_beta 84.824927
_cell_angle_gamma 90.000000
_cell_volume 1418.871687
_symmetry_space_group_name_H-M "C C"
_symmetry_group_IT_number 9
_symmetry_cell_setting 'monoclinic'
loop_
_space_group_symop_operation_xyz
x,y,z
x,-y,1/2+z
1/2+x,1/2+y,z
1/2+x,1/2-y,1/2+z
loop_
_atom_site_type_symbol
_atom_site_label
_atom_site_fract_x
_atom_site_fract_y
_atom_site_fract_z
Si Si1 0.555240 0.729905 0.957210
Si Si2 0.502850 0.620273 0.481699
Si Si3 0.327902 0.485261 0.224176
Si Si4 0.668757 0.832155 0.372671
Si Si5 0.460508 0.938109 0.822251
Si Si6 0.056389 0.808973 0.175203
Si Si7 0.243729 0.557202 0.524973
Si Si8 0.755502 0.676882 0.790322
O O1 0.512702 0.564866 0.996756
O O2 0.452449 0.822058 0.909799
O O3 0.653542 0.693455 0.873025
O O4 0.626290 0.836299 0.023706
O O5 0.596364 0.675226 0.399326
O O6 0.543042 0.710468 0.569219
O O7 0.362065 0.648023 0.480311
O O8 0.267061 0.347131 0.287578
O O9 0.465388 0.445523 0.207806
O O10 0.271311 0.485387 0.127311
O O11 0.310672 0.651029 0.273381
O O12 0.566115 0.948137 0.345237
O O13 0.723263 0.911702 0.459193
O O14 0.508844 0.841865 0.732649
O O15 0.347416 0.042586 0.808439
O O16 0.186030 0.852433 0.200837
#
# Coordination Sequence:
#
# PCOD9138295 Si02
#       8
#     4   4   4   4   4   4   4   4
#     4  10  23  43  64  97 133 174 230 276 335 411
#     4  11  25  43  67  99 133 182 226 282 340 408
#     4  11  23  44  69 101 135 181 223 283 344 407
#     4  11  23  42  73  97 133 183 218 279 348 398
#     4  10  23  42  67  96 133 178 217 284 337 404
#     4  10  24  44  65 100 139 171 230 277 338 418
#     4  10  23  46  65  95 145 167 227 286 333 408
#     4  11  22  44  68  97 137 174 227 281 331 412
#
# _framework density 22.553132000000002
#
# number of rings (size 3 to 8) (size 9 to 14) (size 15 to 20)
#    0.000    1.500    3.750    1.500    5.250    2.000 
#    6.750    0.000    0.000    0.000    0.000    0.000 
#    0.000    0.000    0.000    0.000    0.000    0.000 
#
# Total GULP energy -89466.188277 kJ/mol
# GULP energy per Si atom -5591.636767 kJ/mol
# Density = 2.250180 g / cm^3
# Si number density = 22.553132 Si / 1000 Ang^3
#
#
#
# Elastic Constant Matrix: (Units=GPa)
#
#
# Indices 1 2 3 4 5 6 
#
# 1 99.3601 40.5046 35.0216 0.0000 18.2540 0.0000
# 2 40.5046 90.1765 34.6998 0.0000 10.7542 0.0000
# 3 35.0216 34.6998 86.2669 0.0000 12.5730 0.0000
# 4 0.0000 0.0000 0.0000 22.3070 0.0000 -3.3556
# 5 18.2540 10.7542 12.5730 0.0000 35.7687 0.0000
# 6 0.0000 0.0000 0.0000 -3.3556 0.0000 46.6178
#
#
#
# Elastic Compliance Matrix: (Units=1/GPa)
#
#
# Indices 1 2 3 4 5 6 
#
# 1 0.013839 -0.004452 -0.003155 0.000000 -0.004615 0.000000
# 2 -0.004452 0.014719 -0.004005 0.000000 -0.000746 0.000000
# 3 -0.003155 -0.004005 0.014833 0.000000 -0.002400 0.000000
# 4 0.000000 0.000000 0.000000 0.045320 0.000000 0.003262
# 5 -0.004615 -0.000746 -0.002400 0.000000 0.031380 0.000000
# 6 0.000000 0.000000 0.000000 0.003262 0.000000 0.021686
#
#
# Mechanical properties :
#
#
# Convention : Reuss Voigt Hill
#
# Bulk Modulus (GPa) = 49.58139 55.13949 52.36044
# Shear Modulus (GPa) = 29.11678 31.97722 30.54700
#
# Velocity S-wave (km/s) = 3.59699 3.76954 3.68427
# Velocity P-wave (km/s) = 6.26762 6.59148 6.43159
#
# Compressibility (1/GPa) = 0.02016886
#
# Stress axis : x y z
#
# Youngs Moduli (GPa) = 72.25938 67.94029 67.41595
#
# Poissons Ratio (x) = 0.30245 0.21269
# Poissons Ratio (y) = 0.32168 0.26997
# Poissons Ratio (z) = 0.22797 0.27207
#
# Static dielectric constant tensor:
#      x y z
#    x 1.840020 0.000000 0.004030 
#    y 0.000000 1.849850 0.000000 
#    z 0.004030 0.000000 1.847820 
# 
# From -- ./inp_files/24378.got.cif
#   From: 2010.05.17/outbox.cif.g08.bks.cpg/sg9_13_cif.got.tgz:24378.got - 2010.06.03 20:04:27.
