data_PCOD9138166
_publ_section_title
;
Structure prediction by ZEFSAII (Michael W. Deem and Ramdas Pophale) SiO2 
 PCOD9138166
Probable space group: C C
;
_chemical_formula_sum "Si O2"
_cell_formula_units_Z 28
_cell_length_a 12.791658
_cell_length_b 19.358711
_cell_length_c 9.215393
_cell_angle_alpha 90.000000
_cell_angle_beta 32.269037
_cell_angle_gamma 90.000000
_cell_volume 1218.353699
_symmetry_space_group_name_H-M "C C"
_symmetry_group_IT_number 9
_symmetry_cell_setting 'monoclinic'
loop_
_space_group_symop_operation_xyz
x,y,z
x,-y,1/2+z
1/2+x,1/2+y,z
1/2+x,1/2-y,1/2+z
loop_
_atom_site_type_symbol
_atom_site_label
_atom_site_fract_x
_atom_site_fract_y
_atom_site_fract_z
Si Si1 0.458450 0.313212 0.299750
Si Si2 0.998117 0.293720 0.503542
Si Si3 0.722081 0.561795 0.486354
Si Si4 0.671685 0.905366 0.481246
Si Si5 0.485610 0.328060 0.603932
Si Si6 0.488126 0.478351 0.545933
Si Si7 0.765093 0.298642 0.510760
O O1 0.428460 0.245389 0.235035
O O2 0.639892 0.362365 0.037057
O O3 0.269098 0.362841 0.499416
O O4 0.500736 0.301756 0.420107
O O5 0.895105 0.331088 0.485851
O O6 0.155231 0.348069 0.375173
O O7 0.087111 0.228155 0.317152
O O8 0.672128 0.508162 0.419601
O O9 0.948829 0.568867 0.262760
O O10 0.579750 0.537711 0.782463
O O11 0.818753 0.965099 0.259537
O O12 0.402865 0.405214 0.699384
O O13 0.685235 0.337103 0.463056
O O14 0.363001 0.269841 0.828569
#
# Coordination Sequence:
#
# PCOD9138166 Si02
#       7
#     4   4   4   4   4   4   4
#     4  10  23  43  69 103 143 180 242 304 342 439
#     4  11  21  41  69 104 135 182 242 291 354 438
#     4  10  24  44  67 105 137 192 242 286 362 425
#     4  11  24  43  75 103 138 197 244 285 374 415
#     4  10  24  45  63 100 143 181 230 303 364 410
#     4  10  25  46  67 100 150 184 244 301 340 445
#     4  10  23  40  66 103 134 182 230 294 374 406
#
# _framework density 22.981832000000001
#
# number of rings (size 3 to 8) (size 9 to 14) (size 15 to 20)
#    0.000    1.714    1.429    0.857    4.000    6.857 
#   10.286    0.000    0.000    0.000    0.000    0.000 
#    0.000    0.000    0.000    0.000    0.000    0.000 
#
# Total GULP energy -78016.450611 kJ/mol
# GULP energy per Si atom -5572.603615 kJ/mol
# Density = 2.292952 g / cm^3
# Si number density = 22.981832 Si / 1000 Ang^3
#
#
#
# Elastic Constant Matrix: (Units=GPa)
#
#
# Indices 1 2 3 4 5 6 
#
# 1 171.2223 42.2840 28.7129 -0.0004 13.8571 0.0000
# 2 42.2840 108.5618 22.3398 0.0001 7.1072 0.0001
# 3 28.7129 22.3398 50.6046 -0.0002 -0.2844 0.0007
# 4 -0.0004 0.0001 -0.0002 27.2402 -0.0001 -5.4964
# 5 13.8571 7.1072 -0.2844 -0.0001 41.1441 -0.0002
# 6 0.0000 0.0001 0.0007 -5.4964 -0.0002 42.0746
#
#
#
# Elastic Compliance Matrix: (Units=1/GPa)
#
#
# Indices 1 2 3 4 5 6 
#
# 1 0.007013 -0.001954 -0.003128 0.000000 -0.002046 0.000000
# 2 -0.001954 0.010808 -0.003670 0.000000 -0.001234 0.000000
# 3 -0.003128 -0.003670 0.023166 0.000000 0.001848 0.000000
# 4 0.000000 0.000000 0.000000 0.037704 0.000000 0.004926
# 5 -0.002046 -0.001234 0.001848 0.000000 0.025220 0.000000
# 6 0.000000 0.000000 0.000000 0.004926 0.000000 0.024411
#
#
# Mechanical properties :
#
#
# Convention : Reuss Voigt Hill
#
# Bulk Modulus (GPa) = 42.58170 57.45133 50.01652
# Shear Modulus (GPa) = 32.54061 37.89526 35.21793
#
# Velocity S-wave (km/s) = 3.76696 4.06510 3.91887
# Velocity P-wave (km/s) = 6.12280 6.86194 6.50288
#
# Compressibility (1/GPa) = 0.02348427
#
# Stress axis : x y z
#
# Youngs Moduli (GPa) = 142.59167 92.52135 43.16603
#
# Poissons Ratio (x) = 0.18077 0.13503
# Poissons Ratio (y) = 0.27861 0.15841
# Poissons Ratio (z) = 0.44605 0.33953
#
# Static dielectric constant tensor:
#      x y z
#    x 1.945110 0.000000 -0.042890 
#    y 0.000000 1.866680 0.000000 
#    z -0.042890 0.000000 1.940020 
# 
# From -- ./inp_files/8352.got.cif
#   From: 2010.05.17/outbox.cif.g08.bks.cpg/sg9_5_cif.got.tgz:8352.got - 2010.06.03 20:04:27.
