data_PCOD9138231
_publ_section_title
;
Structure prediction by ZEFSAII (Michael W. Deem and Ramdas Pophale) SiO2 
 PCOD9138231
Probable space group: C C
;
_chemical_formula_sum "Si O2"
_cell_formula_units_Z 28
_cell_length_a 8.825269
_cell_length_b 17.736279
_cell_length_c 10.081521
_cell_angle_alpha 90.000000
_cell_angle_beta 129.348646
_cell_angle_gamma 90.000000
_cell_volume 1220.297584
_symmetry_space_group_name_H-M "C C"
_symmetry_group_IT_number 9
_symmetry_cell_setting 'monoclinic'
loop_
_space_group_symop_operation_xyz
x,y,z
x,-y,1/2+z
1/2+x,1/2+y,z
1/2+x,1/2-y,1/2+z
loop_
_atom_site_type_symbol
_atom_site_label
_atom_site_fract_x
_atom_site_fract_y
_atom_site_fract_z
Si Si1 0.907380 0.419575 0.496040
Si Si2 0.021176 0.130236 0.150505
Si Si3 0.900095 0.687275 0.243181
Si Si4 0.952077 0.787619 0.868745
Si Si5 0.914338 0.590252 0.492239
Si Si6 0.618114 0.144600 0.858606
Si Si7 0.090544 0.824216 0.226195
O O1 0.966484 0.504865 0.558335
O O2 0.679504 0.400025 0.336047
O O3 0.947822 0.361799 0.638546
O O4 0.021634 0.400053 0.425886
O O5 0.168608 0.183778 0.149649
O O6 0.913657 0.160451 0.222601
O O7 0.190811 0.079893 0.313310
O O8 0.835801 0.112007 0.955639
O O9 0.957849 0.772938 0.247342
O O10 0.000336 0.640334 0.418820
O O11 0.121906 0.732315 0.905894
O O12 0.776407 0.731697 0.806595
O O13 0.002237 0.831706 0.030437
O O14 0.969575 0.636804 0.653329
#
# Coordination Sequence:
#
# PCOD9138231 Si02
#       7
#     4   4   4   4   4   4   4
#     4  11  22  45  72  93 147 186 240 282 365 427
#     4  10  23  41  68 101 139 173 236 290 354 423
#     4  10  23  42  63 103 140 172 236 295 348 413
#     4  11  20  40  68  99 131 183 237 282 355 433
#     4  10  25  44  67 103 140 191 221 303 355 430
#     4  11  22  43  72  94 134 192 233 282 356 432
#     4  11  21  41  68  99 135 189 229 300 345 426
#
# _framework density 22.945222999999999
#
# number of rings (size 3 to 8) (size 9 to 14) (size 15 to 20)
#    0.857    0.571    4.286    2.571    0.000    2.286 
#    5.143    1.429    0.000    0.000    0.000    0.000 
#    0.000    0.000    0.000    0.000    0.000    0.000 
#
# Total GULP energy -77958.682716 kJ/mol
# GULP energy per Si atom -5568.477337 kJ/mol
# Density = 2.289300 g / cm^3
# Si number density = 22.945223 Si / 1000 Ang^3
#
#
#
# Elastic Constant Matrix: (Units=GPa)
#
#
# Indices 1 2 3 4 5 6 
#
# 1 78.9375 8.6123 20.8591 0.0000 -6.1031 0.0000
# 2 8.6123 63.3101 29.2342 0.0000 -8.2716 0.0000
# 3 20.8591 29.2342 80.1072 0.0000 -21.6286 0.0000
# 4 0.0000 0.0000 0.0000 18.8423 0.0000 -0.8530
# 5 -6.1031 -8.2716 -21.6286 0.0000 35.7956 0.0000
# 6 0.0000 0.0000 0.0000 -0.8530 0.0000 4.9080
#
#
#
# Elastic Compliance Matrix: (Units=1/GPa)
#
#
# Indices 1 2 3 4 5 6 
#
# 1 0.013609 -0.000257 -0.003393 0.000000 0.000211 0.000000
# 2 -0.000257 0.019003 -0.006804 0.000000 0.000236 0.000000
# 3 -0.003393 -0.006804 0.018246 0.000000 0.008874 0.000000
# 4 0.000000 0.000000 0.000000 0.053493 0.000000 0.009297
# 5 0.000211 0.000236 0.008874 0.000000 0.033389 0.000000
# 6 0.000000 0.000000 0.000000 0.009297 0.000000 0.205363
#
#
# Mechanical properties :
#
#
# Convention : Reuss Voigt Hill
#
# Bulk Modulus (GPa) = 33.38957 37.75178 35.57067
# Shear Modulus (GPa) = 13.36918 22.81915 18.09416
#
# Velocity S-wave (km/s) = 2.41645 3.15700 2.81121
# Velocity P-wave (km/s) = 4.72959 5.45688 5.10620
#
# Compressibility (1/GPa) = 0.02994947
#
# Stress axis : x y z
#
# Youngs Moduli (GPa) = 73.47981 52.62323 54.80724
#
# Poissons Ratio (x) = 0.01352 0.18596
# Poissons Ratio (y) = 0.01889 0.37292
# Poissons Ratio (z) = 0.24931 0.35806
#
# Static dielectric constant tensor:
#      x y z
#    x 1.918680 0.000000 0.076020 
#    y 0.000000 1.968260 0.000000 
#    z 0.076020 0.000000 1.991640 
# 
# From -- ./inp_files/5680.got.cif
#   From: 2010.05.17/outbox.cif.g08.bks.cpg/sg9_3_cif.got.tgz:5680.got - 2010.06.03 20:04:27.
