data_PCOD9138164
_publ_section_title
;
Structure prediction by ZEFSAII (Michael W. Deem and Ramdas Pophale) SiO2 
 PCOD9138164
Probable space group: C C
;
_chemical_formula_sum "Si O2"
_cell_formula_units_Z 24
_cell_length_a 9.689324
_cell_length_b 19.646346
_cell_length_c 9.584281
_cell_angle_alpha 90.000000
_cell_angle_beta 32.509467
_cell_angle_gamma 90.000000
_cell_volume 980.536911
_symmetry_space_group_name_H-M "C C"
_symmetry_group_IT_number 9
_symmetry_cell_setting 'monoclinic'
loop_
_space_group_symop_operation_xyz
x,y,z
x,-y,1/2+z
1/2+x,1/2+y,z
1/2+x,1/2-y,1/2+z
loop_
_atom_site_type_symbol
_atom_site_label
_atom_site_fract_x
_atom_site_fract_y
_atom_site_fract_z
Si Si1 0.469590 0.230670 0.680290
Si Si2 0.731061 0.089766 0.444256
Si Si3 0.000044 0.107228 0.497983
Si Si4 0.643912 0.291026 0.088596
Si Si5 0.068434 0.438670 0.582140
Si Si6 0.382150 0.643230 0.041945
O O1 0.744764 0.261343 0.482189
O O2 0.523312 0.151122 0.609367
O O3 0.374973 0.283558 0.635590
O O4 0.924430 0.107352 0.402873
O O5 0.611731 0.017305 0.580565
O O6 0.883755 0.090823 0.167868
O O7 0.046083 0.180591 0.526079
O O8 0.272735 0.071748 0.294964
O O9 0.760951 0.077324 0.789890
O O10 0.616936 0.348062 0.233131
O O11 0.420561 0.240119 0.329017
O O12 0.162760 0.388121 0.626371
#
# Coordination Sequence:
#
# PCOD9138164 Si02
#       6
#     4   4   4   4   4   4
#     4  10  23  40  66 101 138 181 242 309 367 431
#     4  11  25  46  76 110 148 199 263 325 384 460
#     4  11  27  47  71 108 151 197 253 321 394 461
#     4  11  22  42  71 103 143 194 246 307 384 463
#     4  11  26  48  73 107 153 206 254 315 394 473
#     4  10  23  45  73 105 147 197 254 309 377 462
#
# _framework density 24.476386999999999
#
# number of rings (size 3 to 8) (size 9 to 14) (size 15 to 20)
#    0.000    1.333    0.000    5.000    0.000   17.333 
#    0.000    0.000    0.000    0.000    0.000    0.000 
#    0.000    0.000    0.000    0.000    0.000    0.000 
#
# Total GULP energy -66985.823983 kJ/mol
# GULP energy per Si atom -5582.151999 kJ/mol
# Density = 2.442068 g / cm^3
# Si number density = 24.476387 Si / 1000 Ang^3
#
#
#
# Elastic Constant Matrix: (Units=GPa)
#
#
# Indices 1 2 3 4 5 6 
#
# 1 171.3986 32.3145 66.6473 0.0000 13.7992 0.0000
# 2 32.3145 111.2783 45.5884 0.0000 -21.5431 0.0000
# 3 66.6473 45.5884 147.7269 0.0000 -17.1806 0.0000
# 4 0.0000 0.0000 0.0000 32.4504 0.0000 -4.6630
# 5 13.7992 -21.5431 -17.1806 0.0000 28.5703 0.0000
# 6 0.0000 0.0000 0.0000 -4.6630 0.0000 25.1220
#
#
#
# Elastic Compliance Matrix: (Units=1/GPa)
#
#
# Indices 1 2 3 4 5 6 
#
# 1 0.008566 -0.002446 -0.004092 0.000000 -0.008442 0.000000
# 2 -0.002446 0.012155 -0.001553 0.000000 0.009413 0.000000
# 3 -0.004092 -0.001553 0.009879 0.000000 0.006746 0.000000
# 4 0.000000 0.000000 0.000000 0.031661 0.000000 0.005877
# 5 -0.008442 0.009413 0.006746 0.000000 0.050233 0.000000
# 6 0.000000 0.000000 0.000000 0.005877 0.000000 0.040897
#
#
# Mechanical properties :
#
#
# Convention : Reuss Voigt Hill
#
# Bulk Modulus (GPa) = 69.34975 79.94489 74.64732
# Shear Modulus (GPa) = 28.67337 36.28545 32.47941
#
# Velocity S-wave (km/s) = 3.42639 3.85446 3.64671
# Velocity P-wave (km/s) = 6.63689 7.24859 6.94948
#
# Compressibility (1/GPa) = 0.01441966
#
# Stress axis : x y z
#
# Youngs Moduli (GPa) = 116.73897 82.26943 101.22432
#
# Poissons Ratio (x) = 0.20120 0.41418
# Poissons Ratio (y) = 0.28550 0.15721
# Poissons Ratio (z) = 0.47766 0.12777
#
# Static dielectric constant tensor:
#      x y z
#    x 1.941110 0.000000 0.014710 
#    y 0.000000 2.008720 0.000000 
#    z 0.014710 0.000000 1.977050 
# 
# From -- ./inp_files/5693.got.cif
#   From: 2010.05.17/outbox.cif.g08.bks.cpg/sg9_3_cif.got.tgz:5693.got - 2010.06.03 20:04:27.
