data_PCOD9138737
_publ_section_title
;
Structure prediction by ZEFSAII (Michael W. Deem and Ramdas Pophale) SiO2 
 PCOD9138737
Probable space group: C C
;
_chemical_formula_sum "Si O2"
_cell_formula_units_Z 28
_cell_length_a 23.836794
_cell_length_b 10.854670
_cell_length_c 14.187113
_cell_angle_alpha 90.000000
_cell_angle_beta 18.137575
_cell_angle_gamma 90.000000
_cell_volume 1142.713145
_symmetry_space_group_name_H-M "C C"
_symmetry_group_IT_number 9
_symmetry_cell_setting 'monoclinic'
loop_
_space_group_symop_operation_xyz
x,y,z
x,-y,1/2+z
1/2+x,1/2+y,z
1/2+x,1/2-y,1/2+z
loop_
_atom_site_type_symbol
_atom_site_label
_atom_site_fract_x
_atom_site_fract_y
_atom_site_fract_z
Si Si1 0.238350 0.172275 0.407350
Si Si2 0.853643 0.441307 0.309117
Si Si3 0.710274 0.843898 0.787684
Si Si4 0.508975 0.316490 0.849265
Si Si5 0.723861 0.067667 0.461504
Si Si6 0.445205 0.501291 0.284270
Si Si7 0.454547 0.853197 0.940197
O O1 0.096511 0.243102 0.698526
O O2 0.366391 0.086583 0.267244
O O3 0.347334 0.272028 0.173028
O O4 0.124981 0.079340 0.519495
O O5 0.652993 0.411752 0.662795
O O6 0.893863 0.381195 0.142617
O O7 0.002196 0.375327 0.134097
O O8 0.774010 0.703077 0.681016
O O9 0.783386 0.914352 0.580262
O O10 0.796046 0.911327 0.741419
O O11 0.629636 0.195476 0.640342
O O12 0.449665 0.380612 0.846406
O O13 0.883789 0.034965 0.277972
O O14 0.561493 0.968662 0.727631
#
# Coordination Sequence:
#
# PCOD9138737 Si02
#       7
#     4   4   4   4   4   4   4
#     4  10  23  46  71 104 141 183 230 288 352 413
#     4  11  23  45  72 101 143 178 235 293 341 421
#     4  11  24  45  72 100 138 188 231 290 350 414
#     4  11  23  43  71 103 141 184 229 291 350 413
#     4  12  24  43  71 104 139 185 234 287 355 415
#     4  10  24  46  68 102 144 179 237 295 337 423
#     4  11  23  44  71 100 140 183 234 282 347 415
#
# _framework density 24.503088000000002
#
# number of rings (size 3 to 8) (size 9 to 14) (size 15 to 20)
#    0.000    1.143    4.286    0.857    2.000    1.143 
#    7.714    1.429    0.000    0.000    0.000    0.000 
#    0.000    0.000    0.000    0.000    0.000    0.000 
#
# Total GULP energy -78311.084802 kJ/mol
# GULP energy per Si atom -5593.648914 kJ/mol
# Density = 2.444732 g / cm^3
# Si number density = 24.503088 Si / 1000 Ang^3
#
#
#
# Elastic Constant Matrix: (Units=GPa)
#
#
# Indices 1 2 3 4 5 6 
#
# 1 41.6089 18.9986 24.0708 0.0000 3.0927 0.0000
# 2 18.9986 93.3477 31.5183 -0.0001 2.9046 0.0001
# 3 24.0708 31.5183 121.4266 -0.0008 3.1176 0.0001
# 4 0.0000 -0.0001 -0.0008 52.1702 0.0003 5.3939
# 5 3.0927 2.9046 3.1176 0.0003 32.2173 0.0000
# 6 0.0000 0.0001 0.0001 5.3939 0.0000 24.7372
#
#
#
# Elastic Compliance Matrix: (Units=1/GPa)
#
#
# Indices 1 2 3 4 5 6 
#
# 1 0.028750 -0.004257 -0.004545 0.000000 -0.001936 0.000000
# 2 -0.004257 0.012391 -0.002360 0.000000 -0.000480 0.000000
# 3 -0.004545 -0.002360 0.009756 0.000000 -0.000295 0.000000
# 4 0.000000 0.000000 0.000000 0.019610 0.000000 -0.004276
# 5 -0.001936 -0.000480 -0.000295 0.000000 0.031297 0.000000
# 6 0.000000 0.000000 0.000000 -0.004276 0.000000 0.041357
#
#
# Mechanical properties :
#
#
# Convention : Reuss Voigt Hill
#
# Bulk Modulus (GPa) = 34.99619 45.06203 40.02911
# Shear Modulus (GPa) = 28.56997 33.94464 31.25731
#
# Velocity S-wave (km/s) = 3.41834 3.72603 3.57550
# Velocity P-wave (km/s) = 5.46749 6.07794 5.78078
#
# Compressibility (1/GPa) = 0.02857454
#
# Stress axis : x y z
#
# Youngs Moduli (GPa) = 34.78281 80.70517 102.49579
#
# Poissons Ratio (x) = 0.34353 0.46580
# Poissons Ratio (y) = 0.14806 0.24190
# Poissons Ratio (z) = 0.15807 0.19047
#
# Static dielectric constant tensor:
#      x y z
#    x 1.966240 0.000000 -0.073560 
#    y 0.000000 1.964410 0.000000 
#    z -0.073560 0.000000 1.973060 
# 
# From -- ./inp_files/27780.got.cif
#   From: 2010.05.17/outbox.cif.g08.bks.cpg/sg9_14_cif.got.tgz:27780.got - 2010.06.03 20:04:27.
