data_PCOD9138581
_publ_section_title
;
Structure prediction by ZEFSAII (Michael W. Deem and Ramdas Pophale) SiO2 
 PCOD9138581
Probable space group: C C
;
_chemical_formula_sum "Si O2"
_cell_formula_units_Z 32
_cell_length_a 9.833780
_cell_length_b 11.826573
_cell_length_c 11.678512
_cell_angle_alpha 90.000000
_cell_angle_beta 59.226266
_cell_angle_gamma 90.000000
_cell_volume 1166.966598
_symmetry_space_group_name_H-M "C C"
_symmetry_group_IT_number 9
_symmetry_cell_setting 'monoclinic'
loop_
_space_group_symop_operation_xyz
x,y,z
x,-y,1/2+z
1/2+x,1/2+y,z
1/2+x,1/2-y,1/2+z
loop_
_atom_site_type_symbol
_atom_site_label
_atom_site_fract_x
_atom_site_fract_y
_atom_site_fract_z
Si Si1 0.090840 0.544574 0.820500
Si Si2 0.251278 0.555737 0.051568
Si Si3 0.509741 0.599856 0.319720
Si Si4 0.777126 0.650477 0.051958
Si Si5 0.165547 0.789489 0.978489
Si Si6 0.826240 0.228208 0.206620
Si Si7 0.086503 0.684857 0.463267
Si Si8 0.886322 0.215204 0.724280
O O1 0.116178 0.515093 0.675150
O O2 0.240258 0.627592 0.776804
O O3 0.113129 0.440394 0.900286
O O4 0.384845 0.490635 0.922420
O O5 0.334317 0.616470 0.124067
O O6 0.172191 0.659809 0.020963
O O7 0.651653 0.570091 0.171549
O O8 0.414661 0.908601 0.419227
O O9 0.582344 0.660417 0.400291
O O10 0.415319 0.691328 0.283812
O O11 0.863110 0.711237 0.120149
O O12 0.678244 0.747109 0.025975
O O13 0.347831 0.792349 0.852323
O O14 0.057143 0.839545 0.127335
O O15 0.651969 0.257027 0.326720
O O16 0.910665 0.316314 0.088780
#
# Coordination Sequence:
#
# PCOD9138581 Si02
#       8
#     4   4   4   4   4   4   4   4
#     4  11  24  44  76 109 148 205 257 312 400 465
#     4  11  26  44  75 113 156 203 265 320 397 473
#     4  10  23  46  75 111 153 205 262 316 397 472
#     4  10  23  44  75 109 150 200 257 322 381 468
#     4  11  24  42  72 112 155 203 255 335 384 462
#     4  10  24  45  70 106 152 208 247 330 388 457
#     4  10  24  43  70 104 146 192 258 313 379 460
#     4  11  22  42  69 108 148 194 255 316 386 457
#
# _framework density 27.421523000000001
#
# number of rings (size 3 to 8) (size 9 to 14) (size 15 to 20)
#    0.000    1.500    2.500    0.750    7.000    3.000 
#    0.000    8.750    0.000    0.000    0.000    0.000 
#    0.000    0.000    0.000    0.000    0.000    0.000 
#
# Total GULP energy -89222.382014 kJ/mol
# GULP energy per Si atom -5576.398876 kJ/mol
# Density = 2.735911 g / cm^3
# Si number density = 27.421523 Si / 1000 Ang^3
#
#
#
# Elastic Constant Matrix: (Units=GPa)
#
#
# Indices 1 2 3 4 5 6 
#
# 1 114.4125 34.3748 59.6120 0.0000 -20.5159 0.0000
# 2 34.3748 100.3650 36.6910 0.0000 -17.1897 0.0000
# 3 59.6120 36.6910 147.7779 0.0000 -54.5400 0.0000
# 4 0.0000 0.0000 0.0000 55.6866 0.0000 -6.1447
# 5 -20.5159 -17.1897 -54.5400 0.0000 53.3977 0.0000
# 6 0.0000 0.0000 0.0000 -6.1447 0.0000 45.5943
#
#
#
# Elastic Compliance Matrix: (Units=1/GPa)
#
#
# Indices 1 2 3 4 5 6 
#
# 1 0.011626 -0.002526 -0.004357 0.000000 -0.000796 0.000000
# 2 -0.002526 0.011555 -0.001341 0.000000 0.001380 0.000000
# 3 -0.004357 -0.001341 0.012969 0.000000 0.011141 0.000000
# 4 0.000000 0.000000 0.000000 0.018229 0.000000 0.002457
# 5 -0.000796 0.001380 0.011141 0.000000 0.030245 0.000000
# 6 0.000000 0.000000 0.000000 0.002457 0.000000 0.022264
#
#
# Mechanical properties :
#
#
# Convention : Reuss Voigt Hill
#
# Bulk Modulus (GPa) = 50.75049 69.32343 60.03696
# Shear Modulus (GPa) = 38.49048 46.39423 42.44235
#
# Velocity S-wave (km/s) = 3.75061 4.11772 3.93845
# Velocity P-wave (km/s) = 6.10768 6.92409 6.52866
#
# Compressibility (1/GPa) = 0.01970424
#
# Stress axis : x y z
#
# Youngs Moduli (GPa) = 86.01187 86.54117 77.10703
#
# Poissons Ratio (x) = 0.21857 0.33592
# Poissons Ratio (y) = 0.21724 0.10339
# Poissons Ratio (z) = 0.37472 0.11604
#
# Static dielectric constant tensor:
#      x y z
#    x 2.303640 0.000000 -0.089100 
#    y 0.000000 2.267530 0.000000 
#    z -0.089100 0.000000 2.275930 
# 
# From -- ./inp_files/16957.got.cif
#   From: 2010.05.17/outbox.cif.g08.bks.cpg/sg9_9_cif.got.tgz:16957.got - 2010.06.03 20:04:27.
