data_PCOD9138177
_publ_section_title
;
Structure prediction by ZEFSAII (Michael W. Deem and Ramdas Pophale) SiO2 
 PCOD9138177
Probable space group: C C
;
_chemical_formula_sum "Si O2"
_cell_formula_units_Z 16
_cell_length_a 9.353916
_cell_length_b 13.340880
_cell_length_c 9.927184
_cell_angle_alpha 90.000000
_cell_angle_beta 26.784682
_cell_angle_gamma 90.000000
_cell_volume 558.255082
_symmetry_space_group_name_H-M "C C"
_symmetry_group_IT_number 9
_symmetry_cell_setting 'monoclinic'
loop_
_space_group_symop_operation_xyz
x,y,z
x,-y,1/2+z
1/2+x,1/2+y,z
1/2+x,1/2-y,1/2+z
loop_
_atom_site_type_symbol
_atom_site_label
_atom_site_fract_x
_atom_site_fract_y
_atom_site_fract_z
Si Si1 0.226100 0.310543 0.300080
Si Si2 0.480183 0.897912 0.241808
Si Si3 0.704689 0.597094 0.607412
Si Si4 0.845437 0.133674 0.171871
O O1 0.448953 0.359487 0.221619
O O2 0.875848 0.299859 0.653411
O O3 0.194362 0.353375 0.178574
O O4 0.178022 0.825016 0.457372
O O5 0.342556 0.998476 0.422612
O O6 0.682448 0.918989 0.937615
O O7 0.010359 0.669977 0.384765
O O8 0.517620 0.575905 0.904147
#
# Coordination Sequence:
#
# PCOD9138177 Si02
#       4
#     4   4   4   4
#     4  12  27  48  72 106 149 192 238 304 373 430
#     4  11  23  45  71 104 145 195 244 296 360 442
#     4  11  23  45  71 104 145 195 244 296 360 442
#     4  10  23  40  68 104 137 184 246 300 349 420
#
# _framework density 28.660736
#
# number of rings (size 3 to 8) (size 9 to 14) (size 15 to 20)
#    0.000    1.000    0.000    6.000    0.000    8.000 
#    0.000   25.000    0.000    0.000    0.000    0.000 
#    0.000    0.000    0.000    0.000    0.000    0.000 
#
# Total GULP energy -44755.192849 kJ/mol
# GULP energy per Si atom -5594.399106 kJ/mol
# Density = 2.859550 g / cm^3
# Si number density = 28.660736 Si / 1000 Ang^3
#
#
#
# Elastic Constant Matrix: (Units=GPa)
#
#
# Indices 1 2 3 4 5 6 
#
# 1 277.8128 60.3590 105.7686 -0.1025 -21.0535 0.0477
# 2 60.3590 50.6511 35.8741 -0.1158 -5.3843 0.0819
# 3 105.7686 35.8741 243.8872 -0.2185 14.6273 0.0519
# 4 -0.1025 -0.1158 -0.2185 44.3073 0.1463 -22.5163
# 5 -21.0535 -5.3843 14.6273 0.1463 97.1747 0.0285
# 6 0.0477 0.0819 0.0519 -22.5163 0.0285 28.2439
#
#
#
# Elastic Compliance Matrix: (Units=1/GPa)
#
#
# Indices 1 2 3 4 5 6 
#
# 1 0.005449 -0.005190 -0.001668 -0.000015 0.001144 -0.000004
# 2 -0.005190 0.027273 -0.001800 0.000023 0.000658 -0.000049
# 3 -0.001668 -0.001800 0.005163 0.000035 -0.001238 0.000028
# 4 -0.000015 0.000023 0.000035 0.037941 -0.000073 0.030247
# 5 0.001144 0.000658 -0.001238 -0.000073 0.010762 -0.000071
# 6 -0.000004 -0.000049 0.000028 0.030247 -0.000071 0.059519
#
#
# Mechanical properties :
#
#
# Convention : Reuss Voigt Hill
#
# Bulk Modulus (GPa) = 48.62064 108.48384 78.55224
# Shear Modulus (GPa) = 29.36337 58.63513 43.99925
#
# Velocity S-wave (km/s) = 3.20428 4.52800 3.92238
# Velocity P-wave (km/s) = 5.53994 8.07900 6.92680
#
# Compressibility (1/GPa) = 0.02056740
#
# Stress axis : x y z
#
# Youngs Moduli (GPa) = 183.51756 36.66637 193.69091
#
# Poissons Ratio (x) = 0.19031 0.32314
# Poissons Ratio (y) = 0.95250 0.34868
# Poissons Ratio (z) = 0.30617 0.06601
#
# Static dielectric constant tensor:
#      x y z
#    x 2.236820 -0.000020 -0.037100 
#    y -0.000020 2.384240 0.000340 
#    z -0.037100 0.000340 2.118260 
# 
# From -- ./inp_files/5164.got.cif
#   From: 2010.05.17/outbox.cif.g08.bks.cpg/sg9_3_cif.got.tgz:5164.got - 2010.06.03 20:04:27.
