data_PCOD9138540
_publ_section_title
;
Structure prediction by ZEFSAII (Michael W. Deem and Ramdas Pophale) SiO2 
 PCOD9138540
Probable space group: C C
;
_chemical_formula_sum "Si O2"
_cell_formula_units_Z 28
_cell_length_a 15.580486
_cell_length_b 5.180863
_cell_length_c 16.218230
_cell_angle_alpha 90.000000
_cell_angle_beta 122.669875
_cell_angle_gamma 90.000000
_cell_volume 1102.028326
_symmetry_space_group_name_H-M "C C"
_symmetry_group_IT_number 9
_symmetry_cell_setting 'monoclinic'
loop_
_space_group_symop_operation_xyz
x,y,z
x,-y,1/2+z
1/2+x,1/2+y,z
1/2+x,1/2-y,1/2+z
loop_
_atom_site_type_symbol
_atom_site_label
_atom_site_fract_x
_atom_site_fract_y
_atom_site_fract_z
Si Si1 0.534390 0.149738 0.658250
Si Si2 0.145752 0.356757 0.566812
Si Si3 0.522644 0.341484 0.229826
Si Si4 0.297819 0.495994 0.358913
Si Si5 0.333965 0.457406 0.560385
Si Si6 0.769738 0.518902 0.743161
Si Si7 0.474882 0.688167 0.360503
O O1 0.577511 0.430074 0.706517
O O2 0.413764 0.218023 0.595027
O O3 0.581617 0.019063 0.601231
O O4 0.560730 0.948377 0.744687
O O5 0.250535 0.477992 0.588241
O O6 0.073066 0.313944 0.451484
O O7 0.192172 0.091870 0.629825
O O8 0.415885 0.322792 0.123732
O O9 0.501401 0.476924 0.305490
O O10 0.279561 0.459353 0.444731
O O11 0.273228 0.263278 0.284225
O O12 0.418958 0.543995 0.407958
O O13 0.251237 0.762374 0.303057
O O14 0.887726 0.611937 0.782323
#
# Coordination Sequence:
#
# PCOD9138540 Si02
#       7
#     4   4   4   4   4   4   4
#     4  10  25  45  69 104 148 188 243 317 352 454
#     4  12  24  48  76 111 141 206 249 299 397 445
#     4  10  23  46  70  99 153 184 237 311 371 422
#     4  10  23  44  70  96 153 183 238 312 369 425
#     4  10  23  44  73 105 142 196 243 311 362 454
#     4  10  24  45  67 105 143 191 236 315 360 448
#     4  10  24  44  75 106 146 194 244 307 373 458
#
# _framework density 25.407699000000001
#
# number of rings (size 3 to 8) (size 9 to 14) (size 15 to 20)
#    1.714    0.000    1.429    1.714    6.000    3.429 
#    5.143    0.000    0.000    0.000    0.000    0.000 
#    0.000    0.000    0.000    0.000    0.000    0.000 
#
# Total GULP energy -78139.670467 kJ/mol
# GULP energy per Si atom -5581.405033 kJ/mol
# Density = 2.534987 g / cm^3
# Si number density = 25.407699 Si / 1000 Ang^3
#
#
#
# Elastic Constant Matrix: (Units=GPa)
#
#
# Indices 1 2 3 4 5 6 
#
# 1 115.0147 26.0456 28.1771 0.0000 -3.4095 0.0000
# 2 26.0456 148.5772 33.6814 0.0000 0.0365 0.0000
# 3 28.1771 33.6814 111.1569 0.0000 3.2175 0.0000
# 4 0.0000 0.0000 0.0000 12.2804 0.0000 3.0508
# 5 -3.4095 0.0365 3.2175 0.0000 51.5112 0.0000
# 6 0.0000 0.0000 0.0000 3.0508 0.0000 26.5638
#
#
#
# Elastic Compliance Matrix: (Units=1/GPa)
#
#
# Indices 1 2 3 4 5 6 
#
# 1 0.009494 -0.001196 -0.002066 0.000000 0.000758 0.000000
# 2 -0.001196 0.007379 -0.001934 0.000000 0.000036 0.000000
# 3 -0.002066 -0.001934 0.010128 0.000000 -0.000768 0.000000
# 4 0.000000 0.000000 0.000000 0.083822 0.000000 -0.009627
# 5 0.000758 0.000036 -0.000768 0.000000 0.019511 0.000000
# 6 0.000000 0.000000 0.000000 -0.009627 0.000000 0.038751
#
#
# Mechanical properties :
#
#
# Convention : Reuss Voigt Hill
#
# Bulk Modulus (GPa) = 60.20832 61.17300 60.69066
# Shear Modulus (GPa) = 27.02515 37.19407 32.10961
#
# Velocity S-wave (km/s) = 3.26492 3.83023 3.55882
# Velocity P-wave (km/s) = 6.16127 6.60982 6.38948
#
# Compressibility (1/GPa) = 0.01660900
#
# Stress axis : x y z
#
# Youngs Moduli (GPa) = 105.32892 135.52871 98.73459
#
# Poissons Ratio (x) = 0.16211 0.20400
# Poissons Ratio (y) = 0.12599 0.19091
# Poissons Ratio (z) = 0.21763 0.26206
#
# Static dielectric constant tensor:
#      x y z
#    x 2.182270 0.000000 0.046390 
#    y 0.000000 2.007670 0.000000 
#    z 0.046390 0.000000 1.949210 
# 
# From -- ./inp_files/26502.got.cif
#   From: 2010.05.17/outbox.cif.g08.bks.cpg/sg9_14_cif.got.tgz:26502.got - 2010.06.03 20:04:27.
