data_PCOD9138752
_publ_section_title
;
Structure prediction by ZEFSAII (Michael W. Deem and Ramdas Pophale) SiO2 
 PCOD9138752
Probable space group: C C
;
_chemical_formula_sum "Si O2"
_cell_formula_units_Z 24
_cell_length_a 10.779688
_cell_length_b 12.955850
_cell_length_c 6.432698
_cell_angle_alpha 90.000000
_cell_angle_beta 109.179800
_cell_angle_gamma 90.000000
_cell_volume 848.523093
_symmetry_space_group_name_H-M "C C"
_symmetry_group_IT_number 9
_symmetry_cell_setting 'monoclinic'
loop_
_space_group_symop_operation_xyz
x,y,z
x,-y,1/2+z
1/2+x,1/2+y,z
1/2+x,1/2-y,1/2+z
loop_
_atom_site_type_symbol
_atom_site_label
_atom_site_fract_x
_atom_site_fract_y
_atom_site_fract_z
Si Si1 0.307260 0.733389 0.197420
Si Si2 0.478829 0.759217 0.930970
Si Si3 0.912905 0.907830 0.098025
Si Si4 0.676727 0.395394 0.432532
Si Si5 0.153618 0.540514 0.995689
Si Si6 0.953989 0.531176 0.168692
O O1 0.401125 0.655866 0.379518
O O2 0.240536 0.815187 0.308226
O O3 0.192923 0.660463 0.042910
O O4 0.397443 0.792482 0.083136
O O5 0.387815 0.679789 0.756373
O O6 0.603491 0.686290 0.046681
O O7 0.499716 0.856212 0.793080
O O8 0.056191 0.949458 0.242380
O O9 0.798251 0.987956 0.054038
O O10 0.794421 0.463504 0.582141
O O11 0.115856 0.487974 0.221289
O O12 0.977715 0.463663 0.413129
#
# Coordination Sequence:
#
# PCOD9138752 Si02
#       6
#     4   4   4   4   4   4
#     4  12  23  47  83 111 149 214 256 326 396 465
#     4  10  24  45  78 111 151 205 262 316 384 471
#     4  10  23  46  72 113 158 198 266 313 392 480
#     4  10  23  49  70 114 154 195 275 314 370 480
#     4  12  24  47  75 111 155 205 250 326 404 454
#     4  12  25  48  74 112 161 201 253 331 390 458
#
# _framework density 28.284441000000001
#
# number of rings (size 3 to 8) (size 9 to 14) (size 15 to 20)
#    1.000    0.000    5.000    1.000    0.000    2.667 
#    6.000    0.000    0.000    0.000    0.000    0.000 
#    0.000    0.000    0.000    0.000    0.000    0.000 
#
# Total GULP energy -67094.226111 kJ/mol
# GULP energy per Si atom -5591.185509 kJ/mol
# Density = 2.822006 g / cm^3
# Si number density = 28.284441 Si / 1000 Ang^3
#
#
#
# Elastic Constant Matrix: (Units=GPa)
#
#
# Indices 1 2 3 4 5 6 
#
# 1 218.5581 42.8918 95.9242 0.0000 37.9875 0.0000
# 2 42.8918 102.0191 54.9092 0.0000 18.8736 0.0000
# 3 95.9242 54.9092 158.9079 0.0000 19.7386 0.0000
# 4 0.0000 0.0000 0.0000 49.1283 0.0000 3.6543
# 5 37.9875 18.8736 19.7386 0.0000 87.1516 0.0000
# 6 0.0000 0.0000 0.0000 3.6543 0.0000 59.6423
#
#
#
# Elastic Compliance Matrix: (Units=1/GPa)
#
#
# Indices 1 2 3 4 5 6 
#
# 1 0.006571 -0.000488 -0.003556 0.000000 -0.001953 0.000000
# 2 -0.000488 0.012332 -0.003767 0.000000 -0.001605 0.000000
# 3 -0.003556 -0.003767 0.009721 0.000000 0.000164 0.000000
# 4 0.000000 0.000000 0.000000 0.020448 0.000000 -0.001253
# 5 -0.001953 -0.001605 0.000164 0.000000 0.012636 0.000000
# 6 0.000000 0.000000 0.000000 -0.001253 0.000000 0.016843
#
#
# Mechanical properties :
#
#
# Convention : Reuss Voigt Hill
#
# Bulk Modulus (GPa) = 76.90925 96.32616 86.61770
# Shear Modulus (GPa) = 50.75819 58.23509 54.49664
#
# Velocity S-wave (km/s) = 4.24082 4.54244 4.39422
# Velocity P-wave (km/s) = 7.15750 7.85123 7.51238
#
# Compressibility (1/GPa) = 0.01300234
#
# Stress axis : x y z
#
# Youngs Moduli (GPa) = 152.18019 81.09177 102.87384
#
# Poissons Ratio (x) = 0.03955 0.36577
# Poissons Ratio (y) = 0.07421 0.38757
# Poissons Ratio (z) = 0.54108 0.30551
#
# Static dielectric constant tensor:
#      x y z
#    x 2.112200 0.000000 -0.024970 
#    y 0.000000 2.098170 0.000000 
#    z -0.024970 0.000000 2.316730 
# 
# From -- ./inp_files/2414.got.cif
#   From: 2010.05.17/outbox.cif.g08.bks.cpg/sg9_2_cif.got.tgz:2414.got - 2010.06.03 20:04:27.
