data_PCOD9138913
_publ_section_title
;
Structure prediction by ZEFSAII (Michael W. Deem and Ramdas Pophale) SiO2 
 PCOD9138913
Probable space group: C C
;
_chemical_formula_sum "Si O2"
_cell_formula_units_Z 28
_cell_length_a 13.404222
_cell_length_b 6.536591
_cell_length_c 17.321444
_cell_angle_alpha 90.000000
_cell_angle_beta 57.726292
_cell_angle_gamma 90.000000
_cell_volume 1283.199551
_symmetry_space_group_name_H-M "C C"
_symmetry_group_IT_number 9
_symmetry_cell_setting 'monoclinic'
loop_
_space_group_symop_operation_xyz
x,y,z
x,-y,1/2+z
1/2+x,1/2+y,z
1/2+x,1/2-y,1/2+z
loop_
_atom_site_type_symbol
_atom_site_label
_atom_site_fract_x
_atom_site_fract_y
_atom_site_fract_z
Si Si1 0.067590 0.503945 0.198980
Si Si2 0.036771 0.327653 0.042608
Si Si3 0.866991 0.166956 0.802186
Si Si4 0.008959 0.769537 0.009925
Si Si5 0.321431 0.472433 0.661141
Si Si6 0.219708 0.008110 0.946118
Si Si7 0.935914 0.212489 0.375963
O O1 0.077293 0.397328 0.111361
O O2 0.194484 0.565931 0.178706
O O3 0.983738 0.703764 0.231638
O O4 0.010061 0.336148 0.280865
O O5 0.018856 0.530015 0.002700
O O6 0.135175 0.195433 0.958290
O O7 0.915097 0.206282 0.104977
O O8 0.819145 0.032254 0.751488
O O9 0.779122 0.348786 0.863198
O O10 0.889710 0.001732 0.860168
O O11 0.883302 0.833945 0.095120
O O12 0.112829 0.862867 0.021518
O O13 0.010978 0.840804 0.920615
O O14 0.328320 0.129048 0.940919
#
# Coordination Sequence:
#
# PCOD9138913 Si02
#       7
#     4   4   4   4   4   4   4
#     4  11  24  42  69  98 135 182 229 283 343 405
#     4  11  23  45  66 101 139 180 234 283 342 415
#     4  11  23  45  66 101 139 180 234 283 342 415
#     4  11  24  43  66 100 135 176 229 283 347 407
#     4  11  24  42  69  98 135 182 229 283 343 405
#     4  10  24  40  70  94 138 178 224 282 342 402
#     4  11  24  43  66 100 135 176 229 283 347 407
#
# _framework density 21.820457000000001
#
# number of rings (size 3 to 8) (size 9 to 14) (size 15 to 20)
#    0.000    1.143    2.857    2.571    0.000    8.000 
#    0.000    0.000    0.000    0.000    0.000    0.000 
#    0.000    0.000    0.000    0.000    0.000    0.000 
#
# Total GULP energy -78096.894913 kJ/mol
# GULP energy per Si atom -5578.349637 kJ/mol
# Density = 2.177079 g / cm^3
# Si number density = 21.820457 Si / 1000 Ang^3
#
#
#
# Elastic Constant Matrix: (Units=GPa)
#
#
# Indices 1 2 3 4 5 6 
#
# 1 135.9848 42.3586 35.9606 0.0000 -9.8946 0.0000
# 2 42.3586 110.6279 16.5379 0.0001 -0.9390 0.0002
# 3 35.9606 16.5379 59.8347 0.0000 6.5594 0.0000
# 4 0.0000 0.0001 0.0000 30.7777 0.0000 2.4226
# 5 -9.8946 -0.9390 6.5594 0.0000 31.9600 0.0000
# 6 0.0000 0.0002 0.0000 2.4226 0.0000 22.1880
#
#
#
# Elastic Compliance Matrix: (Units=1/GPa)
#
#
# Indices 1 2 3 4 5 6 
#
# 1 0.010096 -0.002977 -0.005707 0.000000 0.004210 0.000000
# 2 -0.002977 0.010328 -0.001021 0.000000 -0.000409 0.000000
# 3 -0.005707 -0.001021 0.021096 0.000000 -0.006126 0.000000
# 4 0.000000 0.000000 0.000000 0.032773 0.000000 -0.003578
# 5 0.004210 -0.000409 -0.006126 0.000000 0.033838 0.000000
# 6 0.000000 0.000000 0.000000 -0.003578 0.000000 0.045460
#
#
# Mechanical properties :
#
#
# Convention : Reuss Voigt Hill
#
# Bulk Modulus (GPa) = 45.22383 55.12906 50.17645
# Shear Modulus (GPa) = 27.72065 31.09115 29.40590
#
# Velocity S-wave (km/s) = 3.56813 3.77883 3.67499
# Velocity P-wave (km/s) = 6.14376 6.66026 6.40722
#
# Compressibility (1/GPa) = 0.02211224
#
# Stress axis : x y z
#
# Youngs Moduli (GPa) = 99.04438 96.82124 47.40214
#
# Poissons Ratio (x) = 0.28824 0.27051
# Poissons Ratio (y) = 0.29486 0.04838
# Poissons Ratio (z) = 0.56521 0.09882
#
# Static dielectric constant tensor:
#      x y z
#    x 1.785110 0.000000 -0.024790 
#    y 0.000000 1.800480 0.000000 
#    z -0.024790 0.000000 1.818900 
# 
# From -- ./inp_files/32965.got.cif
#   From: 2010.05.17/outbox.cif.g08.bks.cpg/sg9_17_cif.got.tgz:32965.got - 2010.06.03 20:04:27.
