data_PCOD9138369
_publ_section_title
;
Structure prediction by ZEFSAII (Michael W. Deem and Ramdas Pophale) SiO2 
 PCOD9138369
Probable space group: C C
;
_chemical_formula_sum "Si O2"
_cell_formula_units_Z 32
_cell_length_a 15.393373
_cell_length_b 11.950865
_cell_length_c 17.853573
_cell_angle_alpha 90.000000
_cell_angle_beta 29.010975
_cell_angle_gamma 90.000000
_cell_volume 1592.867126
_symmetry_space_group_name_H-M "C C"
_symmetry_group_IT_number 9
_symmetry_cell_setting 'monoclinic'
loop_
_space_group_symop_operation_xyz
x,y,z
x,-y,1/2+z
1/2+x,1/2+y,z
1/2+x,1/2-y,1/2+z
loop_
_atom_site_type_symbol
_atom_site_label
_atom_site_fract_x
_atom_site_fract_y
_atom_site_fract_z
Si Si1 0.405890 0.137870 0.669940
Si Si2 0.313279 0.360438 0.808124
Si Si3 0.000841 0.184064 0.579056
Si Si4 0.045687 0.950609 0.194158
Si Si5 0.812958 0.014042 0.149929
Si Si6 0.396428 0.110779 0.238781
Si Si7 0.954376 0.597387 0.363763
Si Si8 0.036973 0.840098 0.361725
O O1 0.385338 0.235260 0.746480
O O2 0.603417 0.142444 0.485829
O O3 0.242854 0.160077 0.734986
O O4 0.383209 0.016978 0.723968
O O5 0.433303 0.435775 0.772262
O O6 0.335835 0.419252 0.710411
O O7 0.977127 0.315109 0.611127
O O8 0.976099 0.131042 0.680710
O O9 0.199870 0.158391 0.402298
O O10 0.877118 0.112355 0.616799
O O11 0.022187 0.897924 0.292678
O O12 0.258548 0.957125 0.018047
O O13 0.608060 0.019084 0.279987
O O14 0.926641 0.085729 0.004238
O O15 0.493870 0.120048 0.245834
O O16 0.965595 0.714021 0.401585
#
# Coordination Sequence:
#
# PCOD9138369 Si02
#       8
#     4   4   4   4   4   4   4   4
#     4  12  26  44  73 101 138 185 235 289 349 419
#     4  11  26  44  68  99 139 183 229 285 355 417
#     4  10  23  43  64 100 136 181 221 281 342 414
#     4  10  24  42  66 100 137 177 229 287 347 405
#     4  11  23  40  67 100 138 171 226 288 345 403
#     4  11  25  43  70 100 136 180 231 280 345 413
#     4  11  23  39  71 104 136 175 234 289 340 407
#     4  12  22  41  69 110 134 178 235 291 343 408
#
# _framework density 20.089559999999999
#
# number of rings (size 3 to 8) (size 9 to 14) (size 15 to 20)
#    0.000    1.000    3.750    2.250   10.500    0.000 
#    0.000    1.250    0.000    0.000    0.000    0.000 
#    0.000    0.000    0.000    0.000    0.000    0.000 
#
# Total GULP energy -89451.059991 kJ/mol
# GULP energy per Si atom -5590.691249 kJ/mol
# Density = 2.004384 g / cm^3
# Si number density = 20.089560 Si / 1000 Ang^3
#
#
#
# Elastic Constant Matrix: (Units=GPa)
#
#
# Indices 1 2 3 4 5 6 
#
# 1 74.2026 11.4608 17.6070 0.0006 -20.3811 -0.0005
# 2 11.4608 67.8604 8.9152 -0.0002 -21.2795 -0.0003
# 3 17.6070 8.9152 79.6771 -0.0007 -4.4725 -0.0005
# 4 0.0006 -0.0002 -0.0007 25.4713 0.0001 -3.4835
# 5 -20.3811 -21.2795 -4.4725 0.0001 29.7483 0.0002
# 6 -0.0005 -0.0003 -0.0005 -3.4835 0.0002 24.5002
#
#
#
# Elastic Compliance Matrix: (Units=1/GPa)
#
#
# Indices 1 2 3 4 5 6 
#
# 1 0.017474 0.001395 -0.003317 0.000000 0.012471 0.000000
# 2 0.001395 0.019259 -0.001650 0.000000 0.014484 0.000000
# 3 -0.003317 -0.001650 0.013388 0.000000 -0.001441 0.000000
# 4 0.000000 0.000000 0.000000 0.040038 0.000000 0.005693
# 5 0.012471 0.014484 -0.001441 0.000000 0.052303 0.000000
# 6 0.000000 0.000000 0.000000 0.005693 0.000000 0.041625
#
#
# Mechanical properties :
#
#
# Convention : Reuss Voigt Hill
#
# Bulk Modulus (GPa) = 23.26899 33.07845 28.17372
# Shear Modulus (GPa) = 24.32409 28.19444 26.25926
#
# Velocity S-wave (km/s) = 3.48340 3.75031 3.61932
# Velocity P-wave (km/s) = 5.27130 5.93754 5.61431
#
# Compressibility (1/GPa) = 0.04297565
#
# Stress axis : x y z
#
# Youngs Moduli (GPa) = 57.22924 51.92313 74.69643
#
# Poissons Ratio (x) = -0.07245 0.24780
# Poissons Ratio (y) = -0.07985 0.12327
# Poissons Ratio (z) = 0.18985 0.08569
#
# Static dielectric constant tensor:
#      x y z
#    x 1.714920 0.000000 -0.000370 
#    y 0.000000 1.717090 0.000000 
#    z -0.000370 0.000000 1.721580 
# 
# From -- ./inp_files/9132.got.cif
#   From: 2010.05.17/outbox.cif.g08.bks.cpg/sg9_5_cif.got.tgz:9132.got - 2010.06.03 20:04:27.
