data_PCOD9138740
_publ_section_title
;
Structure prediction by ZEFSAII (Michael W. Deem and Ramdas Pophale) SiO2 
 PCOD9138740
Probable space group: C C
;
_chemical_formula_sum "Si O2"
_cell_formula_units_Z 20
_cell_length_a 6.250008
_cell_length_b 18.312972
_cell_length_c 8.951547
_cell_angle_alpha 90.000000
_cell_angle_beta 52.552258
_cell_angle_gamma 90.000000
_cell_volume 813.406828
_symmetry_space_group_name_H-M "C C"
_symmetry_group_IT_number 9
_symmetry_cell_setting 'monoclinic'
loop_
_space_group_symop_operation_xyz
x,y,z
x,-y,1/2+z
1/2+x,1/2+y,z
1/2+x,1/2-y,1/2+z
loop_
_atom_site_type_symbol
_atom_site_label
_atom_site_fract_x
_atom_site_fract_y
_atom_site_fract_z
Si Si1 0.519800 0.946344 0.869790
Si Si2 0.575197 0.452890 0.448384
Si Si3 0.851690 0.901167 0.976855
Si Si4 0.334403 0.655137 0.819292
Si Si5 0.334792 0.179488 0.234013
O O1 0.384856 0.877007 0.846988
O O2 0.812444 0.951329 0.667566
O O3 0.573237 0.922223 0.016581
O O4 0.341659 0.019071 0.922385
O O5 0.520945 0.525541 0.374859
O O6 0.527424 0.384212 0.358797
O O7 0.828868 0.884245 0.161551
O O8 0.018795 0.834109 0.832616
O O9 0.403336 0.739147 0.755547
O O10 0.036447 0.657330 0.017514
#
# Coordination Sequence:
#
# PCOD9138740 Si02
#       5
#     4   4   4   4   4
#     4  10  24  46  71 112 151 200 260 311 392 446
#     4  10  24  45  73 107 153 201 253 318 379 468
#     4  11  23  44  72 107 151 197 253 320 375 458
#     4  11  22  47  79 108 156 198 257 313 392 460
#     4  10  23  46  71 110 151 196 251 314 386 468
#
# _framework density 24.587942999999999
#
# number of rings (size 3 to 8) (size 9 to 14) (size 15 to 20)
#    0.000    1.600    2.000    1.200    0.000    9.600 
#    7.200   16.000    0.000    0.000    0.000    0.000 
#    0.000    0.000    0.000    0.000    0.000    0.000 
#
# Total GULP energy -55865.983949 kJ/mol
# GULP energy per Si atom -5586.598395 kJ/mol
# Density = 2.453198 g / cm^3
# Si number density = 24.587943 Si / 1000 Ang^3
#
#
#
# Elastic Constant Matrix: (Units=GPa)
#
#
# Indices 1 2 3 4 5 6 
#
# 1 135.1314 67.0320 80.8762 0.0000 -2.7255 0.0000
# 2 67.0320 181.4710 37.0574 0.0000 5.2894 0.0000
# 3 80.8762 37.0574 145.6245 0.0000 -7.1619 0.0000
# 4 0.0000 0.0000 0.0000 35.4897 0.0000 5.9512
# 5 -2.7255 5.2894 -7.1619 0.0000 35.1566 0.0000
# 6 0.0000 0.0000 0.0000 5.9512 0.0000 43.5076
#
#
#
# Elastic Compliance Matrix: (Units=1/GPa)
#
#
# Indices 1 2 3 4 5 6 
#
# 1 0.012877 -0.003487 -0.006252 0.000000 0.000249 0.000000
# 2 -0.003487 0.006806 0.000142 0.000000 -0.001265 0.000000
# 3 -0.006252 0.000142 0.010382 0.000000 0.001609 0.000000
# 4 0.000000 0.000000 0.000000 0.028839 0.000000 -0.003945
# 5 0.000249 -0.001265 0.001609 0.000000 0.028982 0.000000
# 6 0.000000 0.000000 0.000000 -0.003945 0.000000 0.023524
#
#
# Mechanical properties :
#
#
# Convention : Reuss Voigt Hill
#
# Bulk Modulus (GPa) = 91.97853 92.46199 92.22026
# Shear Modulus (GPa) = 37.25054 41.31487 39.28271
#
# Velocity S-wave (km/s) = 3.89651 4.10358 4.00139
# Velocity P-wave (km/s) = 7.59822 7.75492 7.67697
#
# Compressibility (1/GPa) = 0.01087210
#
# Stress axis : x y z
#
# Youngs Moduli (GPa) = 77.66002 146.92102 96.32104
#
# Poissons Ratio (x) = 0.51232 0.60218
# Poissons Ratio (y) = 0.27080 -0.01371
# Poissons Ratio (z) = 0.48551 -0.02091
#
# Static dielectric constant tensor:
#      x y z
#    x 2.136010 0.000000 -0.051100 
#    y 0.000000 1.913730 0.000000 
#    z -0.051100 0.000000 2.024530 
# 
# From -- ./inp_files/3641.got.cif
#   From: 2010.05.17/outbox.cif.g08.bks.cpg/sg9_2_cif.got.tgz:3641.got - 2010.06.03 20:04:27.
