data_PCOD9138710
_publ_section_title
;
Structure prediction by ZEFSAII (Michael W. Deem and Ramdas Pophale) SiO2 
 PCOD9138710
Probable space group: C C
;
_chemical_formula_sum "Si O2"
_cell_formula_units_Z 32
_cell_length_a 25.341781
_cell_length_b 8.984473
_cell_length_c 19.665439
_cell_angle_alpha 90.000000
_cell_angle_beta 161.582778
_cell_angle_gamma 90.000000
_cell_volume 1414.588354
_symmetry_space_group_name_H-M "C C"
_symmetry_group_IT_number 9
_symmetry_cell_setting 'monoclinic'
loop_
_space_group_symop_operation_xyz
x,y,z
x,-y,1/2+z
1/2+x,1/2+y,z
1/2+x,1/2-y,1/2+z
loop_
_atom_site_type_symbol
_atom_site_label
_atom_site_fract_x
_atom_site_fract_y
_atom_site_fract_z
Si Si1 0.697210 0.806428 0.797420
Si Si2 0.568560 0.741391 0.144086
Si Si3 0.110320 0.022516 0.919932
Si Si4 0.034747 0.216158 0.474804
Si Si5 0.055268 0.935696 0.202360
Si Si6 0.226143 0.910371 0.704676
Si Si7 0.172791 0.683170 0.010871
Si Si8 0.220094 0.455049 0.431348
O O1 0.565434 0.821077 0.576016
O O2 0.680610 0.638566 0.802576
O O3 0.653241 0.902397 0.809933
O O4 0.875903 0.855141 0.987654
O O5 0.414847 0.854920 0.946260
O O6 0.521893 0.601581 0.134975
O O7 0.626350 0.678625 0.141669
O O8 0.708554 0.826942 0.359863
O O9 0.911566 0.990998 0.683950
O O10 0.189187 0.858290 0.014644
O O11 0.132287 0.082747 0.871275
O O12 0.173339 0.117034 0.061078
O O13 0.051635 0.312171 0.426903
O O14 0.856572 0.136433 0.260378
O O15 0.174821 0.085599 0.647407
O O16 0.129238 0.595823 0.889134
#
# Coordination Sequence:
#
# PCOD9138710 Si02
#       8
#     4   4   4   4   4   4   4   4
#     4  11  25  43  68 102 137 178 231 294 349 414
#     4  12  26  46  72 104 140 189 238 295 348 417
#     4  10  23  46  68 104 143 181 234 291 351 424
#     4  11  24  42  72 102 141 181 238 289 353 420
#     4  11  24  46  67  99 145 181 231 289 360 415
#     4  11  25  44  71 101 141 183 241 290 349 415
#     4  11  21  43  71  97 138 190 231 281 346 428
#     4  11  24  44  73 101 141 183 236 285 348 423
#
# _framework density 22.621420000000001
#
# number of rings (size 3 to 8) (size 9 to 14) (size 15 to 20)
#    0.000    1.000    5.000    2.250    5.250    2.000 
#    2.250    0.000    0.000    0.000    0.000    0.000 
#    0.000    0.000    0.000    0.000    0.000    0.000 
#
# Total GULP energy -89329.645487 kJ/mol
# GULP energy per Si atom -5583.102843 kJ/mol
# Density = 2.256993 g / cm^3
# Si number density = 22.621420 Si / 1000 Ang^3
#
#
#
# Elastic Constant Matrix: (Units=GPa)
#
#
# Indices 1 2 3 4 5 6 
#
# 1 93.6009 0.3962 24.7624 0.0001 -21.6353 0.0001
# 2 0.3962 53.9229 11.5203 0.0001 -3.7153 0.0000
# 3 24.7624 11.5203 52.6653 0.0001 -18.6395 0.0001
# 4 0.0001 0.0001 0.0001 34.1264 0.0000 -6.8962
# 5 -21.6353 -3.7153 -18.6395 0.0000 32.7560 0.0000
# 6 0.0001 0.0000 0.0001 -6.8962 0.0000 42.9190
#
#
#
# Elastic Compliance Matrix: (Units=1/GPa)
#
#
# Indices 1 2 3 4 5 6 
#
# 1 0.013303 0.001253 -0.004219 0.000000 0.006529 0.000000
# 2 0.001253 0.019574 -0.004749 0.000000 0.000346 0.000000
# 3 -0.004219 -0.004749 0.026087 0.000000 0.011520 0.000000
# 4 0.000000 0.000000 0.000000 0.030286 0.000000 0.004866
# 5 0.006529 0.000346 0.011520 0.000000 0.041435 0.000000
# 6 0.000000 0.000000 0.000000 0.004866 0.000000 0.024082
#
#
# Mechanical properties :
#
#
# Convention : Reuss Voigt Hill
#
# Bulk Modulus (GPa) = 22.96902 30.39409 26.68155
# Shear Modulus (GPa) = 27.06976 32.86096 29.96536
#
# Velocity S-wave (km/s) = 3.46301 3.81550 3.64352
# Velocity P-wave (km/s) = 5.11523 5.73374 5.43330
#
# Compressibility (1/GPa) = 0.04353690
#
# Stress axis : x y z
#
# Youngs Moduli (GPa) = 75.16850 51.08780 38.33302
#
# Poissons Ratio (x) = -0.06403 0.16171
# Poissons Ratio (y) = -0.09421 0.18203
# Poissons Ratio (z) = 0.31711 0.24260
#
# Static dielectric constant tensor:
#      x y z
#    x 1.864170 0.000000 -0.024700 
#    y 0.000000 1.852070 0.000000 
#    z -0.024700 0.000000 1.905910 
# 
# From -- ./inp_files/34607.got.cif
#   From: 2010.05.17/outbox.cif.g08.bks.cpg/sg9_18_cif.got.tgz:34607.got - 2010.06.03 20:04:27.
