data_PCOD9138665
_publ_section_title
;
Structure prediction by ZEFSAII (Michael W. Deem and Ramdas Pophale) SiO2 
 PCOD9138665
Probable space group: C C
;
_chemical_formula_sum "Si O2"
_cell_formula_units_Z 20
_cell_length_a 14.675582
_cell_length_b 11.504384
_cell_length_c 7.656324
_cell_angle_alpha 90.000000
_cell_angle_beta 36.754328
_cell_angle_gamma 90.000000
_cell_volume 773.499068
_symmetry_space_group_name_H-M "C C"
_symmetry_group_IT_number 9
_symmetry_cell_setting 'monoclinic'
loop_
_space_group_symop_operation_xyz
x,y,z
x,-y,1/2+z
1/2+x,1/2+y,z
1/2+x,1/2-y,1/2+z
loop_
_atom_site_type_symbol
_atom_site_label
_atom_site_fract_x
_atom_site_fract_y
_atom_site_fract_z
Si Si1 0.796960 0.168745 0.848130
Si Si2 0.305255 0.416219 0.727596
Si Si3 0.824028 0.433854 0.273400
Si Si4 0.635679 0.373232 0.241424
Si Si5 0.490730 0.148451 0.853376
O O1 0.931743 0.243892 0.556374
O O2 0.765562 0.052999 0.788478
O O3 0.829438 0.122589 0.991851
O O4 0.658554 0.259787 0.086636
O O5 0.466881 0.391793 0.568864
O O6 0.166057 0.352118 0.033900
O O7 0.759541 0.367023 0.206052
O O8 0.685780 0.512510 0.558221
O O9 0.895643 0.360525 0.318936
O O10 0.947747 0.528976 0.019894
#
# Coordination Sequence:
#
# PCOD9138665 Si02
#       5
#     4   4   4   4   4
#     4  11  28  47  73 110 151 194 241 306 373 429
#     4  12  26  47  76 111 144 190 256 302 355 446
#     4   9  20  44  75 109 150 196 240 295 371 447
#     4  10  23  45  73 107 149 193 242 301 367 433
#     4  10  23  47  79 109 150 195 241 304 370 433
#
# _framework density 25.856525999999999
#
# number of rings (size 3 to 8) (size 9 to 14) (size 15 to 20)
#    0.000    1.600    0.000    2.400    0.000   12.800 
#    0.000    6.000    0.000    0.000    0.000    0.000 
#    0.000    0.000    0.000    0.000    0.000    0.000 
#
# Total GULP energy -56142.234945 kJ/mol
# GULP energy per Si atom -5614.223494 kJ/mol
# Density = 2.579768 g / cm^3
# Si number density = 25.856526 Si / 1000 Ang^3
#
#
#
# Elastic Constant Matrix: (Units=GPa)
#
#
# Indices 1 2 3 4 5 6 
#
# 1 84.8125 20.8800 47.7665 0.0000 10.4256 0.0000
# 2 20.8800 138.7556 83.3543 0.0000 2.5175 0.0000
# 3 47.7665 83.3543 195.0492 0.0000 -8.0517 0.0000
# 4 0.0000 0.0000 0.0000 37.8613 0.0000 29.8264
# 5 10.4256 2.5175 -8.0517 0.0000 43.4533 0.0000
# 6 0.0000 0.0000 0.0000 29.8264 0.0000 30.8046
#
#
#
# Elastic Compliance Matrix: (Units=1/GPa)
#
#
# Indices 1 2 3 4 5 6 
#
# 1 0.014381 0.000175 -0.003768 0.000000 -0.004159 0.000000
# 2 0.000175 0.009776 -0.004279 0.000000 -0.001401 0.000000
# 3 -0.003768 -0.004279 0.007987 0.000000 0.002632 0.000000
# 4 0.000000 0.000000 0.000000 0.111333 0.000000 -0.107798
# 5 -0.004159 -0.001401 0.002632 0.000000 0.024580 0.000000
# 6 0.000000 0.000000 0.000000 -0.107798 0.000000 0.136837
#
#
# Mechanical properties :
#
#
# Convention : Reuss Voigt Hill
#
# Bulk Modulus (GPa) = 60.97341 80.29098 70.63220
# Shear Modulus (GPa) = 15.33249 40.19829 27.76539
#
# Velocity S-wave (km/s) = 2.43777 3.94720 3.28048
# Velocity P-wave (km/s) = 5.61749 7.20374 6.45949
#
# Compressibility (1/GPa) = 0.01640059
#
# Stress axis : x y z
#
# Youngs Moduli (GPa) = 69.53528 102.28849 125.20510
#
# Poissons Ratio (x) = -0.01792 0.47182
# Poissons Ratio (y) = -0.01218 0.53571
# Poissons Ratio (z) = 0.26204 0.43765
#
# Static dielectric constant tensor:
#      x y z
#    x 2.030720 0.000000 0.025980 
#    y 0.000000 2.035330 0.000000 
#    z 0.025980 0.000000 1.968950 
# 
# From -- ./inp_files/4734.got.cif
#   From: 2010.05.17/outbox.cif.g08.bks.cpg/sg9_3_cif.got.tgz:4734.got - 2010.06.03 20:04:27.
