data_PCOD9138708
_publ_section_title
;
Structure prediction by ZEFSAII (Michael W. Deem and Ramdas Pophale) SiO2 
 PCOD9138708
Probable space group: C C
;
_chemical_formula_sum "Si O2"
_cell_formula_units_Z 32
_cell_length_a 5.511042
_cell_length_b 19.114095
_cell_length_c 14.385225
_cell_angle_alpha 90.000000
_cell_angle_beta 124.695863
_cell_angle_gamma 90.000000
_cell_volume 1245.872917
_symmetry_space_group_name_H-M "C C"
_symmetry_group_IT_number 9
_symmetry_cell_setting 'monoclinic'
loop_
_space_group_symop_operation_xyz
x,y,z
x,-y,1/2+z
1/2+x,1/2+y,z
1/2+x,1/2-y,1/2+z
loop_
_atom_site_type_symbol
_atom_site_label
_atom_site_fract_x
_atom_site_fract_y
_atom_site_fract_z
Si Si1 0.821120 0.035545 0.193290
Si Si2 0.462198 0.182818 0.872376
Si Si3 0.562900 0.673569 0.312424
Si Si4 0.936004 0.045649 0.555254
Si Si5 0.079903 0.782037 0.614220
Si Si6 0.203948 0.543644 0.853176
Si Si7 0.959972 0.630793 0.564196
Si Si8 0.786950 0.375634 0.509459
O O1 0.559002 0.071419 0.076797
O O2 0.908883 0.098971 0.279967
O O3 0.043194 0.010542 0.158964
O O4 0.733707 0.978839 0.252849
O O5 0.401712 0.254450 0.806225
O O6 0.498819 0.111627 0.821736
O O7 0.230473 0.163043 0.900210
O O8 0.760984 0.195526 0.000371
O O9 0.648532 0.679802 0.224422
O O10 0.822397 0.665585 0.441555
O O11 0.737540 0.090083 0.583640
O O12 0.198893 0.087092 0.559366
O O13 0.690515 0.018923 0.425617
O O14 0.302892 0.813486 0.587248
O O15 0.071861 0.700674 0.638822
O O16 0.515084 0.572940 0.959545
#
# Coordination Sequence:
#
# PCOD9138708 Si02
#       8
#     4   4   4   4   4   4   4   4
#     4  12  25  44  78 109 148 212 254 314 401 465
#     4  10  23  46  67  99 149 192 252 315 380 443
#     4  11  24  45  71 108 141 200 257 308 383 467
#     4  12  26  50  72 111 156 194 256 324 381 466
#     4  10  24  44  70 102 146 196 258 312 382 455
#     4  11  25  46  69 112 149 202 256 318 389 461
#     4  11  28  47  75 111 154 198 250 326 383 456
#     4  11  23  48  74 100 155 204 251 329 385 463
#
# _framework density 25.684805000000001
#
# number of rings (size 3 to 8) (size 9 to 14) (size 15 to 20)
#    0.000    1.000    3.750    1.500    7.000    1.000 
#    6.750    0.000    0.000    0.000    0.000    0.000 
#    0.000    0.000    0.000    0.000    0.000    0.000 
#
# Total GULP energy -89336.456321 kJ/mol
# GULP energy per Si atom -5583.528520 kJ/mol
# Density = 2.562635 g / cm^3
# Si number density = 25.684805 Si / 1000 Ang^3
#
#
#
# Elastic Constant Matrix: (Units=GPa)
#
#
# Indices 1 2 3 4 5 6 
#
# 1 67.3120 41.8456 20.6814 0.0000 -28.5986 0.0000
# 2 41.8456 118.3365 36.5611 0.0000 -31.8486 0.0000
# 3 20.6814 36.5611 87.9422 0.0000 -28.1720 0.0000
# 4 0.0000 0.0000 0.0000 52.2456 0.0000 -18.5455
# 5 -28.5986 -31.8486 -28.1720 0.0000 44.2820 0.0000
# 6 0.0000 0.0000 0.0000 -18.5455 0.0000 28.0614
#
#
#
# Elastic Compliance Matrix: (Units=1/GPa)
#
#
# Indices 1 2 3 4 5 6 
#
# 1 0.022687 -0.005124 0.000387 0.000000 0.011212 0.000000
# 2 -0.005124 0.012070 -0.002628 0.000000 0.003700 0.000000
# 3 0.000387 -0.002628 0.014880 0.000000 0.007826 0.000000
# 4 0.000000 0.000000 0.000000 0.025007 0.000000 0.016527
# 5 0.011212 0.003700 0.007826 0.000000 0.037464 0.000000
# 6 0.000000 0.000000 0.000000 0.016527 0.000000 0.046559
#
#
# Mechanical properties :
#
#
# Convention : Reuss Voigt Hill
#
# Bulk Modulus (GPa) = 28.64793 52.41856 40.53324
# Shear Modulus (GPa) = 27.02245 36.55130 31.78688
#
# Velocity S-wave (km/s) = 3.24710 3.77645 3.52174
# Velocity P-wave (km/s) = 5.02355 6.28237 5.68789
#
# Compressibility (1/GPa) = 0.03490654
#
# Stress axis : x y z
#
# Youngs Moduli (GPa) = 44.07884 82.84905 67.20565
#
# Poissons Ratio (x) = 0.42454 -0.02601
# Poissons Ratio (y) = 0.22587 0.17660
# Poissons Ratio (z) = -0.01706 0.21770
#
# Static dielectric constant tensor:
#      x y z
#    x 2.079760 0.000000 0.026440 
#    y 0.000000 2.268490 0.000000 
#    z 0.026440 0.000000 2.052220 
# 
# From -- ./inp_files/22115.got.cif
#   From: 2010.05.17/outbox.cif.g08.bks.cpg/sg9_12_cif.got.tgz:22115.got - 2010.06.03 20:04:27.
