data_PCOD9138503
_publ_section_title
;
Structure prediction by ZEFSAII (Michael W. Deem and Ramdas Pophale) SiO2 
 PCOD9138503
Probable space group: C C
;
_chemical_formula_sum "Si O2"
_cell_formula_units_Z 32
_cell_length_a 8.634426
_cell_length_b 11.442490
_cell_length_c 18.942895
_cell_angle_alpha 90.000000
_cell_angle_beta 42.110190
_cell_angle_gamma 90.000000
_cell_volume 1254.980800
_symmetry_space_group_name_H-M "C C"
_symmetry_group_IT_number 9
_symmetry_cell_setting 'monoclinic'
loop_
_space_group_symop_operation_xyz
x,y,z
x,-y,1/2+z
1/2+x,1/2+y,z
1/2+x,1/2-y,1/2+z
loop_
_atom_site_type_symbol
_atom_site_label
_atom_site_fract_x
_atom_site_fract_y
_atom_site_fract_z
Si Si1 0.016070 0.835192 0.688970
Si Si2 0.494862 0.102786 0.340033
Si Si3 0.465361 0.915885 0.461478
Si Si4 0.711835 0.919624 0.160926
Si Si5 0.855520 0.804431 0.236746
Si Si6 0.645740 0.597600 0.347599
Si Si7 0.679031 0.029995 0.519028
Si Si8 0.663042 0.564061 0.728729
O O1 0.090447 0.706363 0.689853
O O2 0.214424 0.864552 0.563650
O O3 0.049769 0.949571 0.728402
O O4 0.743004 0.832830 0.763788
O O5 0.246878 0.136780 0.389149
O O6 0.448395 0.043085 0.431058
O O7 0.558365 0.006435 0.258836
O O8 0.614027 0.845133 0.353770
O O9 0.426028 0.078577 0.618230
O O10 0.621916 0.931571 0.479723
O O11 0.908800 0.879754 0.149875
O O12 0.770771 0.987087 0.068712
O O13 0.816565 0.668361 0.237354
O O14 0.033745 0.828715 0.237912
O O15 0.373941 0.620623 0.428471
O O16 0.647231 0.464832 0.317014
#
# Coordination Sequence:
#
# PCOD9138503 Si02
#       8
#     4   4   4   4   4   4   4   4
#     4  11  22  43  68  94 137 180 225 283 351 409
#     4  11  25  42  69 100 140 178 231 288 346 422
#     4  10  23  44  67  95 134 177 223 286 348 414
#     4  11  23  41  70  99 135 177 231 280 348 418
#     4  11  23  44  69 100 136 185 226 282 354 422
#     4  12  24  42  71  98 140 185 234 285 354 416
#     4  11  24  41  70  98 137 181 226 296 346 415
#     4  11  22  43  68  98 143 175 226 294 349 408
#
# _framework density 25.498397000000001
#
# number of rings (size 3 to 8) (size 9 to 14) (size 15 to 20)
#    0.000    1.000    6.250    0.750    3.500    0.000 
#    0.000    0.000    2.750    0.000    0.000    0.000 
#    0.000    0.000    0.000    0.000    0.000    0.000 
#
# Total GULP energy -89127.234508 kJ/mol
# GULP energy per Si atom -5570.452157 kJ/mol
# Density = 2.544036 g / cm^3
# Si number density = 25.498397 Si / 1000 Ang^3
#
#
#
# Elastic Constant Matrix: (Units=GPa)
#
#
# Indices 1 2 3 4 5 6 
#
# 1 142.3097 29.6819 22.5148 0.0001 -2.1423 -0.0001
# 2 29.6819 51.4045 6.6409 0.0001 2.8164 -0.0001
# 3 22.5148 6.6409 85.9295 0.0003 5.3649 -0.0001
# 4 0.0001 0.0001 0.0003 22.0632 -0.0001 9.4798
# 5 -2.1423 2.8164 5.3649 -0.0001 47.5984 0.0001
# 6 -0.0001 -0.0001 -0.0001 9.4798 0.0001 47.7027
#
#
#
# Elastic Compliance Matrix: (Units=1/GPa)
#
#
# Indices 1 2 3 4 5 6 
#
# 1 0.008294 -0.004594 -0.001872 0.000000 0.000856 0.000000
# 2 -0.004594 0.022242 -0.000423 0.000000 -0.001475 0.000000
# 3 -0.001872 -0.000423 0.012250 0.000000 -0.001440 0.000000
# 4 0.000000 0.000000 0.000000 0.049556 0.000000 -0.009848
# 5 0.000856 -0.001475 -0.001440 0.000000 0.021297 0.000000
# 6 0.000000 0.000000 0.000000 -0.009848 0.000000 0.022920
#
#
# Mechanical properties :
#
#
# Convention : Reuss Voigt Hill
#
# Bulk Modulus (GPa) = 34.47256 44.14654 39.30955
# Shear Modulus (GPa) = 31.24863 38.19326 34.72095
#
# Velocity S-wave (km/s) = 3.50453 3.87443 3.69411
# Velocity P-wave (km/s) = 5.47033 6.11277 5.80045
#
# Compressibility (1/GPa) = 0.02900858
#
# Stress axis : x y z
#
# Youngs Moduli (GPa) = 120.56671 44.96027 81.62985
#
# Poissons Ratio (x) = 0.20656 0.15278
# Poissons Ratio (y) = 0.55392 0.03453
# Poissons Ratio (z) = 0.22565 0.01902
#
# Static dielectric constant tensor:
#      x y z
#    x 2.161700 0.000000 0.051640 
#    y 0.000000 2.133110 0.000000 
#    z 0.051640 0.000000 2.066520 
# 
# From -- ./inp_files/29380.got.cif
#   From: 2010.05.17/outbox.cif.g08.bks.cpg/sg9_15_cif.got.tgz:29380.got - 2010.06.03 20:04:27.
