data_PCOD9138788
_publ_section_title
;
Structure prediction by ZEFSAII (Michael W. Deem and Ramdas Pophale) SiO2 
 PCOD9138788
Probable space group: C C
;
_chemical_formula_sum "Si O2"
_cell_formula_units_Z 32
_cell_length_a 9.442165
_cell_length_b 14.321715
_cell_length_c 12.975885
_cell_angle_alpha 90.000000
_cell_angle_beta 127.413471
_cell_angle_gamma 90.000000
_cell_volume 1393.711046
_symmetry_space_group_name_H-M "C C"
_symmetry_group_IT_number 9
_symmetry_cell_setting 'monoclinic'
loop_
_space_group_symop_operation_xyz
x,y,z
x,-y,1/2+z
1/2+x,1/2+y,z
1/2+x,1/2-y,1/2+z
loop_
_atom_site_type_symbol
_atom_site_label
_atom_site_fract_x
_atom_site_fract_y
_atom_site_fract_z
Si Si1 0.849690 0.333822 0.493500
Si Si2 0.333946 0.796577 0.060150
Si Si3 0.736387 0.196831 0.804475
Si Si4 0.266884 0.996860 0.599746
Si Si5 0.441248 0.482039 0.110137
Si Si6 0.506790 0.291501 0.245794
Si Si7 0.224769 0.631596 0.134598
Si Si8 0.178106 0.479350 0.821427
O O1 0.743600 0.414296 0.507364
O O2 0.714379 0.278957 0.362187
O O3 0.935900 0.268918 0.619483
O O4 0.017405 0.380267 0.509182
O O5 0.547826 0.788846 0.163236
O O6 0.275394 0.903448 0.046492
O O7 0.264438 0.739051 0.128507
O O8 0.257055 0.750395 0.922214
O O9 0.891581 0.228997 0.796314
O O10 0.742315 0.085566 0.828529
O O11 0.112515 0.997852 0.615677
O O12 0.464172 0.981245 0.734618
O O13 0.482359 0.399808 0.206761
O O14 0.366305 0.574022 0.130928
O O15 0.279681 0.446943 0.967072
O O16 0.230467 0.586343 0.249428
#
# Coordination Sequence:
#
# PCOD9138788 Si02
#       8
#     4   4   4   4   4   4   4   4
#     4  11  28  50  73 106 150 189 249 304 370 443
#     4  11  25  44  77 103 149 194 246 296 370 435
#     4  11  23  45  70 109 144 190 244 304 366 433
#     4  10  26  48  69 108 144 194 244 305 366 442
#     4  12  25  43  79 103 147 196 245 304 372 434
#     4  12  27  47  76 108 149 194 247 300 376 436
#     4  11  25  46  75 107 145 194 241 309 361 438
#     4  10  23  47  69 104 152 189 248 304 369 437
#
# _framework density 22.960284000000001
#
# number of rings (size 3 to 8) (size 9 to 14) (size 15 to 20)
#    0.000    1.000    2.500    2.250    8.750    1.000 
#    0.000    0.000    0.000    0.000    0.000    0.000 
#    0.000    0.000    0.000    0.000    0.000    0.000 
#
# Total GULP energy -89596.668140 kJ/mol
# GULP energy per Si atom -5599.791759 kJ/mol
# Density = 2.290803 g / cm^3
# Si number density = 22.960284 Si / 1000 Ang^3
#
#
#
# Elastic Constant Matrix: (Units=GPa)
#
#
# Indices 1 2 3 4 5 6 
#
# 1 90.1495 39.6918 13.3505 0.0000 4.7779 0.0000
# 2 39.6918 92.4308 41.5606 0.0000 -0.5153 0.0000
# 3 13.3505 41.5606 122.1767 0.0000 -0.8151 0.0000
# 4 0.0000 0.0000 0.0000 33.6466 0.0000 -0.2074
# 5 4.7779 -0.5153 -0.8151 0.0000 9.0745 0.0000
# 6 0.0000 0.0000 0.0000 -0.2074 0.0000 33.3982
#
#
#
# Elastic Compliance Matrix: (Units=1/GPa)
#
#
# Indices 1 2 3 4 5 6 
#
# 1 0.014249 -0.006421 0.000575 0.000000 -0.007815 0.000000
# 2 -0.006421 0.015667 -0.004602 0.000000 0.003857 0.000000
# 3 0.000575 -0.004602 0.009690 0.000000 0.000306 0.000000
# 4 0.000000 0.000000 0.000000 0.029722 0.000000 0.000185
# 5 -0.007815 0.003857 0.000306 0.000000 0.114561 0.000000
# 6 0.000000 0.000000 0.000000 0.000185 0.000000 0.029943
#
#
# Mechanical properties :
#
#
# Convention : Reuss Voigt Hill
#
# Bulk Modulus (GPa) = 53.44872 54.88475 54.16673
# Shear Modulus (GPa) = 20.75007 29.23412 24.99210
#
# Velocity S-wave (km/s) = 3.00948 3.57213 3.30281
# Velocity P-wave (km/s) = 5.95024 6.40075 6.17960
#
# Compressibility (1/GPa) = 0.01870952
#
# Stress axis : x y z
#
# Youngs Moduli (GPa) = 70.18152 63.82880 103.20410
#
# Poissons Ratio (x) = 0.40984 -0.05935
# Poissons Ratio (y) = 0.45062 0.47495
# Poissons Ratio (z) = -0.04036 0.29374
#
# Static dielectric constant tensor:
#      x y z
#    x 1.850480 0.000000 0.016220 
#    y 0.000000 1.850150 0.000000 
#    z 0.016220 0.000000 1.839050 
# 
# From -- ./inp_files/23438.got.cif
#   From: 2010.05.17/outbox.cif.g08.bks.cpg/sg9_12_cif.got.tgz:23438.got - 2010.06.03 20:04:27.
