data_PCOD9138886
_publ_section_title
;
Structure prediction by ZEFSAII (Michael W. Deem and Ramdas Pophale) SiO2 
 PCOD9138886
Probable space group: C C
;
_chemical_formula_sum "Si O2"
_cell_formula_units_Z 28
_cell_length_a 5.358931
_cell_length_b 28.891236
_cell_length_c 7.977833
_cell_angle_alpha 90.000000
_cell_angle_beta 118.638051
_cell_angle_gamma 90.000000
_cell_volume 1084.071547
_symmetry_space_group_name_H-M "C C"
_symmetry_group_IT_number 9
_symmetry_cell_setting 'monoclinic'
loop_
_space_group_symop_operation_xyz
x,y,z
x,-y,1/2+z
1/2+x,1/2+y,z
1/2+x,1/2-y,1/2+z
loop_
_atom_site_type_symbol
_atom_site_label
_atom_site_fract_x
_atom_site_fract_y
_atom_site_fract_z
Si Si1 0.740770 0.185301 0.748940
Si Si2 0.625556 0.365126 0.821132
Si Si3 0.024969 0.895493 0.166938
Si Si4 0.023252 0.649782 0.003033
Si Si5 0.261113 0.786916 0.648873
Si Si6 0.758472 0.547163 0.222928
Si Si7 0.389989 0.516836 0.423704
O O1 0.778744 0.138298 0.657975
O O2 0.522046 0.179214 0.829465
O O3 0.724525 0.232553 0.641584
O O4 0.031845 0.192411 0.946223
O O5 0.708479 0.312345 0.807827
O O6 0.825880 0.398895 0.774744
O O7 0.319744 0.375088 0.636955
O O8 0.611000 0.375965 0.011157
O O9 0.935172 0.947790 0.095922
O O10 0.284202 0.888429 0.381381
O O11 0.030295 0.689241 0.150669
O O12 0.603225 0.534059 0.347867
O O13 0.514896 0.532664 0.014493
O O14 0.053675 0.520608 0.279254
#
# Coordination Sequence:
#
# PCOD9138886 Si02
#       7
#     4   4   4   4   4   4   4
#     4  10  24  39  63  96 131 181 231 291 351 419
#     4  10  25  42  69  97 136 184 234 288 357 423
#     4  10  25  42  69  97 136 184 234 288 357 423
#     4  10  24  42  62  98 134 186 230 292 356 408
#     4  10  24  39  63  96 131 181 231 291 351 419
#     4  11  26  46  74 109 142 188 236 293 365 428
#     4  11  26  46  74 109 142 188 236 293 365 428
#
# _framework density 25.828552999999999
#
# number of rings (size 3 to 8) (size 9 to 14) (size 15 to 20)
#    0.000    1.714    0.000    0.857   16.000    5.714 
#    0.000    0.000    0.000    0.000    0.000    0.000 
#    0.000    0.000    0.000    0.000    0.000    0.000 
#
# Total GULP energy -78225.965933 kJ/mol
# GULP energy per Si atom -5587.568995 kJ/mol
# Density = 2.576977 g / cm^3
# Si number density = 25.828553 Si / 1000 Ang^3
#
#
#
# Elastic Constant Matrix: (Units=GPa)
#
#
# Indices 1 2 3 4 5 6 
#
# 1 86.1628 11.0877 9.3704 0.0000 -0.6513 0.0000
# 2 11.0877 80.8797 6.2507 0.0000 -0.2715 0.0000
# 3 9.3704 6.2507 79.5301 0.0000 1.2259 0.0000
# 4 0.0000 0.0000 0.0000 44.1082 0.0000 0.5494
# 5 -0.6513 -0.2715 1.2259 0.0000 46.5085 0.0000
# 6 0.0000 0.0000 0.0000 0.5494 0.0000 22.9657
#
#
#
# Elastic Compliance Matrix: (Units=1/GPa)
#
#
# Indices 1 2 3 4 5 6 
#
# 1 0.011945 -0.001537 -0.001290 0.000000 0.000192 0.000000
# 2 -0.001537 0.012638 -0.000813 0.000000 0.000074 0.000000
# 3 -0.001290 -0.000813 0.012795 0.000000 -0.000360 0.000000
# 4 0.000000 0.000000 0.000000 0.022678 0.000000 -0.000543
# 5 0.000192 0.000074 -0.000360 0.000000 0.021514 0.000000
# 6 0.000000 0.000000 0.000000 -0.000543 0.000000 0.043556
#
#
# Mechanical properties :
#
#
# Convention : Reuss Voigt Hill
#
# Bulk Modulus (GPa) = 33.22446 33.33226 33.27836
# Shear Modulus (GPa) = 35.10244 37.37406 36.23825
#
# Velocity S-wave (km/s) = 3.69054 3.80808 3.74977
# Velocity P-wave (km/s) = 5.57238 5.68054 5.62672
#
# Compressibility (1/GPa) = 0.03009830
#
# Stress axis : x y z
#
# Youngs Moduli (GPa) = 83.71388 79.12716 78.15383
#
# Poissons Ratio (x) = 0.12164 0.10079
# Poissons Ratio (y) = 0.12869 0.06356
# Poissons Ratio (z) = 0.10796 0.06435
#
# Static dielectric constant tensor:
#      x y z
#    x 2.234030 0.000000 0.004190 
#    y 0.000000 2.180140 0.000000 
#    z 0.004190 0.000000 2.054570 
# 
# From -- ./inp_files/4533.got.cif
#   From: 2010.05.17/outbox.cif.g08.bks.cpg/sg9_3_cif.got.tgz:4533.got - 2010.06.03 20:04:27.
