data_PCOD9138758
_publ_section_title
;
Structure prediction by ZEFSAII (Michael W. Deem and Ramdas Pophale) SiO2 
 PCOD9138758
Probable space group: C C
;
_chemical_formula_sum "Si O2"
_cell_formula_units_Z 20
_cell_length_a 9.476260
_cell_length_b 10.318663
_cell_length_c 9.391924
_cell_angle_alpha 90.000000
_cell_angle_beta 105.611576
_cell_angle_gamma 90.000000
_cell_volume 884.484148
_symmetry_space_group_name_H-M "C C"
_symmetry_group_IT_number 9
_symmetry_cell_setting 'monoclinic'
loop_
_space_group_symop_operation_xyz
x,y,z
x,-y,1/2+z
1/2+x,1/2+y,z
1/2+x,1/2-y,1/2+z
loop_
_atom_site_type_symbol
_atom_site_label
_atom_site_fract_x
_atom_site_fract_y
_atom_site_fract_z
Si Si1 0.997370 0.646581 0.645690
Si Si2 0.686737 0.619889 0.699256
Si Si3 0.113744 0.613712 0.134921
Si Si4 0.073273 0.109469 0.978064
Si Si5 0.250308 0.458818 0.390752
O O1 0.847887 0.663524 0.691289
O O2 0.992392 0.498083 0.585432
O O3 0.029714 0.753114 0.536176
O O4 0.140089 0.644287 0.786840
O O5 0.580311 0.735941 0.614160
O O6 0.643140 0.485301 0.614377
O O7 0.670875 0.613051 0.863859
O O8 0.180524 0.590101 0.310293
O O9 0.233170 0.565947 0.052557
O O10 0.915994 0.052042 0.889524
#
# Coordination Sequence:
#
# PCOD9138758 Si02
#       5
#     4   4   4   4   4
#     4  10  27  49  71 107 146 194 244 298 362 440
#     4  12  28  45  77 108 149 192 247 305 361 437
#     4  10  23  46  73  98 146 191 240 292 363 424
#     4  12  27  48  74 115 145 192 250 303 364 437
#     4  10  23  46  75  98 146 191 237 294 366 422
#
# _framework density 22.612053
#
# number of rings (size 3 to 8) (size 9 to 14) (size 15 to 20)
#    1.200    0.000    2.000    2.400    5.600    1.600 
#    0.000    0.000    0.000    0.000    0.000    0.000 
#    0.000    0.000    0.000    0.000    0.000    0.000 
#
# Total GULP energy -55777.119154 kJ/mol
# GULP energy per Si atom -5577.711915 kJ/mol
# Density = 2.256059 g / cm^3
# Si number density = 22.612053 Si / 1000 Ang^3
#
#
#
# Elastic Constant Matrix: (Units=GPa)
#
#
# Indices 1 2 3 4 5 6 
#
# 1 95.2522 29.6738 49.2136 0.0000 -19.1550 0.0000
# 2 29.6738 113.0863 36.2259 0.0000 -22.8103 0.0000
# 3 49.2136 36.2259 92.8276 0.0000 -34.0773 0.0000
# 4 0.0000 0.0000 0.0000 34.1243 0.0000 -3.9169
# 5 -19.1550 -22.8103 -34.0773 0.0000 40.4364 0.0000
# 6 0.0000 0.0000 0.0000 -3.9169 0.0000 18.2712
#
#
#
# Elastic Compliance Matrix: (Units=1/GPa)
#
#
# Indices 1 2 3 4 5 6 
#
# 1 0.014694 -0.001550 -0.007169 0.000000 0.000045 0.000000
# 2 -0.001550 0.010612 -0.002015 0.000000 0.003554 0.000000
# 3 -0.007169 -0.002015 0.019831 0.000000 0.012180 0.000000
# 4 0.000000 0.000000 0.000000 0.030044 0.000000 0.006441
# 5 0.000045 0.003554 0.012180 0.000000 0.037020 0.000000
# 6 0.000000 0.000000 0.000000 0.006441 0.000000 0.056112
#
#
# Mechanical properties :
#
#
# Convention : Reuss Voigt Hill
#
# Bulk Modulus (GPa) = 42.24914 59.04363 50.64639
# Shear Modulus (GPa) = 25.29461 30.96991 28.13226
#
# Velocity S-wave (km/s) = 3.34823 3.70485 3.53104
# Velocity P-wave (km/s) = 5.80279 6.66855 6.25068
#
# Compressibility (1/GPa) = 0.02366912
#
# Stress axis : x y z
#
# Youngs Moduli (GPa) = 68.05331 94.23440 50.42650
#
# Poissons Ratio (x) = 0.14609 0.36151
# Poissons Ratio (y) = 0.10550 0.10159
# Poissons Ratio (z) = 0.48787 0.18986
#
# Static dielectric constant tensor:
#      x y z
#    x 1.824470 0.000000 -0.025990 
#    y 0.000000 1.890550 0.000000 
#    z -0.025990 0.000000 1.849680 
# 
# From -- ./inp_files/4669.got.cif
#   From: 2010.05.17/outbox.cif.g08.bks.cpg/sg9_3_cif.got.tgz:4669.got - 2010.06.03 20:04:27.
