data_PCOD9138502
_publ_section_title
;
Structure prediction by ZEFSAII (Michael W. Deem and Ramdas Pophale) SiO2 
 PCOD9138502
Probable space group: C C
;
_chemical_formula_sum "Si O2"
_cell_formula_units_Z 28
_cell_length_a 16.208309
_cell_length_b 6.292575
_cell_length_c 11.064652
_cell_angle_alpha 90.000000
_cell_angle_beta 93.688560
_cell_angle_gamma 90.000000
_cell_volume 1126.168268
_symmetry_space_group_name_H-M "C C"
_symmetry_group_IT_number 9
_symmetry_cell_setting 'monoclinic'
loop_
_space_group_symop_operation_xyz
x,y,z
x,-y,1/2+z
1/2+x,1/2+y,z
1/2+x,1/2-y,1/2+z
loop_
_atom_site_type_symbol
_atom_site_label
_atom_site_fract_x
_atom_site_fract_y
_atom_site_fract_z
Si Si1 0.445530 0.114494 0.322600
Si Si2 0.385261 0.566281 0.005543
Si Si3 0.108685 0.558542 0.950876
Si Si4 0.304589 0.152477 0.700731
Si Si5 0.247638 0.252339 0.934397
Si Si6 0.180164 0.111263 0.290619
Si Si7 0.542090 0.366229 0.138031
O O1 0.397710 0.309852 0.380923
O O2 0.488530 0.196822 0.206245
O O3 0.518054 0.031292 0.415685
O O4 0.384723 0.926275 0.281393
O O5 0.334998 0.725730 0.087342
O O6 0.476133 0.515813 0.065023
O O7 0.332062 0.349835 0.993153
O O8 0.171388 0.371350 0.988491
O O9 0.148469 0.666300 0.835572
O O10 0.098735 0.740006 0.049433
O O11 0.255563 0.303526 0.789318
O O12 0.247069 0.939755 0.691161
O O13 0.224026 0.006720 0.909764
O O14 0.098284 0.989508 0.239213
#
# Coordination Sequence:
#
# PCOD9138502 Si02
#       7
#     4   4   4   4   4   4   4
#     4  12  24  46  69 106 141 184 237 296 352 431
#     4  12  24  44  75 100 146 188 234 304 351 424
#     4  12  24  45  72  99 146 185 229 292 356 421
#     4  10  23  44  67 106 135 186 234 287 356 415
#     4  10  24  46  66 102 141 181 239 283 352 416
#     4  10  24  47  66 103 142 180 235 293 342 429
#     4  12  25  44  69 108 133 188 238 283 363 414
#
# _framework density 24.863067999999998
#
# number of rings (size 3 to 8) (size 9 to 14) (size 15 to 20)
#    0.857    0.000    1.429    6.000    0.000    0.000 
#    5.143    0.000    0.000    0.000    0.000    0.000 
#    0.000    0.000    0.000    0.000    0.000    0.000 
#
# Total GULP energy -78285.628302 kJ/mol
# GULP energy per Si atom -5591.830593 kJ/mol
# Density = 2.480648 g / cm^3
# Si number density = 24.863068 Si / 1000 Ang^3
#
#
#
# Elastic Constant Matrix: (Units=GPa)
#
#
# Indices 1 2 3 4 5 6 
#
# 1 102.6447 34.5051 18.4505 0.0000 5.7503 0.0000
# 2 34.5051 63.4118 15.2379 0.0000 7.9676 0.0000
# 3 18.4505 15.2379 54.3724 0.0000 -7.5433 0.0000
# 4 0.0000 0.0000 0.0000 34.8376 0.0000 1.3623
# 5 5.7503 7.9676 -7.5433 0.0000 48.3224 0.0000
# 6 0.0000 0.0000 0.0000 1.3623 0.0000 55.9616
#
#
#
# Elastic Compliance Matrix: (Units=1/GPa)
#
#
# Indices 1 2 3 4 5 6 
#
# 1 0.012256 -0.005927 -0.002621 0.000000 -0.000890 0.000000
# 2 -0.005927 0.020413 -0.004169 0.000000 -0.003311 0.000000
# 3 -0.002621 -0.004169 0.021044 0.000000 0.004284 0.000000
# 4 0.000000 0.000000 0.000000 0.028732 0.000000 -0.000699
# 5 -0.000890 -0.003311 0.004284 0.000000 0.022015 0.000000
# 6 0.000000 0.000000 0.000000 -0.000699 0.000000 0.017886
#
#
# Mechanical properties :
#
#
# Convention : Reuss Voigt Hill
#
# Bulk Modulus (GPa) = 35.36299 39.64623 37.50461
# Shear Modulus (GPa) = 31.80520 37.97332 34.88926
#
# Velocity S-wave (km/s) = 3.58049 3.91231 3.75007
# Velocity P-wave (km/s) = 5.59886 6.03230 5.81961
#
# Compressibility (1/GPa) = 0.02827815
#
# Stress axis : x y z
#
# Youngs Moduli (GPa) = 81.59338 48.98838 47.51970
#
# Poissons Ratio (x) = 0.29036 0.12456
# Poissons Ratio (y) = 0.48362 0.19810
# Poissons Ratio (z) = 0.21388 0.20422
#
# Static dielectric constant tensor:
#      x y z
#    x 1.954620 0.000000 0.020090 
#    y 0.000000 2.000730 0.000000 
#    z 0.020090 0.000000 1.988190 
# 
# From -- ./inp_files/18836.got.cif
#   From: 2010.05.17/outbox.cif.g08.bks.cpg/sg9_10_cif.got.tgz:18836.got - 2010.06.03 20:04:27.
