data_PCOD9138442
_publ_section_title
;
Structure prediction by ZEFSAII (Michael W. Deem and Ramdas Pophale) SiO2 
 PCOD9138442
Probable space group: C C
;
_chemical_formula_sum "Si O2"
_cell_formula_units_Z 24
_cell_length_a 5.292366
_cell_length_b 19.656502
_cell_length_c 10.980035
_cell_angle_alpha 90.000000
_cell_angle_beta 121.592460
_cell_angle_gamma 90.000000
_cell_volume 972.960852
_symmetry_space_group_name_H-M "C C"
_symmetry_group_IT_number 9
_symmetry_cell_setting 'monoclinic'
loop_
_space_group_symop_operation_xyz
x,y,z
x,-y,1/2+z
1/2+x,1/2+y,z
1/2+x,1/2-y,1/2+z
loop_
_atom_site_type_symbol
_atom_site_label
_atom_site_fract_x
_atom_site_fract_y
_atom_site_fract_z
Si Si1 0.780750 0.368893 0.454510
Si Si2 0.339485 0.248422 0.337575
Si Si3 0.826075 0.062405 0.182680
Si Si4 0.375661 0.106945 0.232100
Si Si5 0.462683 0.582992 0.633718
Si Si6 0.899182 0.337047 0.076007
O O1 0.630994 0.295333 0.417724
O O2 0.685942 0.402673 0.559303
O O3 0.656478 0.406680 0.305921
O O4 0.133672 0.379563 0.563112
O O5 0.411855 0.186774 0.263154
O O6 0.065741 0.293858 0.223012
O O7 0.256687 0.215492 0.445751
O O8 0.663433 0.063521 0.272552
O O9 0.166504 0.081116 0.284741
O O10 0.829453 0.992283 0.111244
O O11 0.176746 0.631136 0.572522
O O12 0.678058 0.609038 0.581366
#
# Coordination Sequence:
#
# PCOD9138442 Si02
#       6
#     4   4   4   4   4   4
#     4   9  24  44  71 101 142 187 232 304 357 417
#     4  11  23  48  70 112 148 183 247 290 373 428
#     4  10  23  46  65 103 140 188 237 291 359 421
#     4  10  23  43  71 101 137 191 223 298 356 421
#     4  11  25  44  71 102 138 192 244 293 356 428
#     4  11  26  43  72 107 143 189 235 306 351 435
#
# _framework density 24.666972999999999
#
# number of rings (size 3 to 8) (size 9 to 14) (size 15 to 20)
#    1.000    0.667    1.667    1.000    4.667    9.333 
#    3.000    0.000    0.000    0.000    0.000    0.000 
#    0.000    0.000    0.000    0.000    0.000    0.000 
#
# Total GULP energy -67004.126080 kJ/mol
# GULP energy per Si atom -5583.677173 kJ/mol
# Density = 2.461083 g / cm^3
# Si number density = 24.666973 Si / 1000 Ang^3
#
#
#
# Elastic Constant Matrix: (Units=GPa)
#
#
# Indices 1 2 3 4 5 6 
#
# 1 182.7698 47.5467 20.7466 0.0000 -5.6326 0.0000
# 2 47.5467 101.4914 5.9232 0.0000 -3.9199 0.0000
# 3 20.7466 5.9232 88.7875 0.0000 2.7360 0.0000
# 4 0.0000 0.0000 0.0000 22.7607 0.0000 -10.2246
# 5 -5.6326 -3.9199 2.7360 0.0000 17.9863 0.0000
# 6 0.0000 0.0000 0.0000 -10.2246 0.0000 43.3539
#
#
#
# Elastic Compliance Matrix: (Units=1/GPa)
#
#
# Indices 1 2 3 4 5 6 
#
# 1 0.006420 -0.002867 -0.001358 0.000000 0.001592 0.000000
# 2 -0.002867 0.011265 -0.000130 0.000000 0.001577 0.000000
# 3 -0.001358 -0.000130 0.011657 0.000000 -0.002227 0.000000
# 4 0.000000 0.000000 0.000000 0.049142 0.000000 0.011590
# 5 0.001592 0.001577 -0.002227 0.000000 0.056779 0.000000
# 6 0.000000 0.000000 0.000000 0.011590 0.000000 0.025799
#
#
# Mechanical properties :
#
#
# Convention : Reuss Voigt Hill
#
# Bulk Modulus (GPa) = 48.46816 57.94242 53.20529
# Shear Modulus (GPa) = 28.30446 36.74232 32.52339
#
# Velocity S-wave (km/s) = 3.39110 3.86364 3.63505
# Velocity P-wave (km/s) = 5.91814 6.59124 6.26374
#
# Compressibility (1/GPa) = 0.02063210
#
# Stress axis : x y z
#
# Youngs Moduli (GPa) = 155.75222 88.77261 85.78186
#
# Poissons Ratio (x) = 0.25452 0.11650
# Poissons Ratio (y) = 0.44656 0.01116
# Poissons Ratio (z) = 0.21152 0.01155
#
# Static dielectric constant tensor:
#      x y z
#    x 2.012020 0.000000 -0.012310 
#    y 0.000000 1.991130 0.000000 
#    z -0.012310 0.000000 2.024230 
# 
# From -- ./inp_files/13412.got.cif
#   From: 2010.05.17/outbox.cif.g08.bks.cpg/sg9_7_cif.got.tgz:13412.got - 2010.06.03 20:04:27.
