data_PCOD9138946
_publ_section_title
;
Structure prediction by ZEFSAII (Michael W. Deem and Ramdas Pophale) SiO2 
 PCOD9138946
Probable space group: C C
;
_chemical_formula_sum "Si O2"
_cell_formula_units_Z 28
_cell_length_a 30.366252
_cell_length_b 5.127431
_cell_length_c 8.650496
_cell_angle_alpha 90.000000
_cell_angle_beta 60.764763
_cell_angle_gamma 90.000000
_cell_volume 1175.325404
_symmetry_space_group_name_H-M "C C"
_symmetry_group_IT_number 9
_symmetry_cell_setting 'monoclinic'
loop_
_space_group_symop_operation_xyz
x,y,z
x,-y,1/2+z
1/2+x,1/2+y,z
1/2+x,1/2-y,1/2+z
loop_
_atom_site_type_symbol
_atom_site_label
_atom_site_fract_x
_atom_site_fract_y
_atom_site_fract_z
Si Si1 0.335360 0.301604 0.421640
Si Si2 0.073743 0.660357 0.834199
Si Si3 0.187568 0.205774 0.148584
Si Si4 0.037438 0.138865 0.069822
Si Si5 0.724644 0.806188 0.751838
Si Si6 0.924639 0.832655 0.760223
Si Si7 0.387558 0.036170 0.089657
O O1 0.280967 0.327256 0.586375
O O2 0.370033 0.544884 0.314954
O O3 0.337468 0.131812 0.262893
O O4 0.370135 0.161799 0.489310
O O5 0.132435 0.698222 0.689797
O O6 0.056323 0.376229 0.925721
O O7 0.043995 0.753597 0.732354
O O8 0.067453 0.875567 0.980655
O O9 0.202000 0.410007 0.257551
O O10 0.194645 0.917404 0.207345
O O11 0.222414 0.238598 0.936784
O O12 0.979323 0.049987 0.145835
O O13 0.925093 0.582524 0.649220
O O14 0.916886 0.762507 0.951768
#
# Coordination Sequence:
#
# PCOD9138946 Si02
#       7
#     4   4   4   4   4   4   4
#     4  11  25  42  69 100 143 181 233 284 348 425
#     4  12  26  49  74 107 144 187 243 303 358 427
#     4  12  26  49  74 107 144 187 243 303 358 427
#     4  12  28  45  78 106 145 190 240 291 372 424
#     4  12  28  45  78 106 145 190 240 291 372 424
#     4  11  25  42  69 100 143 181 233 284 348 425
#     4  10  24  42  66  94 146 176 230 278 346 402
#
# _framework density 23.823191999999999
#
# number of rings (size 3 to 8) (size 9 to 14) (size 15 to 20)
#    0.000    0.571    0.000    6.857   16.000    0.000 
#    0.000    0.000    0.000    0.000    0.000    0.000 
#    0.000    0.000    0.000    0.000    0.000    0.000 
#
# Total GULP energy -78249.157540 kJ/mol
# GULP energy per Si atom -5589.225539 kJ/mol
# Density = 2.376897 g / cm^3
# Si number density = 23.823192 Si / 1000 Ang^3
#
#
#
# Elastic Constant Matrix: (Units=GPa)
#
#
# Indices 1 2 3 4 5 6 
#
# 1 43.0241 -4.5016 -4.1652 0.0000 -17.9946 0.0000
# 2 -4.5016 75.9063 13.4652 0.0000 -5.0619 0.0000
# 3 -4.1652 13.4652 78.9461 0.0000 -0.0960 0.0000
# 4 0.0000 0.0000 0.0000 30.9901 0.0000 4.4300
# 5 -17.9946 -5.0619 -0.0960 0.0000 50.6157 0.0000
# 6 0.0000 0.0000 0.0000 4.4300 0.0000 28.7769
#
#
#
# Elastic Compliance Matrix: (Units=1/GPa)
#
#
# Indices 1 2 3 4 5 6 
#
# 1 0.027796 0.002124 0.001117 0.000000 0.010096 0.000000
# 2 0.002124 0.013841 -0.002246 0.000000 0.002135 0.000000
# 3 0.001117 -0.002246 0.013109 0.000000 0.000197 0.000000
# 4 0.000000 0.000000 0.000000 0.032994 0.000000 -0.005079
# 5 0.010096 0.002135 0.000197 0.000000 0.023560 0.000000
# 6 0.000000 0.000000 0.000000 -0.005079 0.000000 0.035532
#
#
# Mechanical properties :
#
#
# Convention : Reuss Voigt Hill
#
# Bulk Modulus (GPa) = 17.62610 23.05258 20.33934
# Shear Modulus (GPa) = 30.53336 34.94841 32.74089
#
# Velocity S-wave (km/s) = 3.58392 3.83429 3.71122
# Velocity P-wave (km/s) = 4.95386 5.41294 5.18848
#
# Compressibility (1/GPa) = 0.05673404
#
# Stress axis : x y z
#
# Youngs Moduli (GPa) = 35.97667 72.24976 76.28283
#
# Poissons Ratio (x) = -0.15343 -0.08518
# Poissons Ratio (y) = -0.07640 0.17134
# Poissons Ratio (z) = -0.04017 0.16228
#
# Static dielectric constant tensor:
#      x y z
#    x 1.963170 0.000000 -0.033820 
#    y 0.000000 2.233150 0.000000 
#    z -0.033820 0.000000 1.870060 
# 
# From -- ./inp_files/4078.got.cif
#   From: 2010.05.17/outbox.cif.g08.bks.cpg/sg9_3_cif.got.tgz:4078.got - 2010.06.03 20:04:27.
