data_PCOD9138208
_publ_section_title
;
Structure prediction by ZEFSAII (Michael W. Deem and Ramdas Pophale) SiO2 
 PCOD9138208
Probable space group: C C
;
_chemical_formula_sum "Si O2"
_cell_formula_units_Z 24
_cell_length_a 16.171903
_cell_length_b 7.865958
_cell_length_c 14.491316
_cell_angle_alpha 90.000000
_cell_angle_beta 28.156625
_cell_angle_gamma 90.000000
_cell_volume 869.871945
_symmetry_space_group_name_H-M "C C"
_symmetry_group_IT_number 9
_symmetry_cell_setting 'monoclinic'
loop_
_space_group_symop_operation_xyz
x,y,z
x,-y,1/2+z
1/2+x,1/2+y,z
1/2+x,1/2-y,1/2+z
loop_
_atom_site_type_symbol
_atom_site_label
_atom_site_fract_x
_atom_site_fract_y
_atom_site_fract_z
Si Si1 0.834160 0.580431 0.311890
Si Si2 0.025660 0.279306 0.176447
Si Si3 0.002263 0.975830 0.550851
Si Si4 0.002440 0.432944 0.816280
Si Si5 0.626710 0.951753 0.367592
Si Si6 0.142256 0.894782 0.734779
O O1 0.843205 0.383932 0.342048
O O2 0.638354 0.601945 0.468977
O O3 0.907585 0.679949 0.329758
O O4 0.962402 0.574139 0.097724
O O5 0.117650 0.441546 0.135641
O O6 0.033755 0.139568 0.248383
O O7 0.041294 0.202429 0.060303
O O8 0.799834 0.022265 0.758251
O O9 0.044291 0.983470 0.402025
O O10 0.107571 0.402060 0.806876
O O11 0.834109 0.531376 0.026644
O O12 0.653611 0.783088 0.278851
#
# Coordination Sequence:
#
# PCOD9138208 Si02
#       6
#     4   4   4   4   4   4
#     4  10  23  41  65  92 134 163 217 272 310 386
#     4   9  21  40  68  96 121 173 215 259 326 384
#     4  12  24  35  69 102 124 166 224 269 319 379
#     4   9  20  41  66  90 132 166 214 262 318 382
#     4  11  23  38  63 100 126 168 217 266 318 383
#     4  11  21  43  69  96 129 170 217 268 323 390
#
# _framework density 27.59027
#
# number of rings (size 3 to 8) (size 9 to 14) (size 15 to 20)
#    1.000    0.667    3.333    2.000    4.667    1.333 
#    0.000    0.000    3.667    4.000    0.000    0.000 
#    0.000    0.000    0.000    0.000    0.000    0.000 
#
# Total GULP energy -66855.262778 kJ/mol
# GULP energy per Si atom -5571.271898 kJ/mol
# Density = 2.752747 g / cm^3
# Si number density = 27.590270 Si / 1000 Ang^3
#
#
#
# Elastic Constant Matrix: (Units=GPa)
#
#
# Indices 1 2 3 4 5 6 
#
# 1 220.1874 16.5623 64.2982 0.0000 1.5728 0.0000
# 2 16.5623 55.7844 9.1825 0.0000 7.8497 0.0000
# 3 64.2982 9.1825 119.9705 0.0000 -5.2048 0.0000
# 4 0.0000 0.0000 0.0000 22.4844 0.0000 17.8592
# 5 1.5728 7.8497 -5.2048 0.0000 61.6661 0.0000
# 6 0.0000 0.0000 0.0000 17.8592 0.0000 41.6371
#
#
#
# Elastic Compliance Matrix: (Units=1/GPa)
#
#
# Indices 1 2 3 4 5 6 
#
# 1 0.005460 -0.001118 -0.002851 0.000000 -0.000238 0.000000
# 2 -0.001118 0.018756 -0.000942 0.000000 -0.002439 0.000000
# 3 -0.002851 -0.000942 0.009980 0.000000 0.001035 0.000000
# 4 0.000000 0.000000 0.000000 0.067458 0.000000 -0.028934
# 5 -0.000238 -0.002439 0.001035 0.000000 0.016620 0.000000
# 6 0.000000 0.000000 0.000000 -0.028934 0.000000 0.036428
#
#
# Mechanical properties :
#
#
# Convention : Reuss Voigt Hill
#
# Bulk Modulus (GPa) = 41.02726 64.00316 52.51521
# Shear Modulus (GPa) = 28.96043 45.55080 37.25561
#
# Velocity S-wave (km/s) = 3.24336 4.06762 3.67865
# Velocity P-wave (km/s) = 5.37851 6.73119 6.09250
#
# Compressibility (1/GPa) = 0.02437404
#
# Stress axis : x y z
#
# Youngs Moduli (GPa) = 183.15266 53.31510 100.19677
#
# Poissons Ratio (x) = 0.05962 0.28566
# Poissons Ratio (y) = 0.20483 0.09439
# Poissons Ratio (z) = 0.52216 0.05022
#
# Static dielectric constant tensor:
#      x y z
#    x 2.236110 0.000000 -0.070800 
#    y 0.000000 2.401650 0.000000 
#    z -0.070800 0.000000 2.194170 
# 
# From -- ./inp_files/25885.got.cif
#   From: 2010.05.17/outbox.cif.g08.bks.cpg/sg9_13_cif.got.tgz:25885.got - 2010.06.03 20:04:27.
