data_PCOD9138596
_publ_section_title
;
Structure prediction by ZEFSAII (Michael W. Deem and Ramdas Pophale) SiO2 
 PCOD9138596
Probable space group: C C
;
_chemical_formula_sum "Si O2"
_cell_formula_units_Z 20
_cell_length_a 6.886205
_cell_length_b 15.581002
_cell_length_c 9.433626
_cell_angle_alpha 90.000000
_cell_angle_beta 70.444217
_cell_angle_gamma 90.000000
_cell_volume 953.785189
_symmetry_space_group_name_H-M "C C"
_symmetry_group_IT_number 9
_symmetry_cell_setting 'monoclinic'
loop_
_space_group_symop_operation_xyz
x,y,z
x,-y,1/2+z
1/2+x,1/2+y,z
1/2+x,1/2-y,1/2+z
loop_
_atom_site_type_symbol
_atom_site_label
_atom_site_fract_x
_atom_site_fract_y
_atom_site_fract_z
Si Si1 0.373450 0.895965 0.614190
Si Si2 0.083508 0.170650 0.969192
Si Si3 0.919930 0.651439 0.402931
Si Si4 0.749754 0.943633 0.673842
Si Si5 0.591422 0.563635 0.679672
O O1 0.301792 0.848584 0.490343
O O2 0.355600 0.833073 0.754695
O O3 0.604220 0.932708 0.571851
O O4 0.225224 0.977562 0.674765
O O5 0.028917 0.267322 0.945163
O O6 0.066105 0.113924 0.831856
O O7 0.913447 0.133481 0.119444
O O8 0.089102 0.576287 0.338840
O O9 0.726084 0.620133 0.539429
O O10 0.878916 0.029579 0.663687
#
# Coordination Sequence:
#
# PCOD9138596 Si02
#       5
#     4   4   4   4   4
#     4   9  22  44  64  94 137 174 229 264 331 412
#     4  11  22  43  66 101 136 173 223 282 335 399
#     4  10  23  45  64  99 138 173 220 280 341 390
#     4   9  23  42  67  92 132 180 221 272 333 398
#     4  11  22  42  71  92 133 180 231 272 330 407
#
# _framework density 20.969083000000001
#
# number of rings (size 3 to 8) (size 9 to 14) (size 15 to 20)
#    1.200    0.800    0.000    3.600    2.800    0.000 
#   14.400    0.000    0.000    0.000    0.000    0.000 
#    0.000    0.000    0.000    0.000    0.000    0.000 
#
# Total GULP energy -55738.107757 kJ/mol
# GULP energy per Si atom -5573.810776 kJ/mol
# Density = 2.092136 g / cm^3
# Si number density = 20.969083 Si / 1000 Ang^3
#
#
#
# Elastic Constant Matrix: (Units=GPa)
#
#
# Indices 1 2 3 4 5 6 
#
# 1 135.7691 52.2050 40.3323 0.0000 28.9796 0.0000
# 2 52.2050 91.8829 35.9725 0.0000 20.3244 0.0000
# 3 40.3323 35.9725 77.4568 0.0000 18.1982 0.0000
# 4 0.0000 0.0000 0.0000 32.3925 0.0000 4.7282
# 5 28.9796 20.3244 18.1982 0.0000 30.7019 0.0000
# 6 0.0000 0.0000 0.0000 4.7282 0.0000 12.7814
#
#
#
# Elastic Compliance Matrix: (Units=1/GPa)
#
#
# Indices 1 2 3 4 5 6 
#
# 1 0.010913 -0.003861 -0.002405 0.000000 -0.006320 0.000000
# 2 -0.003861 0.015684 -0.004287 0.000000 -0.004197 0.000000
# 3 -0.002405 -0.004287 0.017373 0.000000 -0.005190 0.000000
# 4 0.000000 0.000000 0.000000 0.032634 0.000000 -0.012072
# 5 -0.006320 -0.004197 -0.005190 0.000000 0.044391 0.000000
# 6 0.000000 0.000000 0.000000 -0.012072 0.000000 0.082705
#
#
# Mechanical properties :
#
#
# Convention : Reuss Voigt Hill
#
# Bulk Modulus (GPa) = 43.73716 62.45872 53.09794
# Shear Modulus (GPa) = 21.51206 26.94841 24.23023
#
# Velocity S-wave (km/s) = 3.20643 3.58879 3.40298
# Velocity P-wave (km/s) = 5.88315 6.85735 6.38885
#
# Compressibility (1/GPa) = 0.02286385
#
# Stress axis : x y z
#
# Youngs Moduli (GPa) = 91.63002 63.75859 57.56073
#
# Poissons Ratio (x) = 0.24619 0.13841
# Poissons Ratio (y) = 0.35382 0.24679
# Poissons Ratio (z) = 0.22034 0.27336
#
# Static dielectric constant tensor:
#      x y z
#    x 1.810430 0.000000 0.015500 
#    y 0.000000 1.719440 0.000000 
#    z 0.015500 0.000000 1.762570 
# 
# From -- ./inp_files/3690.got.cif
#   From: 2010.05.17/outbox.cif.g08.bks.cpg/sg9_2_cif.got.tgz:3690.got - 2010.06.03 20:04:27.
