data_PCOD9138722
_publ_section_title
;
Structure prediction by ZEFSAII (Michael W. Deem and Ramdas Pophale) SiO2 
 PCOD9138722
Probable space group: C C
;
_chemical_formula_sum "Si O2"
_cell_formula_units_Z 20
_cell_length_a 8.664477
_cell_length_b 11.299221
_cell_length_c 14.704241
_cell_angle_alpha 90.000000
_cell_angle_beta 145.991908
_cell_angle_gamma 90.000000
_cell_volume 805.167137
_symmetry_space_group_name_H-M "C C"
_symmetry_group_IT_number 9
_symmetry_cell_setting 'monoclinic'
loop_
_space_group_symop_operation_xyz
x,y,z
x,-y,1/2+z
1/2+x,1/2+y,z
1/2+x,1/2-y,1/2+z
loop_
_atom_site_type_symbol
_atom_site_label
_atom_site_fract_x
_atom_site_fract_y
_atom_site_fract_z
Si Si1 0.155840 0.251898 0.412870
Si Si2 0.179846 0.868241 0.748522
Si Si3 0.877936 0.029047 0.371559
Si Si4 0.827388 0.355740 0.611461
Si Si5 0.598471 0.381716 0.166601
O O1 0.296898 0.205873 0.389456
O O2 0.372997 0.316662 0.582999
O O3 0.030204 0.135027 0.395340
O O4 0.892391 0.336927 0.271914
O O5 0.317924 0.854333 0.717039
O O6 0.162130 0.007552 0.763008
O O7 0.925516 0.059380 0.501044
O O8 0.556634 0.045400 0.195247
O O9 0.039240 0.907856 0.433520
O O10 0.937733 0.230257 0.629082
#
# Coordination Sequence:
#
# PCOD9138722 Si02
#       5
#     4   4   4   4   4
#     4  11  24  48  69 103 141 184 230 287 346 409
#     4  11  26  44  74 101 141 182 231 287 346 411
#     4  10  23  46  70 100 138 185 224 297 334 416
#     4  10  25  44  71 101 142 178 238 279 352 402
#     4  10  24  46  68 101 140 181 229 288 338 412
#
# _framework density 24.839562000000001
#
# number of rings (size 3 to 8) (size 9 to 14) (size 15 to 20)
#    0.000    1.600    2.000    0.000   14.000    3.200 
#   10.800    0.000    0.000    0.000    0.000    0.000 
#    0.000    0.000    0.000    0.000    0.000    0.000 
#
# Total GULP energy -55968.151050 kJ/mol
# GULP energy per Si atom -5596.815105 kJ/mol
# Density = 2.478303 g / cm^3
# Si number density = 24.839562 Si / 1000 Ang^3
#
#
#
# Elastic Constant Matrix: (Units=GPa)
#
#
# Indices 1 2 3 4 5 6 
#
# 1 53.8896 32.8284 -2.6591 0.0010 14.9322 0.0004
# 2 32.8284 163.9543 19.7098 0.0011 11.3128 0.0003
# 3 -2.6591 19.7098 28.0580 0.0076 8.2755 0.0007
# 4 0.0010 0.0011 0.0076 33.2941 0.0022 15.7371
# 5 14.9322 11.3128 8.2755 0.0022 28.8288 0.0008
# 6 0.0004 0.0003 0.0007 15.7371 0.0008 38.2065
#
#
#
# Elastic Compliance Matrix: (Units=1/GPa)
#
#
# Indices 1 2 3 4 5 6 
#
# 1 0.026561 -0.005602 0.010774 -0.000003 -0.014652 0.000001
# 2 -0.005602 0.007895 -0.006576 0.000002 0.001691 -0.000001
# 3 0.010774 -0.006576 0.046066 -0.000012 -0.016224 0.000004
# 4 -0.000003 0.000002 -0.000012 0.037297 0.000002 -0.015362
# 5 -0.014652 0.001691 -0.016224 0.000002 0.046270 -0.000001
# 6 0.000001 -0.000001 0.000004 -0.015362 -0.000001 0.032501
#
#
# Mechanical properties :
#
#
# Convention : Reuss Voigt Hill
#
# Bulk Modulus (GPa) = 12.86776 38.40667 25.63721
# Shear Modulus (GPa) = 22.19245 33.13406 27.66325
#
# Velocity S-wave (km/s) = 2.99228 3.65625 3.34080
# Velocity P-wave (km/s) = 4.13883 5.77232 5.02243
#
# Compressibility (1/GPa) = 0.07771360
#
# Stress axis : x y z
#
# Youngs Moduli (GPa) = 37.64942 126.66516 21.70804
#
# Poissons Ratio (x) = 0.70964 -0.23389
# Poissons Ratio (y) = 0.21093 0.14275
# Poissons Ratio (z) = -0.40564 0.83291
#
# Static dielectric constant tensor:
#      x y z
#    x 1.990090 0.000000 0.010210 
#    y 0.000000 1.969250 0.000000 
#    z 0.010210 0.000000 1.977370 
# 
# From -- ./inp_files/4650.got.cif
#   From: 2010.05.17/outbox.cif.g08.bks.cpg/sg9_3_cif.got.tgz:4650.got - 2010.06.03 20:04:27.
