data_PCOD9138400
_publ_section_title
;
Structure prediction by ZEFSAII (Michael W. Deem and Ramdas Pophale) SiO2 
 PCOD9138400
Probable space group: C C
;
_chemical_formula_sum "Si O2"
_cell_formula_units_Z 24
_cell_length_a 5.309543
_cell_length_b 25.814029
_cell_length_c 8.161314
_cell_angle_alpha 90.000000
_cell_angle_beta 115.237436
_cell_angle_gamma 90.000000
_cell_volume 1011.823960
_symmetry_space_group_name_H-M "C C"
_symmetry_group_IT_number 9
_symmetry_cell_setting 'monoclinic'
loop_
_space_group_symop_operation_xyz
x,y,z
x,-y,1/2+z
1/2+x,1/2+y,z
1/2+x,1/2-y,1/2+z
loop_
_atom_site_type_symbol
_atom_site_label
_atom_site_fract_x
_atom_site_fract_y
_atom_site_fract_z
Si Si1 0.089690 0.980891 0.612120
Si Si2 0.588671 0.671713 0.765193
Si Si3 0.002692 0.182617 0.380614
Si Si4 0.810157 0.424891 0.953295
Si Si5 0.720105 0.789043 0.463438
Si Si6 0.372657 0.430278 0.259315
O O1 0.321294 0.948551 0.773908
O O2 0.899986 0.941767 0.457257
O O3 0.219521 0.025483 0.535223
O O4 0.903048 0.013998 0.683695
O O5 0.426918 0.687393 0.553096
O O6 0.417979 0.685459 0.881637
O O7 0.614515 0.609207 0.775423
O O8 0.896252 0.695687 0.850680
O O9 0.104905 0.123697 0.391286
O O10 0.237009 0.227375 0.435412
O O11 0.802965 0.195166 0.171986
O O12 0.095006 0.406042 0.111158
#
# Coordination Sequence:
#
# PCOD9138400 Si02
#       6
#     4   4   4   4   4   4
#     4  10  23  43  67 110 140 194 248 313 366 448
#     4  12  28  51  76 111 152 200 249 313 378 451
#     4  12  27  50  77 110 151 199 252 312 381 451
#     4  11  23  45  71 105 144 195 248 306 376 444
#     4  12  30  48  78 111 151 198 255 311 377 453
#     4  11  23  43  73 101 148 192 248 307 376 443
#
# _framework density 23.719539999999999
#
# number of rings (size 3 to 8) (size 9 to 14) (size 15 to 20)
#    0.000    0.667    3.333    3.000    2.333    4.000 
#   12.000    0.000    0.000    0.000    0.000    0.000 
#    0.000    0.000    0.000    0.000    0.000    0.000 
#
# Total GULP energy -67042.574966 kJ/mol
# GULP energy per Si atom -5586.881247 kJ/mol
# Density = 2.366555 g / cm^3
# Si number density = 23.719540 Si / 1000 Ang^3
#
#
#
# Elastic Constant Matrix: (Units=GPa)
#
#
# Indices 1 2 3 4 5 6 
#
# 1 79.5384 15.9617 54.8214 0.0000 -0.5538 0.0000
# 2 15.9617 107.5263 51.4881 0.0000 -2.1730 0.0000
# 3 54.8214 51.4881 188.8816 0.0000 -17.7735 0.0000
# 4 0.0000 0.0000 0.0000 -146.9783 0.0000 -27.3712
# 5 -0.5538 -2.1730 -17.7735 0.0000 26.8848 0.0000
# 6 0.0000 0.0000 0.0000 -27.3712 0.0000 27.3150
#
#
#
# Elastic Compliance Matrix: (Units=1/GPa)
#
#
# Indices 1 2 3 4 5 6 
#
# 1 0.015928 -0.000091 -0.004871 0.000000 -0.002899 0.000000
# 2 -0.000091 0.010729 -0.003004 0.000000 -0.001121 0.000000
# 3 -0.004871 -0.003004 0.007992 0.000000 0.004940 0.000000
# 4 0.000000 0.000000 0.000000 -0.005734 0.000000 -0.005746
# 5 -0.002899 -0.001121 0.004940 0.000000 0.040311 0.000000
# 6 0.000000 0.000000 0.000000 -0.005746 0.000000 0.030853
#
#
# Mechanical properties :
#
#
# Convention : Reuss Voigt Hill
#
# Bulk Modulus (GPa) = 53.42471 68.94318 61.18394
# Shear Modulus (GPa) = 40.89992 -1.64403 19.62794
#
# Velocity S-wave (km/s) = 4.15699 -0.83344 2.87975
# Velocity P-wave (km/s) = 6.75375 5.31064 6.07520
#
# Compressibility (1/GPa) = 0.01871793
#
# Stress axis : x y z
#
# Youngs Moduli (GPa) = 62.78291 93.20329 125.12762
#
# Poissons Ratio (x) = 0.00844 0.60951
# Poissons Ratio (y) = 0.00568 0.37587
# Poissons Ratio (z) = 0.30582 0.27997
#
# Static dielectric constant tensor:
#      x y z
#    x 1.911550 0.000000 -0.011160 
#    y 0.000000 1.901350 0.000000 
#    z -0.011160 0.000000 1.947750 
# 
# From -- ./inp_files/4098.got.cif
#   From: 2010.05.17/outbox.cif.g08.bks.cpg/sg9_3_cif.got.tgz:4098.got - 2010.06.03 20:04:27.
