data_PCOD9138307
_publ_section_title
;
Structure prediction by ZEFSAII (Michael W. Deem and Ramdas Pophale) SiO2 
 PCOD9138307
Probable space group: C C
;
_chemical_formula_sum "Si O2"
_cell_formula_units_Z 32
_cell_length_a 24.039683
_cell_length_b 5.346880
_cell_length_c 27.116162
_cell_angle_alpha 90.000000
_cell_angle_beta 160.077374
_cell_angle_gamma 90.000000
_cell_volume 1187.666020
_symmetry_space_group_name_H-M "C C"
_symmetry_group_IT_number 9
_symmetry_cell_setting 'monoclinic'
loop_
_space_group_symop_operation_xyz
x,y,z
x,-y,1/2+z
1/2+x,1/2+y,z
1/2+x,1/2-y,1/2+z
loop_
_atom_site_type_symbol
_atom_site_label
_atom_site_fract_x
_atom_site_fract_y
_atom_site_fract_z
Si Si1 0.784480 0.377661 0.005520
Si Si2 0.098568 0.065505 0.249436
Si Si3 0.198272 0.565455 0.276078
Si Si4 0.895031 0.670637 0.185750
Si Si5 0.512369 0.122397 0.020000
Si Si6 0.901872 0.329478 0.839806
Si Si7 0.165697 0.033308 0.575762
Si Si8 0.631187 0.966687 0.449772
O O1 0.892687 0.567172 0.128647
O O2 0.910344 0.150570 0.098747
O O3 0.695564 0.464911 0.881985
O O4 0.649600 0.270325 0.930754
O O5 0.177508 0.309300 0.288729
O O6 0.119350 0.809305 0.236800
O O7 0.386501 0.650512 0.426765
O O8 0.101269 0.535105 0.143521
O O9 0.786659 0.483512 0.130352
O O10 0.064758 0.671672 0.355205
O O11 0.803523 0.931858 0.111757
O O12 0.404177 0.932894 0.896880
O O13 0.647247 0.229703 0.094756
O O14 0.010239 0.516604 0.895199
O O15 0.732143 0.328364 0.670352
O O16 0.993402 0.068291 0.913807
#
# Coordination Sequence:
#
# PCOD9138307 Si02
#       8
#     4   4   4   4   4   4   4   4
#     4  12  25  44  74  98 144 192 239 298 372 430
#     4  12  30  50  73 106 141 190 252 314 360 424
#     4  12  30  50  73 106 141 190 252 314 360 424
#     4  10  23  42  68 106 145 185 235 290 359 443
#     4  12  25  44  74  98 144 192 239 298 372 430
#     4  10  23  42  68 106 145 185 235 290 359 443
#     4  10  23  42  68 106 145 185 235 290 359 443
#     4  10  23  42  68 106 145 185 235 290 359 443
#
# _framework density 26.9436
#
# number of rings (size 3 to 8) (size 9 to 14) (size 15 to 20)
#    0.000    1.000    2.500    2.250   10.500    0.000 
#    0.000    0.000    0.000    0.000    0.000    0.000 
#    0.000    0.000    0.000    0.000    0.000    0.000 
#
# Total GULP energy -89656.525634 kJ/mol
# GULP energy per Si atom -5603.532852 kJ/mol
# Density = 2.688228 g / cm^3
# Si number density = 26.943600 Si / 1000 Ang^3
#
#
#
# Elastic Constant Matrix: (Units=GPa)
#
#
# Indices 1 2 3 4 5 6 
#
# 1 136.4982 58.3864 29.4676 -0.0084 -38.5301 0.0292
# 2 58.3864 109.1753 2.8787 0.0210 -11.1193 0.1068
# 3 29.4676 2.8787 117.0803 -0.0040 -37.0434 0.0072
# 4 -0.0084 0.0210 -0.0040 35.7034 0.0006 -7.7870
# 5 -38.5301 -11.1193 -37.0434 0.0006 59.7432 0.0003
# 6 0.0292 0.1068 0.0072 -7.7870 0.0003 43.1378
#
#
#
# Elastic Compliance Matrix: (Units=1/GPa)
#
#
# Indices 1 2 3 4 5 6 
#
# 1 0.011553 -0.005559 -0.000922 0.000007 0.005844 0.000007
# 2 -0.005559 0.012026 0.000843 -0.000015 -0.000824 -0.000029
# 3 -0.000922 0.000843 0.010716 0.000000 0.006207 -0.000003
# 4 0.000007 -0.000015 0.000000 0.029156 0.000002 0.005263
# 5 0.005844 -0.000824 0.006207 0.000002 0.024203 -0.000003
# 6 0.000007 -0.000029 -0.000003 0.005263 -0.000003 0.024132
#
#
# Mechanical properties :
#
#
# Convention : Reuss Voigt Hill
#
# Bulk Modulus (GPa) = 43.44211 60.46879 51.95545
# Shear Modulus (GPa) = 38.24539 45.85164 42.04851
#
# Velocity S-wave (km/s) = 3.77166 4.12972 3.95474
# Velocity P-wave (km/s) = 5.92668 6.72539 6.33863
#
# Compressibility (1/GPa) = 0.02301914
#
# Stress axis : x y z
#
# Youngs Moduli (GPa) = 86.56093 83.15168 93.31628
#
# Poissons Ratio (x) = 0.46222 0.08602
# Poissons Ratio (y) = 0.48117 -0.07863
# Poissons Ratio (z) = 0.07979 -0.07006
#
# Static dielectric constant tensor:
#      x y z
#    x 2.097590 -0.000020 0.059470 
#    y -0.000020 2.099210 0.000000 
#    z 0.059470 0.000000 2.086290 
# 
# From -- ./inp_files/12662.got.cif
#   From: 2010.05.17/outbox.cif.g08.bks.cpg/sg9_7_cif.got.tgz:12662.got - 2010.06.03 20:04:27.
