data_PCOD9138222
_publ_section_title
;
Structure prediction by ZEFSAII (Michael W. Deem and Ramdas Pophale) SiO2 
 PCOD9138222
Probable space group: C C
;
_chemical_formula_sum "Si O2"
_cell_formula_units_Z 28
_cell_length_a 18.003777
_cell_length_b 8.300781
_cell_length_c 8.901011
_cell_angle_alpha 90.000000
_cell_angle_beta 52.076581
_cell_angle_gamma 90.000000
_cell_volume 1049.317593
_symmetry_space_group_name_H-M "C C"
_symmetry_group_IT_number 9
_symmetry_cell_setting 'monoclinic'
loop_
_space_group_symop_operation_xyz
x,y,z
x,-y,1/2+z
1/2+x,1/2+y,z
1/2+x,1/2-y,1/2+z
loop_
_atom_site_type_symbol
_atom_site_label
_atom_site_fract_x
_atom_site_fract_y
_atom_site_fract_z
Si Si1 0.894210 0.468721 0.393960
Si Si2 0.676614 0.487781 0.694225
Si Si3 0.334693 0.352201 0.117953
Si Si4 0.569889 0.016673 0.476011
Si Si5 0.891427 0.842326 0.373644
Si Si6 0.096395 0.838987 0.064425
Si Si7 0.650805 0.840793 0.131560
O O1 0.782059 0.475637 0.503419
O O2 0.895619 0.309085 0.500091
O O3 0.906294 0.660471 0.416394
O O4 0.966667 0.438459 0.166276
O O5 0.627708 0.647397 0.697102
O O6 0.616249 0.340383 0.699733
O O7 0.667636 0.449037 0.880015
O O8 0.321131 0.343041 0.315885
O O9 0.245826 0.347826 0.111867
O O10 0.373120 0.527846 0.025328
O O11 0.596045 0.838944 0.503284
O O12 0.581976 0.978060 0.286003
O O13 0.648303 0.127169 0.457928
O O14 0.990171 0.896110 0.177592
#
# Coordination Sequence:
#
# PCOD9138222 Si02
#       7
#     4   4   4   4   4   4   4
#     4  10  26  42  68 100 138 182 222 288 340 416
#     4  10  23  41  66  93 134 169 227 270 342 398
#     4  11  25  46  71 100 141 180 232 286 346 413
#     4  10  23  41  66  93 134 169 227 270 342 398
#     4  11  25  46  71 100 141 180 232 286 346 413
#     4  10  23  42  64  98 125 178 215 281 334 402
#     4  10  23  42  64  98 125 178 215 281 334 402
#
# _framework density 26.684010000000001
#
# number of rings (size 3 to 8) (size 9 to 14) (size 15 to 20)
#    0.000    1.714    0.000    1.714   16.000    2.286 
#    5.143    0.000    0.000    0.000    0.000    0.000 
#    0.000    0.000    0.000    0.000    0.000    0.000 
#
# Total GULP energy -78127.104962 kJ/mol
# GULP energy per Si atom -5580.507497 kJ/mol
# Density = 2.662328 g / cm^3
# Si number density = 26.684010 Si / 1000 Ang^3
#
#
#
# Elastic Constant Matrix: (Units=GPa)
#
#
# Indices 1 2 3 4 5 6 
#
# 1 96.7549 19.2560 34.9476 0.0000 4.9695 0.0000
# 2 19.2560 127.6542 32.5492 0.0000 21.5229 0.0000
# 3 34.9476 32.5492 66.9675 0.0000 10.6040 0.0000
# 4 0.0000 0.0000 0.0000 48.2007 0.0000 11.4580
# 5 4.9695 21.5229 10.6040 0.0000 51.0371 0.0000
# 6 0.0000 0.0000 0.0000 11.4580 0.0000 42.5369
#
#
#
# Elastic Compliance Matrix: (Units=1/GPa)
#
#
# Indices 1 2 3 4 5 6 
#
# 1 0.012746 -0.000294 -0.006547 0.000000 0.000243 0.000000
# 2 -0.000294 0.009405 -0.003923 0.000000 -0.003122 0.000000
# 3 -0.006547 -0.003923 0.020570 0.000000 -0.001982 0.000000
# 4 0.000000 0.000000 0.000000 0.022166 0.000000 -0.005971
# 5 0.000243 -0.003122 -0.001982 0.000000 0.021298 0.000000
# 6 0.000000 0.000000 0.000000 -0.005971 0.000000 0.025117
#
#
# Mechanical properties :
#
#
# Convention : Reuss Voigt Hill
#
# Bulk Modulus (GPa) = 47.18834 51.65356 49.42095
# Shear Modulus (GPa) = 35.74079 41.99651 38.86865
#
# Velocity S-wave (km/s) = 3.66376 3.97148 3.82072
# Velocity P-wave (km/s) = 5.96826 6.35843 6.16643
#
# Compressibility (1/GPa) = 0.02119168
#
# Stress axis : x y z
#
# Youngs Moduli (GPa) = 78.45399 106.32847 48.61449
#
# Poissons Ratio (x) = 0.03130 0.31829
# Poissons Ratio (y) = 0.02309 0.19072
# Poissons Ratio (z) = 0.51366 0.41714
#
# Static dielectric constant tensor:
#      x y z
#    x 2.114250 0.000000 -0.056470 
#    y 0.000000 2.117260 0.000000 
#    z -0.056470 0.000000 2.164200 
# 
# From -- ./inp_files/11294.got.cif
#   From: 2010.05.17/outbox.cif.g08.bks.cpg/sg9_6_cif.got.tgz:11294.got - 2010.06.03 20:04:27.
