data_PCOD9138744
_publ_section_title
;
Structure prediction by ZEFSAII (Michael W. Deem and Ramdas Pophale) SiO2 
 PCOD9138744
Probable space group: C C
;
_chemical_formula_sum "Si O2"
_cell_formula_units_Z 32
_cell_length_a 14.049589
_cell_length_b 8.424561
_cell_length_c 11.418759
_cell_angle_alpha 90.000000
_cell_angle_beta 113.934091
_cell_angle_gamma 90.000000
_cell_volume 1235.327338
_symmetry_space_group_name_H-M "C C"
_symmetry_group_IT_number 9
_symmetry_cell_setting 'monoclinic'
loop_
_space_group_symop_operation_xyz
x,y,z
x,-y,1/2+z
1/2+x,1/2+y,z
1/2+x,1/2-y,1/2+z
loop_
_atom_site_type_symbol
_atom_site_label
_atom_site_fract_x
_atom_site_fract_y
_atom_site_fract_z
Si Si1 0.177380 0.243910 0.394740
Si Si2 0.041961 0.782750 0.441059
Si Si3 0.664829 0.081869 0.328787
Si Si4 0.840756 0.642449 0.669574
Si Si5 0.465460 0.448631 0.762322
Si Si6 0.500679 0.014277 0.071989
Si Si7 0.247745 0.160451 0.186566
Si Si8 0.377289 0.320001 0.038230
O O1 0.145156 0.425486 0.398858
O O2 0.250160 0.175297 0.530617
O O3 0.240843 0.249583 0.305115
O O4 0.078392 0.132926 0.324194
O O5 0.097203 0.724974 0.348778
O O6 0.132703 0.841859 0.572658
O O7 0.994423 0.625451 0.474832
O O8 0.965605 0.921942 0.365436
O O9 0.784081 0.124454 0.408860
O O10 0.617597 0.044667 0.177936
O O11 0.882646 0.809287 0.732934
O O12 0.936191 0.557106 0.649899
O O13 0.791618 0.515308 0.732629
O O14 0.442094 0.536819 0.627987
O O15 0.448969 0.183187 0.018225
O O16 0.318624 0.242049 0.122584
#
# Coordination Sequence:
#
# PCOD9138744 Si02
#       8
#     4   4   4   4   4   4   4   4
#     4  12  24  45  72 103 149 193 239 303 362 437
#     4  11  23  43  74 105 147 196 235 302 373 431
#     4  11  22  44  72 103 150 189 240 302 356 440
#     4  11  24  43  72 110 144 186 249 302 363 442
#     4  12  23  43  72 106 149 187 242 303 365 437
#     4  11  23  45  76 105 148 194 241 298 375 435
#     4  10  23  46  72 101 141 197 239 297 372 426
#     4  10  24  43  72 109 144 190 245 303 368 434
#
# _framework density 25.904064000000002
#
# number of rings (size 3 to 8) (size 9 to 14) (size 15 to 20)
#    0.000    1.000    6.250    0.000    1.750    0.000 
#    2.250    2.500    8.250    0.000    0.000    0.000 
#    0.000    0.000    0.000    0.000    0.000    0.000 
#
# Total GULP energy -89767.504834 kJ/mol
# GULP energy per Si atom -5610.469052 kJ/mol
# Density = 2.584511 g / cm^3
# Si number density = 25.904064 Si / 1000 Ang^3
#
#
#
# Elastic Constant Matrix: (Units=GPa)
#
#
# Indices 1 2 3 4 5 6 
#
# 1 81.0937 55.5802 51.8504 0.0000 22.7378 0.0000
# 2 55.5802 170.3949 60.9543 0.0000 30.0718 0.0000
# 3 51.8504 60.9543 108.2208 0.0000 39.2137 0.0000
# 4 0.0000 0.0000 0.0000 60.4889 0.0000 11.4752
# 5 22.7378 30.0718 39.2137 0.0000 51.1598 0.0000
# 6 0.0000 0.0000 0.0000 11.4752 0.0000 49.5366
#
#
#
# Elastic Compliance Matrix: (Units=1/GPa)
#
#
# Indices 1 2 3 4 5 6 
#
# 1 0.019615 -0.003727 -0.006831 0.000000 -0.001291 0.000000
# 2 -0.003727 0.008152 -0.002312 0.000000 -0.001363 0.000000
# 3 -0.006831 -0.002312 0.016923 0.000000 -0.008576 0.000000
# 4 0.000000 0.000000 0.000000 0.017292 0.000000 -0.004006
# 5 -0.001291 -0.001363 -0.008576 0.000000 0.027496 0.000000
# 6 0.000000 0.000000 0.000000 -0.004006 0.000000 0.021115
#
#
# Mechanical properties :
#
#
# Convention : Reuss Voigt Hill
#
# Bulk Modulus (GPa) = 52.76785 77.38657 65.07721
# Shear Modulus (GPa) = 35.05089 44.99204 40.02146
#
# Velocity S-wave (km/s) = 3.68245 4.17210 3.93490
# Velocity P-wave (km/s) = 6.20446 7.29025 6.76916
#
# Compressibility (1/GPa) = 0.01895093
#
# Stress axis : x y z
#
# Youngs Moduli (GPa) = 50.98014 122.66980 59.09069
#
# Poissons Ratio (x) = 0.45715 0.40366
# Poissons Ratio (y) = 0.18999 0.13662
# Poissons Ratio (z) = 0.34825 0.28361
#
# Static dielectric constant tensor:
#      x y z
#    x 2.011710 0.000000 -0.015370 
#    y 0.000000 2.017700 0.000000 
#    z -0.015370 0.000000 1.992760 
# 
# From -- ./inp_files/17987.got.cif
#   From: 2010.05.17/outbox.cif.g08.bks.cpg/sg9_9_cif.got.tgz:17987.got - 2010.06.03 20:04:27.
