data_PCOD9138686
_publ_section_title
;
Structure prediction by ZEFSAII (Michael W. Deem and Ramdas Pophale) SiO2 
 PCOD9138686
Probable space group: C C
;
_chemical_formula_sum "Si O2"
_cell_formula_units_Z 28
_cell_length_a 7.632958
_cell_length_b 26.798342
_cell_length_c 10.031629
_cell_angle_alpha 90.000000
_cell_angle_beta 33.802086
_cell_angle_gamma 90.000000
_cell_volume 1141.567288
_symmetry_space_group_name_H-M "C C"
_symmetry_group_IT_number 9
_symmetry_cell_setting 'monoclinic'
loop_
_space_group_symop_operation_xyz
x,y,z
x,-y,1/2+z
1/2+x,1/2+y,z
1/2+x,1/2-y,1/2+z
loop_
_atom_site_type_symbol
_atom_site_label
_atom_site_fract_x
_atom_site_fract_y
_atom_site_fract_z
Si Si1 0.875000 0.877943 0.375000
Si Si2 0.206121 0.453316 0.077210
Si Si3 0.677106 0.372633 0.706524
Si Si4 0.012920 0.235869 0.314452
Si Si5 0.086704 0.920836 0.486990
Si Si6 0.875766 0.024854 0.742305
Si Si7 0.097367 0.227531 0.822819
O O1 0.537754 0.867206 0.521794
O O2 0.026844 0.922725 0.190499
O O3 0.824363 0.901833 0.553212
O O4 0.072303 0.828361 0.280822
O O5 0.522147 0.420965 0.873334
O O6 0.242442 0.501248 0.962024
O O7 0.133411 0.461479 0.278557
O O8 0.918444 0.422157 0.199781
O O9 0.476804 0.323129 0.859326
O O10 0.630917 0.383422 0.579922
O O11 0.873715 0.258829 0.537309
O O12 0.824104 0.261056 0.308565
O O13 0.035566 0.977404 0.569406
O O14 0.256198 0.258612 0.601376
#
# Coordination Sequence:
#
# PCOD9138686 Si02
#       7
#     4   4   4   4   4   4   4
#     4  12  26  46  77 114 150 209 271 328 404 487
#     4  11  26  45  75 106 160 209 257 332 397 483
#     4  11  27  47  73 113 149 209 264 332 399 486
#     4  10  23  45  78 106 155 201 261 335 407 479
#     4  11  25  47  73 105 155 208 256 326 398 474
#     4  11  25  45  70 113 156 202 265 321 394 480
#     4  10  24  47  74 113 153 202 268 338 407 479
#
# _framework density 24.527681000000001
#
# number of rings (size 3 to 8) (size 9 to 14) (size 15 to 20)
#    0.000    1.143    2.857    1.714   10.000    2.286 
#    2.571    0.000    0.000    0.000    0.000    0.000 
#    0.000    0.000    0.000    0.000    0.000    0.000 
#
# Total GULP energy -78105.185842 kJ/mol
# GULP energy per Si atom -5578.941846 kJ/mol
# Density = 2.447186 g / cm^3
# Si number density = 24.527681 Si / 1000 Ang^3
#
#
#
# Elastic Constant Matrix: (Units=GPa)
#
#
# Indices 1 2 3 4 5 6 
#
# 1 120.3469 40.3254 10.7503 0.0000 8.0854 0.0000
# 2 40.3254 113.0140 11.5648 0.0000 7.6791 0.0000
# 3 10.7503 11.5648 64.3088 0.0000 23.7788 0.0000
# 4 0.0000 0.0000 0.0000 10.0763 0.0000 -4.7619
# 5 8.0854 7.6791 23.7788 0.0000 23.3381 0.0000
# 6 0.0000 0.0000 0.0000 -4.7619 0.0000 28.8927
#
#
#
# Elastic Compliance Matrix: (Units=1/GPa)
#
#
# Indices 1 2 3 4 5 6 
#
# 1 0.009554 -0.003247 -0.000296 0.000000 -0.001940 0.000000
# 2 -0.003247 0.010183 -0.000747 0.000000 -0.001465 0.000000
# 3 -0.000296 -0.000747 0.025038 0.000000 -0.025162 0.000000
# 4 0.000000 0.000000 0.000000 0.107626 0.000000 0.017738
# 5 -0.001940 -0.001465 -0.025162 0.000000 0.069640 0.000000
# 6 0.000000 0.000000 0.000000 0.017738 0.000000 0.037534
#
#
# Mechanical properties :
#
#
# Convention : Reuss Voigt Hill
#
# Bulk Modulus (GPa) = 27.62768 46.99453 37.31111
# Shear Modulus (GPa) = 17.84315 28.13002 22.98659
#
# Velocity S-wave (km/s) = 2.70009 3.39022 3.06464
# Velocity P-wave (km/s) = 4.58356 5.87590 5.26950
#
# Compressibility (1/GPa) = 0.03619558
#
# Stress axis : x y z
#
# Youngs Moduli (GPa) = 104.66746 98.20302 39.93967
#
# Poissons Ratio (x) = 0.31886 0.01181
# Poissons Ratio (y) = 0.33985 0.02983
# Poissons Ratio (z) = 0.03096 0.07334
#
# Static dielectric constant tensor:
#      x y z
#    x 1.958080 0.000000 -0.010730 
#    y 0.000000 1.997090 0.000000 
#    z -0.010730 0.000000 2.002130 
# 
# From -- ./inp_files/15609.got.cif
#   From: 2010.05.17/outbox.cif.g08.bks.cpg/sg9_8_cif.got.tgz:15609.got - 2010.06.03 20:04:27.
