data_PCOD9138421
_publ_section_title
;
Structure prediction by ZEFSAII (Michael W. Deem and Ramdas Pophale) SiO2 
 PCOD9138421
Probable space group: C C
;
_chemical_formula_sum "Si O2"
_cell_formula_units_Z 24
_cell_length_a 6.765232
_cell_length_b 18.625382
_cell_length_c 9.685313
_cell_angle_alpha 90.000000
_cell_angle_beta 62.422344
_cell_angle_gamma 90.000000
_cell_volume 1081.741628
_symmetry_space_group_name_H-M "C C"
_symmetry_group_IT_number 9
_symmetry_cell_setting 'monoclinic'
loop_
_space_group_symop_operation_xyz
x,y,z
x,-y,1/2+z
1/2+x,1/2+y,z
1/2+x,1/2-y,1/2+z
loop_
_atom_site_type_symbol
_atom_site_label
_atom_site_fract_x
_atom_site_fract_y
_atom_site_fract_z
Si Si1 0.990860 0.166395 0.088760
Si Si2 0.429295 0.491329 0.687698
Si Si3 0.772037 0.087463 0.507063
Si Si4 0.192053 0.826516 0.812919
Si Si5 0.581005 0.274289 0.262936
Si Si6 0.799172 0.401472 0.030575
O O1 0.770325 0.213299 0.190998
O O2 0.923564 0.083233 0.107562
O O3 0.169756 0.172120 0.155345
O O4 0.083849 0.193411 0.914520
O O5 0.285223 0.550366 0.651904
O O6 0.359679 0.470219 0.864670
O O7 0.676393 0.524709 0.603645
O O8 0.528760 0.106739 0.535214
O O9 0.936406 0.155817 0.439830
O O10 0.336098 0.757823 0.810302
O O11 0.316094 0.889862 0.859938
O O12 0.647456 0.336709 0.136155
#
# Coordination Sequence:
#
# PCOD9138421 Si02
#       6
#     4   4   4   4   4   4
#     4  11  26  42  71 106 142 187 244 297 355 423
#     4  10  23  43  69 101 142 181 239 290 365 420
#     4  10  23  44  71 101 141 189 233 295 355 429
#     4  10  23  44  67  99 140 184 232 299 350 411
#     4  12  25  44  70 104 143 189 245 296 356 425
#     4  11  24  45  72 103 144 186 237 297 357 434
#
# _framework density 22.186444000000002
#
# number of rings (size 3 to 8) (size 9 to 14) (size 15 to 20)
#    0.000    1.333    1.667    3.000    2.333    9.333 
#    0.000    0.000    0.000    0.000    0.000    0.000 
#    0.000    0.000    0.000    0.000    0.000    0.000 
#
# Total GULP energy -67025.181161 kJ/mol
# GULP energy per Si atom -5585.431763 kJ/mol
# Density = 2.213595 g / cm^3
# Si number density = 22.186444 Si / 1000 Ang^3
#
#
#
# Elastic Constant Matrix: (Units=GPa)
#
#
# Indices 1 2 3 4 5 6 
#
# 1 135.6753 24.9666 41.3958 0.0000 21.6834 0.0000
# 2 24.9666 85.6276 17.4846 0.0000 5.4006 0.0000
# 3 41.3958 17.4846 66.4773 0.0000 28.2554 0.0000
# 4 0.0000 0.0000 0.0000 52.6271 0.0000 0.4052
# 5 21.6834 5.4006 28.2554 0.0000 23.2858 0.0000
# 6 0.0000 0.0000 0.0000 0.4052 0.0000 42.8350
#
#
#
# Elastic Compliance Matrix: (Units=1/GPa)
#
#
# Indices 1 2 3 4 5 6 
#
# 1 0.009461 -0.001738 -0.003843 0.000000 -0.003744 0.000000
# 2 -0.001738 0.012716 -0.003504 0.000000 0.002921 0.000000
# 3 -0.003843 -0.003504 0.034055 0.000000 -0.036931 0.000000
# 4 0.000000 0.000000 0.000000 0.019003 0.000000 -0.000180
# 5 -0.003744 0.002921 -0.036931 0.000000 0.090566 0.000000
# 6 0.000000 0.000000 0.000000 -0.000180 0.000000 0.023347
#
#
# Mechanical properties :
#
#
# Convention : Reuss Voigt Hill
#
# Bulk Modulus (GPa) = 26.27262 50.60825 38.44044
# Shear Modulus (GPa) = 22.72664 37.34512 30.03588
#
# Velocity S-wave (km/s) = 3.20402 4.10718 3.68339
# Velocity P-wave (km/s) = 5.05520 6.73438 5.95428
#
# Compressibility (1/GPa) = 0.03806244
#
# Stress axis : x y z
#
# Youngs Moduli (GPa) = 105.69433 78.63854 29.36449
#
# Poissons Ratio (x) = 0.13665 0.11286
# Poissons Ratio (y) = 0.18367 0.10289
# Poissons Ratio (z) = 0.40622 0.27554
#
# Static dielectric constant tensor:
#      x y z
#    x 1.833950 0.000000 0.005620 
#    y 0.000000 1.807000 0.000000 
#    z 0.005620 0.000000 1.826190 
# 
# From -- ./inp_files/3834.got.cif
#   From: 2010.05.17/outbox.cif.g08.bks.cpg/sg9_2_cif.got.tgz:3834.got - 2010.06.03 20:04:27.
