data_PCOD9138983
_publ_section_title
;
Structure prediction by ZEFSAII (Michael W. Deem and Ramdas Pophale) SiO2 
 PCOD9138983
Probable space group: C C
;
_chemical_formula_sum "Si O2"
_cell_formula_units_Z 32
_cell_length_a 9.078863
_cell_length_b 9.992092
_cell_length_c 15.905633
_cell_angle_alpha 90.000000
_cell_angle_beta 95.741626
_cell_angle_gamma 90.000000
_cell_volume 1435.669818
_symmetry_space_group_name_H-M "C C"
_symmetry_group_IT_number 9
_symmetry_cell_setting 'monoclinic'
loop_
_space_group_symop_operation_xyz
x,y,z
x,-y,1/2+z
1/2+x,1/2+y,z
1/2+x,1/2-y,1/2+z
loop_
_atom_site_type_symbol
_atom_site_label
_atom_site_fract_x
_atom_site_fract_y
_atom_site_fract_z
Si Si1 0.942600 0.635233 0.939330
Si Si2 0.392571 0.275804 0.776122
Si Si3 0.796646 0.144699 0.989159
Si Si4 0.895127 0.073835 0.813575
Si Si5 0.848646 0.150417 0.555045
Si Si6 0.122399 0.145354 0.686203
Si Si7 0.124926 0.338922 0.178022
Si Si8 0.351925 0.932749 0.075557
O O1 0.910807 0.647364 0.838454
O O2 0.870252 0.769442 0.971895
O O3 0.119812 0.636098 0.961935
O O4 0.870500 0.520787 0.993031
O O5 0.392901 0.415004 0.823292
O O6 0.241416 0.257371 0.717037
O O7 0.530407 0.272308 0.720527
O O8 0.878260 0.142440 0.903149
O O9 0.839891 0.008892 0.040918
O O10 0.832660 0.280071 0.041226
O O11 0.753642 0.111090 0.747374
O O12 0.042152 0.104394 0.768060
O O13 0.705631 0.199954 0.596844
O O14 0.989312 0.189230 0.619145
O O15 0.216892 0.043178 0.632807
O O16 0.000254 0.443915 0.140218
#
# Coordination Sequence:
#
# PCOD9138983 Si02
#       8
#     4   4   4   4   4   4   4   4
#     4  12  25  46  69 106 140 185 233 290 349 420
#     4  11  25  46  70 102 143 179 236 289 349 418
#     4  12  25  48  67 107 146 181 236 289 350 422
#     4  11  25  46  72  97 144 187 225 288 359 413
#     4  11  24  44  73  99 139 187 229 281 357 412
#     4  10  26  43  66 107 135 177 232 294 335 419
#     4  10  24  43  68 101 135 184 221 288 351 411
#     4  11  26  44  73 103 144 182 234 291 344 417
#
# _framework density 22.289248000000001
#
# number of rings (size 3 to 8) (size 9 to 14) (size 15 to 20)
#    0.000    1.000    5.000    0.000   10.500    4.000 
#    0.000    0.000    0.000    0.000    0.000    0.000 
#    0.000    0.000    0.000    0.000    0.000    0.000 
#
# Total GULP energy -89362.749715 kJ/mol
# GULP energy per Si atom -5585.171857 kJ/mol
# Density = 2.223852 g / cm^3
# Si number density = 22.289248 Si / 1000 Ang^3
#
#
#
# Elastic Constant Matrix: (Units=GPa)
#
#
# Indices 1 2 3 4 5 6 
#
# 1 133.7685 21.2422 44.3885 0.0000 -33.1532 0.0000
# 2 21.2422 90.8269 30.7070 0.0000 -12.9896 0.0000
# 3 44.3885 30.7070 119.9512 0.0000 -33.6505 0.0000
# 4 0.0000 0.0000 0.0000 23.2441 0.0000 -6.4683
# 5 -33.1532 -12.9896 -33.6505 0.0000 32.1909 0.0000
# 6 0.0000 0.0000 0.0000 -6.4683 0.0000 4.3463
#
#
#
# Elastic Compliance Matrix: (Units=1/GPa)
#
#
# Indices 1 2 3 4 5 6 
#
# 1 0.010195 -0.000732 -0.001022 0.000000 0.009136 0.000000
# 2 -0.000732 0.012229 -0.002387 0.000000 0.001686 0.000000
# 3 -0.001022 -0.002387 0.012396 0.000000 0.010941 0.000000
# 4 0.000000 0.000000 0.000000 0.073434 0.000000 0.109288
# 5 0.009136 0.001686 0.010941 0.000000 0.052591 0.000000
# 6 0.000000 0.000000 0.000000 0.109288 0.000000 0.392729
#
#
# Mechanical properties :
#
#
# Convention : Reuss Voigt Hill
#
# Bulk Modulus (GPa) = 37.68301 59.69132 48.68716
# Shear Modulus (GPa) = 8.76112 28.50352 18.63232
#
# Velocity S-wave (km/s) = 1.98474 3.57991 2.89439
# Velocity P-wave (km/s) = 4.71119 6.62768 5.74985
#
# Compressibility (1/GPa) = 0.02653716
#
# Stress axis : x y z
#
# Youngs Moduli (GPa) = 98.08346 81.77147 80.67405
#
# Poissons Ratio (x) = 0.05987 0.08249
# Poissons Ratio (y) = 0.07182 0.19255
# Poissons Ratio (z) = 0.10029 0.19517
#
# Static dielectric constant tensor:
#      x y z
#    x 1.817540 0.000000 -0.034090 
#    y 0.000000 1.815230 0.000000 
#    z -0.034090 0.000000 1.822320 
# 
# From -- ./inp_files/22908.got.cif
#   From: 2010.05.17/outbox.cif.g08.bks.cpg/sg9_12_cif.got.tgz:22908.got - 2010.06.03 20:04:27.
