data_PCOD9138213
_publ_section_title
;
Structure prediction by ZEFSAII (Michael W. Deem and Ramdas Pophale) SiO2 
 PCOD9138213
Probable space group: C C
;
_chemical_formula_sum "Si O2"
_cell_formula_units_Z 32
_cell_length_a 20.731880
_cell_length_b 11.767508
_cell_length_c 8.677784
_cell_angle_alpha 90.000000
_cell_angle_beta 48.918172
_cell_angle_gamma 90.000000
_cell_volume 1595.776033
_symmetry_space_group_name_H-M "C C"
_symmetry_group_IT_number 9
_symmetry_cell_setting 'monoclinic'
loop_
_space_group_symop_operation_xyz
x,y,z
x,-y,1/2+z
1/2+x,1/2+y,z
1/2+x,1/2-y,1/2+z
loop_
_atom_site_type_symbol
_atom_site_label
_atom_site_fract_x
_atom_site_fract_y
_atom_site_fract_z
Si Si1 0.630560 0.369352 0.720010
Si Si2 0.543267 0.607595 0.800937
Si Si3 0.871276 0.884983 0.733788
Si Si4 0.825855 0.120932 0.662559
Si Si5 0.307721 0.858117 0.273883
Si Si6 0.862889 0.558237 0.358874
Si Si7 0.209546 0.177963 0.419645
Si Si8 0.479946 0.258591 0.099401
O O1 0.575379 0.477424 0.751995
O O2 0.708942 0.355644 0.480317
O O3 0.674912 0.383528 0.819238
O O4 0.564022 0.267695 0.860082
O O5 0.632022 0.677280 0.663739
O O6 0.498053 0.659709 0.718932
O O7 0.473209 0.613389 0.044612
O O8 0.837564 0.770313 0.710797
O O9 0.827946 0.994109 0.724223
O O10 0.847200 0.882199 0.949620
O O11 0.741923 0.196750 0.824727
O O12 0.902056 0.185600 0.630337
O O13 0.362644 0.925498 0.317481
O O14 0.330158 0.920555 0.081307
O O15 0.788374 0.609823 0.367112
O O16 0.948147 0.633115 0.197412
#
# Coordination Sequence:
#
# PCOD9138213 Si02
#       8
#     4   4   4   4   4   4   4   4
#     4  11  22  40  68 102 129 171 231 287 333 394
#     4  11  22  40  68 102 129 171 231 287 333 394
#     4  12  25  42  69 102 134 179 230 276 342 412
#     4  11  24  42  66  97 140 176 223 276 346 405
#     4  12  25  42  69 102 134 179 230 276 342 412
#     4  11  24  42  66  97 140 176 223 276 346 405
#     4  10  23  41  65  95 137 175 215 285 345 384
#     4  10  23  41  65  95 137 175 215 285 345 384
#
# _framework density 20.052938999999999
#
# number of rings (size 3 to 8) (size 9 to 14) (size 15 to 20)
#    0.000    1.000    5.000    1.500    7.000    1.000 
#    0.000    1.250    0.000    0.000    0.000    0.000 
#    0.000    0.000    0.000    0.000    0.000    0.000 
#
# Total GULP energy -89341.934317 kJ/mol
# GULP energy per Si atom -5583.870895 kJ/mol
# Density = 2.000730 g / cm^3
# Si number density = 20.052939 Si / 1000 Ang^3
#
#
#
# Elastic Constant Matrix: (Units=GPa)
#
#
# Indices 1 2 3 4 5 6 
#
# 1 35.3983 -6.0961 1.1659 0.0000 -5.9791 0.0000
# 2 -6.0961 65.1175 44.6275 0.0000 -13.1815 0.0000
# 3 1.1659 44.6275 123.4195 0.0000 -29.3262 0.0000
# 4 0.0000 0.0000 0.0000 27.8691 0.0000 -7.2794
# 5 -5.9791 -13.1815 -29.3262 0.0000 34.3397 0.0000
# 6 0.0000 0.0000 0.0000 -7.2794 0.0000 28.5013
#
#
#
# Elastic Compliance Matrix: (Units=1/GPa)
#
#
# Indices 1 2 3 4 5 6 
#
# 1 0.030140 0.004363 -0.000273 0.000000 0.006690 0.000000
# 2 0.004363 0.021149 -0.006999 0.000000 0.002900 0.000000
# 3 -0.000273 -0.006999 0.012529 0.000000 0.007965 0.000000
# 4 0.000000 0.000000 0.000000 0.038447 0.000000 0.009820
# 5 0.006690 0.002900 0.007965 0.000000 0.038201 0.000000
# 6 0.000000 0.000000 0.000000 0.009820 0.000000 0.037594
#
#
# Mechanical properties :
#
#
# Convention : Reuss Voigt Hill
#
# Bulk Modulus (GPa) = 17.24159 33.70330 25.47244
# Shear Modulus (GPa) = 24.60478 30.42456 27.51467
#
# Velocity S-wave (km/s) = 3.50664 3.89937 3.70821
# Velocity P-wave (km/s) = 5.00121 6.09238 5.57356
#
# Compressibility (1/GPa) = 0.05799931
#
# Stress axis : x y z
#
# Youngs Moduli (GPa) = 33.17828 47.28265 79.81715
#
# Poissons Ratio (x) = -0.20628 0.02176
# Poissons Ratio (y) = -0.14475 0.55868
# Poissons Ratio (z) = 0.00905 0.33095
#
# Static dielectric constant tensor:
#      x y z
#    x 1.723580 0.000000 0.004260 
#    y 0.000000 1.742520 0.000000 
#    z 0.004260 0.000000 1.737930 
# 
# From -- ./inp_files/11631.got.cif
#   From: 2010.05.17/outbox.cif.g08.bks.cpg/sg9_6_cif.got.tgz:11631.got - 2010.06.03 20:04:27.
