data_PCOD9138178
_publ_section_title
;
Structure prediction by ZEFSAII (Michael W. Deem and Ramdas Pophale) SiO2 
 PCOD9138178
Probable space group: C C
;
_chemical_formula_sum "Si O2"
_cell_formula_units_Z 32
_cell_length_a 28.045648
_cell_length_b 4.976131
_cell_length_c 15.929903
_cell_angle_alpha 90.000000
_cell_angle_beta 36.048594
_cell_angle_gamma 90.000000
_cell_volume 1308.264690
_symmetry_space_group_name_H-M "C C"
_symmetry_group_IT_number 9
_symmetry_cell_setting 'monoclinic'
loop_
_space_group_symop_operation_xyz
x,y,z
x,-y,1/2+z
1/2+x,1/2+y,z
1/2+x,1/2-y,1/2+z
loop_
_atom_site_type_symbol
_atom_site_label
_atom_site_fract_x
_atom_site_fract_y
_atom_site_fract_z
Si Si1 0.606470 0.414271 0.578170
Si Si2 0.170772 0.922539 0.812071
Si Si3 0.824745 0.558143 0.979567
Si Si4 0.096612 0.565449 0.337005
Si Si5 0.335642 0.629349 0.294103
Si Si6 0.996575 0.415514 0.716004
Si Si7 0.709262 0.198907 0.035839
Si Si8 0.431911 0.107339 0.119480
O O1 0.661045 0.462816 0.418305
O O2 0.567576 0.121792 0.637916
O O3 0.658649 0.545308 0.577562
O O4 0.529514 0.616156 0.678804
O O5 0.260200 0.900199 0.645406
O O6 0.114379 0.127673 0.837943
O O7 0.132249 0.629379 0.857650
O O8 0.913559 0.474450 0.883408
O O9 0.835586 0.792551 0.894001
O O10 0.783388 0.322629 0.983451
O O11 0.152545 0.525464 0.176633
O O12 0.004402 0.476192 0.454920
O O13 0.856229 0.594321 0.718209
O O14 0.249454 0.483269 0.406634
O O15 0.402108 0.412338 0.169294
O O16 0.969994 0.459544 0.657041
#
# Coordination Sequence:
#
# PCOD9138178 Si02
#       8
#     4   4   4   4   4   4   4   4
#     4  12  25  40  63  95 131 162 202 274 331 361
#     4  11  21  39  61  93 122 165 211 259 308 382
#     4  10  23  40  68  89 124 170 222 250 304 391
#     4  11  22  38  62  92 124 163 215 256 305 383
#     4  11  20  37  62  91 119 160 211 256 301 372
#     4  11  22  39  64  91 124 166 214 252 317 383
#     4  11  25  41  64  96 131 164 211 272 323 371
#     4  11  20  36  64  91 117 158 216 257 291 369
#
# _framework density 24.459883999999999
#
# number of rings (size 3 to 8) (size 9 to 14) (size 15 to 20)
#    0.000    1.000    6.250    2.250    1.750    0.000 
#    0.000    2.500    0.000    0.000    0.000    0.000 
#    0.000    0.000    0.000    0.000    0.000    0.000 
#
# Total GULP energy -89494.666016 kJ/mol
# GULP energy per Si atom -5593.416626 kJ/mol
# Density = 2.440421 g / cm^3
# Si number density = 24.459884 Si / 1000 Ang^3
#
#
#
# Elastic Constant Matrix: (Units=GPa)
#
#
# Indices 1 2 3 4 5 6 
#
# 1 44.2627 6.3521 7.0959 -0.0795 -9.5469 0.1020
# 2 6.3521 98.7448 23.6755 -0.2248 1.2878 0.1814
# 3 7.0959 23.6755 166.7262 -0.1053 -13.8744 0.1410
# 4 -0.0795 -0.2248 -0.1053 25.4292 0.1174 2.7737
# 5 -9.5469 1.2878 -13.8744 0.1174 18.7587 -0.1151
# 6 0.1020 0.1814 0.1410 2.7737 -0.1151 17.8431
#
#
#
# Elastic Compliance Matrix: (Units=1/GPa)
#
#
# Indices 1 2 3 4 5 6 
#
# 1 0.025716 -0.001900 0.000293 0.000008 0.013435 -0.000044
# 2 -0.001900 0.010692 -0.001682 0.000108 -0.002947 -0.000120
# 3 0.000293 -0.001682 0.006656 -0.000010 0.005188 -0.000002
# 4 0.000008 0.000108 -0.000010 0.040006 -0.000300 -0.006222
# 5 0.013435 -0.002947 0.005188 -0.000300 0.064190 0.000373
# 6 -0.000044 -0.000120 -0.000002 -0.006222 0.000373 0.057015
#
#
# Mechanical properties :
#
#
# Convention : Reuss Voigt Hill
#
# Bulk Modulus (GPa) = 27.40791 42.66451 35.03621
# Shear Modulus (GPa) = 22.42016 30.58020 26.50018
#
# Velocity S-wave (km/s) = 3.03084 3.53968 3.29510
# Velocity P-wave (km/s) = 4.84537 5.84690 5.36954
#
# Compressibility (1/GPa) = 0.03648582
#
# Stress axis : x y z
#
# Youngs Moduli (GPa) = 38.88657 93.53141 150.24078
#
# Poissons Ratio (x) = 0.17768 -0.04407
# Poissons Ratio (y) = 0.07387 0.25277
# Poissons Ratio (z) = -0.01141 0.15736
#
# Static dielectric constant tensor:
#      x y z
#    x 1.954850 -0.000100 -0.000630 
#    y -0.000100 1.933700 0.000000 
#    z -0.000630 0.000000 2.024910 
# 
# From -- ./inp_files/30495.got.cif
#   From: 2010.05.17/outbox.cif.g08.bks.cpg/sg9_16_cif.got.tgz:30495.got - 2010.06.03 20:04:27.
