data_PCOD9138014
_publ_section_title
;
Structure prediction by ZEFSAII (Michael W. Deem and Ramdas Pophale) SiO2 
 PCOD9138014
Probable space group: C C
;
_chemical_formula_sum "Si O2"
_cell_formula_units_Z 28
_cell_length_a 20.415850
_cell_length_b 11.548419
_cell_length_c 11.504177
_cell_angle_alpha 90.000000
_cell_angle_beta 24.914667
_cell_angle_gamma 90.000000
_cell_volume 1142.625773
_symmetry_space_group_name_H-M "C C"
_symmetry_group_IT_number 9
_symmetry_cell_setting 'monoclinic'
loop_
_space_group_symop_operation_xyz
x,y,z
x,-y,1/2+z
1/2+x,1/2+y,z
1/2+x,1/2-y,1/2+z
loop_
_atom_site_type_symbol
_atom_site_label
_atom_site_fract_x
_atom_site_fract_y
_atom_site_fract_z
Si Si1 0.978730 0.346036 0.614030
Si Si2 0.948615 0.422862 0.922700
Si Si3 0.646405 0.557806 0.609496
Si Si4 0.593616 0.242779 0.378991
Si Si5 0.701004 0.100074 0.566231
Si Si6 0.657972 0.325977 0.500367
Si Si7 0.396253 0.616144 0.821951
O O1 0.990169 0.365804 0.732957
O O2 0.833196 0.422991 0.804129
O O3 0.929670 0.213816 0.672910
O O4 0.140108 0.370616 0.292779
O O5 0.010536 0.352205 0.933845
O O6 0.043723 0.542074 0.765566
O O7 0.766392 0.403906 0.239152
O O8 0.599307 0.642207 0.790559
O O9 0.610723 0.420861 0.671748
O O10 0.546979 0.596992 0.657996
O O11 0.539510 0.272656 0.596225
O O12 0.762609 0.178213 0.116235
O O13 0.734678 0.215653 0.439987
O O14 0.828805 0.000216 0.373639
#
# Coordination Sequence:
#
# PCOD9138014 Si02
#       7
#     4   4   4   4   4   4   4
#     4  11  23  48  74 104 147 197 243 311 370 431
#     4  11  23  46  74  95 146 195 235 301 372 429
#     4  11  22  44  69 107 143 189 245 299 367 434
#     4  10  22  46  73  97 141 190 243 296 371 425
#     4  11  28  46  71 112 144 191 249 300 372 442
#     4  12  25  43  72 108 143 191 239 306 363 444
#     4  10  23  47  71 103 142 195 238 303 365 441
#
# _framework density 24.504961999999999
#
# number of rings (size 3 to 8) (size 9 to 14) (size 15 to 20)
#    0.000    1.143    5.714    0.000    6.000    1.143 
#    5.143    0.000    0.000    0.000    0.000    0.000 
#    0.000    0.000    0.000    0.000    0.000    0.000 
#
# Total GULP energy -78155.028553 kJ/mol
# GULP energy per Si atom -5582.502039 kJ/mol
# Density = 2.444919 g / cm^3
# Si number density = 24.504962 Si / 1000 Ang^3
#
#
#
# Elastic Constant Matrix: (Units=GPa)
#
#
# Indices 1 2 3 4 5 6 
#
# 1 92.8554 43.8211 0.2357 0.0000 -13.4992 0.0000
# 2 43.8211 164.6912 15.4492 0.0000 11.1990 0.0000
# 3 0.2357 15.4492 48.6942 0.0000 5.7065 0.0000
# 4 0.0000 0.0000 0.0000 34.1660 0.0000 -1.1653
# 5 -13.4992 11.1990 5.7065 0.0000 23.1626 0.0000
# 6 0.0000 0.0000 0.0000 -1.1653 0.0000 34.9782
#
#
#
# Elastic Compliance Matrix: (Units=1/GPa)
#
#
# Indices 1 2 3 4 5 6 
#
# 1 0.014478 -0.004588 0.000141 0.000000 0.010622 0.000000
# 2 -0.004588 0.007869 -0.001766 0.000000 -0.006043 0.000000
# 3 0.000141 -0.001766 0.021610 0.000000 -0.004388 0.000000
# 4 0.000000 0.000000 0.000000 0.029302 0.000000 0.000976
# 5 0.010622 -0.006043 -0.004388 0.000000 0.053366 0.000000
# 6 0.000000 0.000000 0.000000 0.000976 0.000000 0.028622
#
#
# Mechanical properties :
#
#
# Convention : Reuss Voigt Hill
#
# Bulk Modulus (GPa) = 31.71456 47.25031 39.48244
# Shear Modulus (GPa) = 28.06063 34.91032 31.48548
#
# Velocity S-wave (km/s) = 3.38760 3.77851 3.58838
# Velocity P-wave (km/s) = 5.31708 6.19355 5.77197
#
# Compressibility (1/GPa) = 0.03153125
#
# Stress axis : x y z
#
# Youngs Moduli (GPa) = 69.06845 127.07511 46.27430
#
# Poissons Ratio (x) = 0.58301 -0.00651
# Poissons Ratio (y) = 0.31688 0.08173
# Poissons Ratio (z) = -0.00972 0.22445
#
# Static dielectric constant tensor:
#      x y z
#    x 1.970380 0.000000 -0.046700 
#    y 0.000000 2.002980 0.000000 
#    z -0.046700 0.000000 2.071840 
# 
# From -- ./inp_files/19331.got.cif
#   From: 2010.05.17/outbox.cif.g08.bks.cpg/sg9_10_cif.got.tgz:19331.got - 2010.06.03 20:04:27.
