data_PCOD9138464
_publ_section_title
;
Structure prediction by ZEFSAII (Michael W. Deem and Ramdas Pophale) SiO2 
 PCOD9138464
Probable space group: C C
;
_chemical_formula_sum "Si O2"
_cell_formula_units_Z 32
_cell_length_a 6.941355
_cell_length_b 12.171789
_cell_length_c 18.342429
_cell_angle_alpha 90.000000
_cell_angle_beta 51.731619
_cell_angle_gamma 90.000000
_cell_volume 1216.719888
_symmetry_space_group_name_H-M "C C"
_symmetry_group_IT_number 9
_symmetry_cell_setting 'monoclinic'
loop_
_space_group_symop_operation_xyz
x,y,z
x,-y,1/2+z
1/2+x,1/2+y,z
1/2+x,1/2-y,1/2+z
loop_
_atom_site_type_symbol
_atom_site_label
_atom_site_fract_x
_atom_site_fract_y
_atom_site_fract_z
Si Si1 0.354220 0.471716 0.685440
Si Si2 0.415217 0.067450 0.482122
Si Si3 0.307767 0.972600 0.858528
Si Si4 0.118398 0.842287 0.489790
Si Si5 0.545102 0.860852 0.090793
Si Si6 0.618773 0.894027 0.537445
Si Si7 0.464634 0.396499 0.817359
Si Si8 0.226260 0.280816 0.187880
O O1 0.500712 0.412342 0.585891
O O2 0.486217 0.447218 0.731443
O O3 0.333574 0.600953 0.678261
O O4 0.066833 0.437177 0.763187
O O5 0.253741 0.088322 0.448445
O O6 0.512166 0.945142 0.486470
O O7 0.340096 0.122183 0.576373
O O8 0.677525 0.114746 0.396168
O O9 0.515571 0.191962 0.676296
O O10 0.312322 0.093063 0.894305
O O11 0.203978 0.731662 0.510837
O O12 0.883070 0.838882 0.489479
O O13 0.633468 0.986984 0.077035
O O14 0.095134 0.034352 0.349515
O O15 0.425671 0.805295 0.611148
O O16 0.606370 0.282450 0.782483
#
# Coordination Sequence:
#
# PCOD9138464 Si02
#       8
#     4   4   4   4   4   4   4   4
#     4  11  26  45  70 110 143 191 245 297 372 440
#     4   9  22  46  68 103 143 180 246 301 362 436
#     4  11  24  47  73 102 152 193 245 310 361 440
#     4  12  22  46  75 104 145 193 245 301 368 435
#     4  10  23  43  73 102 138 189 242 302 363 437
#     4  10  23  44  69 110 133 184 248 294 360 440
#     4  11  24  46  69 103 150 189 243 305 368 438
#     4  12  24  45  75 100 152 187 234 318 368 430
#
# _framework density 26.300222000000002
#
# number of rings (size 3 to 8) (size 9 to 14) (size 15 to 20)
#    0.750    0.500    3.750    1.500    1.750    2.000 
#    2.250    0.000    0.000    0.000    0.000    0.000 
#    0.000    0.000    0.000    0.000    0.000    0.000 
#
# Total GULP energy -89171.444397 kJ/mol
# GULP energy per Si atom -5573.215275 kJ/mol
# Density = 2.624036 g / cm^3
# Si number density = 26.300222 Si / 1000 Ang^3
#
#
#
# Elastic Constant Matrix: (Units=GPa)
#
#
# Indices 1 2 3 4 5 6 
#
# 1 130.2628 -1.7377 30.7149 -0.0005 24.3471 0.0001
# 2 -1.7377 121.2113 12.0605 -0.0004 12.0351 0.0002
# 3 30.7149 12.0605 89.6301 -0.0001 9.7104 0.0004
# 4 -0.0005 -0.0004 -0.0001 20.2967 0.0002 12.8053
# 5 24.3471 12.0351 9.7104 0.0002 42.2989 -0.0002
# 6 0.0001 0.0002 0.0004 12.8053 -0.0002 21.4815
#
#
#
# Elastic Compliance Matrix: (Units=1/GPa)
#
#
# Indices 1 2 3 4 5 6 
#
# 1 0.009266 0.000899 -0.002759 0.000000 -0.004956 0.000000
# 2 0.000899 0.008649 -0.001179 0.000000 -0.002708 0.000000
# 3 -0.002759 -0.001179 0.012360 0.000000 -0.000914 0.000000
# 4 0.000000 0.000000 0.000000 0.078968 -0.000001 -0.047073
# 5 -0.004956 -0.002708 -0.000914 -0.000001 0.027474 0.000001
# 6 0.000000 0.000000 0.000000 -0.047073 0.000001 0.074612
#
#
# Mechanical properties :
#
#
# Convention : Reuss Voigt Hill
#
# Bulk Modulus (GPa) = 41.32597 47.01994 44.17295
# Shear Modulus (GPa) = 22.17570 36.81987 29.49779
#
# Velocity S-wave (km/s) = 2.90690 3.74569 3.35263
# Velocity P-wave (km/s) = 5.19750 6.05177 5.64083
#
# Compressibility (1/GPa) = 0.02419786
#
# Stress axis : x y z
#
# Youngs Moduli (GPa) = 107.92511 115.61885 80.90512
#
# Poissons Ratio (x) = -0.10399 0.22324
# Poissons Ratio (y) = -0.09707 0.09536
# Poissons Ratio (z) = 0.29780 0.13627
#
# Static dielectric constant tensor:
#      x y z
#    x 2.141300 0.000000 0.029520 
#    y 0.000000 2.232100 0.000000 
#    z 0.029520 0.000000 2.077920 
# 
# From -- ./inp_files/32631.got.cif
#   From: 2010.05.17/outbox.cif.g08.bks.cpg/sg9_17_cif.got.tgz:32631.got - 2010.06.03 20:04:27.
