data_PCOD9138634
_publ_section_title
;
Structure prediction by ZEFSAII (Michael W. Deem and Ramdas Pophale) SiO2 
 PCOD9138634
Probable space group: C C
;
_chemical_formula_sum "Si O2"
_cell_formula_units_Z 28
_cell_length_a 5.511268
_cell_length_b 17.935516
_cell_length_c 14.818770
_cell_angle_alpha 90.000000
_cell_angle_beta 56.138335
_cell_angle_gamma 90.000000
_cell_volume 1216.346194
_symmetry_space_group_name_H-M "C C"
_symmetry_group_IT_number 9
_symmetry_cell_setting 'monoclinic'
loop_
_space_group_symop_operation_xyz
x,y,z
x,-y,1/2+z
1/2+x,1/2+y,z
1/2+x,1/2-y,1/2+z
loop_
_atom_site_type_symbol
_atom_site_label
_atom_site_fract_x
_atom_site_fract_y
_atom_site_fract_z
Si Si1 0.989200 0.111503 0.869990
Si Si2 0.698190 0.851181 0.788987
Si Si3 0.043650 0.997350 0.191017
Si Si4 0.528170 0.805950 0.211320
Si Si5 0.257253 0.495872 0.053628
Si Si6 0.218749 0.347222 0.977802
Si Si7 0.264074 0.753043 0.820091
O O1 0.850781 0.192213 0.876954
O O2 0.330533 0.133107 0.802840
O O3 0.946178 0.057577 0.792261
O O4 0.877045 0.071160 0.982734
O O5 0.901933 0.921492 0.736473
O O6 0.885053 0.775849 0.740600
O O7 0.438749 0.830916 0.775610
O O8 0.550524 0.854325 0.918634
O O9 0.901839 0.979610 0.121670
O O10 0.400285 0.998203 0.121721
O O11 0.555761 0.830085 0.103535
O O12 0.802619 0.791076 0.218196
O O13 0.358122 0.427582 0.968991
O O14 0.443914 0.280777 0.912934
#
# Coordination Sequence:
#
# PCOD9138634 Si02
#       7
#     4   4   4   4   4   4   4
#     4  11  25  47  72 110 152 192 261 313 377 454
#     4  10  25  44  71 104 149 193 251 310 370 459
#     4  12  28  47  74 113 150 198 250 318 381 448
#     4  10  23  45  70 104 147 196 247 310 373 448
#     4  12  29  44  77 109 151 200 249 312 387 446
#     4  11  23  44  72 104 147 197 248 300 385 448
#     4  10  25  43  74 104 146 200 246 317 367 455
#
# _framework density 23.019762
#
# number of rings (size 3 to 8) (size 9 to 14) (size 15 to 20)
#    0.000    1.143    2.857    0.857   10.000    4.571 
#    0.000    0.000    0.000    0.000    0.000    0.000 
#    0.000    0.000    0.000    0.000    0.000    0.000 
#
# Total GULP energy -78051.760832 kJ/mol
# GULP energy per Si atom -5575.125774 kJ/mol
# Density = 2.296737 g / cm^3
# Si number density = 23.019762 Si / 1000 Ang^3
#
#
#
# Elastic Constant Matrix: (Units=GPa)
#
#
# Indices 1 2 3 4 5 6 
#
# 1 96.0895 19.5599 30.5365 0.0000 12.1235 0.0000
# 2 19.5599 114.0407 14.6673 0.0000 0.2819 0.0000
# 3 30.5365 14.6673 60.1263 0.0000 7.0732 0.0000
# 4 0.0000 0.0000 0.0000 32.4104 0.0000 -2.7982
# 5 12.1235 0.2819 7.0732 0.0000 27.1605 0.0000
# 6 0.0000 0.0000 0.0000 -2.7982 0.0000 41.2200
#
#
#
# Elastic Compliance Matrix: (Units=1/GPa)
#
#
# Indices 1 2 3 4 5 6 
#
# 1 0.013092 -0.001492 -0.005776 0.000000 -0.004324 0.000000
# 2 -0.001492 0.009229 -0.001610 0.000000 0.000989 0.000000
# 3 -0.005776 -0.001610 0.020274 0.000000 -0.002685 0.000000
# 4 0.000000 0.000000 0.000000 0.031036 0.000000 0.002107
# 5 -0.004324 0.000989 -0.002685 0.000000 0.039437 0.000000
# 6 0.000000 0.000000 0.000000 0.002107 0.000000 0.024403
#
#
# Mechanical properties :
#
#
# Convention : Reuss Voigt Hill
#
# Bulk Modulus (GPa) = 40.26036 44.42043 42.34040
# Shear Modulus (GPa) = 30.57958 33.85771 32.21865
#
# Velocity S-wave (km/s) = 3.64868 3.83928 3.74519
# Velocity P-wave (km/s) = 5.93953 6.24435 6.09385
#
# Compressibility (1/GPa) = 0.02483833
#
# Stress axis : x y z
#
# Youngs Moduli (GPa) = 76.38315 108.35037 49.32434
#
# Poissons Ratio (x) = 0.16164 0.28492
# Poissons Ratio (y) = 0.11395 0.07942
# Poissons Ratio (z) = 0.44122 0.17446
#
# Static dielectric constant tensor:
#      x y z
#    x 2.120370 0.000000 0.037690 
#    y 0.000000 1.867930 0.000000 
#    z 0.037690 0.000000 1.873630 
# 
# From -- ./inp_files/13101.got.cif
#   From: 2010.05.17/outbox.cif.g08.bks.cpg/sg9_7_cif.got.tgz:13101.got - 2010.06.03 20:04:27.
