data_PCOD9138573
_publ_section_title
;
Structure prediction by ZEFSAII (Michael W. Deem and Ramdas Pophale) SiO2 
 PCOD9138573
Probable space group: C C
;
_chemical_formula_sum "Si O2"
_cell_formula_units_Z 24
_cell_length_a 9.175004
_cell_length_b 10.962150
_cell_length_c 14.797184
_cell_angle_alpha 90.000000
_cell_angle_beta 143.134161
_cell_angle_gamma 90.000000
_cell_volume 892.876321
_symmetry_space_group_name_H-M "C C"
_symmetry_group_IT_number 9
_symmetry_cell_setting 'monoclinic'
loop_
_space_group_symop_operation_xyz
x,y,z
x,-y,1/2+z
1/2+x,1/2+y,z
1/2+x,1/2-y,1/2+z
loop_
_atom_site_type_symbol
_atom_site_label
_atom_site_fract_x
_atom_site_fract_y
_atom_site_fract_z
Si Si1 0.308180 0.269119 0.175310
Si Si2 0.123902 0.794429 0.159052
Si Si3 0.365302 0.962086 0.819902
Si Si4 0.428888 0.400955 0.405971
Si Si5 0.322422 0.404428 0.557244
Si Si6 0.543939 0.340898 0.931310
O O1 0.484099 0.308323 0.182605
O O2 0.409174 0.144672 0.270707
O O3 0.277489 0.361084 0.243555
O O4 0.070724 0.220864 0.006306
O O5 0.309771 0.682359 0.253030
O O6 0.292671 0.912605 0.233921
O O7 0.960157 0.795973 0.989961
O O8 0.100099 0.922473 0.730267
O O9 0.608443 0.008763 0.991418
O O10 0.321079 0.440738 0.449134
O O11 0.594103 0.515640 0.456604
O O12 0.249965 0.260971 0.518569
#
# Coordination Sequence:
#
# PCOD9138573 Si02
#       6
#     4   4   4   4   4   4
#     4  11  24  43  75 105 151 205 255 315 398 453
#     4  11  23  45  74 104 154 205 249 324 391 461
#     4  10  23  44  74 103 154 197 254 323 377 467
#     4  11  25  47  70 116 155 201 262 330 380 481
#     4  10  23  45  77 105 157 203 256 319 403 443
#     4  11  24  46  70 111 153 201 258 323 385 469
#
# _framework density 26.879422000000002
#
# number of rings (size 3 to 8) (size 9 to 14) (size 15 to 20)
#    0.000    1.333    3.333    2.000    2.333    8.000 
#    9.000    0.000    0.000    0.000    0.000    0.000 
#    0.000    0.000    0.000    0.000    0.000    0.000 
#
# Total GULP energy -66986.655001 kJ/mol
# GULP energy per Si atom -5582.221250 kJ/mol
# Density = 2.681824 g / cm^3
# Si number density = 26.879422 Si / 1000 Ang^3
#
#
#
# Elastic Constant Matrix: (Units=GPa)
#
#
# Indices 1 2 3 4 5 6 
#
# 1 81.6346 45.2291 42.8192 0.0004 3.4340 0.0000
# 2 45.2291 95.8104 27.2686 0.0004 1.2713 0.0001
# 3 42.8192 27.2686 139.0439 0.0027 8.1550 0.0007
# 4 0.0004 0.0004 0.0027 49.2586 0.0008 10.1486
# 5 3.4340 1.2713 8.1550 0.0008 46.0611 0.0000
# 6 0.0000 0.0001 0.0007 10.1486 0.0000 46.7731
#
#
#
# Elastic Compliance Matrix: (Units=1/GPa)
#
#
# Indices 1 2 3 4 5 6 
#
# 1 0.018717 -0.007622 -0.004244 0.000000 -0.000434 0.000000
# 2 -0.007622 0.014159 -0.000444 0.000000 0.000256 0.000000
# 3 -0.004244 -0.000444 0.008657 0.000000 -0.001204 0.000000
# 4 0.000000 0.000000 0.000000 0.021251 0.000000 -0.004611
# 5 -0.000434 0.000256 -0.001204 0.000000 0.021949 0.000000
# 6 0.000000 0.000000 0.000000 -0.004611 0.000000 0.022380
#
#
# Mechanical properties :
#
#
# Convention : Reuss Voigt Hill
#
# Bulk Modulus (GPa) = 59.13140 60.79143 59.96142
# Shear Modulus (GPa) = 36.39816 41.83003 39.11410
#
# Velocity S-wave (km/s) = 3.68384 3.94916 3.81881
# Velocity P-wave (km/s) = 6.33567 6.59242 6.46532
#
# Compressibility (1/GPa) = 0.01691149
#
# Stress axis : x y z
#
# Youngs Moduli (GPa) = 53.42788 70.62884 115.51852
#
# Poissons Ratio (x) = 0.53834 0.49023
# Poissons Ratio (y) = 0.40723 0.05135
# Poissons Ratio (z) = 0.22673 0.03139
#
# Static dielectric constant tensor:
#      x y z
#    x 2.145740 0.000000 0.024680 
#    y 0.000000 2.080680 0.000000 
#    z 0.024680 0.000000 2.165770 
# 
# From -- ./inp_files/29232.got.cif
#   From: 2010.05.17/outbox.cif.g08.bks.cpg/sg9_15_cif.got.tgz:29232.got - 2010.06.03 20:04:27.
