data_PCOD9138091
_publ_section_title
;
Structure prediction by ZEFSAII (Michael W. Deem and Ramdas Pophale) SiO2 
 PCOD9138091
Probable space group: C C
;
_chemical_formula_sum "Si O2"
_cell_formula_units_Z 28
_cell_length_a 27.490410
_cell_length_b 7.732476
_cell_length_c 16.635244
_cell_angle_alpha 90.000000
_cell_angle_beta 20.735572
_cell_angle_gamma 90.000000
_cell_volume 1251.988596
_symmetry_space_group_name_H-M "C C"
_symmetry_group_IT_number 9
_symmetry_cell_setting 'monoclinic'
loop_
_space_group_symop_operation_xyz
x,y,z
x,-y,1/2+z
1/2+x,1/2+y,z
1/2+x,1/2-y,1/2+z
loop_
_atom_site_type_symbol
_atom_site_label
_atom_site_fract_x
_atom_site_fract_y
_atom_site_fract_z
Si Si1 0.675680 0.210762 0.879080
Si Si2 0.027152 0.130925 0.464005
Si Si3 0.399154 0.926453 0.575773
Si Si4 0.278414 0.400446 0.635665
Si Si5 0.785142 0.992363 0.437957
Si Si6 0.987770 0.752698 0.546728
Si Si7 0.002471 0.612156 0.285580
O O1 0.638853 0.300638 0.853028
O O2 0.747751 0.351498 0.824408
O O3 0.777173 0.054354 0.701640
O O4 0.548187 0.128056 0.123305
O O5 0.006320 0.274735 0.429558
O O6 0.892286 0.136226 0.729486
O O7 0.036825 0.929787 0.425800
O O8 0.435961 0.095574 0.570979
O O9 0.405319 0.964697 0.471389
O O10 0.282468 0.467349 0.537405
O O11 0.410047 0.280454 0.445420
O O12 0.127532 0.308408 0.875652
O O13 0.640685 0.936472 0.621820
O O14 0.858851 0.174895 0.298914
#
# Coordination Sequence:
#
# PCOD9138091 Si02
#       7
#     4   4   4   4   4   4   4
#     4  12  25  46  70 110 148 183 251 304 348 439
#     4  10  22  48  70  99 148 185 237 301 351 429
#     4  12  25  45  74 104 144 194 235 296 367 423
#     4  12  25  46  78 104 148 192 242 302 364 429
#     4  10  23  46  71 104 144 191 238 294 369 418
#     4  10  23  46  77  96 143 198 235 292 364 429
#     4  12  25  43  72 109 143 187 246 295 355 431
#
# _framework density 22.364419999999999
#
# number of rings (size 3 to 8) (size 9 to 14) (size 15 to 20)
#    0.857    0.000    5.714    0.857    4.000    1.143 
#    2.571    4.286    0.000    0.000    0.000    0.000 
#    0.000    0.000    0.000    0.000    0.000    0.000 
#
# Total GULP energy -77967.915205 kJ/mol
# GULP energy per Si atom -5569.136800 kJ/mol
# Density = 2.231352 g / cm^3
# Si number density = 22.364420 Si / 1000 Ang^3
#
#
#
# Elastic Constant Matrix: (Units=GPa)
#
#
# Indices 1 2 3 4 5 6 
#
# 1 57.3970 49.3553 19.1996 0.0000 -2.8548 0.0000
# 2 49.3553 144.0881 37.6812 0.0001 0.2454 0.0000
# 3 19.1996 37.6812 102.5467 0.0000 -9.3301 0.0000
# 4 0.0000 0.0001 0.0000 35.6319 0.0000 -11.2613
# 5 -2.8548 0.2454 -9.3301 0.0000 18.0871 0.0000
# 6 0.0000 0.0000 0.0000 -11.2613 0.0000 37.7290
#
#
#
# Elastic Compliance Matrix: (Units=1/GPa)
#
#
# Indices 1 2 3 4 5 6 
#
# 1 0.025154 -0.008265 -0.001365 0.000000 0.003378 0.000000
# 2 -0.008265 0.010440 -0.002540 0.000000 -0.002756 0.000000
# 3 -0.001365 -0.002540 0.011462 0.000000 0.005731 0.000000
# 4 0.000000 0.000000 0.000000 0.030988 0.000000 0.009249
# 5 0.003378 -0.002756 0.005731 0.000000 0.058815 0.000000
# 6 0.000000 0.000000 0.000000 0.009249 0.000000 0.029265
#
#
# Mechanical properties :
#
#
# Convention : Reuss Voigt Hill
#
# Bulk Modulus (GPa) = 44.02054 57.38933 50.70494
# Shear Modulus (GPa) = 25.24788 31.47598 28.36193
#
# Velocity S-wave (km/s) = 3.36360 3.75562 3.56500
# Velocity P-wave (km/s) = 5.90009 6.67255 6.29818
#
# Compressibility (1/GPa) = 0.02271667
#
# Stress axis : x y z
#
# Youngs Moduli (GPa) = 39.75489 95.78493 87.24542
#
# Poissons Ratio (x) = 0.79165 0.11911
# Poissons Ratio (y) = 0.32857 0.22157
# Poissons Ratio (z) = 0.05427 0.24325
#
# Static dielectric constant tensor:
#      x y z
#    x 1.829080 0.000000 -0.024930 
#    y 0.000000 1.837290 0.000000 
#    z -0.024930 0.000000 1.859590 
# 
# From -- ./inp_files/31798.got.cif
#   From: 2010.05.17/outbox.cif.g08.bks.cpg/sg9_16_cif.got.tgz:31798.got - 2010.06.03 20:04:27.
