data_PCOD9138854
_publ_section_title
;
Structure prediction by ZEFSAII (Michael W. Deem and Ramdas Pophale) SiO2 
 PCOD9138854
Probable space group: C C
;
_chemical_formula_sum "Si O2"
_cell_formula_units_Z 32
_cell_length_a 4.825112
_cell_length_b 17.948319
_cell_length_c 13.612224
_cell_angle_alpha 90.000000
_cell_angle_beta 100.415268
_cell_angle_gamma 90.000000
_cell_volume 1159.431065
_symmetry_space_group_name_H-M "C C"
_symmetry_group_IT_number 9
_symmetry_cell_setting 'monoclinic'
loop_
_space_group_symop_operation_xyz
x,y,z
x,-y,1/2+z
1/2+x,1/2+y,z
1/2+x,1/2-y,1/2+z
loop_
_atom_site_type_symbol
_atom_site_label
_atom_site_fract_x
_atom_site_fract_y
_atom_site_fract_z
Si Si1 0.637430 0.811221 0.696920
Si Si2 0.520937 0.823407 0.141156
Si Si3 0.111929 0.224108 0.872338
Si Si4 0.849808 0.571843 0.799915
Si Si5 0.798601 0.996216 0.477484
Si Si6 0.669521 0.632568 0.042107
Si Si7 0.404313 0.451991 0.692701
Si Si8 0.463062 0.661937 0.504128
O O1 0.877375 0.749653 0.682950
O O2 0.470360 0.769417 0.775272
O O3 0.474984 0.833295 0.584662
O O4 0.719390 0.894115 0.742333
O O5 0.812675 0.820183 0.099951
O O6 0.514965 0.891567 0.217958
O O7 0.292665 0.843093 0.042889
O O8 0.214501 0.145618 0.837373
O O9 0.995611 0.194751 0.969904
O O10 0.366567 0.277798 0.919517
O O11 0.582464 0.554166 0.986733
O O12 0.611226 0.512531 0.752335
O O13 0.573924 0.963622 0.388288
O O14 0.729466 0.986666 0.589704
O O15 0.860144 0.081330 0.465987
O O16 0.584779 0.610410 0.146376
#
# Coordination Sequence:
#
# PCOD9138854 Si02
#       8
#     4   4   4   4   4   4   4   4
#     4  11  24  46  80 114 160 213 269 340 399 494
#     4  11  26  50  81 113 158 211 267 330 406 483
#     4  11  26  45  78 116 153 211 269 326 402 482
#     4  11  25  50  76 120 154 211 271 329 408 487
#     4  10  26  46  77 116 154 214 261 340 394 490
#     4  10  23  49  73 110 162 204 266 332 409 469
#     4  10  24  47  74 113 152 215 257 339 402 476
#     4  12  26  51  77 118 157 211 264 336 402 481
#
# _framework density 27.599744000000001
#
# number of rings (size 3 to 8) (size 9 to 14) (size 15 to 20)
#    0.750    0.500    2.500    1.500    1.750    8.000 
#    2.250    0.000    0.000    0.000    0.000    0.000 
#    0.000    0.000    0.000    0.000    0.000    0.000 
#
# Total GULP energy -89418.397298 kJ/mol
# GULP energy per Si atom -5588.649831 kJ/mol
# Density = 2.753693 g / cm^3
# Si number density = 27.599744 Si / 1000 Ang^3
#
#
#
# Elastic Constant Matrix: (Units=GPa)
#
#
# Indices 1 2 3 4 5 6 
#
# 1 104.1864 54.6330 47.8152 0.0000 25.3862 0.0000
# 2 54.6330 225.8692 96.4666 0.0000 29.2771 0.0000
# 3 47.8152 96.4666 145.0896 0.0000 37.7695 0.0000
# 4 0.0000 0.0000 0.0000 66.8458 0.0000 10.7141
# 5 25.3862 29.2771 37.7695 0.0000 48.9506 0.0000
# 6 0.0000 0.0000 0.0000 10.7141 0.0000 38.5778
#
#
#
# Elastic Compliance Matrix: (Units=1/GPa)
#
#
# Indices 1 2 3 4 5 6 
#
# 1 0.012301 -0.001637 -0.001952 0.000000 -0.003895 0.000000
# 2 -0.001637 0.006418 -0.003691 0.000000 -0.000142 0.000000
# 3 -0.001952 -0.003691 0.011451 0.000000 -0.005616 0.000000
# 4 0.000000 0.000000 0.000000 0.015657 0.000000 -0.004348
# 5 -0.003895 -0.000142 -0.005616 0.000000 0.026867 0.000000
# 6 0.000000 0.000000 0.000000 -0.004348 0.000000 0.027129
#
#
# Mechanical properties :
#
#
# Convention : Reuss Voigt Hill
#
# Bulk Modulus (GPa) = 64.05492 96.99720 80.52606
# Shear Modulus (GPa) = 41.81088 49.29019 45.55053
#
# Velocity S-wave (km/s) = 3.89640 4.23057 4.06692
# Velocity P-wave (km/s) = 6.59556 7.68662 7.16190
#
# Compressibility (1/GPa) = 0.01561160
#
# Stress axis : x y z
#
# Youngs Moduli (GPa) = 81.29234 155.81250 87.32604
#
# Poissons Ratio (x) = 0.25507 0.17044
# Poissons Ratio (y) = 0.13308 0.32230
# Poissons Ratio (z) = 0.15866 0.57506
#
# Static dielectric constant tensor:
#      x y z
#    x 2.303150 0.000000 -0.115110 
#    y 0.000000 2.096540 0.000000 
#    z -0.115110 0.000000 2.326170 
# 
# From -- ./inp_files/21952.got.cif
#   From: 2010.05.17/outbox.cif.g08.bks.cpg/sg9_11_cif.got.tgz:21952.got - 2010.06.03 20:04:27.
