data_PCOD9138063
_publ_section_title
;
Structure prediction by ZEFSAII (Michael W. Deem and Ramdas Pophale) SiO2 
 PCOD9138063
Probable space group: C C
;
_chemical_formula_sum "Si O2"
_cell_formula_units_Z 24
_cell_length_a 18.662776
_cell_length_b 5.455824
_cell_length_c 10.537184
_cell_angle_alpha 90.000000
_cell_angle_beta 63.929962
_cell_angle_gamma 90.000000
_cell_volume 963.744733
_symmetry_space_group_name_H-M "C C"
_symmetry_group_IT_number 9
_symmetry_cell_setting 'monoclinic'
loop_
_space_group_symop_operation_xyz
x,y,z
x,-y,1/2+z
1/2+x,1/2+y,z
1/2+x,1/2-y,1/2+z
loop_
_atom_site_type_symbol
_atom_site_label
_atom_site_fract_x
_atom_site_fract_y
_atom_site_fract_z
Si Si1 0.684670 0.908517 0.598640
Si Si2 0.888287 0.532314 0.313624
Si Si3 0.836744 0.256321 0.108896
Si Si4 0.473228 0.586886 0.587057
Si Si5 0.635052 0.591692 0.065340
Si Si6 0.542039 0.141284 0.819743
O O1 0.757695 0.897095 0.638639
O O2 0.682268 0.659890 0.520079
O O3 0.682095 0.153187 0.514225
O O4 0.601195 0.920652 0.740977
O O5 0.839782 0.406430 0.237739
O O6 0.845741 0.564708 0.481316
O O7 0.921537 0.796736 0.241021
O O8 0.967016 0.375779 0.284512
O O9 0.912881 0.077105 0.053606
O O10 0.553858 0.440310 0.551660
O O11 0.505668 0.823954 0.485153
O O12 0.599893 0.634104 0.236027
#
# Coordination Sequence:
#
# PCOD9138063 Si02
#       6
#     4   4   4   4   4   4
#     4  10  25  49  72 111 157 203 263 333 401 467
#     4  12  25  48  78 115 160 213 268 333 402 499
#     4  12  28  48  78 119 163 210 268 340 413 477
#     4  12  23  45  79 112 154 210 274 329 401 487
#     4  10  22  47  73 109 149 207 256 329 388 480
#     4  10  23  45  76 112 149 207 273 322 393 480
#
# _framework density 24.902858999999999
#
# number of rings (size 3 to 8) (size 9 to 14) (size 15 to 20)
#    1.000    0.000    5.000    1.000    2.333    0.000 
#    6.000    0.000    0.000    0.000    0.000    0.000 
#    0.000    0.000    0.000    0.000    0.000    0.000 
#
# Total GULP energy -67016.649427 kJ/mol
# GULP energy per Si atom -5584.720786 kJ/mol
# Density = 2.484618 g / cm^3
# Si number density = 24.902859 Si / 1000 Ang^3
#
#
#
# Elastic Constant Matrix: (Units=GPa)
#
#
# Indices 1 2 3 4 5 6 
#
# 1 137.5956 44.2981 -11.8326 0.0000 6.7357 0.0000
# 2 44.2981 145.8859 -3.2948 0.0000 5.2448 0.0000
# 3 -11.8326 -3.2948 56.0218 0.0000 8.5166 0.0000
# 4 0.0000 0.0000 0.0000 28.5541 0.0000 10.4762
# 5 6.7357 5.2448 8.5166 0.0000 15.4664 0.0000
# 6 0.0000 0.0000 0.0000 10.4762 0.0000 26.1854
#
#
#
# Elastic Compliance Matrix: (Units=1/GPa)
#
#
# Indices 1 2 3 4 5 6 
#
# 1 0.008423 -0.002359 0.002266 0.000000 -0.004117 0.000000
# 2 -0.002359 0.007636 0.000206 0.000000 -0.001675 0.000000
# 3 0.002266 0.000206 0.020192 0.000000 -0.012175 0.000000
# 4 0.000000 0.000000 0.000000 0.041046 0.000000 -0.016422
# 5 -0.004117 -0.001675 -0.012175 0.000000 0.073722 0.000000
# 6 0.000000 0.000000 0.000000 -0.016422 0.000000 0.044759
#
#
# Mechanical properties :
#
#
# Convention : Reuss Voigt Hill
#
# Bulk Modulus (GPa) = 27.41407 44.20497 35.80952
# Shear Modulus (GPa) = 24.07192 34.73002 29.40097
#
# Velocity S-wave (km/s) = 3.11244 3.73851 3.43975
# Velocity P-wave (km/s) = 4.89374 6.03530 5.49425
#
# Compressibility (1/GPa) = 0.03647761
#
# Stress axis : x y z
#
# Youngs Moduli (GPa) = 118.71675 130.96320 49.52479
#
# Poissons Ratio (x) = 0.30889 -0.11224
# Poissons Ratio (y) = 0.28000 -0.01018
# Poissons Ratio (z) = -0.26904 -0.02693
#
# Static dielectric constant tensor:
#      x y z
#    x 1.977400 0.000000 -0.017860 
#    y 0.000000 2.046370 0.000000 
#    z -0.017860 0.000000 1.967000 
# 
# From -- ./inp_files/18789.got.cif
#   From: 2010.05.17/outbox.cif.g08.bks.cpg/sg9_10_cif.got.tgz:18789.got - 2010.06.03 20:04:27.
