data_PCOD9138546
_publ_section_title
;
Structure prediction by ZEFSAII (Michael W. Deem and Ramdas Pophale) SiO2 
 PCOD9138546
Probable space group: C C
;
_chemical_formula_sum "Si O2"
_cell_formula_units_Z 28
_cell_length_a 19.092332
_cell_length_b 5.369414
_cell_length_c 14.452486
_cell_angle_alpha 90.000000
_cell_angle_beta 50.136564
_cell_angle_gamma 90.000000
_cell_volume 1137.231489
_symmetry_space_group_name_H-M "C C"
_symmetry_group_IT_number 9
_symmetry_cell_setting 'monoclinic'
loop_
_space_group_symop_operation_xyz
x,y,z
x,-y,1/2+z
1/2+x,1/2+y,z
1/2+x,1/2-y,1/2+z
loop_
_atom_site_type_symbol
_atom_site_label
_atom_site_fract_x
_atom_site_fract_y
_atom_site_fract_z
Si Si1 0.267030 0.619119 0.500000
Si Si2 0.503920 0.958372 0.074224
Si Si3 0.564413 0.272186 0.710085
Si Si4 0.058096 0.733212 0.328816
Si Si5 0.182638 0.746207 0.916602
Si Si6 0.328738 0.887105 0.292285
Si Si7 0.757687 0.927068 0.696464
O O1 0.175628 0.765978 0.608151
O O2 0.232184 0.415772 0.454731
O O3 0.342100 0.778428 0.382604
O O4 0.303293 0.495135 0.561887
O O5 0.528713 0.764097 0.135463
O O6 0.406511 0.067150 0.189426
O O7 0.513890 0.822962 0.966637
O O8 0.577720 0.179702 0.013451
O O9 0.534801 0.516830 0.791802
O O10 0.541068 0.014581 0.782559
O O11 0.168428 0.739278 0.250281
O O12 0.214188 0.656247 0.789047
O O13 0.225320 0.015655 0.887845
O O14 0.325284 0.691125 0.212678
#
# Coordination Sequence:
#
# PCOD9138546 Si02
#       7
#     4   4   4   4   4   4   4
#     4   9  21  40  65  97 129 178 236 290 346 427
#     4  10  24  46  65 106 146 184 237 305 348 434
#     4  10  23  44  71 104 136 193 241 289 361 421
#     4  10  23  44  71 104 136 193 241 289 361 421
#     4   9  21  43  63  95 136 178 236 280 359 408
#     4  11  23  41  68 101 136 190 229 287 365 424
#     4   9  21  40  65  97 129 178 236 290 346 427
#
# _framework density 24.621193999999999
#
# number of rings (size 3 to 8) (size 9 to 14) (size 15 to 20)
#    0.000    2.286    0.000    0.857   12.000    2.286 
#   15.429    0.000    0.000    0.000    0.000    0.000 
#    0.000    0.000    0.000    0.000    0.000    0.000 
#
# Total GULP energy -78212.890269 kJ/mol
# GULP energy per Si atom -5586.635019 kJ/mol
# Density = 2.456516 g / cm^3
# Si number density = 24.621194 Si / 1000 Ang^3
#
#
#
# Elastic Constant Matrix: (Units=GPa)
#
#
# Indices 1 2 3 4 5 6 
#
# 1 55.1287 29.4349 63.5239 -0.0009 23.0901 0.0016
# 2 29.4349 100.6905 67.0706 0.0789 19.1798 0.0911
# 3 63.5239 67.0706 194.0878 -0.0133 30.6398 0.0134
# 4 -0.0009 0.0789 -0.0133 22.7745 0.0110 6.1174
# 5 23.0901 19.1798 30.6398 0.0110 49.9417 0.0048
# 6 0.0016 0.0911 0.0134 6.1174 0.0048 20.1574
#
#
#
# Elastic Compliance Matrix: (Units=1/GPa)
#
#
# Indices 1 2 3 4 5 6 
#
# 1 0.033084 -0.002178 -0.008629 0.000005 -0.009166 0.000014
# 2 -0.002178 0.013323 -0.003590 -0.000035 -0.001907 -0.000047
# 3 -0.008629 -0.003590 0.009267 0.000016 -0.000317 0.000006
# 4 0.000005 -0.000035 0.000016 0.047806 -0.000008 -0.014508
# 5 -0.009166 -0.001907 -0.000317 -0.000008 0.025188 0.000006
# 6 0.000014 -0.000047 0.000006 -0.014508 0.000006 0.054013
#
#
# Mechanical properties :
#
#
# Convention : Reuss Voigt Hill
#
# Bulk Modulus (GPa) = 37.20158 74.44065 55.82112
# Shear Modulus (GPa) = 22.68258 31.23324 26.95791
#
# Velocity S-wave (km/s) = 3.03852 3.56554 3.31253
# Velocity P-wave (km/s) = 5.23952 6.87392 6.11160
#
# Compressibility (1/GPa) = 0.02688058
#
# Stress axis : x y z
#
# Youngs Moduli (GPa) = 30.22630 75.05934 107.90874
#
# Poissons Ratio (x) = 0.16348 0.93109
# Poissons Ratio (y) = 0.06583 0.38740
# Poissons Ratio (z) = 0.26081 0.26947
#
# Static dielectric constant tensor:
#      x y z
#    x 2.056400 0.000010 -0.025790 
#    y 0.000010 1.967430 -0.000020 
#    z -0.025790 -0.000020 1.930230 
# 
# From -- ./inp_files/27108.got.cif
#   From: 2010.05.17/outbox.cif.g08.bks.cpg/sg9_14_cif.got.tgz:27108.got - 2010.06.03 20:04:27.
