data_PCOD9138904
_publ_section_title
;
Structure prediction by ZEFSAII (Michael W. Deem and Ramdas Pophale) SiO2 
 PCOD9138904
Probable space group: C C
;
_chemical_formula_sum "Si O2"
_cell_formula_units_Z 28
_cell_length_a 8.675050
_cell_length_b 5.298476
_cell_length_c 31.781256
_cell_angle_alpha 90.000000
_cell_angle_beta 124.231087
_cell_angle_gamma 90.000000
_cell_volume 1207.762676
_symmetry_space_group_name_H-M "C C"
_symmetry_group_IT_number 9
_symmetry_cell_setting 'monoclinic'
loop_
_space_group_symop_operation_xyz
x,y,z
x,-y,1/2+z
1/2+x,1/2+y,z
1/2+x,1/2-y,1/2+z
loop_
_atom_site_type_symbol
_atom_site_label
_atom_site_fract_x
_atom_site_fract_y
_atom_site_fract_z
Si Si1 0.837380 0.548496 0.033600
Si Si2 0.485135 0.912630 0.792505
Si Si3 0.842792 0.922312 0.385367
Si Si4 0.424466 0.547662 0.996327
Si Si5 0.698435 0.951619 0.648373
Si Si6 0.940909 0.543879 0.187041
Si Si7 0.018441 0.077857 0.333892
O O1 0.649606 0.547951 0.032365
O O2 0.845730 0.293708 0.007493
O O3 0.021078 0.555275 0.090432
O O4 0.842959 0.797037 0.005275
O O5 0.687985 0.883112 0.845043
O O6 0.413037 0.159364 0.805753
O O7 0.487308 0.962353 0.743683
O O8 0.410459 0.637963 0.791666
O O9 0.878749 0.942597 0.439792
O O10 0.012489 0.986296 0.381201
O O11 0.731885 0.663871 0.357633
O O12 0.833655 0.716207 0.660412
O O13 0.613335 0.929302 0.682035
O O14 0.808327 0.213360 0.660315
#
# Coordination Sequence:
#
# PCOD9138904 Si02
#       7
#     4   4   4   4   4   4   4
#     4  12  26  48  71 103 137 179 233 291 345 401
#     4  10  26  41  68  98 139 175 223 275 332 411
#     4  10  26  41  68  98 139 174 226 270 338 405
#     4  12  27  44  76 101 139 182 230 280 352 410
#     4  12  26  48  71 103 137 179 233 292 340 411
#     4  12  27  44  76 101 139 182 231 277 357 402
#     4  10  24  40  66  90 144 171 220 271 328 392
#
# _framework density 23.183364000000001
#
# number of rings (size 3 to 8) (size 9 to 14) (size 15 to 20)
#    0.857    0.000    0.000    6.000   10.000    0.000 
#    0.000    0.000    0.000    0.000    0.000    0.000 
#    0.000    0.000    0.000    0.000    0.000    0.000 
#
# Total GULP energy -78246.225706 kJ/mol
# GULP energy per Si atom -5589.016122 kJ/mol
# Density = 2.313060 g / cm^3
# Si number density = 23.183364 Si / 1000 Ang^3
#
#
#
# Elastic Constant Matrix: (Units=GPa)
#
#
# Indices 1 2 3 4 5 6 
#
# 1 62.6999 28.1462 -30.6095 0.0000 -10.3687 0.0000
# 2 28.1462 164.4296 18.5889 0.0000 -11.2166 0.0000
# 3 -30.6095 18.5889 92.5386 0.0000 -9.3962 0.0000
# 4 0.0000 0.0000 0.0000 17.5663 0.0000 -11.5546
# 5 -10.3687 -11.2166 -9.3962 0.0000 37.8880 0.0000
# 6 0.0000 0.0000 0.0000 -11.5546 0.0000 22.2474
#
#
#
# Elastic Compliance Matrix: (Units=1/GPa)
#
#
# Indices 1 2 3 4 5 6 
#
# 1 0.024021 -0.004686 0.009657 0.000000 0.007581 0.000000
# 2 -0.004686 0.007230 -0.002991 0.000000 0.000116 0.000000
# 3 0.009657 -0.002991 0.015161 0.000000 0.005517 0.000000
# 4 0.000000 0.000000 0.000000 0.086466 0.000000 0.044908
# 5 0.007581 0.000116 0.005517 0.000000 0.029871 0.000000
# 6 0.000000 0.000000 0.000000 0.044908 0.000000 0.068273
#
#
# Mechanical properties :
#
#
# Convention : Reuss Voigt Hill
#
# Bulk Modulus (GPa) = 19.85261 39.10215 29.47738
# Shear Modulus (GPa) = 20.50419 35.77651 28.14035
#
# Velocity S-wave (km/s) = 2.97717 3.93262 3.48777
# Velocity P-wave (km/s) = 4.51663 6.12566 5.38162
#
# Compressibility (1/GPa) = 0.05037121
#
# Stress axis : x y z
#
# Youngs Moduli (GPa) = 41.63096 138.31606 65.95689
#
# Poissons Ratio (x) = 0.64818 -0.63692
# Poissons Ratio (y) = 0.19509 0.19725
# Poissons Ratio (z) = -0.40201 0.41365
#
# Static dielectric constant tensor:
#      x y z
#    x 2.085000 0.000000 0.124280 
#    y 0.000000 1.960110 0.000000 
#    z 0.124280 0.000000 1.930820 
# 
# From -- ./inp_files/36274.got.cif
#   From: 2010.05.17/outbox.cif.g08.bks.cpg/sg9_19_cif.got.tgz:36274.got - 2010.06.03 20:04:27.
