data_PCOD9138901
_publ_section_title
;
Structure prediction by ZEFSAII (Michael W. Deem and Ramdas Pophale) SiO2 
 PCOD9138901
Probable space group: C C
;
_chemical_formula_sum "Si O2"
_cell_formula_units_Z 20
_cell_length_a 6.492656
_cell_length_b 18.277586
_cell_length_c 7.505227
_cell_angle_alpha 90.000000
_cell_angle_beta 63.799054
_cell_angle_gamma 90.000000
_cell_volume 799.132975
_symmetry_space_group_name_H-M "C C"
_symmetry_group_IT_number 9
_symmetry_cell_setting 'monoclinic'
loop_
_space_group_symop_operation_xyz
x,y,z
x,-y,1/2+z
1/2+x,1/2+y,z
1/2+x,1/2-y,1/2+z
loop_
_atom_site_type_symbol
_atom_site_label
_atom_site_fract_x
_atom_site_fract_y
_atom_site_fract_z
Si Si1 0.449010 0.387069 0.817580
Si Si2 0.371367 0.471459 0.486702
Si Si3 0.475880 0.127860 0.024377
Si Si4 0.571521 0.209492 0.334785
Si Si5 0.748229 0.638556 0.742498
O O1 0.367402 0.435912 0.682133
O O2 0.387698 0.441510 0.999071
O O3 0.717964 0.380545 0.695312
O O4 0.307052 0.313593 0.846292
O O5 0.602142 0.436245 0.308805
O O6 0.138841 0.442175 0.485950
O O7 0.571774 0.188253 0.126107
O O8 0.433226 0.141633 0.832125
O O9 0.565109 0.296678 0.350328
O O10 0.378626 0.162919 0.513398
#
# Coordination Sequence:
#
# PCOD9138901 Si02
#       5
#     4   4   4   4   4
#     4  10  24  40  64  97 129 170 218 261 325 387
#     4  10  24  40  64  97 129 170 218 261 325 387
#     4  10  24  44  64  92 138 164 208 278 314 378
#     4  11  25  43  67  97 128 172 220 262 325 390
#     4  11  25  43  67  97 128 172 220 262 325 390
#
# _framework density 25.027124000000001
#
# number of rings (size 3 to 8) (size 9 to 14) (size 15 to 20)
#    0.000    1.600    0.000    3.600    8.400    9.600 
#    0.000    0.000    0.000    0.000    0.000    0.000 
#    0.000    0.000    0.000    0.000    0.000    0.000 
#
# Total GULP energy -55902.355456 kJ/mol
# GULP energy per Si atom -5590.235546 kJ/mol
# Density = 2.497016 g / cm^3
# Si number density = 25.027124 Si / 1000 Ang^3
#
#
#
# Elastic Constant Matrix: (Units=GPa)
#
#
# Indices 1 2 3 4 5 6 
#
# 1 108.0670 18.2692 33.0361 0.0000 -4.0117 0.0000
# 2 18.2692 61.3620 -15.5918 0.0000 -7.0062 0.0000
# 3 33.0361 -15.5918 81.7412 0.0000 -4.6556 0.0000
# 4 0.0000 0.0000 0.0000 21.3160 0.0000 -0.6236
# 5 -4.0117 -7.0062 -4.6556 0.0000 50.2466 0.0000
# 6 0.0000 0.0000 0.0000 -0.6236 0.0000 13.3509
#
#
#
# Elastic Compliance Matrix: (Units=1/GPa)
#
#
# Indices 1 2 3 4 5 6 
#
# 1 0.011856 -0.005028 -0.005767 0.000000 -0.000289 0.000000
# 2 -0.005028 0.019633 0.005942 0.000000 0.002887 0.000000
# 3 -0.005767 0.005942 0.015802 0.000000 0.001832 0.000000
# 4 0.000000 0.000000 0.000000 0.046977 0.000000 0.002194
# 5 -0.000289 0.002887 0.001832 0.000000 0.020451 0.000000
# 6 0.000000 0.000000 0.000000 0.002194 0.000000 0.075004
#
#
# Mechanical properties :
#
#
# Convention : Reuss Voigt Hill
#
# Bulk Modulus (GPa) = 26.60745 35.84412 31.22579
# Shear Modulus (GPa) = 23.58948 31.34649 27.46798
#
# Velocity S-wave (km/s) = 3.07344 3.54291 3.31649
# Velocity P-wave (km/s) = 4.82175 5.57579 5.21242
#
# Compressibility (1/GPa) = 0.03758346
#
# Stress axis : x y z
#
# Youngs Moduli (GPa) = 84.34650 50.93443 63.28218
#
# Poissons Ratio (x) = 0.25611 0.36496
# Poissons Ratio (y) = 0.42411 -0.37599
# Poissons Ratio (z) = 0.48644 -0.30263
#
# Static dielectric constant tensor:
#      x y z
#    x 2.006370 0.000000 0.049120 
#    y 0.000000 1.981870 0.000000 
#    z 0.049120 0.000000 2.034850 
# 
# From -- ./inp_files/3577.got.cif
#   From: 2010.05.17/outbox.cif.g08.bks.cpg/sg9_2_cif.got.tgz:3577.got - 2010.06.03 20:04:27.
