data_PCOD9138749
_publ_section_title
;
Structure prediction by ZEFSAII (Michael W. Deem and Ramdas Pophale) SiO2 
 PCOD9138749
Probable space group: C C
;
_chemical_formula_sum "Si O2"
_cell_formula_units_Z 32
_cell_length_a 20.072341
_cell_length_b 9.070481
_cell_length_c 14.530820
_cell_angle_alpha 90.000000
_cell_angle_beta 154.022709
_cell_angle_gamma 90.000000
_cell_volume 1158.796914
_symmetry_space_group_name_H-M "C C"
_symmetry_group_IT_number 9
_symmetry_cell_setting 'monoclinic'
loop_
_space_group_symop_operation_xyz
x,y,z
x,-y,1/2+z
1/2+x,1/2+y,z
1/2+x,1/2-y,1/2+z
loop_
_atom_site_type_symbol
_atom_site_label
_atom_site_fract_x
_atom_site_fract_y
_atom_site_fract_z
Si Si1 0.678150 0.373124 0.637970
Si Si2 0.776247 0.937912 0.730838
Si Si3 0.684183 0.711846 0.358893
Si Si4 0.217232 0.710047 0.402755
Si Si5 0.913881 0.061586 0.082920
Si Si6 0.412105 0.866023 0.779612
Si Si7 0.581476 0.684977 0.562830
Si Si8 0.060783 0.514857 0.804576
O O1 0.685713 0.342897 0.756324
O O2 0.559487 0.241989 0.461872
O O3 0.844418 0.389054 0.797062
O O4 0.605469 0.536288 0.534803
O O5 0.634617 0.842571 0.591719
O O6 0.716645 0.993037 0.559072
O O7 0.907615 0.820157 0.876232
O O8 0.841844 0.054328 0.887418
O O9 0.839117 0.808962 0.552262
O O10 0.594629 0.582657 0.302167
O O11 0.571177 0.843439 0.253016
O O12 0.346983 0.593113 0.534600
O O13 0.270509 0.784715 0.560000
O O14 0.183918 0.823154 0.281128
O O15 0.065608 0.619816 0.239663
O O16 0.439942 0.991893 0.735992
#
# Coordination Sequence:
#
# PCOD9138749 Si02
#       8
#     4   4   4   4   4   4   4   4
#     4  12  26  47  76 111 148 208 258 307 392 467
#     4  11  25  50  72 107 151 199 248 321 380 458
#     4  11  24  45  73 108 146 199 246 312 378 457
#     4  10  25  48  72 109 150 198 244 322 382 454
#     4  10  23  46  72 106 151 195 248 305 383 454
#     4  12  26  46  77 111 153 201 256 322 379 462
#     4  11  27  47  78 105 149 200 253 310 392 463
#     4  11  26  47  74 111 156 192 255 321 386 451
#
# _framework density 27.614849
#
# number of rings (size 3 to 8) (size 9 to 14) (size 15 to 20)
#    0.000    1.000    2.500    2.250    5.250    5.000 
#    6.750    0.000    0.000    0.000    0.000    0.000 
#    0.000    0.000    0.000    0.000    0.000    0.000 
#
# Total GULP energy -89336.125462 kJ/mol
# GULP energy per Si atom -5583.507841 kJ/mol
# Density = 2.755200 g / cm^3
# Si number density = 27.614849 Si / 1000 Ang^3
#
#
#
# Elastic Constant Matrix: (Units=GPa)
#
#
# Indices 1 2 3 4 5 6 
#
# 1 190.0796 38.4264 27.5195 0.0000 28.9437 0.0000
# 2 38.4264 62.6106 6.2474 0.0000 5.2795 0.0000
# 3 27.5195 6.2474 52.0478 0.0000 17.6237 0.0000
# 4 0.0000 0.0000 0.0000 41.7699 0.0000 13.5613
# 5 28.9437 5.2795 17.6237 0.0000 56.0953 0.0000
# 6 0.0000 0.0000 0.0000 13.5613 0.0000 53.6705
#
#
#
# Elastic Compliance Matrix: (Units=1/GPa)
#
#
# Indices 1 2 3 4 5 6 
#
# 1 0.006701 -0.003683 -0.002292 0.000000 -0.002391 0.000000
# 2 -0.003683 0.018241 -0.000341 0.000000 0.000290 0.000000
# 3 -0.002292 -0.000341 0.022442 0.000000 -0.005836 0.000000
# 4 0.000000 0.000000 0.000000 0.026080 0.000000 -0.006590
# 5 -0.002391 0.000290 -0.005836 0.000000 0.020867 0.000000
# 6 0.000000 0.000000 0.000000 -0.006590 0.000000 0.020297
#
#
# Mechanical properties :
#
#
# Convention : Reuss Voigt Hill
#
# Bulk Modulus (GPa) = 28.77304 49.90273 39.33789
# Shear Modulus (GPa) = 36.01182 45.81012 40.91097
#
# Velocity S-wave (km/s) = 3.61511 4.07737 3.85318
# Velocity P-wave (km/s) = 5.27896 6.34640 5.83713
#
# Compressibility (1/GPa) = 0.03475475
#
# Stress axis : x y z
#
# Youngs Moduli (GPa) = 149.22513 54.82048 44.55979
#
# Poissons Ratio (x) = 0.20188 0.10211
# Poissons Ratio (y) = 0.54953 0.01518
# Poissons Ratio (z) = 0.34195 0.01868
#
# Static dielectric constant tensor:
#      x y z
#    x 2.131380 0.000000 0.011930 
#    y 0.000000 2.162040 0.000000 
#    z 0.011930 0.000000 2.154670 
# 
# From -- ./inp_files/27360.got.cif
#   From: 2010.05.17/outbox.cif.g08.bks.cpg/sg9_14_cif.got.tgz:27360.got - 2010.06.03 20:04:27.
