data_PCOD9138437
_publ_section_title
;
Structure prediction by ZEFSAII (Michael W. Deem and Ramdas Pophale) SiO2 
 PCOD9138437
Probable space group: C C
;
_chemical_formula_sum "Si O2"
_cell_formula_units_Z 32
_cell_length_a 5.457227
_cell_length_b 17.793396
_cell_length_c 14.382359
_cell_angle_alpha 90.000000
_cell_angle_beta 81.651040
_cell_angle_gamma 90.000000
_cell_volume 1381.763781
_symmetry_space_group_name_H-M "C C"
_symmetry_group_IT_number 9
_symmetry_cell_setting 'monoclinic'
loop_
_space_group_symop_operation_xyz
x,y,z
x,-y,1/2+z
1/2+x,1/2+y,z
1/2+x,1/2-y,1/2+z
loop_
_atom_site_type_symbol
_atom_site_label
_atom_site_fract_x
_atom_site_fract_y
_atom_site_fract_z
Si Si1 0.445230 0.210047 0.140640
Si Si2 0.032607 0.097243 0.851886
Si Si3 0.058017 0.537445 0.104264
Si Si4 0.223573 0.768941 0.459066
Si Si5 0.794502 0.328377 0.020269
Si Si6 0.916201 0.396345 0.191779
Si Si7 0.592786 0.513333 0.497898
Si Si8 0.165039 0.285346 0.318756
O O1 0.538553 0.124619 0.132220
O O2 0.650352 0.268107 0.091473
O O3 0.350711 0.234631 0.247481
O O4 0.243948 0.218663 0.068140
O O5 0.188251 0.151104 0.911876
O O6 0.131750 0.098636 0.741048
O O7 0.778341 0.142730 0.866778
O O8 0.073919 0.016800 0.893759
O O9 0.332881 0.517485 0.052905
O O10 0.019316 0.480308 0.193125
O O11 0.829259 0.519637 0.044034
O O12 0.481867 0.742088 0.398798
O O13 0.990457 0.716619 0.447046
O O14 0.966061 0.373191 0.084233
O O15 0.622339 0.396619 0.996470
O O16 0.019892 0.329239 0.246262
#
# Coordination Sequence:
#
# PCOD9138437 Si02
#       8
#     4   4   4   4   4   4   4   4
#     4  12  23  44  73 104 146 195 239 316 372 451
#     4  11  23  46  68 101 145 197 240 310 368 447
#     4  11  25  45  70 103 141 187 249 295 369 446
#     4  11  23  42  69 107 143 187 250 303 377 449
#     4  11  23  43  72 102 141 193 248 305 375 445
#     4  10  23  43  69  99 137 192 241 295 368 446
#     4  11  25  45  72 101 139 194 243 303 364 444
#     4  11  23  42  75 103 146 193 252 309 381 442
#
# _framework density 23.158805999999998
#
# number of rings (size 3 to 8) (size 9 to 14) (size 15 to 20)
#    0.000    1.000    3.750    3.000    5.250    0.000 
#    4.500    0.000    0.000    0.000    0.000    0.000 
#    0.000    0.000    0.000    0.000    0.000    0.000 
#
# Total GULP energy -89215.475316 kJ/mol
# GULP energy per Si atom -5575.967207 kJ/mol
# Density = 2.310610 g / cm^3
# Si number density = 23.158806 Si / 1000 Ang^3
#
#
#
# Elastic Constant Matrix: (Units=GPa)
#
#
# Indices 1 2 3 4 5 6 
#
# 1 54.7543 -2.7587 -7.5130 0.0000 -22.8732 0.0000
# 2 -2.7587 151.8227 18.0327 0.0000 -24.2671 0.0000
# 3 -7.5130 18.0327 72.9287 0.0000 -13.6402 0.0000
# 4 0.0000 0.0000 0.0000 22.5998 0.0000 3.2708
# 5 -22.8732 -24.2671 -13.6402 0.0000 32.2929 0.0000
# 6 0.0000 0.0000 0.0000 3.2708 0.0000 29.0832
#
#
#
# Elastic Compliance Matrix: (Units=1/GPa)
#
#
# Indices 1 2 3 4 5 6 
#
# 1 0.031515 0.004265 0.007564 0.000000 0.028722 0.000000
# 2 0.004265 0.008114 0.000150 0.000000 0.009182 0.000000
# 3 0.007564 0.000150 0.016805 0.000000 0.012569 0.000000
# 4 0.000000 0.000000 0.000000 0.044980 0.000000 -0.005059
# 5 0.028722 0.009182 0.012569 0.000000 0.063519 0.000000
# 6 0.000000 0.000000 0.000000 -0.005059 0.000000 0.034953
#
#
# Mechanical properties :
#
#
# Convention : Reuss Voigt Hill
#
# Bulk Modulus (GPa) = 12.43900 32.78083 22.60991
# Shear Modulus (GPa) = 24.66403 34.91149 29.78776
#
# Velocity S-wave (km/s) = 3.26697 3.88684 3.59031
# Velocity P-wave (km/s) = 4.42873 5.85909 5.19339
#
# Compressibility (1/GPa) = 0.08039233
#
# Stress axis : x y z
#
# Youngs Moduli (GPa) = 31.73138 123.24555 59.50659
#
# Poissons Ratio (x) = -0.52566 -0.45011
# Poissons Ratio (y) = -0.13534 -0.00895
# Poissons Ratio (z) = -0.24002 -0.01854
#
# Static dielectric constant tensor:
#      x y z
#    x 2.009790 0.000000 0.008270 
#    y 0.000000 1.894500 0.000000 
#    z 0.008270 0.000000 1.934900 
# 
# From -- ./inp_files/22056.got.cif
#   From: 2010.05.17/outbox.cif.g08.bks.cpg/sg9_12_cif.got.tgz:22056.got - 2010.06.03 20:04:27.
