data_PCOD9138677
_publ_section_title
;
Structure prediction by ZEFSAII (Michael W. Deem and Ramdas Pophale) SiO2 
 PCOD9138677
Probable space group: C C
;
_chemical_formula_sum "Si O2"
_cell_formula_units_Z 32
_cell_length_a 9.335944
_cell_length_b 10.028218
_cell_length_c 13.992636
_cell_angle_alpha 90.000000
_cell_angle_beta 108.895952
_cell_angle_gamma 90.000000
_cell_volume 1239.431035
_symmetry_space_group_name_H-M "C C"
_symmetry_group_IT_number 9
_symmetry_cell_setting 'monoclinic'
loop_
_space_group_symop_operation_xyz
x,y,z
x,-y,1/2+z
1/2+x,1/2+y,z
1/2+x,1/2-y,1/2+z
loop_
_atom_site_type_symbol
_atom_site_label
_atom_site_fract_x
_atom_site_fract_y
_atom_site_fract_z
Si Si1 0.372870 0.486743 0.306800
Si Si2 0.799979 0.386059 0.793552
Si Si3 0.776068 0.154847 0.127773
Si Si4 0.564642 0.852283 0.263245
Si Si5 0.003016 0.541276 0.957555
Si Si6 0.079882 0.858770 0.216366
Si Si7 0.837416 0.533107 0.107749
Si Si8 0.974989 0.027224 0.037182
O O1 0.387891 0.607297 0.236424
O O2 0.194332 0.459711 0.265186
O O3 0.482708 0.367810 0.294207
O O4 0.409778 0.516181 0.422991
O O5 0.708630 0.527948 0.768537
O O6 0.672485 0.276564 0.780009
O O7 0.929939 0.404934 0.900519
O O8 0.874049 0.372177 0.704780
O O9 0.894414 0.159025 0.062340
O O10 0.659184 0.052895 0.049254
O O11 0.166544 0.751153 0.167852
O O12 0.425684 0.897165 0.162779
O O13 0.019670 0.627764 0.864613
O O14 0.888315 0.581862 0.016030
O O15 0.957018 0.917032 0.115196
O O16 0.656122 0.530657 0.064789
#
# Coordination Sequence:
#
# PCOD9138677 Si02
#       8
#     4   4   4   4   4   4   4   4
#     4  11  23  45  73 108 154 200 256 321 388 471
#     4  10  25  46  73 114 146 197 263 317 396 469
#     4  11  24  45  78 106 155 204 253 326 389 457
#     4  11  24  45  78 107 155 200 253 331 392 456
#     4  11  23  44  76 112 148 204 263 316 389 469
#     4  10  25  44  75 106 149 200 257 326 389 466
#     4  10  23  45  75 108 155 199 260 314 389 467
#     4  10  23  46  70 113 152 194 261 315 382 467
#
# _framework density 25.818299
#
# number of rings (size 3 to 8) (size 9 to 14) (size 15 to 20)
#    0.000    1.500    2.500    0.750    1.750   14.000 
#    4.500    0.000    5.500    0.000    0.000    0.000 
#    0.000    0.000    0.000    0.000    0.000    0.000 
#
# Total GULP energy -89076.441280 kJ/mol
# GULP energy per Si atom -5567.277580 kJ/mol
# Density = 2.575954 g / cm^3
# Si number density = 25.818299 Si / 1000 Ang^3
#
#
#
# Elastic Constant Matrix: (Units=GPa)
#
#
# Indices 1 2 3 4 5 6 
#
# 1 175.3800 19.2559 40.6627 0.0000 -14.6719 0.0000
# 2 19.2559 72.2436 33.1278 0.0000 -4.0754 0.0000
# 3 40.6627 33.1278 136.0382 0.0000 -20.7993 0.0000
# 4 0.0000 0.0000 0.0000 14.7242 0.0000 -7.6921
# 5 -14.6719 -4.0754 -20.7993 0.0000 57.9084 0.0000
# 6 0.0000 0.0000 0.0000 -7.6921 0.0000 37.8192
#
#
#
# Elastic Compliance Matrix: (Units=1/GPa)
#
#
# Indices 1 2 3 4 5 6 
#
# 1 0.006230 -0.000923 -0.001488 0.000000 0.000979 0.000000
# 2 -0.000923 0.015723 -0.003618 0.000000 -0.000427 0.000000
# 3 -0.001488 -0.003618 0.009079 0.000000 0.002629 0.000000
# 4 0.000000 0.000000 0.000000 0.075989 0.000000 0.015455
# 5 0.000979 -0.000427 0.002629 0.000000 0.018431 0.000000
# 6 0.000000 0.000000 0.000000 0.015455 0.000000 0.029585
#
#
# Mechanical properties :
#
#
# Convention : Reuss Voigt Hill
#
# Bulk Modulus (GPa) = 52.70423 63.30604 58.00514
# Shear Modulus (GPa) = 28.83172 41.46474 35.14823
#
# Velocity S-wave (km/s) = 3.34536 4.01187 3.69368
# Velocity P-wave (km/s) = 5.94808 6.78477 6.38016
#
# Compressibility (1/GPa) = 0.01897381
#
# Stress axis : x y z
#
# Youngs Moduli (GPa) = 160.51081 63.60032 110.14839
#
# Poissons Ratio (x) = 0.05871 0.16387
# Poissons Ratio (y) = 0.14817 0.39854
# Poissons Ratio (z) = 0.23879 0.23012
#
# Static dielectric constant tensor:
#      x y z
#    x 2.113240 0.000000 -0.005300 
#    y 0.000000 2.402160 0.000000 
#    z -0.005300 0.000000 1.987890 
# 
# From -- ./inp_files/23401.got.cif
#   From: 2010.05.17/outbox.cif.g08.bks.cpg/sg9_12_cif.got.tgz:23401.got - 2010.06.03 20:04:27.
