data_PCOD9138825
_publ_section_title
;
Structure prediction by ZEFSAII (Michael W. Deem and Ramdas Pophale) SiO2 
 PCOD9138825
Probable space group: C C
;
_chemical_formula_sum "Si O2"
_cell_formula_units_Z 28
_cell_length_a 10.289150
_cell_length_b 9.297272
_cell_length_c 12.721498
_cell_angle_alpha 90.000000
_cell_angle_beta 114.973848
_cell_angle_gamma 90.000000
_cell_volume 1103.167303
_symmetry_space_group_name_H-M "C C"
_symmetry_group_IT_number 9
_symmetry_cell_setting 'monoclinic'
loop_
_space_group_symop_operation_xyz
x,y,z
x,-y,1/2+z
1/2+x,1/2+y,z
1/2+x,1/2-y,1/2+z
loop_
_atom_site_type_symbol
_atom_site_label
_atom_site_fract_x
_atom_site_fract_y
_atom_site_fract_z
Si Si1 0.400380 0.921144 0.397610
Si Si2 0.510500 0.450526 0.390640
Si Si3 0.746164 0.831533 0.791388
Si Si4 0.470466 0.996684 0.205363
Si Si5 0.106619 0.190919 0.540740
Si Si6 0.048876 0.313738 0.052651
Si Si7 0.887236 0.190434 0.638462
O O1 0.275079 0.806245 0.375776
O O2 0.370280 0.968417 0.268595
O O3 0.541859 0.821104 0.450647
O O4 0.447164 0.064679 0.468944
O O5 0.384300 0.568510 0.335828
O O6 0.640735 0.560220 0.472049
O O7 0.508481 0.334094 0.483545
O O8 0.474656 0.359077 0.272276
O O9 0.705855 0.771808 0.661113
O O10 0.620950 0.932811 0.790660
O O11 0.510876 0.848916 0.160689
O O12 0.403527 0.136686 0.125514
O O13 0.979214 0.128621 0.573195
O O14 0.218974 0.343007 0.092979
#
# Coordination Sequence:
#
# PCOD9138825 Si02
#       7
#     4   4   4   4   4   4   4
#     4  11  23  41  72  98 137 193 233 283 371 416
#     4  11  24  40  71 104 140 190 235 295 363 414
#     4  10  23  48  65 102 145 178 243 293 343 435
#     4  11  24  46  72 101 145 189 230 303 354 423
#     4  10  24  45  71 102 138 192 235 290 368 418
#     4  12  25  43  68 108 139 185 246 292 358 428
#     4  11  23  43  71  99 146 181 236 298 353 428
#
# _framework density 25.381463
#
# number of rings (size 3 to 8) (size 9 to 14) (size 15 to 20)
#    0.000    1.143    5.714    0.000    6.000    2.286 
#    2.571    0.000    6.286    0.000    0.000    0.000 
#    0.000    0.000    0.000    0.000    0.000    0.000 
#
# Total GULP energy -78023.823648 kJ/mol
# GULP energy per Si atom -5573.130261 kJ/mol
# Density = 2.532369 g / cm^3
# Si number density = 25.381463 Si / 1000 Ang^3
#
#
#
# Elastic Constant Matrix: (Units=GPa)
#
#
# Indices 1 2 3 4 5 6 
#
# 1 78.5663 11.9209 18.0301 0.0000 22.3133 0.0000
# 2 11.9209 146.3397 53.7616 0.0000 17.9283 0.0000
# 3 18.0301 53.7616 106.9262 0.0000 10.1277 0.0000
# 4 0.0000 0.0000 0.0000 66.1395 0.0000 5.6741
# 5 22.3133 17.9283 10.1277 0.0000 22.3290 0.0000
# 6 0.0000 0.0000 0.0000 5.6741 0.0000 38.0480
#
#
#
# Elastic Compliance Matrix: (Units=1/GPa)
#
#
# Indices 1 2 3 4 5 6 
#
# 1 0.018233 0.001556 -0.002103 0.000000 -0.018516 0.000000
# 2 0.001556 0.009093 -0.004175 0.000000 -0.006962 0.000000
# 3 -0.002103 -0.004175 0.011796 0.000000 0.000103 0.000000
# 4 0.000000 0.000000 0.000000 0.015316 0.000000 -0.002284
# 5 -0.018516 -0.006962 0.000103 0.000000 0.068831 0.000000
# 6 0.000000 0.000000 0.000000 -0.002284 0.000000 0.026623
#
#
# Mechanical properties :
#
#
# Convention : Reuss Voigt Hill
#
# Bulk Modulus (GPa) = 33.69456 55.47305 44.58381
# Shear Modulus (GPa) = 29.54562 41.84459 35.69510
#
# Velocity S-wave (km/s) = 3.41554 4.06473 3.75420
# Velocity P-wave (km/s) = 5.37202 6.62817 6.03288
#
# Compressibility (1/GPa) = 0.02967838
#
# Stress axis : x y z
#
# Youngs Moduli (GPa) = 54.84489 109.96957 84.77290
#
# Poissons Ratio (x) = -0.17108 0.17827
# Poissons Ratio (y) = -0.08532 0.35393
# Poissons Ratio (z) = 0.11534 0.45912
#
# Static dielectric constant tensor:
#      x y z
#    x 2.083760 0.000000 0.013560 
#    y 0.000000 1.942700 0.000000 
#    z 0.013560 0.000000 2.151670 
# 
# From -- ./inp_files/24273.got.cif
#   From: 2010.05.17/outbox.cif.g08.bks.cpg/sg9_13_cif.got.tgz:24273.got - 2010.06.03 20:04:27.
