data_PCOD9138076
_publ_section_title
;
Structure prediction by ZEFSAII (Michael W. Deem and Ramdas Pophale) SiO2 
 PCOD9138076
Probable space group: C C
;
_chemical_formula_sum "Si O2"
_cell_formula_units_Z 32
_cell_length_a 19.772653
_cell_length_b 5.475236
_cell_length_c 13.775678
_cell_angle_alpha 90.000000
_cell_angle_beta 114.384584
_cell_angle_gamma 90.000000
_cell_volume 1358.317521
_symmetry_space_group_name_H-M "C C"
_symmetry_group_IT_number 9
_symmetry_cell_setting 'monoclinic'
loop_
_space_group_symop_operation_xyz
x,y,z
x,-y,1/2+z
1/2+x,1/2+y,z
1/2+x,1/2-y,1/2+z
loop_
_atom_site_type_symbol
_atom_site_label
_atom_site_fract_x
_atom_site_fract_y
_atom_site_fract_z
Si Si1 0.714960 0.268586 0.307420
Si Si2 0.330674 0.022542 0.725640
Si Si3 0.150020 0.477799 0.100042
Si Si4 0.578336 0.560560 0.178218
Si Si5 0.929658 0.740747 0.417577
Si Si6 0.517056 0.266090 0.979217
Si Si7 0.283889 0.680240 0.554344
Si Si8 0.921505 0.843541 0.638063
O O1 0.781236 0.351265 0.276965
O O2 0.671479 0.066928 0.220252
O O3 0.651581 0.477511 0.277768
O O4 0.750627 0.187485 0.428106
O O5 0.363417 0.787633 0.801885
O O6 0.282208 0.942256 0.604833
O O7 0.391874 0.182929 0.708813
O O8 0.104906 0.230481 0.102713
O O9 0.099287 0.662530 0.006761
O O10 0.226296 0.461236 0.087655
O O11 0.533037 0.334480 0.102016
O O12 0.511023 0.666022 0.200598
O O13 0.907803 0.757310 0.518162
O O14 0.967994 0.474058 0.434873
O O15 0.977959 0.983305 0.420756
O O16 0.368300 0.582703 0.607484
#
# Coordination Sequence:
#
# PCOD9138076 Si02
#       8
#     4   4   4   4   4   4   4   4
#     4  11  26  48  78 108 163 207 266 327 409 465
#     4  12  27  46  75 113 157 210 269 332 390 482
#     4  11  22  50  75 112 155 211 260 333 385 486
#     4  10  23  49  78 108 162 201 266 326 395 463
#     4  11  26  46  81 109 159 202 262 325 404 452
#     4  10  22  47  77 111 149 209 250 329 389 466
#     4  12  28  47  77 114 157 210 272 321 407 474
#     4  11  26  47  77 113 154 206 269 331 395 474
#
# _framework density 23.558555999999999
#
# number of rings (size 3 to 8) (size 9 to 14) (size 15 to 20)
#    0.000    1.000    5.000    0.750   10.500    1.000 
#    6.750    0.000    0.000    0.000    0.000    0.000 
#    0.000    0.000    0.000    0.000    0.000    0.000 
#
# Total GULP energy -89193.054470 kJ/mol
# GULP energy per Si atom -5574.565904 kJ/mol
# Density = 2.350494 g / cm^3
# Si number density = 23.558556 Si / 1000 Ang^3
#
#
#
# Elastic Constant Matrix: (Units=GPa)
#
#
# Indices 1 2 3 4 5 6 
#
# 1 119.1968 24.8371 27.7312 0.0000 1.1564 0.0000
# 2 24.8371 88.7767 28.8223 0.0000 2.5208 0.0000
# 3 27.7312 28.8223 106.0587 0.0000 -10.7479 0.0000
# 4 0.0000 0.0000 0.0000 51.5096 0.0000 23.7673
# 5 1.1564 2.5208 -10.7479 0.0000 8.2442 0.0000
# 6 0.0000 0.0000 0.0000 23.7673 0.0000 31.4704
#
#
#
# Elastic Compliance Matrix: (Units=1/GPa)
#
#
# Indices 1 2 3 4 5 6 
#
# 1 0.009338 -0.001737 -0.002360 0.000000 -0.003856 0.000000
# 2 -0.001737 0.013343 -0.004103 0.000000 -0.009185 0.000000
# 3 -0.002360 -0.004103 0.013045 0.000000 0.018592 0.000000
# 4 0.000000 0.000000 0.000000 0.029798 0.000000 -0.022504
# 5 -0.003856 -0.009185 0.018592 0.000000 0.148886 0.000000
# 6 0.000000 0.000000 0.000000 -0.022504 0.000000 0.048771
#
#
# Mechanical properties :
#
#
# Convention : Reuss Voigt Hill
#
# Bulk Modulus (GPa) = 51.74325 52.97925 52.36125
# Shear Modulus (GPa) = 17.48117 33.75427 25.61772
#
# Velocity S-wave (km/s) = 2.72698 3.78932 3.30116
# Velocity P-wave (km/s) = 5.65036 6.45619 6.06667
#
# Compressibility (1/GPa) = 0.01932619
#
# Stress axis : x y z
#
# Youngs Moduli (GPa) = 107.09033 74.94622 76.65764
#
# Poissons Ratio (x) = 0.13016 0.18094
# Poissons Ratio (y) = 0.18598 0.31451
# Poissons Ratio (z) = 0.25278 0.30749
#
# Static dielectric constant tensor:
#      x y z
#    x 1.968880 0.000000 0.074580 
#    y 0.000000 1.918550 0.000000 
#    z 0.074580 0.000000 1.882660 
# 
# From -- ./inp_files/27069.got.cif
#   From: 2010.05.17/outbox.cif.g08.bks.cpg/sg9_14_cif.got.tgz:27069.got - 2010.06.03 20:04:27.
