data_PCOD9138508
_publ_section_title
;
Structure prediction by ZEFSAII (Michael W. Deem and Ramdas Pophale) SiO2 
 PCOD9138508
Probable space group: C C
;
_chemical_formula_sum "Si O2"
_cell_formula_units_Z 32
_cell_length_a 14.173038
_cell_length_b 19.751507
_cell_length_c 5.426907
_cell_angle_alpha 90.000000
_cell_angle_beta 54.357806
_cell_angle_gamma 90.000000
_cell_volume 1234.612828
_symmetry_space_group_name_H-M "C C"
_symmetry_group_IT_number 9
_symmetry_cell_setting 'monoclinic'
loop_
_space_group_symop_operation_xyz
x,y,z
x,-y,1/2+z
1/2+x,1/2+y,z
1/2+x,1/2-y,1/2+z
loop_
_atom_site_type_symbol
_atom_site_label
_atom_site_fract_x
_atom_site_fract_y
_atom_site_fract_z
Si Si1 0.380730 0.039975 0.047460
Si Si2 0.246511 0.852111 0.443319
Si Si3 0.676465 0.767686 0.401634
Si Si4 0.953398 0.264880 0.069058
Si Si5 0.335792 0.517147 0.850077
Si Si6 0.589580 0.461339 0.447747
Si Si7 0.088221 0.636215 0.680195
Si Si8 0.317036 0.340706 0.542799
O O1 0.292286 0.097448 0.086133
O O2 0.368643 0.016803 0.349744
O O3 0.507761 0.072037 0.820375
O O4 0.361399 0.823804 0.130210
O O5 0.152944 0.891197 0.418270
O O6 0.196241 0.786936 0.659691
O O7 0.648380 0.841650 0.338177
O O8 0.789471 0.780123 0.395697
O O9 0.563832 0.750145 0.731086
O O10 0.884536 0.194300 0.165209
O O11 0.006746 0.299288 0.230514
O O12 0.271599 0.493019 0.192219
O O13 0.374644 0.594831 0.826744
O O14 0.449242 0.468024 0.665613
O O15 0.622243 0.490107 0.129781
O O16 0.191555 0.634308 0.326665
#
# Coordination Sequence:
#
# PCOD9138508 Si02
#       8
#     4   4   4   4   4   4   4   4
#     4  11  27  47  75 106 147 201 253 312 371 454
#     4  11  24  45  76 107 147 191 252 315 382 453
#     4  11  26  45  72 109 145 197 247 314 379 449
#     4  10  25  44  69 107 144 199 242 314 374 446
#     4  10  25  44  68 104 146 195 243 299 375 452
#     4  10  23  44  68 109 148 191 243 303 383 450
#     4  10  25  46  70 106 144 192 257 303 377 451
#     4  11  25  45  72 106 149 194 253 306 385 455
#
# _framework density 25.919056000000001
#
# number of rings (size 3 to 8) (size 9 to 14) (size 15 to 20)
#    0.000    1.500    1.250    0.750   14.000    4.000 
#    0.000    0.000    0.000    0.000    0.000    0.000 
#    0.000    0.000    0.000    0.000    0.000    0.000 
#
# Total GULP energy -89472.106740 kJ/mol
# GULP energy per Si atom -5592.006671 kJ/mol
# Density = 2.586006 g / cm^3
# Si number density = 25.919056 Si / 1000 Ang^3
#
#
#
# Elastic Constant Matrix: (Units=GPa)
#
#
# Indices 1 2 3 4 5 6 
#
# 1 72.2622 28.7557 21.4625 0.0000 -2.3396 0.0000
# 2 28.7557 100.1538 9.7204 0.0000 -9.9065 0.0000
# 3 21.4625 9.7204 58.0184 0.0000 10.5172 0.0000
# 4 0.0000 0.0000 0.0000 38.1046 0.0000 -7.6576
# 5 -2.3396 -9.9065 10.5172 0.0000 36.1941 0.0000
# 6 0.0000 0.0000 0.0000 -7.6576 0.0000 50.1200
#
#
#
# Elastic Compliance Matrix: (Units=1/GPa)
#
#
# Indices 1 2 3 4 5 6 
#
# 1 0.017368 -0.004232 -0.006027 0.000000 0.001716 0.000000
# 2 -0.004232 0.011607 -0.000956 0.000000 0.003181 0.000000
# 3 -0.006027 -0.000956 0.020841 0.000000 -0.006707 0.000000
# 4 0.000000 0.000000 0.000000 0.027075 0.000000 0.004137
# 5 0.001716 0.003181 -0.006707 0.000000 0.030559 0.000000
# 6 0.000000 0.000000 0.000000 0.004137 0.000000 0.020584
#
#
# Mechanical properties :
#
#
# Convention : Reuss Voigt Hill
#
# Bulk Modulus (GPa) = 36.51331 38.92353 37.71842
# Shear Modulus (GPa) = 31.32962 36.25014 33.78988
#
# Velocity S-wave (km/s) = 3.48048 3.74383 3.61455
# Velocity P-wave (km/s) = 5.50179 5.80847 5.65721
#
# Compressibility (1/GPa) = 0.02738728
#
# Stress axis : x y z
#
# Youngs Moduli (GPa) = 57.57664 86.15394 47.98150
#
# Poissons Ratio (x) = 0.36461 0.28918
# Poissons Ratio (y) = 0.24367 0.04586
# Poissons Ratio (z) = 0.34701 0.08234
#
# Static dielectric constant tensor:
#      x y z
#    x 2.058100 0.000000 -0.002880 
#    y 0.000000 2.017930 0.000000 
#    z -0.002880 0.000000 2.063900 
# 
# From -- ./inp_files/2565.got.cif
#   From: 2010.05.17/outbox.cif.g08.bks.cpg/sg9_2_cif.got.tgz:2565.got - 2010.06.03 20:04:27.
