data_PCOD9138495
_publ_section_title
;
Structure prediction by ZEFSAII (Michael W. Deem and Ramdas Pophale) SiO2 
 PCOD9138495
Probable space group: C C
;
_chemical_formula_sum "Si O2"
_cell_formula_units_Z 20
_cell_length_a 17.593695
_cell_length_b 6.978523
_cell_length_c 9.777118
_cell_angle_alpha 90.000000
_cell_angle_beta 38.955422
_cell_angle_gamma 90.000000
_cell_volume 754.719612
_symmetry_space_group_name_H-M "C C"
_symmetry_group_IT_number 9
_symmetry_cell_setting 'monoclinic'
loop_
_space_group_symop_operation_xyz
x,y,z
x,-y,1/2+z
1/2+x,1/2+y,z
1/2+x,1/2-y,1/2+z
loop_
_atom_site_type_symbol
_atom_site_label
_atom_site_fract_x
_atom_site_fract_y
_atom_site_fract_z
Si Si1 0.837890 0.574478 0.620230
Si Si2 0.606894 0.556105 0.797658
Si Si3 0.222530 0.566750 0.228937
Si Si4 0.459421 0.593263 0.259613
Si Si5 0.484488 0.958532 0.666727
O O1 0.729581 0.471928 0.690841
O O2 0.779411 0.775103 0.754393
O O3 0.901904 0.451898 0.646477
O O4 0.927659 0.647942 0.374680
O O5 0.643345 0.782859 0.747508
O O6 0.564886 0.476615 0.713951
O O7 0.498855 0.518072 0.055594
O O8 0.123737 0.429923 0.434828
O O9 0.829234 0.966997 0.997812
O O10 0.472916 0.821068 0.231242
#
# Coordination Sequence:
#
# PCOD9138495 Si02
#       5
#     4   4   4   4   4
#     4  10  23  44  66  94 135 169 212 277 320 380
#     4   9  22  40  69  91 134 166 213 268 324 376
#     4   9  22  40  68  92 135 163 218 266 325 374
#     4  11  21  45  67  96 130 174 214 268 324 387
#     4  11  24  43  64  97 132 170 219 265 325 385
#
# _framework density 26.499908000000001
#
# number of rings (size 3 to 8) (size 9 to 14) (size 15 to 20)
#    1.200    0.800    0.000    3.600    0.000    4.800 
#    3.600    0.000    0.000    0.000    0.000    0.000 
#    0.000    0.000    0.000    0.000    0.000    0.000 
#
# Total GULP energy -55951.447046 kJ/mol
# GULP energy per Si atom -5595.144705 kJ/mol
# Density = 2.643959 g / cm^3
# Si number density = 26.499908 Si / 1000 Ang^3
#
#
#
# Elastic Constant Matrix: (Units=GPa)
#
#
# Indices 1 2 3 4 5 6 
#
# 1 130.8447 17.3553 43.3265 0.0000 -5.6565 0.0000
# 2 17.3553 67.5647 30.1737 -0.0011 -9.8492 0.0008
# 3 43.3265 30.1737 115.5992 -0.0001 -39.3066 0.0003
# 4 0.0000 -0.0011 -0.0001 43.6352 0.0002 0.8492
# 5 -5.6565 -9.8492 -39.3066 0.0002 48.1527 0.0000
# 6 0.0000 0.0008 0.0003 0.8492 0.0000 5.6714
#
#
#
# Elastic Compliance Matrix: (Units=1/GPa)
#
#
# Indices 1 2 3 4 5 6 
#
# 1 0.008957 -0.000891 -0.003915 0.000000 -0.002326 0.000000
# 2 -0.000891 0.016844 -0.004051 0.000000 0.000034 -0.000002
# 3 -0.003915 -0.004051 0.014863 0.000000 0.010844 0.000000
# 4 0.000000 0.000000 0.000000 0.022984 0.000000 -0.003442
# 5 -0.002326 0.000034 0.010844 0.000000 0.029352 -0.000001
# 6 0.000000 -0.000002 0.000000 -0.003442 -0.000001 0.176837
#
#
# Mechanical properties :
#
#
# Convention : Reuss Voigt Hill
#
# Bulk Modulus (GPa) = 43.57734 55.07997 49.32865
# Shear Modulus (GPa) = 16.93759 34.36875 25.65317
#
# Velocity S-wave (km/s) = 2.53090 3.60521 3.11472
# Velocity P-wave (km/s) = 5.00206 6.17739 5.62053
#
# Compressibility (1/GPa) = 0.02294771
#
# Stress axis : x y z
#
# Youngs Moduli (GPa) = 111.64730 59.36966 67.28324
#
# Poissons Ratio (x) = 0.05291 0.26343
# Poissons Ratio (y) = 0.09951 0.27257
# Poissons Ratio (z) = 0.43713 0.24051
#
# Static dielectric constant tensor:
#      x y z
#    x 2.078280 0.000000 -0.043710 
#    y 0.000000 2.126020 0.000000 
#    z -0.043710 0.000000 2.145780 
# 
# From -- ./inp_files/10399.got.cif
#   From: 2010.05.17/outbox.cif.g08.bks.cpg/sg9_6_cif.got.tgz:10399.got - 2010.06.03 20:04:27.
