data_PCOD9138918
_publ_section_title
;
Structure prediction by ZEFSAII (Michael W. Deem and Ramdas Pophale) SiO2 
 PCOD9138918
Probable space group: C C
;
_chemical_formula_sum "Si O2"
_cell_formula_units_Z 20
_cell_length_a 18.545064
_cell_length_b 5.114002
_cell_length_c 19.047770
_cell_angle_alpha 90.000000
_cell_angle_beta 152.054308
_cell_angle_gamma 90.000000
_cell_volume 846.579167
_symmetry_space_group_name_H-M "C C"
_symmetry_group_IT_number 9
_symmetry_cell_setting 'monoclinic'
loop_
_space_group_symop_operation_xyz
x,y,z
x,-y,1/2+z
1/2+x,1/2+y,z
1/2+x,1/2-y,1/2+z
loop_
_atom_site_type_symbol
_atom_site_label
_atom_site_fract_x
_atom_site_fract_y
_atom_site_fract_z
Si Si1 0.815820 0.342708 0.975380
Si Si2 0.588563 0.488888 0.182199
Si Si3 0.562045 0.434320 0.996976
Si Si4 0.129414 0.677822 0.348728
Si Si5 0.420553 0.076082 0.302020
O O1 0.762220 0.428370 0.850665
O O2 0.744386 0.576477 0.960207
O O3 0.725205 0.084928 0.922785
O O4 0.986163 0.235280 0.116378
O O5 0.554627 0.406371 0.074750
O O6 0.557497 0.263270 0.212108
O O7 0.740690 0.510699 0.136917
O O8 0.452301 0.669178 0.876940
O O9 0.506664 0.172244 0.910793
O O10 0.004768 0.642581 0.301457
#
# Coordination Sequence:
#
# PCOD9138918 Si02
#       5
#     4   4   4   4   4
#     4  10  24  40  74 101 143 188 248 305 355 438
#     4  10  26  44  75 106 148 186 255 298 374 435
#     4  12  28  47  80 107 160 197 253 311 389 452
#     4  10  26  43  73 103 147 193 246 307 361 452
#     4  12  28  50  74 113 154 202 248 313 389 451
#
# _framework density 23.624490000000002
#
# number of rings (size 3 to 8) (size 9 to 14) (size 15 to 20)
#    1.200    0.000    0.000    3.600   11.200    1.600 
#    0.000    0.000    0.000    0.000    0.000    0.000 
#    0.000    0.000    0.000    0.000    0.000    0.000 
#
# Total GULP energy -55906.761464 kJ/mol
# GULP energy per Si atom -5590.676146 kJ/mol
# Density = 2.357072 g / cm^3
# Si number density = 23.624490 Si / 1000 Ang^3
#
#
#
# Elastic Constant Matrix: (Units=GPa)
#
#
# Indices 1 2 3 4 5 6 
#
# 1 113.4914 41.7470 17.3485 0.0001 -13.4800 0.0000
# 2 41.7470 166.1361 25.4995 0.0007 -10.7433 0.0010
# 3 17.3485 25.4995 59.3874 0.0004 7.8983 0.0002
# 4 0.0001 0.0007 0.0004 34.7749 0.0000 -2.5114
# 5 -13.4800 -10.7433 7.8983 0.0000 34.0107 0.0001
# 6 0.0000 0.0010 0.0002 -2.5114 0.0001 31.1541
#
#
#
# Elastic Compliance Matrix: (Units=1/GPa)
#
#
# Indices 1 2 3 4 5 6 
#
# 1 0.010441 -0.001927 -0.002778 0.000000 0.004174 0.000000
# 2 -0.001927 0.007062 -0.002749 0.000000 0.002105 0.000000
# 3 -0.002778 -0.002749 0.019701 0.000000 -0.006544 0.000000
# 4 0.000000 0.000000 0.000000 0.028925 0.000000 0.002332
# 5 0.004174 0.002105 -0.006544 0.000000 0.033242 0.000000
# 6 0.000000 0.000000 0.000000 0.002332 0.000000 0.032286
#
#
# Mechanical properties :
#
#
# Convention : Reuss Voigt Hill
#
# Bulk Modulus (GPa) = 44.85300 56.46722 50.66011
# Shear Modulus (GPa) = 32.46853 36.94926 34.70890
#
# Velocity S-wave (km/s) = 3.71126 3.95906 3.83716
# Velocity P-wave (km/s) = 6.11487 6.69722 6.41266
#
# Compressibility (1/GPa) = 0.02229505
#
# Stress axis : x y z
#
# Youngs Moduli (GPa) = 95.78027 141.61266 50.75955
#
# Poissons Ratio (x) = 0.27293 0.14099
# Poissons Ratio (y) = 0.18459 0.13954
# Poissons Ratio (z) = 0.26604 0.38930
#
# Static dielectric constant tensor:
#      x y z
#    x 1.872890 0.000000 -0.010650 
#    y 0.000000 1.885150 0.000000 
#    z -0.010650 0.000000 2.007660 
# 
# From -- ./inp_files/10219.got.cif
#   From: 2010.05.17/outbox.cif.g08.bks.cpg/sg9_6_cif.got.tgz:10219.got - 2010.06.03 20:04:27.
