data_PCOD9138853
_publ_section_title
;
Structure prediction by ZEFSAII (Michael W. Deem and Ramdas Pophale) SiO2 
 PCOD9138853
Probable space group: C C
;
_chemical_formula_sum "Si O2"
_cell_formula_units_Z 20
_cell_length_a 8.478080
_cell_length_b 5.518653
_cell_length_c 14.544308
_cell_angle_alpha 90.000000
_cell_angle_beta 109.292690
_cell_angle_gamma 90.000000
_cell_volume 642.278629
_symmetry_space_group_name_H-M "C C"
_symmetry_group_IT_number 9
_symmetry_cell_setting 'monoclinic'
loop_
_space_group_symop_operation_xyz
x,y,z
x,-y,1/2+z
1/2+x,1/2+y,z
1/2+x,1/2-y,1/2+z
loop_
_atom_site_type_symbol
_atom_site_label
_atom_site_fract_x
_atom_site_fract_y
_atom_site_fract_z
Si Si1 0.132780 0.549802 0.967590
Si Si2 0.946481 0.570245 0.605229
Si Si3 0.844981 0.847147 0.833586
Si Si4 0.777665 0.192101 0.657286
Si Si5 0.269251 0.852991 0.896330
O O1 0.975350 0.360233 0.911078
O O2 0.263737 0.362668 0.046779
O O3 0.044006 0.797365 0.887611
O O4 0.044023 0.608030 0.054110
O O5 0.892852 0.425834 0.683795
O O6 0.794926 0.674298 0.515372
O O7 0.090913 0.761141 0.654352
O O8 0.826408 0.970766 0.731376
O O9 0.755982 0.050035 0.883088
O O10 0.742267 0.605725 0.838567
#
# Coordination Sequence:
#
# PCOD9138853 Si02
#       5
#     4   4   4   4   4
#     4   9  22  42  75  96 153 188 258 309 397 457
#     4   9  23  45  74 107 150 207 257 323 397 475
#     4  11  26  45  70 114 144 204 251 332 385 486
#     4  10  23  49  72 115 153 209 261 329 399 483
#     4  11  24  47  73 104 150 194 261 317 406 463
#
# _framework density 31.139135
#
# number of rings (size 3 to 8) (size 9 to 14) (size 15 to 20)
#    1.200    0.800    0.000    2.400    5.600    3.200 
#    3.600    0.000    0.000    0.000    0.000    0.000 
#    0.000    0.000    0.000    0.000    0.000    0.000 
#
# Total GULP energy -55702.154389 kJ/mol
# GULP energy per Si atom -5570.215439 kJ/mol
# Density = 3.106826 g / cm^3
# Si number density = 31.139135 Si / 1000 Ang^3
#
#
#
# Elastic Constant Matrix: (Units=GPa)
#
#
# Indices 1 2 3 4 5 6 
#
# 1 222.8579 81.1759 56.3276 0.0000 -10.3945 0.0000
# 2 81.1759 174.4603 52.6771 0.0000 -33.1606 0.0000
# 3 56.3276 52.6771 134.3740 0.0000 -2.7601 0.0000
# 4 0.0000 0.0000 0.0000 55.2364 0.0000 -33.8235
# 5 -10.3945 -33.1606 -2.7601 0.0000 51.3180 0.0000
# 6 0.0000 0.0000 0.0000 -33.8235 0.0000 98.6973
#
#
#
# Elastic Compliance Matrix: (Units=1/GPa)
#
#
# Indices 1 2 3 4 5 6 
#
# 1 0.005671 -0.002261 -0.001499 0.000000 -0.000393 0.000000
# 2 -0.002261 0.008379 -0.002238 0.000000 0.004836 0.000000
# 3 -0.001499 -0.002238 0.008921 0.000000 -0.001270 0.000000
# 4 0.000000 0.000000 0.000000 0.022912 0.000000 0.007852
# 5 -0.000393 0.004836 -0.001270 0.000000 0.022463 0.000000
# 6 0.000000 0.000000 0.000000 0.007852 0.000000 0.012823
#
#
# Mechanical properties :
#
#
# Convention : Reuss Voigt Hill
#
# Bulk Modulus (GPa) = 91.10475 101.33927 96.22201
# Shear Modulus (GPa) = 51.64040 63.81778 57.72909
#
# Velocity S-wave (km/s) = 4.07673 4.53199 4.31037
# Velocity P-wave (km/s) = 7.17499 7.74596 7.46594
#
# Compressibility (1/GPa) = 0.01097638
#
# Stress axis : x y z
#
# Youngs Moduli (GPa) = 176.32799 119.34994 112.09007
#
# Poissons Ratio (x) = 0.26983 0.16803
# Poissons Ratio (y) = 0.39865 0.25081
# Poissons Ratio (z) = 0.26433 0.26705
#
# Static dielectric constant tensor:
#      x y z
#    x 2.859870 0.000000 0.174130 
#    y 0.000000 2.607050 0.000000 
#    z 0.174130 0.000000 2.503110 
# 
# From -- ./inp_files/23930.got.cif
#   From: 2010.05.17/outbox.cif.g08.bks.cpg/sg9_12_cif.got.tgz:23930.got - 2010.06.03 20:04:27.
