data_PCOD9138188
_publ_section_title
;
Structure prediction by ZEFSAII (Michael W. Deem and Ramdas Pophale) SiO2 
 PCOD9138188
Probable space group: C C
;
_chemical_formula_sum "Si O2"
_cell_formula_units_Z 28
_cell_length_a 5.147033
_cell_length_b 18.052053
_cell_length_c 13.466468
_cell_angle_alpha 90.000000
_cell_angle_beta 99.464712
_cell_angle_gamma 90.000000
_cell_volume 1234.197394
_symmetry_space_group_name_H-M "C C"
_symmetry_group_IT_number 9
_symmetry_cell_setting 'monoclinic'
loop_
_space_group_symop_operation_xyz
x,y,z
x,-y,1/2+z
1/2+x,1/2+y,z
1/2+x,1/2-y,1/2+z
loop_
_atom_site_type_symbol
_atom_site_label
_atom_site_fract_x
_atom_site_fract_y
_atom_site_fract_z
Si Si1 0.208110 0.624047 0.867050
Si Si2 0.064575 0.607198 0.641712
Si Si3 0.042153 0.552807 0.064899
Si Si4 0.642028 0.709335 0.973637
Si Si5 0.557852 0.629570 0.148010
Si Si6 0.042417 0.184357 0.558284
Si Si7 0.707427 0.704716 0.360823
O O1 0.140888 0.586572 0.759217
O O2 0.523664 0.640710 0.902007
O O3 0.101629 0.709644 0.851057
O O4 0.095374 0.581296 0.955596
O O5 0.006646 0.534575 0.573569
O O6 0.312008 0.646753 0.606489
O O7 0.811477 0.660588 0.627383
O O8 0.305541 0.577501 0.140289
O O9 0.790643 0.588754 0.102764
O O10 0.925705 0.732737 0.032854
O O11 0.513288 0.778964 0.907679
O O12 0.484815 0.695116 0.066426
O O13 0.656827 0.663607 0.256151
O O14 0.086871 0.161412 0.446262
#
# Coordination Sequence:
#
# PCOD9138188 Si02
#       7
#     4   4   4   4   4   4   4
#     4   9  23  46  69 105 141 189 232 293 372 407
#     4  12  26  45  73 101 142 198 239 282 344 445
#     4  11  26  47  66 101 149 187 238 288 337 436
#     4   9  22  44  65 105 137 174 229 304 354 419
#     4  11  24  43  69  99 141 186 229 292 363 409
#     4  12  24  43  67 108 137 174 242 294 346 420
#     4  10  23  40  71 105 137 178 227 301 362 408
#
# _framework density 22.686809
#
# number of rings (size 3 to 8) (size 9 to 14) (size 15 to 20)
#    0.857    0.571    1.429    2.571    2.000    5.714 
#    0.000    0.000    0.000    0.000    0.000    0.000 
#    0.000    0.000    0.000    0.000    0.000    0.000 
#
# Total GULP energy -78006.697467 kJ/mol
# GULP energy per Si atom -5571.906962 kJ/mol
# Density = 2.263517 g / cm^3
# Si number density = 22.686809 Si / 1000 Ang^3
#
#
#
# Elastic Constant Matrix: (Units=GPa)
#
#
# Indices 1 2 3 4 5 6 
#
# 1 132.6652 40.6146 24.9799 0.0000 27.1953 0.0000
# 2 40.6146 64.8932 10.9490 0.0000 4.6715 0.0000
# 3 24.9799 10.9490 127.2618 0.0000 4.0180 0.0000
# 4 0.0000 0.0000 0.0000 31.7370 0.0000 -3.1309
# 5 27.1953 4.6715 4.0180 0.0000 24.4523 0.0000
# 6 0.0000 0.0000 0.0000 -3.1309 0.0000 16.8715
#
#
#
# Elastic Compliance Matrix: (Units=1/GPa)
#
#
# Indices 1 2 3 4 5 6 
#
# 1 0.012339 -0.006595 -0.001469 0.000000 -0.012221 0.000000
# 2 -0.006595 0.019352 -0.000488 0.000000 0.003718 0.000000
# 3 -0.001469 -0.000488 0.008176 0.000000 0.000383 0.000000
# 4 0.000000 0.000000 0.000000 0.032097 0.000000 0.005956
# 5 -0.012221 0.003718 0.000383 0.000000 0.053715 0.000000
# 6 0.000000 0.000000 0.000000 0.005956 0.000000 0.060377
#
#
# Mechanical properties :
#
#
# Convention : Reuss Voigt Hill
#
# Bulk Modulus (GPa) = 43.92888 53.10080 48.51484
# Shear Modulus (GPa) = 23.72529 31.16394 27.44462
#
# Velocity S-wave (km/s) = 3.23735 3.71031 3.48187
# Velocity P-wave (km/s) = 5.77747 6.46622 6.13153
#
# Compressibility (1/GPa) = 0.02276407
#
# Stress axis : x y z
#
# Youngs Moduli (GPa) = 81.04690 51.67410 122.30963
#
# Poissons Ratio (x) = 0.34078 0.17963
# Poissons Ratio (y) = 0.53448 0.05967
# Poissons Ratio (z) = 0.11903 0.02521
#
# Static dielectric constant tensor:
#      x y z
#    x 1.943090 0.000000 0.027950 
#    y 0.000000 1.935940 0.000000 
#    z 0.027950 0.000000 1.838110 
# 
# From -- ./inp_files/13395.got.cif
#   From: 2010.05.17/outbox.cif.g08.bks.cpg/sg9_7_cif.got.tgz:13395.got - 2010.06.03 20:04:27.
