data_PCOD9138650
_publ_section_title
;
Structure prediction by ZEFSAII (Michael W. Deem and Ramdas Pophale) SiO2 
 PCOD9138650
Probable space group: C C
;
_chemical_formula_sum "Si O2"
_cell_formula_units_Z 28
_cell_length_a 26.280719
_cell_length_b 9.799347
_cell_length_c 9.298020
_cell_angle_alpha 90.000000
_cell_angle_beta 31.527704
_cell_angle_gamma 90.000000
_cell_volume 1252.138727
_symmetry_space_group_name_H-M "C C"
_symmetry_group_IT_number 9
_symmetry_cell_setting 'monoclinic'
loop_
_space_group_symop_operation_xyz
x,y,z
x,-y,1/2+z
1/2+x,1/2+y,z
1/2+x,1/2-y,1/2+z
loop_
_atom_site_type_symbol
_atom_site_label
_atom_site_fract_x
_atom_site_fract_y
_atom_site_fract_z
Si Si1 0.782500 0.450545 0.193160
Si Si2 0.119595 0.585071 0.028408
Si Si3 0.981147 0.136533 0.524761
Si Si4 0.193270 0.804036 0.049197
Si Si5 0.081771 0.975265 0.506885
Si Si6 0.992347 0.556485 0.052806
Si Si7 0.272843 0.348924 0.632673
O O1 0.687119 0.478037 0.326266
O O2 0.762457 0.564185 0.361946
O O3 0.778183 0.285170 0.222991
O O4 0.887590 0.476788 0.872012
O O5 0.171928 0.722551 0.955000
O O6 0.072314 0.576946 0.985542
O O7 0.031453 0.556109 0.350387
O O8 0.196671 0.462160 0.863570
O O9 0.008292 0.059845 0.312547
O O10 0.981287 0.298241 0.499014
O O11 0.057804 0.103519 0.466190
O O12 0.879746 0.094418 0.842402
O O13 0.092362 0.855427 0.363090
O O14 0.239032 0.706401 0.058324
#
# Coordination Sequence:
#
# PCOD9138650 Si02
#       7
#     4   4   4   4   4   4   4
#     4  10  23  45  71  98 136 176 233 274 341 404
#     4  12  25  46  66 104 141 180 224 282 348 400
#     4  11  25  44  72 100 137 180 232 276 344 406
#     4  11  23  44  68  99 139 180 224 282 343 400
#     4  11  23  43  73  99 134 178 228 286 329 408
#     4  11  26  42  71 101 139 182 223 283 339 414
#     4  10  25  46  67 101 138 180 224 287 338 402
#
# _framework density 22.361739
#
# number of rings (size 3 to 8) (size 9 to 14) (size 15 to 20)
#    0.000    1.143    2.857    2.571    8.000    0.000 
#    0.000    0.000    0.000    0.000    0.000    0.000 
#    0.000    0.000    0.000    0.000    0.000    0.000 
#
# Total GULP energy -78184.480082 kJ/mol
# GULP energy per Si atom -5584.605720 kJ/mol
# Density = 2.231084 g / cm^3
# Si number density = 22.361739 Si / 1000 Ang^3
#
#
#
# Elastic Constant Matrix: (Units=GPa)
#
#
# Indices 1 2 3 4 5 6 
#
# 1 31.6145 7.1703 1.9414 0.0000 7.9626 0.0000
# 2 7.1703 65.7741 47.9807 0.0000 7.9827 0.0000
# 3 1.9414 47.9807 100.0555 0.0000 -4.9493 0.0000
# 4 0.0000 0.0000 0.0000 30.3113 0.0000 5.7515
# 5 7.9626 7.9827 -4.9493 0.0000 33.4882 0.0000
# 6 0.0000 0.0000 0.0000 5.7515 0.0000 31.6869
#
#
#
# Elastic Compliance Matrix: (Units=1/GPa)
#
#
# Indices 1 2 3 4 5 6 
#
# 1 0.034163 -0.003222 0.000522 0.000000 -0.007278 0.000000
# 2 -0.003222 0.025595 -0.012567 0.000000 -0.007193 0.000000
# 3 0.000522 -0.012567 0.016272 0.000000 0.005276 0.000000
# 4 0.000000 0.000000 0.000000 0.034168 0.000000 -0.006202
# 5 -0.007278 -0.007193 0.005276 0.000000 0.034086 0.000000
# 6 0.000000 0.000000 0.000000 -0.006202 0.000000 0.032684
#
#
# Mechanical properties :
#
#
# Convention : Reuss Voigt Hill
#
# Bulk Modulus (GPa) = 21.97996 34.62545 28.30270
# Shear Modulus (GPa) = 22.45502 28.45407 25.45455
#
# Velocity S-wave (km/s) = 3.17230 3.57100 3.37754
# Velocity P-wave (km/s) = 4.82376 5.70268 5.28154
#
# Compressibility (1/GPa) = 0.04549599
#
# Stress axis : x y z
#
# Youngs Moduli (GPa) = 29.27162 39.06979 61.45593
#
# Poissons Ratio (x) = 0.12587 -0.03209
# Poissons Ratio (y) = 0.09431 0.77233
# Poissons Ratio (z) = -0.01528 0.49100
#
# Static dielectric constant tensor:
#      x y z
#    x 1.873580 0.000000 0.000380 
#    y 0.000000 1.871800 0.000000 
#    z 0.000380 0.000000 1.842500 
# 
# From -- ./inp_files/12483.got.cif
#   From: 2010.05.17/outbox.cif.g08.bks.cpg/sg9_7_cif.got.tgz:12483.got - 2010.06.03 20:04:27.
