data_PCOD9138668
_publ_section_title
;
Structure prediction by ZEFSAII (Michael W. Deem and Ramdas Pophale) SiO2 
 PCOD9138668
Probable space group: C C
;
_chemical_formula_sum "Si O2"
_cell_formula_units_Z 28
_cell_length_a 21.832445
_cell_length_b 6.041577
_cell_length_c 10.048229
_cell_angle_alpha 90.000000
_cell_angle_beta 60.188944
_cell_angle_gamma 90.000000
_cell_volume 1149.996623
_symmetry_space_group_name_H-M "C C"
_symmetry_group_IT_number 9
_symmetry_cell_setting 'monoclinic'
loop_
_space_group_symop_operation_xyz
x,y,z
x,-y,1/2+z
1/2+x,1/2+y,z
1/2+x,1/2-y,1/2+z
loop_
_atom_site_type_symbol
_atom_site_label
_atom_site_fract_x
_atom_site_fract_y
_atom_site_fract_z
Si Si1 0.483200 0.719419 0.390830
Si Si2 0.156862 0.752159 0.322534
Si Si3 0.119807 0.449139 0.132726
Si Si4 0.309716 0.553054 0.198452
Si Si5 0.935022 0.092700 0.716414
Si Si6 0.367623 0.074631 0.450123
Si Si7 0.731338 0.344894 0.655586
O O1 0.551169 0.858157 0.280112
O O2 0.482183 0.603232 0.534407
O O3 0.475091 0.532875 0.288063
O O4 0.415716 0.883346 0.460255
O O5 0.134739 0.680863 0.195259
O O6 0.113032 0.615502 0.482747
O O7 0.236056 0.677040 0.275010
O O8 0.171812 0.015415 0.299828
O O9 0.188038 0.311340 0.105533
O O10 0.360431 0.531119 0.269613
O O11 0.282292 0.308099 0.190057
O O12 0.357330 0.701076 0.047590
O O13 0.912026 0.341093 0.777159
O O14 0.287764 0.993274 0.514306
#
# Coordination Sequence:
#
# PCOD9138668 Si02
#       7
#     4   4   4   4   4   4   4
#     4  12  30  47  73 103 153 202 253 312 382 451
#     4  10  26  44  74 103 152 185 253 304 373 444
#     4  11  28  47  69 107 147 202 251 301 376 454
#     4  10  23  45  73 113 141 184 247 311 375 449
#     4  12  26  45  71 106 147 189 254 311 379 451
#     4  11  24  43  74 108 143 188 246 321 375 444
#     4  10  23  45  74 110 141 196 242 322 370 443
#
# _framework density 24.347899000000002
#
# number of rings (size 3 to 8) (size 9 to 14) (size 15 to 20)
#    0.000    1.143    2.857    0.000   16.000    2.286 
#    0.000    0.000    0.000    0.000    0.000    0.000 
#    0.000    0.000    0.000    0.000    0.000    0.000 
#
# Total GULP energy -78117.541933 kJ/mol
# GULP energy per Si atom -5579.824424 kJ/mol
# Density = 2.429248 g / cm^3
# Si number density = 24.347899 Si / 1000 Ang^3
#
#
#
# Elastic Constant Matrix: (Units=GPa)
#
#
# Indices 1 2 3 4 5 6 
#
# 1 28.9721 -2.7035 16.1286 0.0000 -13.7330 0.0000
# 2 -2.7035 45.0574 19.5729 0.0000 7.6656 0.0000
# 3 16.1286 19.5729 108.4155 0.0000 13.4595 0.0000
# 4 0.0000 0.0000 0.0000 26.8473 0.0000 -7.1520
# 5 -13.7330 7.6656 13.4595 0.0000 38.6327 0.0000
# 6 0.0000 0.0000 0.0000 -7.1520 0.0000 27.3923
#
#
#
# Elastic Compliance Matrix: (Units=1/GPa)
#
#
# Indices 1 2 3 4 5 6 
#
# 1 0.051040 0.004238 -0.010981 0.000000 0.021128 0.000000
# 2 0.004238 0.024872 -0.004907 0.000000 -0.001719 0.000000
# 3 -0.010981 -0.004907 0.012654 0.000000 -0.007339 0.000000
# 4 0.000000 0.000000 0.000000 0.040032 0.000000 0.010452
# 5 0.021128 -0.001719 -0.007339 0.000000 0.036293 0.000000
# 6 0.000000 0.000000 0.000000 0.010452 0.000000 0.039236
#
#
# Mechanical properties :
#
#
# Convention : Reuss Voigt Hill
#
# Bulk Modulus (GPa) = 15.32203 27.60455 21.46329
# Shear Modulus (GPa) = 20.06551 28.53758 24.30155
#
# Velocity S-wave (km/s) = 2.87386 3.42727 3.16269
# Velocity P-wave (km/s) = 4.16157 5.19844 4.70863
#
# Compressibility (1/GPa) = 0.06526551
#
# Stress axis : x y z
#
# Youngs Moduli (GPa) = 19.59260 40.20517 79.02363
#
# Poissons Ratio (x) = -0.17039 0.86777
# Poissons Ratio (y) = -0.08304 0.38780
# Poissons Ratio (z) = 0.21515 0.19730
#
# Static dielectric constant tensor:
#      x y z
#    x 1.918040 0.000000 0.037110 
#    y 0.000000 2.029060 0.000000 
#    z 0.037110 0.000000 2.044520 
# 
# From -- ./inp_files/20450.got.cif
#   From: 2010.05.17/outbox.cif.g08.bks.cpg/sg9_11_cif.got.tgz:20450.got - 2010.06.03 20:04:27.
