data_PCOD9138355
_publ_section_title
;
Structure prediction by ZEFSAII (Michael W. Deem and Ramdas Pophale) SiO2 
 PCOD9138355
Probable space group: C C
;
_chemical_formula_sum "Si O2"
_cell_formula_units_Z 32
_cell_length_a 11.086234
_cell_length_b 22.470733
_cell_length_c 8.144803
_cell_angle_alpha 90.000000
_cell_angle_beta 42.599897
_cell_angle_gamma 90.000000
_cell_volume 1373.378082
_symmetry_space_group_name_H-M "C C"
_symmetry_group_IT_number 9
_symmetry_cell_setting 'monoclinic'
loop_
_space_group_symop_operation_xyz
x,y,z
x,-y,1/2+z
1/2+x,1/2+y,z
1/2+x,1/2-y,1/2+z
loop_
_atom_site_type_symbol
_atom_site_label
_atom_site_fract_x
_atom_site_fract_y
_atom_site_fract_z
Si Si1 0.738170 0.324693 0.498600
Si Si2 0.291165 0.696410 0.993172
Si Si3 0.684218 0.955047 0.265568
Si Si4 0.668439 0.670532 0.713362
Si Si5 0.931950 0.152390 0.533480
Si Si6 0.134692 0.692200 0.583244
Si Si7 0.124270 0.427537 0.939062
Si Si8 0.967490 0.397147 0.767367
O O1 0.735991 0.353959 0.321951
O O2 0.651459 0.261460 0.535754
O O3 0.940285 0.318106 0.352538
O O4 0.620680 0.351647 0.758353
O O5 0.454649 0.669342 0.935373
O O6 0.406815 0.697528 0.708044
O O7 0.233526 0.761367 0.113220
O O8 0.118341 0.655838 0.123949
O O9 0.846721 0.911658 0.150990
O O10 0.526198 0.936891 0.552430
O O11 0.752681 0.021408 0.238994
O O12 0.621024 0.943501 0.139441
O O13 0.771368 0.631643 0.472874
O O14 0.796551 0.178197 0.536479
O O15 0.150582 0.643776 0.423591
O O16 0.988091 0.432516 0.920151
#
# Coordination Sequence:
#
# PCOD9138355 Si02
#       8
#     4   4   4   4   4   4   4   4
#     4  12  23  39  65 101 137 175 228 267 351 419
#     4  11  25  39  63  94 140 177 217 270 339 414
#     4  10  23  42  73  99 127 179 238 283 343 406
#     4  12  24  39  64  96 138 183 212 276 338 420
#     4  10  26  41  65 101 134 180 226 288 340 407
#     4  11  23  38  68  99 136 180 222 282 342 423
#     4  11  21  42  71  97 127 180 228 285 341 406
#     4  11  23  44  65 101 133 176 229 277 344 399
#
# _framework density 23.300211000000001
#
# number of rings (size 3 to 8) (size 9 to 14) (size 15 to 20)
#    0.000    1.000    5.000    1.500    5.250    4.000 
#    0.000    0.000    2.750    7.500    0.000    0.000 
#    0.000    0.000    0.000    0.000    0.000    0.000 
#
# Total GULP energy -89095.049489 kJ/mol
# GULP energy per Si atom -5568.440593 kJ/mol
# Density = 2.324718 g / cm^3
# Si number density = 23.300211 Si / 1000 Ang^3
#
#
#
# Elastic Constant Matrix: (Units=GPa)
#
#
# Indices 1 2 3 4 5 6 
#
# 1 38.2920 -26.3775 2.9984 0.0000 5.2160 0.0000
# 2 -26.3775 59.0184 18.0752 0.0000 -1.6608 0.0000
# 3 2.9984 18.0752 114.7297 0.0000 -27.8556 0.0000
# 4 0.0000 0.0000 0.0000 17.8367 0.0000 3.2826
# 5 5.2160 -1.6608 -27.8556 0.0000 43.1363 0.0000
# 6 0.0000 0.0000 0.0000 3.2826 0.0000 14.9209
#
#
#
# Elastic Compliance Matrix: (Units=1/GPa)
#
#
# Indices 1 2 3 4 5 6 
#
# 1 0.041789 0.020381 -0.006332 0.000000 -0.008357 0.000000
# 2 0.020381 0.027808 -0.006229 0.000000 -0.005416 0.000000
# 3 -0.006332 -0.006229 0.011848 0.000000 0.008177 0.000000
# 4 0.000000 0.000000 0.000000 0.058430 0.000000 -0.012855
# 5 -0.008357 -0.005416 0.008177 0.000000 0.029265 0.000000
# 6 0.000000 0.000000 0.000000 -0.012855 0.000000 0.069848
#
#
# Mechanical properties :
#
#
# Convention : Reuss Voigt Hill
#
# Bulk Modulus (GPa) = 10.30018 22.38137 16.34077
# Shear Modulus (GPa) = 19.55341 29.66836 24.61088
#
# Velocity S-wave (km/s) = 2.90003 3.57222 3.25353
# Velocity P-wave (km/s) = 3.95522 5.16147 4.59808
#
# Compressibility (1/GPa) = 0.09708573
#
# Stress axis : x y z
#
# Youngs Moduli (GPa) = 23.92979 35.96070 84.40061
#
# Poissons Ratio (x) = -0.73292 0.53444
# Poissons Ratio (y) = -0.48772 0.52571
# Poissons Ratio (z) = 0.15153 0.22399
#
# Static dielectric constant tensor:
#      x y z
#    x 2.087020 0.000000 0.061350 
#    y 0.000000 2.080370 0.000000 
#    z 0.061350 0.000000 1.924160 
# 
# From -- ./inp_files/8521.got.cif
#   From: 2010.05.17/outbox.cif.g08.bks.cpg/sg9_5_cif.got.tgz:8521.got - 2010.06.03 20:04:27.
