data_PCOD9138803
_publ_section_title
;
Structure prediction by ZEFSAII (Michael W. Deem and Ramdas Pophale) SiO2 
 PCOD9138803
Probable space group: C C
;
_chemical_formula_sum "Si O2"
_cell_formula_units_Z 32
_cell_length_a 5.904143
_cell_length_b 22.188979
_cell_length_c 11.112029
_cell_angle_alpha 90.000000
_cell_angle_beta 71.362065
_cell_angle_gamma 90.000000
_cell_volume 1379.408531
_symmetry_space_group_name_H-M "C C"
_symmetry_group_IT_number 9
_symmetry_cell_setting 'monoclinic'
loop_
_space_group_symop_operation_xyz
x,y,z
x,-y,1/2+z
1/2+x,1/2+y,z
1/2+x,1/2-y,1/2+z
loop_
_atom_site_type_symbol
_atom_site_label
_atom_site_fract_x
_atom_site_fract_y
_atom_site_fract_z
Si Si1 0.168280 0.588406 0.869740
Si Si2 0.941653 0.142697 0.015320
Si Si3 0.492153 0.579825 0.245531
Si Si4 0.837516 0.973670 0.132379
Si Si5 0.006773 0.260550 0.098240
Si Si6 0.093415 0.608636 0.487996
Si Si7 0.877113 0.703316 0.874977
Si Si8 0.296051 0.979309 0.887796
O O1 0.367308 0.574090 0.735793
O O2 0.080546 0.656091 0.868616
O O3 0.961153 0.538624 0.880680
O O4 0.275093 0.592184 0.985207
O O5 0.061430 0.120786 0.120438
O O6 0.838998 0.209003 0.066240
O O7 0.147982 0.160195 0.885663
O O8 0.303024 0.533996 0.215713
O O9 0.348064 0.614547 0.374675
O O10 0.697225 0.539111 0.272435
O O11 0.639471 0.942239 0.082270
O O12 0.062415 0.986529 0.010611
O O13 0.956627 0.258675 0.247630
O O14 0.992691 0.329432 0.057382
O O15 0.268846 0.240388 0.004903
O O16 0.917426 0.579924 0.421897
#
# Coordination Sequence:
#
# PCOD9138803 Si02
#       8
#     4   4   4   4   4   4   4   4
#     4  12  24  48  73 106 143 200 235 302 380 433
#     4  10  26  46  71 103 147 189 246 294 362 440
#     4  11  24  44  67 108 144 184 244 304 365 445
#     4  11  25  41  70 104 144 182 244 298 370 441
#     4  10  23  47  72 102 145 195 245 303 362 430
#     4  11  23  46  68 104 143 187 241 305 362 435
#     4  10  24  47  70 103 146 189 250 306 352 443
#     4  11  27  41  73 108 140 190 237 308 371 439
#
# _framework density 23.198346999999998
#
# number of rings (size 3 to 8) (size 9 to 14) (size 15 to 20)
#    0.750    0.500    2.500    2.250    7.000    2.000 
#    9.000    0.000    0.000    0.000    0.000    0.000 
#    0.000    0.000    0.000    0.000    0.000    0.000 
#
# Total GULP energy -89144.250892 kJ/mol
# GULP energy per Si atom -5571.515681 kJ/mol
# Density = 2.314555 g / cm^3
# Si number density = 23.198347 Si / 1000 Ang^3
#
#
#
# Elastic Constant Matrix: (Units=GPa)
#
#
# Indices 1 2 3 4 5 6 
#
# 1 52.8788 41.8977 34.6879 0.0000 21.2025 0.0000
# 2 41.8977 98.1823 50.3519 0.0000 5.2251 0.0000
# 3 34.6879 50.3519 134.7165 0.0000 7.5288 0.0000
# 4 0.0000 0.0000 0.0000 48.9410 0.0000 -1.4285
# 5 21.2025 5.2251 7.5288 0.0000 34.2429 0.0000
# 6 0.0000 0.0000 0.0000 -1.4285 0.0000 30.3900
#
#
#
# Elastic Compliance Matrix: (Units=1/GPa)
#
#
# Indices 1 2 3 4 5 6 
#
# 1 0.042764 -0.014883 -0.004147 0.000000 -0.023296 0.000000
# 2 -0.014883 0.017807 -0.003226 0.000000 0.007207 0.000000
# 3 -0.004147 -0.003226 0.009644 0.000000 0.000940 0.000000
# 4 0.000000 0.000000 0.000000 0.020461 0.000000 0.000962
# 5 -0.023296 0.007207 0.000940 0.000000 0.042321 0.000000
# 6 0.000000 0.000000 0.000000 0.000962 0.000000 0.032951
#
#
# Mechanical properties :
#
#
# Convention : Reuss Voigt Hill
#
# Bulk Modulus (GPa) = 38.90424 59.96139 49.43282
# Shear Modulus (GPa) = 22.82816 33.30413 28.06614
#
# Velocity S-wave (km/s) = 3.14035 3.79307 3.48204
# Velocity P-wave (km/s) = 5.47318 6.71466 6.12545
#
# Compressibility (1/GPa) = 0.02570414
#
# Stress axis : x y z
#
# Youngs Moduli (GPa) = 23.38399 56.15759 103.69011
#
# Poissons Ratio (x) = 0.83577 0.42999
# Poissons Ratio (y) = 0.34801 0.33454
# Poissons Ratio (z) = 0.09697 0.18118
#
# Static dielectric constant tensor:
#      x y z
#    x 1.944400 0.000000 -0.013630 
#    y 0.000000 1.914880 0.000000 
#    z -0.013630 0.000000 1.922210 
# 
# From -- ./inp_files/13622.got.cif
#   From: 2010.05.17/outbox.cif.g08.bks.cpg/sg9_7_cif.got.tgz:13622.got - 2010.06.03 20:04:27.
