data_PCOD9138114
_publ_section_title
;
Structure prediction by ZEFSAII (Michael W. Deem and Ramdas Pophale) SiO2 
 PCOD9138114
Probable space group: C C
;
_chemical_formula_sum "Si O2"
_cell_formula_units_Z 24
_cell_length_a 12.958298
_cell_length_b 5.931658
_cell_length_c 14.609955
_cell_angle_alpha 90.000000
_cell_angle_beta 63.674151
_cell_angle_gamma 90.000000
_cell_volume 1006.513894
_symmetry_space_group_name_H-M "C C"
_symmetry_group_IT_number 9
_symmetry_cell_setting 'monoclinic'
loop_
_space_group_symop_operation_xyz
x,y,z
x,-y,1/2+z
1/2+x,1/2+y,z
1/2+x,1/2-y,1/2+z
loop_
_atom_site_type_symbol
_atom_site_label
_atom_site_fract_x
_atom_site_fract_y
_atom_site_fract_z
Si Si1 0.988330 0.031328 0.276310
Si Si2 0.032881 0.875000 0.459499
Si Si3 0.760622 0.218673 0.276310
Si Si4 0.610220 0.272698 0.081026
Si Si5 0.834016 0.522697 0.581026
Si Si6 0.191456 0.375000 0.142350
O O1 0.869150 0.125000 0.286961
O O2 0.091149 0.206977 0.214411
O O3 0.985034 0.972042 0.383162
O O4 0.026366 0.817111 0.200486
O O5 0.157066 0.777959 0.383161
O O6 0.055009 0.079652 0.522053
O O7 0.448199 0.170347 0.522053
O O8 0.798410 0.432889 0.200486
O O9 0.719702 0.043023 0.214411
O O10 0.735915 0.375000 0.053432
O O11 0.640049 0.008893 0.075449
O O12 0.809764 0.258893 0.575449
#
# Coordination Sequence:
#
# PCOD9138114 Si02
#       6
#     4   4   4   4   4   4
#     4  11  24  49  75 112 152 203 269 335 396 480
#     4  12  24  50  78 113 166 213 268 328 422 478
#     4  11  24  49  75 112 152 203 269 335 396 480
#     4  10  23  49  74 113 156 207 271 331 400 485
#     4  10  23  49  74 113 156 207 271 331 400 485
#     4  10  22  50  76 107 164 203 260 350 394 468
#
# _framework density 23.844678999999999
#
# number of rings (size 3 to 8) (size 9 to 14) (size 15 to 20)
#    0.000    1.333    6.667    0.000    0.000    4.000 
#   24.000    3.333    0.000    0.000    0.000    0.000 
#    0.000    0.000    0.000    0.000    0.000    0.000 
#
# Total GULP energy -67101.489822 kJ/mol
# GULP energy per Si atom -5591.790818 kJ/mol
# Density = 2.379041 g / cm^3
# Si number density = 23.844679 Si / 1000 Ang^3
#
#
#
# Elastic Constant Matrix: (Units=GPa)
#
#
# Indices 1 2 3 4 5 6 
#
# 1 197.0506 64.5972 76.1330 0.0000 13.3766 0.0000
# 2 64.5972 126.1894 67.6606 0.0000 -1.1673 0.0000
# 3 76.1330 67.6606 139.9315 0.0000 8.3885 0.0000
# 4 0.0000 0.0000 0.0000 3.3796 0.0000 16.5475
# 5 13.3766 -1.1673 8.3885 0.0000 44.8073 0.0000
# 6 0.0000 0.0000 0.0000 16.5475 0.0000 46.8071
#
#
#
# Elastic Compliance Matrix: (Units=1/GPa)
#
#
# Indices 1 2 3 4 5 6 
#
# 1 0.006900 -0.002142 -0.002621 0.000000 -0.001625 0.000000
# 2 -0.002142 0.011434 -0.004470 0.000000 0.001774 0.000000
# 3 -0.002621 -0.004470 0.010815 0.000000 -0.001359 0.000000
# 4 0.000000 0.000000 0.000000 -0.404796 0.000000 0.143106
# 5 -0.001625 0.001774 -0.001359 0.000000 0.023103 0.000000
# 6 0.000000 0.000000 0.000000 0.143106 0.000000 -0.029227
#
#
# Mechanical properties :
#
#
# Convention : Reuss Voigt Hill
#
# Bulk Modulus (GPa) = 93.59865 97.77258 95.68562
# Shear Modulus (GPa) = -13.89877 35.98418 11.04270
#
# Velocity S-wave (km/s) = -2.41693 3.88894 2.15433
# Velocity P-wave (km/s) = 5.61694 7.82675 6.81205
#
# Compressibility (1/GPa) = 0.01068391
#
# Stress axis : x y z
#
# Youngs Moduli (GPa) = 144.92853 87.45870 92.46375
#
# Poissons Ratio (x) = 0.18732 0.24235
# Poissons Ratio (y) = 0.31041 0.41328
# Poissons Ratio (z) = 0.37986 0.39091
#
# Static dielectric constant tensor:
#      x y z
#    x 1.899330 0.000000 0.007210 
#    y 0.000000 2.080300 0.000000 
#    z 0.007210 0.000000 1.880410 
# 
# From -- ./inp_files/25202.got.cif
#   From: 2010.05.17/outbox.cif.g08.bks.cpg/sg9_13_cif.got.tgz:25202.got - 2010.06.03 20:04:27.
