data_PCOD9138776
_publ_section_title
;
Structure prediction by ZEFSAII (Michael W. Deem and Ramdas Pophale) SiO2 
 PCOD9138776
Probable space group: C C
;
_chemical_formula_sum "Si O2"
_cell_formula_units_Z 28
_cell_length_a 9.599673
_cell_length_b 15.229566
_cell_length_c 9.697120
_cell_angle_alpha 90.000000
_cell_angle_beta 124.580086
_cell_angle_gamma 90.000000
_cell_volume 1167.246604
_symmetry_space_group_name_H-M "C C"
_symmetry_group_IT_number 9
_symmetry_cell_setting 'monoclinic'
loop_
_space_group_symop_operation_xyz
x,y,z
x,-y,1/2+z
1/2+x,1/2+y,z
1/2+x,1/2-y,1/2+z
loop_
_atom_site_type_symbol
_atom_site_label
_atom_site_fract_x
_atom_site_fract_y
_atom_site_fract_z
Si Si1 0.085740 0.826924 0.600630
Si Si2 0.259771 0.307349 0.598516
Si Si3 0.200249 0.995803 0.814336
Si Si4 0.686301 0.139457 0.354741
Si Si5 0.400594 0.715924 0.725191
Si Si6 0.179474 0.891647 0.065375
Si Si7 0.522001 0.041232 0.855805
O O1 0.235016 0.757572 0.703692
O O2 0.934360 0.802419 0.616086
O O3 0.011084 0.831907 0.404194
O O4 0.167221 0.918633 0.686890
O O5 0.169661 0.212348 0.542315
O O6 0.283591 0.341154 0.768020
O O7 0.149304 0.383141 0.467901
O O8 0.402737 0.013400 0.920053
O O9 0.125150 0.079535 0.689874
O O10 0.122160 0.956320 0.909840
O O11 0.522179 0.203107 0.251550
O O12 0.809755 0.167685 0.547733
O O13 0.617891 0.041982 0.346095
O O14 0.380223 0.915151 0.179657
#
# Coordination Sequence:
#
# PCOD9138776 Si02
#       7
#     4   4   4   4   4   4   4
#     4  11  24  46  73 116 150 201 252 317 392 457
#     4  12  28  44  80 114 151 196 274 319 376 457
#     4  10  23  46  77 103 151 203 249 314 391 462
#     4  11  25  49  77 113 154 208 259 318 393 465
#     4  10  24  44  80 109 158 201 253 316 392 475
#     4  10  25  45  78 108 154 197 259 308 400 450
#     4  10  25  48  73 103 158 210 250 314 394 458
#
# _framework density 23.988077000000001
#
# number of rings (size 3 to 8) (size 9 to 14) (size 15 to 20)
#    0.857    0.571    1.429    1.714    8.000    3.429 
#    7.714    0.000    0.000    0.000    0.000    0.000 
#    0.000    0.000    0.000    0.000    0.000    0.000 
#
# Total GULP energy -78235.937167 kJ/mol
# GULP energy per Si atom -5588.281226 kJ/mol
# Density = 2.393348 g / cm^3
# Si number density = 23.988077 Si / 1000 Ang^3
#
#
#
# Elastic Constant Matrix: (Units=GPa)
#
#
# Indices 1 2 3 4 5 6 
#
# 1 104.3643 35.2633 8.6348 0.0000 5.3470 0.0000
# 2 35.2633 144.7177 39.7472 0.0000 1.9719 0.0000
# 3 8.6348 39.7472 85.7836 0.0000 6.3950 0.0000
# 4 0.0000 0.0000 0.0000 27.4971 0.0000 12.0323
# 5 5.3470 1.9719 6.3950 0.0000 41.3671 0.0000
# 6 0.0000 0.0000 0.0000 12.0323 0.0000 2.1563
#
#
#
# Elastic Compliance Matrix: (Units=1/GPa)
#
#
# Indices 1 2 3 4 5 6 
#
# 1 0.010509 -0.002611 0.000247 0.000000 -0.001272 0.000000
# 2 -0.002611 0.008568 -0.003745 0.000000 0.000508 0.000000
# 3 0.000247 -0.003745 0.013512 0.000000 -0.001942 0.000000
# 4 0.000000 0.000000 0.000000 -0.025224 0.000000 0.140752
# 5 -0.001272 0.000508 -0.001942 0.000000 0.024614 0.000000
# 6 0.000000 0.000000 0.000000 0.140752 0.000000 -0.321655
#
#
# Mechanical properties :
#
#
# Convention : Reuss Voigt Hill
#
# Bulk Modulus (GPa) = 49.09003 55.79512 52.44258
# Shear Modulus (GPa) = -18.47288 30.95212 6.23962
#
# Velocity S-wave (km/s) = -2.77805 3.59599 1.61455
# Velocity P-wave (km/s) = 3.19667 6.36801 5.03836
#
# Compressibility (1/GPa) = 0.02037073
#
# Stress axis : x y z
#
# Youngs Moduli (GPa) = 95.15800 116.71490 74.00638
#
# Poissons Ratio (x) = 0.30476 -0.01827
# Poissons Ratio (y) = 0.24847 0.27715
# Poissons Ratio (z) = -0.02349 0.43709
#
# Static dielectric constant tensor:
#      x y z
#    x 1.960270 0.000000 -0.029440 
#    y 0.000000 2.030450 0.000000 
#    z -0.029440 0.000000 1.943600 
# 
# From -- ./inp_files/24941.got.cif
#   From: 2010.05.17/outbox.cif.g08.bks.cpg/sg9_13_cif.got.tgz:24941.got - 2010.06.03 20:04:27.
