data_PCOD9138374
_publ_section_title
;
Structure prediction by ZEFSAII (Michael W. Deem and Ramdas Pophale) SiO2 
 PCOD9138374
Probable space group: C C
;
_chemical_formula_sum "Si O2"
_cell_formula_units_Z 20
_cell_length_a 31.903996
_cell_length_b 5.026101
_cell_length_c 20.164027
_cell_angle_alpha 90.000000
_cell_angle_beta 15.981398
_cell_angle_gamma 90.000000
_cell_volume 890.224638
_symmetry_space_group_name_H-M "C C"
_symmetry_group_IT_number 9
_symmetry_cell_setting 'monoclinic'
loop_
_space_group_symop_operation_xyz
x,y,z
x,-y,1/2+z
1/2+x,1/2+y,z
1/2+x,1/2-y,1/2+z
loop_
_atom_site_type_symbol
_atom_site_label
_atom_site_fract_x
_atom_site_fract_y
_atom_site_fract_z
Si Si1 0.727610 0.119607 0.491760
Si Si2 0.211748 0.109001 0.432987
Si Si3 0.868335 0.813549 0.483580
Si Si4 0.442454 0.359507 0.989507
Si Si5 0.731921 0.701125 0.126703
O O1 0.765633 0.320128 0.374586
O O2 0.548716 0.178542 0.779770
O O3 0.800408 0.217798 0.450046
O O4 0.747746 0.819214 0.437959
O O5 0.029891 0.118585 0.703083
O O6 0.297225 0.212114 0.238728
O O7 0.816373 0.528789 0.537496
O O8 0.898348 0.881233 0.514974
O O9 0.742914 0.028620 0.651159
O O10 0.562194 0.399688 0.867280
#
# Coordination Sequence:
#
# PCOD9138374 Si02
#       5
#     4   4   4   4   4
#     4   9  22  40  65  88 128 165 206 259 317 364
#     4  11  21  42  68  89 127 173 206 261 322 369
#     4  11  22  42  65  98 124 170 214 261 316 380
#     4   9  24  43  67  89 135 167 207 269 314 376
#     4  10  23  43  65  90 136 165 207 270 315 371
#
# _framework density 22.466239000000002
#
# number of rings (size 3 to 8) (size 9 to 14) (size 15 to 20)
#    1.200    0.800    0.000    3.600    0.000    6.400 
#   10.800    0.000    0.000    0.000    0.000    0.000 
#    0.000    0.000    0.000    0.000    0.000    0.000 
#
# Total GULP energy -55786.791524 kJ/mol
# GULP energy per Si atom -5578.679152 kJ/mol
# Density = 2.241510 g / cm^3
# Si number density = 22.466239 Si / 1000 Ang^3
#
#
#
# Elastic Constant Matrix: (Units=GPa)
#
#
# Indices 1 2 3 4 5 6 
#
# 1 86.8728 45.9279 27.6936 0.0000 -17.0249 0.0001
# 2 45.9279 80.9381 -9.2447 -0.0089 -8.2390 0.0032
# 3 27.6936 -9.2447 65.5604 -0.0040 10.4402 0.0005
# 4 0.0000 -0.0089 -0.0040 23.4815 -0.0001 11.2204
# 5 -17.0249 -8.2390 10.4402 -0.0001 26.7200 0.0002
# 6 0.0001 0.0032 0.0005 11.2204 0.0002 31.8218
#
#
#
# Elastic Compliance Matrix: (Units=1/GPa)
#
#
# Indices 1 2 3 4 5 6 
#
# 1 0.031342 -0.017742 -0.019248 -0.000013 0.022020 0.000006
# 2 -0.017742 0.022895 0.012155 0.000014 -0.008994 -0.000007
# 3 -0.019248 0.012155 0.028209 0.000012 -0.019538 -0.000006
# 4 -0.000013 0.000014 0.000012 0.051216 -0.000008 -0.018059
# 5 0.022020 -0.008994 -0.019538 -0.000008 0.056316 0.000004
# 6 0.000006 -0.000007 -0.000006 -0.018059 0.000004 0.037793
#
#
# Mechanical properties :
#
#
# Convention : Reuss Voigt Hill
#
# Bulk Modulus (GPa) = 30.50854 40.23610 35.37232
# Shear Modulus (GPa) = 17.33916 27.67095 22.50505
#
# Velocity S-wave (km/s) = 2.78112 3.51332 3.16844
# Velocity P-wave (km/s) = 4.89102 5.86569 5.40039
#
# Compressibility (1/GPa) = 0.03277771
#
# Stress axis : x y z
#
# Youngs Moduli (GPa) = 31.90621 43.67689 35.44990
#
# Poissons Ratio (x) = 0.77490 0.68232
# Poissons Ratio (y) = 0.56607 -0.43090
# Poissons Ratio (z) = 0.61412 -0.53090
#
# Static dielectric constant tensor:
#      x y z
#    x 1.877900 0.000000 -0.011980 
#    y 0.000000 1.824180 0.000000 
#    z -0.011980 0.000000 1.830190 
# 
# From -- ./inp_files/21025.got.cif
#   From: 2010.05.17/outbox.cif.g08.bks.cpg/sg9_11_cif.got.tgz:21025.got - 2010.06.03 20:04:27.
