data_PCOD9138016
_publ_section_title
;
Structure prediction by ZEFSAII (Michael W. Deem and Ramdas Pophale) SiO2 
 PCOD9138016
Probable space group: C C
;
_chemical_formula_sum "Si O2"
_cell_formula_units_Z 28
_cell_length_a 5.406459
_cell_length_b 21.798567
_cell_length_c 11.246555
_cell_angle_alpha 90.000000
_cell_angle_beta 124.022989
_cell_angle_gamma 90.000000
_cell_volume 1098.542838
_symmetry_space_group_name_H-M "C C"
_symmetry_group_IT_number 9
_symmetry_cell_setting 'monoclinic'
loop_
_space_group_symop_operation_xyz
x,y,z
x,-y,1/2+z
1/2+x,1/2+y,z
1/2+x,1/2-y,1/2+z
loop_
_atom_site_type_symbol
_atom_site_label
_atom_site_fract_x
_atom_site_fract_y
_atom_site_fract_z
Si Si1 0.197610 0.500822 0.187050
Si Si2 0.283553 0.746778 0.665324
Si Si3 0.433731 0.678270 0.490895
Si Si4 0.999616 0.280814 0.347369
Si Si5 0.314711 0.025537 0.375684
Si Si6 0.399208 0.905106 0.252916
Si Si7 0.433816 0.119557 0.213255
O O1 0.484072 0.523333 0.339678
O O2 0.974835 0.559921 0.141856
O O3 0.133591 0.434855 0.227452
O O4 0.117741 0.484863 0.028941
O O5 0.206887 0.704553 0.530506
O O6 0.641842 0.731548 0.761124
O O7 0.251821 0.819572 0.628006
O O8 0.147450 0.732359 0.758405
O O9 0.610827 0.735777 0.480264
O O10 0.653367 0.630034 0.609944
O O11 0.252483 0.647038 0.336567
O O12 0.032524 0.353668 0.375468
O O13 0.316317 0.087687 0.301564
O O14 0.278524 0.965623 0.282952
#
# Coordination Sequence:
#
# PCOD9138016 Si02
#       7
#     4   4   4   4   4   4   4
#     4  11  25  44  73 101 141 192 245 310 366 440
#     4  10  24  41  68 107 139 193 245 300 373 451
#     4  10  22  46  74 100 152 190 240 308 382 444
#     4  10  24  41  68 107 139 193 245 300 373 451
#     4  11  25  44  73 101 141 192 245 310 366 440
#     4  10  24  42  67 104 137 190 244 302 372 443
#     4  10  24  42  67 104 137 190 244 302 372 443
#
# _framework density 25.488306999999999
#
# number of rings (size 3 to 8) (size 9 to 14) (size 15 to 20)
#    0.000    1.714    0.000    1.714   14.000    6.857 
#    0.000    5.714    0.000    0.000    0.000    0.000 
#    0.000    0.000    0.000    0.000    0.000    0.000 
#
# Total GULP energy -78018.771957 kJ/mol
# GULP energy per Si atom -5572.769425 kJ/mol
# Density = 2.543029 g / cm^3
# Si number density = 25.488307 Si / 1000 Ang^3
#
#
#
# Elastic Constant Matrix: (Units=GPa)
#
#
# Indices 1 2 3 4 5 6 
#
# 1 53.9708 -1.4808 7.3780 0.0000 -9.0264 0.0000
# 2 -1.4808 164.1791 -0.1322 0.0000 -4.4307 0.0000
# 3 7.3780 -0.1322 39.2932 0.0000 5.1586 0.0000
# 4 0.0000 0.0000 0.0000 42.4985 0.0000 -16.3324
# 5 -9.0264 -4.4307 5.1586 0.0000 35.9203 0.0000
# 6 0.0000 0.0000 0.0000 -16.3324 0.0000 27.8897
#
#
#
# Elastic Compliance Matrix: (Units=1/GPa)
#
#
# Indices 1 2 3 4 5 6 
#
# 1 0.020118 0.000333 -0.004531 0.000000 0.005747 0.000000
# 2 0.000333 0.006117 -0.000155 0.000000 0.000860 0.000000
# 3 -0.004531 -0.000155 0.026960 0.000000 -0.005030 0.000000
# 4 0.000000 0.000000 0.000000 0.030364 0.000000 0.017781
# 5 0.005747 0.000860 -0.005030 0.000000 0.030112 0.000000
# 6 0.000000 0.000000 0.000000 0.017781 0.000000 0.046268
#
#
# Mechanical properties :
#
#
# Convention : Reuss Voigt Hill
#
# Bulk Modulus (GPa) = 22.47717 29.88591 26.18154
# Shear Modulus (GPa) = 27.25158 38.04022 32.64590
#
# Velocity S-wave (km/s) = 3.27338 3.86743 3.58274
# Velocity P-wave (km/s) = 4.80879 5.62969 5.23535
#
# Compressibility (1/GPa) = 0.04448959
#
# Stress axis : x y z
#
# Youngs Moduli (GPa) = 49.70599 163.47860 37.09166
#
# Poissons Ratio (x) = -0.05442 0.16806
# Poissons Ratio (y) = -0.01655 0.00575
# Poissons Ratio (z) = 0.22522 0.02532
#
# Static dielectric constant tensor:
#      x y z
#    x 2.464140 0.000000 0.112360 
#    y 0.000000 1.989290 0.000000 
#    z 0.112360 0.000000 2.145000 
# 
# From -- ./inp_files/13239.got.cif
#   From: 2010.05.17/outbox.cif.g08.bks.cpg/sg9_7_cif.got.tgz:13239.got - 2010.06.03 20:04:27.
