data_PCOD9138168
_publ_section_title
;
Structure prediction by ZEFSAII (Michael W. Deem and Ramdas Pophale) SiO2 
 PCOD9138168
Probable space group: C C
;
_chemical_formula_sum "Si O2"
_cell_formula_units_Z 28
_cell_length_a 10.636160
_cell_length_b 11.864243
_cell_length_c 20.859393
_cell_angle_alpha 90.000000
_cell_angle_beta 31.190549
_cell_angle_gamma 90.000000
_cell_volume 1363.203386
_symmetry_space_group_name_H-M "C C"
_symmetry_group_IT_number 9
_symmetry_cell_setting 'monoclinic'
loop_
_space_group_symop_operation_xyz
x,y,z
x,-y,1/2+z
1/2+x,1/2+y,z
1/2+x,1/2-y,1/2+z
loop_
_atom_site_type_symbol
_atom_site_label
_atom_site_fract_x
_atom_site_fract_y
_atom_site_fract_z
Si Si1 0.436750 0.239668 0.558980
Si Si2 0.256565 0.078613 0.866227
Si Si3 0.704963 0.094858 0.763294
Si Si4 0.784413 0.922798 0.831724
Si Si5 0.557964 0.350228 0.997614
Si Si6 0.884662 0.169343 0.813605
Si Si7 0.063491 0.277777 0.149153
O O1 0.513139 0.352469 0.488156
O O2 0.572866 0.138205 0.462891
O O3 0.542483 0.249669 0.584193
O O4 0.153454 0.215735 0.688195
O O5 0.464662 0.113201 0.827035
O O6 0.371231 0.123260 0.750366
O O7 0.206408 0.947940 0.897329
O O8 0.747207 0.178301 0.804546
O O9 0.938263 0.103721 0.615333
O O10 0.691445 0.974113 0.804630
O O11 0.983512 0.829831 0.726675
O O12 0.882472 0.034193 0.825148
O O13 0.731600 0.242644 0.930188
O O14 0.327691 0.315771 0.055333
#
# Coordination Sequence:
#
# PCOD9138168 Si02
#       7
#     4   4   4   4   4   4   4
#     4  11  23  40  64  93 131 163 209 269 316 379
#     4  10  23  40  66  90 123 171 212 260 317 376
#     4   9  22  42  66  90 119 172 217 260 299 385
#     4   9  23  43  64  93 123 170 218 251 324 370
#     4  11  23  40  65  93 128 164 216 262 312 381
#     4  10  25  36  65  99 120 164 218 261 313 377
#     4  10  23  41  62  90 130 168 204 267 321 372
#
# _framework density 20.539856
#
# number of rings (size 3 to 8) (size 9 to 14) (size 15 to 20)
#    0.857    1.143    0.000    1.714   10.000    2.286 
#    2.571    0.000    0.000    0.000    0.000    0.000 
#    0.000    0.000    0.000    0.000    0.000    0.000 
#
# Total GULP energy -78117.883722 kJ/mol
# GULP energy per Si atom -5579.848837 kJ/mol
# Density = 2.049311 g / cm^3
# Si number density = 20.539856 Si / 1000 Ang^3
#
#
#
# Elastic Constant Matrix: (Units=GPa)
#
#
# Indices 1 2 3 4 5 6 
#
# 1 20.7733 3.1269 15.1961 -0.0006 -12.4441 0.0002
# 2 3.1269 95.7860 40.9394 -0.0008 -0.6710 0.0003
# 3 15.1961 40.9394 100.4236 -0.0022 -1.6498 -0.0005
# 4 -0.0006 -0.0008 -0.0022 20.7350 0.0010 -0.3257
# 5 -12.4441 -0.6710 -1.6498 0.0010 18.4044 0.0001
# 6 0.0002 0.0003 -0.0005 -0.3257 0.0001 22.7377
#
#
#
# Elastic Compliance Matrix: (Units=1/GPa)
#
#
# Indices 1 2 3 4 5 6 
#
# 1 0.097436 0.003778 -0.015222 -0.000002 0.064654 -0.000002
# 2 0.003778 0.012789 -0.005744 0.000000 0.002506 0.000000
# 3 -0.015222 -0.005744 0.014452 0.000001 -0.009206 0.000001
# 4 -0.000002 0.000000 0.000001 0.048239 -0.000004 0.000691
# 5 0.064654 0.002506 -0.009206 -0.000004 0.097317 -0.000001
# 6 -0.000002 0.000000 0.000001 0.000691 -0.000001 0.043990
#
#
# Mechanical properties :
#
#
# Convention : Reuss Voigt Hill
#
# Bulk Modulus (GPa) = 11.07413 37.27863 24.17638
# Shear Modulus (GPa) = 13.20310 22.89011 18.04661
#
# Velocity S-wave (km/s) = 2.53811 3.34192 2.96736
# Velocity P-wave (km/s) = 3.74066 5.75153 4.85142
#
# Compressibility (1/GPa) = 0.09030055
#
# Stress axis : x y z
#
# Youngs Moduli (GPa) = 10.26314 78.19036 69.19585
#
# Poissons Ratio (x) = -0.29541 1.05330
# Poissons Ratio (y) = -0.03878 0.39748
# Poissons Ratio (z) = 0.15623 0.44915
#
# Static dielectric constant tensor:
#      x y z
#    x 1.721610 0.000000 0.015020 
#    y 0.000000 1.744670 0.000000 
#    z 0.015020 0.000000 1.721170 
# 
# From -- ./inp_files/16117.got.cif
#   From: 2010.05.17/outbox.cif.g08.bks.cpg/sg9_9_cif.got.tgz:16117.got - 2010.06.03 20:04:27.
