data_PCOD9138220
_publ_section_title
;
Structure prediction by ZEFSAII (Michael W. Deem and Ramdas Pophale) SiO2 
 PCOD9138220
Probable space group: C C
;
_chemical_formula_sum "Si O2"
_cell_formula_units_Z 32
_cell_length_a 26.965667
_cell_length_b 5.729460
_cell_length_c 18.379109
_cell_angle_alpha 90.000000
_cell_angle_beta 150.802280
_cell_angle_gamma 90.000000
_cell_volume 1385.202594
_symmetry_space_group_name_H-M "C C"
_symmetry_group_IT_number 9
_symmetry_cell_setting 'monoclinic'
loop_
_space_group_symop_operation_xyz
x,y,z
x,-y,1/2+z
1/2+x,1/2+y,z
1/2+x,1/2-y,1/2+z
loop_
_atom_site_type_symbol
_atom_site_label
_atom_site_fract_x
_atom_site_fract_y
_atom_site_fract_z
Si Si1 0.777110 0.689385 0.341720
Si Si2 0.883920 0.021248 0.366234
Si Si3 0.713807 0.985931 0.036525
Si Si4 0.409593 0.808257 0.538440
Si Si5 0.031094 0.703058 0.874265
Si Si6 0.217519 0.432042 0.869681
Si Si7 0.529730 0.289483 0.322725
Si Si8 0.594888 0.631149 0.607119
O O1 0.814703 0.852732 0.325905
O O2 0.880824 0.578573 0.505783
O O3 0.697105 0.497810 0.212798
O O4 0.718054 0.819587 0.330352
O O5 0.819125 0.046516 0.210318
O O6 0.899835 0.238715 0.441634
O O7 0.000586 0.956730 0.499433
O O8 0.722012 0.956142 0.961186
O O9 0.650478 0.761491 0.986980
O O10 0.632580 0.184105 0.954647
O O11 0.319939 0.683575 0.469101
O O12 0.507287 0.730572 0.707983
O O13 0.979342 0.450831 0.790997
O O14 0.991997 0.963380 0.805014
O O15 0.059321 0.705413 0.995364
O O16 0.127712 0.278405 0.719616
#
# Coordination Sequence:
#
# PCOD9138220 Si02
#       8
#     4   4   4   4   4   4   4   4
#     4  10  23  44  69 100 142 190 239 317 361 455
#     4  11  24  42  70 101 143 188 255 301 378 447
#     4  10  23  41  66 104 139 189 243 305 365 444
#     4  10  23  42  65  99 142 187 243 302 376 436
#     4  10  24  43  71  98 146 185 236 302 364 432
#     4  10  23  41  67  99 142 186 250 300 375 437
#     4  10  24  42  73  98 145 189 237 300 376 427
#     4  11  24  43  71 103 143 196 247 307 379 448
#
# _framework density 23.101315
#
# number of rings (size 3 to 8) (size 9 to 14) (size 15 to 20)
#    0.750    1.000    0.000    3.750    7.000    5.000 
#    0.000    0.000    0.000    0.000    0.000    0.000 
#    0.000    0.000    0.000    0.000    0.000    0.000 
#
# Total GULP energy -89172.499039 kJ/mol
# GULP energy per Si atom -5573.281190 kJ/mol
# Density = 2.304874 g / cm^3
# Si number density = 23.101315 Si / 1000 Ang^3
#
#
#
# Elastic Constant Matrix: (Units=GPa)
#
#
# Indices 1 2 3 4 5 6 
#
# 1 85.5241 12.2350 33.7126 -0.0001 -20.2127 0.0000
# 2 12.2350 92.3001 33.6565 -0.0003 -14.4672 -0.0002
# 3 33.7126 33.6565 125.7268 -0.0002 -19.1204 0.0001
# 4 -0.0001 -0.0003 -0.0002 19.2434 -0.0001 -4.1223
# 5 -20.2127 -14.4672 -19.1204 -0.0001 43.7017 0.0000
# 6 0.0000 -0.0002 0.0001 -4.1223 0.0000 5.9735
#
#
#
# Elastic Compliance Matrix: (Units=1/GPa)
#
#
# Indices 1 2 3 4 5 6 
#
# 1 0.014103 0.000043 -0.002999 0.000000 0.005225 0.000000
# 2 0.000043 0.012323 -0.002878 0.000000 0.002840 0.000001
# 3 -0.002999 -0.002878 0.009826 0.000000 0.001959 0.000000
# 4 0.000000 0.000000 0.000000 0.060981 0.000000 0.042083
# 5 0.005225 0.002840 0.001959 0.000000 0.027097 0.000000
# 6 0.000000 0.000001 0.000000 0.042083 0.000000 0.196448
#
#
# Mechanical properties :
#
#
# Convention : Reuss Voigt Hill
#
# Bulk Modulus (GPa) = 40.67553 51.41770 46.04661
# Shear Modulus (GPa) = 14.67818 28.71351 21.69585
#
# Velocity S-wave (km/s) = 2.52341 3.52936 3.06790
# Velocity P-wave (km/s) = 5.11232 6.23813 5.70307
#
# Compressibility (1/GPa) = 0.02458481
#
# Stress axis : x y z
#
# Youngs Moduli (GPa) = 70.90482 81.14703 101.76734
#
# Poissons Ratio (x) = -0.00348 0.30515
# Poissons Ratio (y) = -0.00304 0.29294
# Poissons Ratio (z) = 0.21261 0.23358
#
# Static dielectric constant tensor:
#      x y z
#    x 1.869720 0.000000 0.010970 
#    y 0.000000 1.981310 0.000000 
#    z 0.010970 0.000000 1.883670 
# 
# From -- ./inp_files/31782.got.cif
#   From: 2010.05.17/outbox.cif.g08.bks.cpg/sg9_16_cif.got.tgz:31782.got - 2010.06.03 20:04:27.
