data_PCOD9138572
_publ_section_title
;
Structure prediction by ZEFSAII (Michael W. Deem and Ramdas Pophale) SiO2 
 PCOD9138572
Probable space group: C C
;
_chemical_formula_sum "Si O2"
_cell_formula_units_Z 24
_cell_length_a 5.282361
_cell_length_b 18.760748
_cell_length_c 10.656061
_cell_angle_alpha 90.000000
_cell_angle_beta 58.746368
_cell_angle_gamma 90.000000
_cell_volume 902.775088
_symmetry_space_group_name_H-M "C C"
_symmetry_group_IT_number 9
_symmetry_cell_setting 'monoclinic'
loop_
_space_group_symop_operation_xyz
x,y,z
x,-y,1/2+z
1/2+x,1/2+y,z
1/2+x,1/2-y,1/2+z
loop_
_atom_site_type_symbol
_atom_site_label
_atom_site_fract_x
_atom_site_fract_y
_atom_site_fract_z
Si Si1 0.677660 0.855920 0.361200
Si Si2 0.480874 0.953865 0.203635
Si Si3 0.292764 0.851472 0.073994
Si Si4 0.196449 0.801100 0.840480
Si Si5 0.911477 0.799293 0.639148
Si Si6 0.418592 0.442752 0.498144
O O1 0.553085 0.883421 0.263883
O O2 0.593311 0.776538 0.417848
O O3 0.657680 0.915217 0.472408
O O4 0.027534 0.850395 0.242278
O O5 0.455288 0.924440 0.068349
O O6 0.177115 0.978940 0.348720
O O7 0.754352 0.007437 0.139579
O O8 0.466881 0.777277 0.056811
O O9 0.157319 0.851948 0.969859
O O10 0.552711 0.804290 0.731506
O O11 0.039431 0.807149 0.746672
O O12 0.022964 0.868947 0.535899
#
# Coordination Sequence:
#
# PCOD9138572 Si02
#       6
#     4   4   4   4   4   4
#     4  10  23  44  73 108 155 204 259 330 395 473
#     4  11  26  49  80 109 161 212 265 330 405 485
#     4  10  23  45  74 112 155 205 264 329 401 473
#     4  11  24  43  79 118 155 203 265 334 403 472
#     4  11  25  44  78 116 155 206 266 331 401 478
#     4  11  27  49  78 113 159 212 267 328 407 483
#
# _framework density 26.584693000000001
#
# number of rings (size 3 to 8) (size 9 to 14) (size 15 to 20)
#    0.000    1.333    3.333    0.000    4.667    5.333 
#    0.000    0.000    0.000    0.000    0.000    0.000 
#    0.000    0.000    0.000    0.000    0.000    0.000 
#
# Total GULP energy -67137.960445 kJ/mol
# GULP energy per Si atom -5594.830037 kJ/mol
# Density = 2.652419 g / cm^3
# Si number density = 26.584693 Si / 1000 Ang^3
#
#
#
# Elastic Constant Matrix: (Units=GPa)
#
#
# Indices 1 2 3 4 5 6 
#
# 1 132.2216 24.3685 48.6262 0.0000 20.6604 0.0000
# 2 24.3685 100.1367 45.1185 0.0000 -5.8641 0.0000
# 3 48.6262 45.1185 114.8178 0.0000 10.8368 0.0000
# 4 0.0000 0.0000 0.0000 39.4932 0.0000 3.1049
# 5 20.6604 -5.8641 10.8368 0.0000 60.2590 0.0000
# 6 0.0000 0.0000 0.0000 3.1049 0.0000 32.9951
#
#
#
# Elastic Compliance Matrix: (Units=1/GPa)
#
#
# Indices 1 2 3 4 5 6 
#
# 1 0.009392 -0.000932 -0.003356 0.000000 -0.002707 0.000000
# 2 -0.000932 0.012488 -0.004738 0.000000 0.002387 0.000000
# 3 -0.003356 -0.004738 0.012133 0.000000 -0.001492 0.000000
# 4 0.000000 0.000000 0.000000 0.025510 0.000000 -0.002400
# 5 -0.002707 0.002387 -0.001492 0.000000 0.018024 0.000000
# 6 0.000000 0.000000 0.000000 -0.002400 0.000000 0.030533
#
#
# Mechanical properties :
#
#
# Convention : Reuss Voigt Hill
#
# Bulk Modulus (GPa) = 62.64959 64.82249 63.73604
# Shear Modulus (GPa) = 38.03690 41.82032 39.92861
#
# Velocity S-wave (km/s) = 3.78667 3.97053 3.87969
# Velocity P-wave (km/s) = 6.53726 6.74214 6.64049
#
# Compressibility (1/GPa) = 0.01596180
#
# Stress axis : x y z
#
# Youngs Moduli (GPa) = 106.47335 80.07968 82.41854
#
# Poissons Ratio (x) = 0.07464 0.27658
# Poissons Ratio (y) = 0.09924 0.39047
# Poissons Ratio (z) = 0.35730 0.37939
#
# Static dielectric constant tensor:
#      x y z
#    x 2.143390 0.000000 -0.051100 
#    y 0.000000 2.073390 0.000000 
#    z -0.051100 0.000000 2.084280 
# 
# From -- ./inp_files/13063.got.cif
#   From: 2010.05.17/outbox.cif.g08.bks.cpg/sg9_7_cif.got.tgz:13063.got - 2010.06.03 20:04:27.
