data_PCOD9138782
_publ_section_title
;
Structure prediction by ZEFSAII (Michael W. Deem and Ramdas Pophale) SiO2 
 PCOD9138782
Probable space group: C C
;
_chemical_formula_sum "Si O2"
_cell_formula_units_Z 32
_cell_length_a 10.010246
_cell_length_b 9.524915
_cell_length_c 24.942411
_cell_angle_alpha 90.000000
_cell_angle_beta 36.997731
_cell_angle_gamma 90.000000
_cell_volume 1431.147811
_symmetry_space_group_name_H-M "C C"
_symmetry_group_IT_number 9
_symmetry_cell_setting 'monoclinic'
loop_
_space_group_symop_operation_xyz
x,y,z
x,-y,1/2+z
1/2+x,1/2+y,z
1/2+x,1/2-y,1/2+z
loop_
_atom_site_type_symbol
_atom_site_label
_atom_site_fract_x
_atom_site_fract_y
_atom_site_fract_z
Si Si1 0.988730 0.491486 0.258870
Si Si2 0.843655 0.775939 0.534670
Si Si3 0.356187 0.020999 0.003792
Si Si4 0.055560 0.189002 0.723736
Si Si5 0.574926 0.181645 0.835843
Si Si6 0.606898 0.835846 0.509970
Si Si7 0.466993 0.529495 0.555717
Si Si8 0.554793 0.488323 0.327456
O O1 0.005474 0.658163 0.265565
O O2 0.994256 0.406533 0.311522
O O3 0.770042 0.459346 0.294704
O O4 0.209351 0.454964 0.153529
O O5 0.755747 0.715837 0.618954
O O6 0.636828 0.828291 0.564525
O O7 0.602656 0.486249 0.565580
O O8 0.987728 0.909487 0.504243
O O9 0.473401 0.121367 0.923317
O O10 0.409154 0.079956 0.045396
O O11 0.444023 0.859730 0.972963
O O12 0.071768 0.824681 0.003361
O O13 0.838062 0.159877 0.758234
O O14 0.094756 0.070358 0.755025
O O15 0.520371 0.344688 0.843438
O O16 0.835247 0.906689 0.417492
#
# Coordination Sequence:
#
# PCOD9138782 Si02
#       8
#     4   4   4   4   4   4   4   4
#     4  10  25  46  70  97 135 185 230 291 353 421
#     4  10  25  43  70  96 143 182 231 288 355 420
#     4  11  25  39  67 104 137 179 232 288 349 417
#     4  10  23  47  66 101 135 180 234 290 347 428
#     4  11  24  41  69 102 137 179 234 290 355 414
#     4  11  25  43  67 104 136 179 231 297 344 418
#     4  10  25  45  68 100 137 183 232 288 356 425
#     4  11  26  42  73 102 136 181 240 292 351 417
#
# _framework density 22.359676
#
# number of rings (size 3 to 8) (size 9 to 14) (size 15 to 20)
#    0.000    1.500    1.250    1.500    8.750    8.000 
#    0.000    0.000    0.000    0.000    0.000    0.000 
#    0.000    0.000    0.000    0.000    0.000    0.000 
#
# Total GULP energy -89460.876286 kJ/mol
# GULP energy per Si atom -5591.304768 kJ/mol
# Density = 2.230878 g / cm^3
# Si number density = 22.359676 Si / 1000 Ang^3
#
#
#
# Elastic Constant Matrix: (Units=GPa)
#
#
# Indices 1 2 3 4 5 6 
#
# 1 144.4040 105.0288 18.9638 0.0000 0.5528 0.0001
# 2 105.0288 154.7512 22.9061 0.0001 3.1952 0.0000
# 3 18.9638 22.9061 41.7453 0.0003 -0.0934 0.0004
# 4 0.0000 0.0001 0.0003 27.8953 0.0000 6.6039
# 5 0.5528 3.1952 -0.0934 0.0000 34.2411 -0.0001
# 6 0.0001 0.0000 0.0004 6.6039 -0.0001 39.9920
#
#
#
# Elastic Compliance Matrix: (Units=1/GPa)
#
#
# Indices 1 2 3 4 5 6 
#
# 1 0.013747 -0.009163 -0.001216 0.000000 0.000630 0.000000
# 2 -0.009163 0.013156 -0.003059 0.000000 -0.001088 0.000000
# 3 -0.001216 -0.003059 0.026186 0.000000 0.000377 0.000000
# 4 0.000000 0.000000 0.000000 0.037307 0.000000 -0.006161
# 5 0.000630 -0.001088 0.000377 0.000000 0.029297 0.000000
# 6 0.000000 0.000000 0.000000 -0.006161 0.000000 0.026022
#
#
# Mechanical properties :
#
#
# Convention : Reuss Voigt Hill
#
# Bulk Modulus (GPa) = 38.14703 70.52198 54.33450
# Shear Modulus (GPa) = 27.57442 33.35913 30.46677
#
# Velocity S-wave (km/s) = 3.51553 3.86674 3.69531
# Velocity P-wave (km/s) = 5.79451 7.17941 6.52381
#
# Compressibility (1/GPa) = 0.02621436
#
# Stress axis : x y z
#
# Youngs Moduli (GPa) = 72.74528 76.01110 38.18803
#
# Poissons Ratio (x) = 0.69648 0.04642
# Poissons Ratio (y) = 0.66655 0.11681
# Poissons Ratio (z) = 0.08843 0.23250
#
# Static dielectric constant tensor:
#      x y z
#    x 1.811210 0.000000 -0.001100 
#    y 0.000000 1.834840 0.000000 
#    z -0.001100 0.000000 1.846180 
# 
# From -- ./inp_files/34916.got.cif
#   From: 2010.05.17/outbox.cif.g08.bks.cpg/sg9_18_cif.got.tgz:34916.got - 2010.06.03 20:04:27.
