data_PCOD9138709
_publ_section_title
;
Structure prediction by ZEFSAII (Michael W. Deem and Ramdas Pophale) SiO2 
 PCOD9138709
Probable space group: C C
;
_chemical_formula_sum "Si O2"
_cell_formula_units_Z 28
_cell_length_a 6.395381
_cell_length_b 22.625622
_cell_length_c 8.763829
_cell_angle_alpha 90.000000
_cell_angle_beta 81.971811
_cell_angle_gamma 90.000000
_cell_volume 1255.693185
_symmetry_space_group_name_H-M "C C"
_symmetry_group_IT_number 9
_symmetry_cell_setting 'monoclinic'
loop_
_space_group_symop_operation_xyz
x,y,z
x,-y,1/2+z
1/2+x,1/2+y,z
1/2+x,1/2-y,1/2+z
loop_
_atom_site_type_symbol
_atom_site_label
_atom_site_fract_x
_atom_site_fract_y
_atom_site_fract_z
Si Si1 0.326950 0.616343 0.102900
Si Si2 0.330609 0.629031 0.616048
Si Si3 0.578336 0.820636 0.895702
Si Si4 0.222798 0.083434 0.433917
Si Si5 0.195791 0.032156 0.103151
Si Si6 0.108268 0.185053 0.855788
Si Si7 0.989909 0.392717 0.366437
O O1 0.213334 0.641702 0.261674
O O2 0.452512 0.554399 0.110349
O O3 0.504457 0.661917 0.023830
O O4 0.149181 0.615534 0.991079
O O5 0.207013 0.680376 0.540713
O O6 0.476363 0.597863 0.477239
O O7 0.487230 0.651462 0.731665
O O8 0.146342 0.590570 0.712924
O O9 0.363012 0.857875 0.937325
O O10 0.561821 0.753910 0.841713
O O11 0.264052 0.055614 0.262564
O O12 0.246795 0.036115 0.568020
O O13 0.318865 0.062472 0.949948
O O14 0.352436 0.165096 0.836353
#
# Coordination Sequence:
#
# PCOD9138709 Si02
#       7
#     4   4   4   4   4   4   4
#     4  10  23  46  68 103 140 186 231 293 358 424
#     4  11  26  45  70 105 142 183 244 293 364 428
#     4  12  26  44  71 109 141 186 244 294 369 431
#     4  12  28  45  71 105 145 188 242 299 359 431
#     4  11  26  47  71 101 145 188 242 300 354 428
#     4  10  26  43  74 102 147 187 233 300 361 440
#     4  10  23  48  71  99 138 190 236 287 363 422
#
# _framework density 22.298439999999999
#
# number of rings (size 3 to 8) (size 9 to 14) (size 15 to 20)
#    0.000    1.143    2.857    0.857   14.000    3.429 
#    0.000    0.000    0.000    0.000    0.000    0.000 
#    0.000    0.000    0.000    0.000    0.000    0.000 
#
# Total GULP energy -78147.865551 kJ/mol
# GULP energy per Si atom -5581.990396 kJ/mol
# Density = 2.224769 g / cm^3
# Si number density = 22.298440 Si / 1000 Ang^3
#
#
#
# Elastic Constant Matrix: (Units=GPa)
#
#
# Indices 1 2 3 4 5 6 
#
# 1 102.2828 28.5051 26.7096 0.0000 -12.8512 0.0000
# 2 28.5051 84.9929 -0.7617 0.0000 -6.8801 0.0000
# 3 26.7096 -0.7617 68.6783 0.0000 -12.1940 0.0000
# 4 0.0000 0.0000 0.0000 24.7059 0.0000 4.2586
# 5 -12.8512 -6.8801 -12.1940 0.0000 56.6375 0.0000
# 6 0.0000 0.0000 0.0000 4.2586 0.0000 14.1536
#
#
#
# Elastic Compliance Matrix: (Units=1/GPa)
#
#
# Indices 1 2 3 4 5 6 
#
# 1 0.012266 -0.004049 -0.004584 0.000000 0.001304 0.000000
# 2 -0.004049 0.013230 0.001917 0.000000 0.001101 0.000000
# 3 -0.004584 0.001917 0.016866 0.000000 0.002824 0.000000
# 4 0.000000 0.000000 0.000000 0.042690 0.000000 -0.012845
# 5 0.001304 0.001101 0.002824 0.000000 0.018694 0.000000
# 6 0.000000 0.000000 0.000000 -0.012845 0.000000 0.074518
#
#
# Mechanical properties :
#
#
# Convention : Reuss Voigt Hill
#
# Bulk Modulus (GPa) = 34.56596 40.54000 37.55298
# Shear Modulus (GPa) = 24.83361 32.53281 28.68321
#
# Velocity S-wave (km/s) = 3.34082 3.82379 3.59044
# Velocity P-wave (km/s) = 5.51513 6.14128 5.83661
#
# Compressibility (1/GPa) = 0.02893020
#
# Stress axis : x y z
#
# Youngs Moduli (GPa) = 81.52489 75.58531 59.29098
#
# Poissons Ratio (x) = 0.30607 0.27177
# Poissons Ratio (y) = 0.33012 -0.11366
# Poissons Ratio (z) = 0.37369 -0.14490
#
# Static dielectric constant tensor:
#      x y z
#    x 1.845140 0.000000 -0.008120 
#    y 0.000000 1.855340 0.000000 
#    z -0.008120 0.000000 1.841760 
# 
# From -- ./inp_files/3976.got.cif
#   From: 2010.05.17/outbox.cif.g08.bks.cpg/sg9_2_cif.got.tgz:3976.got - 2010.06.03 20:04:27.
