data_PCOD9138008
_publ_section_title
;
Structure prediction by ZEFSAII (Michael W. Deem and Ramdas Pophale) SiO2 
 PCOD9138008
Probable space group: C C
;
_chemical_formula_sum "Si O2"
_cell_formula_units_Z 28
_cell_length_a 18.647132
_cell_length_b 7.383040
_cell_length_c 11.514702
_cell_angle_alpha 90.000000
_cell_angle_beta 132.483710
_cell_angle_gamma 90.000000
_cell_volume 1169.079288
_symmetry_space_group_name_H-M "C C"
_symmetry_group_IT_number 9
_symmetry_cell_setting 'monoclinic'
loop_
_space_group_symop_operation_xyz
x,y,z
x,-y,1/2+z
1/2+x,1/2+y,z
1/2+x,1/2-y,1/2+z
loop_
_atom_site_type_symbol
_atom_site_label
_atom_site_fract_x
_atom_site_fract_y
_atom_site_fract_z
Si Si1 0.917630 0.693674 0.630410
Si Si2 0.986283 0.696252 0.138599
Si Si3 0.133213 0.199851 0.307669
Si Si4 0.767628 0.381996 0.773472
Si Si5 0.178672 0.417671 0.760069
Si Si6 0.840158 0.780544 0.796812
Si Si7 0.174199 0.155401 0.948486
O O1 0.840376 0.714086 0.442059
O O2 0.882470 0.780167 0.713042
O O3 0.936353 0.473739 0.649809
O O4 0.020908 0.776901 0.709226
O O5 0.062941 0.619512 0.124456
O O6 0.060300 0.791561 0.310414
O O7 0.916029 0.821624 0.985234
O O8 0.163516 0.094046 0.223812
O O9 0.177159 0.397792 0.332568
O O10 0.179098 0.062786 0.450820
O O11 0.816734 0.569418 0.794297
O O12 0.735706 0.279846 0.623805
O O13 0.243157 0.396825 0.716529
O O14 0.217692 0.257397 0.885327
#
# Coordination Sequence:
#
# PCOD9138008 Si02
#       7
#     4   4   4   4   4   4   4
#     4  10  24  42  69 109 144 187 242 294 361 428
#     4   8  21  41  64 101 140 189 231 290 355 418
#     4  11  23  47  72 105 139 188 248 288 360 432
#     4  11  23  43  69 105 145 189 230 299 364 424
#     4   9  22  45  69 106 142 186 239 299 359 422
#     4  11  21  42  74 101 148 190 235 295 358 427
#     4  10  22  46  73 101 142 187 237 299 355 427
#
# _framework density 23.950472000000001
#
# number of rings (size 3 to 8) (size 9 to 14) (size 15 to 20)
#    0.857    1.143    1.429    0.857    2.000    8.000 
#    5.143    1.429    0.000    0.000    0.000    0.000 
#    0.000    0.000    0.000    0.000    0.000    0.000 
#
# Total GULP energy -78024.792885 kJ/mol
# GULP energy per Si atom -5573.199492 kJ/mol
# Density = 2.389596 g / cm^3
# Si number density = 23.950472 Si / 1000 Ang^3
#
#
#
# Elastic Constant Matrix: (Units=GPa)
#
#
# Indices 1 2 3 4 5 6 
#
# 1 148.3133 32.4539 32.0643 0.0000 4.2995 0.0000
# 2 32.4539 95.8759 31.1396 0.0000 5.1037 0.0000
# 3 32.0643 31.1396 87.3944 0.0000 -11.0676 0.0000
# 4 0.0000 0.0000 0.0000 14.9005 0.0000 3.6426
# 5 4.2995 5.1037 -11.0676 0.0000 25.9528 0.0000
# 6 0.0000 0.0000 0.0000 3.6426 0.0000 41.8503
#
#
#
# Elastic Compliance Matrix: (Units=1/GPa)
#
#
# Indices 1 2 3 4 5 6 
#
# 1 0.007707 -0.001698 -0.002476 0.000000 -0.001999 0.000000
# 2 -0.001698 0.012652 -0.004402 0.000000 -0.004084 0.000000
# 3 -0.002476 -0.004402 0.014885 0.000000 0.007623 0.000000
# 4 0.000000 0.000000 0.000000 0.068571 0.000000 -0.005968
# 5 -0.001999 -0.004084 0.007623 0.000000 0.042917 0.000000
# 6 0.000000 0.000000 0.000000 -0.005968 0.000000 0.024414
#
#
# Mechanical properties :
#
#
# Convention : Reuss Voigt Hill
#
# Bulk Modulus (GPa) = 55.27428 58.09990 56.68709
# Shear Modulus (GPa) = 25.72955 32.26911 28.99933
#
# Velocity S-wave (km/s) = 3.28118 3.67458 3.48344
# Velocity P-wave (km/s) = 6.12238 6.50495 6.31656
#
# Compressibility (1/GPa) = 0.01809160
#
# Stress axis : x y z
#
# Youngs Moduli (GPa) = 129.74708 79.03716 67.18325
#
# Poissons Ratio (x) = 0.13424 0.16632
# Poissons Ratio (y) = 0.22037 0.29575
# Poissons Ratio (z) = 0.32121 0.34794
#
# Static dielectric constant tensor:
#      x y z
#    x 2.000930 0.000000 -0.027830 
#    y 0.000000 1.984200 0.000000 
#    z -0.027830 0.000000 1.980050 
# 
# From -- ./inp_files/19102.got.cif
#   From: 2010.05.17/outbox.cif.g08.bks.cpg/sg9_10_cif.got.tgz:19102.got - 2010.06.03 20:04:27.
