data_PCOD9138046
_publ_section_title
;
Structure prediction by ZEFSAII (Michael W. Deem and Ramdas Pophale) SiO2 
 PCOD9138046
Probable space group: C C
;
_chemical_formula_sum "Si O2"
_cell_formula_units_Z 28
_cell_length_a 26.326977
_cell_length_b 8.082605
_cell_length_c 10.593758
_cell_angle_alpha 90.000000
_cell_angle_beta 150.706614
_cell_angle_gamma 90.000000
_cell_volume 1102.964262
_symmetry_space_group_name_H-M "C C"
_symmetry_group_IT_number 9
_symmetry_cell_setting 'monoclinic'
loop_
_space_group_symop_operation_xyz
x,y,z
x,-y,1/2+z
1/2+x,1/2+y,z
1/2+x,1/2-y,1/2+z
loop_
_atom_site_type_symbol
_atom_site_label
_atom_site_fract_x
_atom_site_fract_y
_atom_site_fract_z
Si Si1 0.593120 0.719009 0.015820
Si Si2 0.950299 0.103024 0.905099
Si Si3 0.691193 0.854369 0.572424
Si Si4 0.868381 0.464952 0.718569
Si Si5 0.706881 0.983398 0.870684
Si Si6 0.230167 0.988610 0.164732
Si Si7 0.425032 0.274392 0.980200
O O1 0.671493 0.829682 0.265331
O O2 0.664399 0.641302 0.065928
O O3 0.531858 0.586496 0.968277
O O4 0.498625 0.812233 0.742320
O O5 0.942343 0.304595 0.902264
O O6 0.828150 0.057326 0.615844
O O7 0.970317 0.953900 0.045049
O O8 0.672179 0.013900 0.441787
O O9 0.654078 0.666931 0.472805
O O10 0.813476 0.816400 0.801950
O O11 0.661037 0.888788 0.651515
O O12 0.805211 0.455187 0.450179
O O13 0.790566 0.464744 0.669164
O O14 0.917547 0.648089 0.846165
#
# Coordination Sequence:
#
# PCOD9138046 Si02
#       7
#     4   4   4   4   4   4   4
#     4  12  26  43  74 110 149 194 265 311 382 473
#     4  11  24  48  72 103 153 204 244 321 386 455
#     4  10  22  47  70 102 145 199 241 311 387 453
#     4  11  24  50  77 103 153 200 252 318 390 459
#     4  11  24  45  75 102 148 194 253 307 389 452
#     4  11  24  43  75 109 148 193 253 318 378 463
#     4  10  24  44  71 107 146 190 258 304 388 453
#
# _framework density 25.386133999999998
#
# number of rings (size 3 to 8) (size 9 to 14) (size 15 to 20)
#    0.000    1.143    2.857    3.429    8.000    2.286 
#    2.571    0.000    0.000    0.000    0.000    0.000 
#    0.000    0.000    0.000    0.000    0.000    0.000 
#
# Total GULP energy -78005.057436 kJ/mol
# GULP energy per Si atom -5571.789817 kJ/mol
# Density = 2.532835 g / cm^3
# Si number density = 25.386134 Si / 1000 Ang^3
#
#
#
# Elastic Constant Matrix: (Units=GPa)
#
#
# Indices 1 2 3 4 5 6 
#
# 1 99.5724 39.9439 14.1075 0.0000 -13.1922 0.0000
# 2 39.9439 114.4564 26.0763 0.0000 -2.9079 0.0000
# 3 14.1075 26.0763 48.5136 0.0000 -17.3091 0.0000
# 4 0.0000 0.0000 0.0000 40.5475 0.0000 -1.9625
# 5 -13.1922 -2.9079 -17.3091 0.0000 35.6691 0.0000
# 6 0.0000 0.0000 0.0000 -1.9625 0.0000 40.9939
#
#
#
# Elastic Compliance Matrix: (Units=1/GPa)
#
#
# Indices 1 2 3 4 5 6 
#
# 1 0.012277 -0.004230 0.000243 0.000000 0.004314 0.000000
# 2 -0.004230 0.011553 -0.006291 0.000000 -0.003676 0.000000
# 3 0.000243 -0.006291 0.028751 0.000000 0.013529 0.000000
# 4 0.000000 0.000000 0.000000 0.024720 0.000000 0.001183
# 5 0.004314 -0.003676 0.013529 0.000000 0.035896 0.000000
# 6 0.000000 0.000000 0.000000 0.001183 0.000000 0.024450
#
#
# Mechanical properties :
#
#
# Convention : Reuss Voigt Hill
#
# Bulk Modulus (GPa) = 31.22721 46.97756 39.10239
# Shear Modulus (GPa) = 29.60700 35.60309 32.60505
#
# Velocity S-wave (km/s) = 3.41877 3.74901 3.58769
# Velocity P-wave (km/s) = 5.28314 6.10618 5.70951
#
# Compressibility (1/GPa) = 0.03202335
#
# Stress axis : x y z
#
# Youngs Moduli (GPa) = 81.45285 86.55629 34.78194
#
# Poissons Ratio (x) = 0.36615 -0.00844
# Poissons Ratio (y) = 0.34457 0.21882
# Poissons Ratio (z) = -0.01977 0.54454
#
# Static dielectric constant tensor:
#      x y z
#    x 2.051290 0.000000 -0.109270 
#    y 0.000000 2.065340 0.000000 
#    z -0.109270 0.000000 2.228950 
# 
# From -- ./inp_files/21397.got.cif
#   From: 2010.05.17/outbox.cif.g08.bks.cpg/sg9_11_cif.got.tgz:21397.got - 2010.06.03 20:04:27.
