data_PCOD9138937
_publ_section_title
;
Structure prediction by ZEFSAII (Michael W. Deem and Ramdas Pophale) SiO2 
 PCOD9138937
Probable space group: C C
;
_chemical_formula_sum "Si O2"
_cell_formula_units_Z 28
_cell_length_a 15.669655
_cell_length_b 18.757305
_cell_length_c 8.568840
_cell_angle_alpha 90.000000
_cell_angle_beta 149.625964
_cell_angle_gamma 90.000000
_cell_volume 1273.490724
_symmetry_space_group_name_H-M "C C"
_symmetry_group_IT_number 9
_symmetry_cell_setting 'monoclinic'
loop_
_space_group_symop_operation_xyz
x,y,z
x,-y,1/2+z
1/2+x,1/2+y,z
1/2+x,1/2-y,1/2+z
loop_
_atom_site_type_symbol
_atom_site_label
_atom_site_fract_x
_atom_site_fract_y
_atom_site_fract_z
Si Si1 0.512630 0.933143 0.380770
Si Si2 0.045895 0.015199 0.435487
Si Si3 0.184555 0.156587 0.769830
Si Si4 0.809821 0.030057 0.810643
Si Si5 0.171277 0.343649 0.895266
Si Si6 0.338983 0.929189 0.773709
Si Si7 0.423843 0.725026 0.569350
O O1 0.421008 0.915069 0.073141
O O2 0.543475 0.871897 0.558236
O O3 0.699992 0.959297 0.634305
O O4 0.430306 0.996382 0.832542
O O5 0.163055 0.083350 0.643777
O O6 0.150134 0.955885 0.509982
O O7 0.984743 0.979000 0.496664
O O8 0.266203 0.220392 0.799265
O O9 0.001890 0.178044 0.552700
O O10 0.312987 0.136603 0.114530
O O11 0.705904 0.092648 0.568052
O O12 0.871968 0.040494 0.083258
O O13 0.347143 0.321788 0.088827
O O14 0.084313 0.277499 0.845166
#
# Coordination Sequence:
#
# PCOD9138937 Si02
#       7
#     4   4   4   4   4   4   4
#     4  12  22  38  64  98 126 155 200 263 321 365
#     4  12  22  38  64  98 126 155 200 263 321 365
#     4  11  22  42  62  88 130 159 216 238 316 361
#     4  12  22  38  64  98 126 155 200 263 321 365
#     4  11  22  42  62  88 130 159 216 238 316 361
#     4  12  22  38  64  98 126 155 200 263 321 365
#     4  10  24  42  62  82 124 188 192 252 286 382
#
# _framework density 21.986813000000001
#
# number of rings (size 3 to 8) (size 9 to 14) (size 15 to 20)
#    0.000    0.571    5.714    3.429    0.000    0.000 
#    0.000    8.571    0.000    0.000    0.000    0.000 
#    0.000    0.000    0.000    0.000    0.000    0.000 
#
# Total GULP energy -78114.336262 kJ/mol
# GULP energy per Si atom -5579.595447 kJ/mol
# Density = 2.193677 g / cm^3
# Si number density = 21.986813 Si / 1000 Ang^3
#
#
#
# Elastic Constant Matrix: (Units=GPa)
#
#
# Indices 1 2 3 4 5 6 
#
# 1 68.9156 3.3487 21.5777 0.0000 25.7604 0.0000
# 2 3.3487 59.1327 9.1352 0.0000 -1.2469 0.0000
# 3 21.5777 9.1352 92.3245 0.0000 -25.4712 0.0000
# 4 0.0000 0.0000 0.0000 21.1758 0.0000 20.5916
# 5 25.7604 -1.2469 -25.4712 0.0000 54.4266 0.0000
# 6 0.0000 0.0000 0.0000 20.5916 0.0000 37.7176
#
#
#
# Elastic Compliance Matrix: (Units=1/GPa)
#
#
# Indices 1 2 3 4 5 6 
#
# 1 0.023446 -0.000146 -0.009792 0.000000 -0.015683 0.000000
# 2 -0.000146 0.017185 -0.001767 0.000000 -0.000364 0.000000
# 3 -0.009792 -0.001767 0.016721 0.000000 0.012419 0.000000
# 4 0.000000 0.000000 0.000000 0.100665 0.000000 -0.054957
# 5 -0.015683 -0.000364 0.012419 0.000000 0.031600 0.000000
# 6 0.000000 0.000000 0.000000 -0.054957 0.000000 0.056516
#
#
# Mechanical properties :
#
#
# Convention : Reuss Voigt Hill
#
# Bulk Modulus (GPa) = 29.46152 32.05509 30.75831
# Shear Modulus (GPa) = 17.80277 35.08473 26.44375
#
# Velocity S-wave (km/s) = 2.84861 3.99898 3.47177
# Velocity P-wave (km/s) = 4.92424 5.99444 5.48550
#
# Compressibility (1/GPa) = 0.03394258
#
# Stress axis : x y z
#
# Youngs Moduli (GPa) = 42.65184 58.19153 59.80482
#
# Poissons Ratio (x) = 0.00848 0.58560
# Poissons Ratio (y) = 0.00621 0.10566
# Poissons Ratio (z) = 0.41764 0.10281
#
# Static dielectric constant tensor:
#      x y z
#    x 1.848780 0.000000 0.013850 
#    y 0.000000 1.771510 0.000000 
#    z 0.013850 0.000000 1.804970 
# 
# From -- ./inp_files/10065.got.cif
#   From: 2010.05.17/outbox.cif.g08.bks.cpg/sg9_6_cif.got.tgz:10065.got - 2010.06.03 20:04:27.
