data_PCOD9138435
_publ_section_title
;
Structure prediction by ZEFSAII (Michael W. Deem and Ramdas Pophale) SiO2 
 PCOD9138435
Probable space group: C C
;
_chemical_formula_sum "Si O2"
_cell_formula_units_Z 32
_cell_length_a 7.873676
_cell_length_b 31.549446
_cell_length_c 5.785702
_cell_angle_alpha 90.000000
_cell_angle_beta 66.965577
_cell_angle_gamma 90.000000
_cell_volume 1322.636714
_symmetry_space_group_name_H-M "C C"
_symmetry_group_IT_number 9
_symmetry_cell_setting 'monoclinic'
loop_
_space_group_symop_operation_xyz
x,y,z
x,-y,1/2+z
1/2+x,1/2+y,z
1/2+x,1/2-y,1/2+z
loop_
_atom_site_type_symbol
_atom_site_label
_atom_site_fract_x
_atom_site_fract_y
_atom_site_fract_z
Si Si1 0.996360 0.113723 0.827230
Si Si2 0.261195 0.672702 0.664393
Si Si3 0.157991 0.392037 0.836661
Si Si4 0.950703 0.672001 0.207985
Si Si5 0.616378 0.480137 0.189033
Si Si6 0.557914 0.982329 0.000472
Si Si7 0.015592 0.267307 0.064748
Si Si8 0.677220 0.684187 0.991759
O O1 0.938232 0.153627 0.696661
O O2 0.072141 0.069927 0.686594
O O3 0.135093 0.137191 0.927943
O O4 0.807993 0.100394 0.058620
O O5 0.244737 0.643961 0.448735
O O6 0.199580 0.719393 0.612661
O O7 0.090663 0.662981 0.925193
O O8 0.969752 0.370358 0.847635
O O9 0.116052 0.433838 0.997349
O O10 0.026188 0.712617 0.305099
O O11 0.753243 0.680982 0.209470
O O12 0.552327 0.496984 0.481279
O O13 0.836919 0.486134 0.094809
O O14 0.620998 0.004393 0.206270
O O15 0.838481 0.292018 0.260789
O O16 0.007441 0.216850 0.068597
#
# Coordination Sequence:
#
# PCOD9138435 Si02
#       8
#     4   4   4   4   4   4   4   4
#     4  11  26  42  69 103 140 184 232 290 358 423
#     4   9  22  43  64  97 132 178 222 289 341 420
#     4  10  23  43  69  97 136 176 233 287 347 422
#     4   9  22  42  66  93 129 182 221 288 333 421
#     4  10  25  47  69 103 148 187 236 300 365 432
#     4  10  24  43  72 104 136 187 236 292 363 435
#     4  10  24  43  65  95 137 182 228 289 347 416
#     4  11  26  41  68 100 134 184 236 283 352 419
#
# _framework density 24.194096999999999
#
# number of rings (size 3 to 8) (size 9 to 14) (size 15 to 20)
#    0.000    2.000    0.000    0.000   17.500    5.000 
#    0.000    0.000    0.000    0.000    0.000    0.000 
#    0.000    0.000    0.000    0.000    0.000    0.000 
#
# Total GULP energy -89280.168480 kJ/mol
# GULP energy per Si atom -5580.010530 kJ/mol
# Density = 2.413903 g / cm^3
# Si number density = 24.194097 Si / 1000 Ang^3
#
#
#
# Elastic Constant Matrix: (Units=GPa)
#
#
# Indices 1 2 3 4 5 6 
#
# 1 60.8009 25.9713 25.1509 0.0000 3.3990 0.0000
# 2 25.9713 117.0938 21.8243 0.0000 7.9789 0.0000
# 3 25.1509 21.8243 79.1346 0.0000 2.7090 0.0000
# 4 0.0000 0.0000 0.0000 27.0574 0.0000 -9.2172
# 5 3.3990 7.9789 2.7090 0.0000 24.6414 0.0000
# 6 0.0000 0.0000 0.0000 -9.2172 0.0000 25.3468
#
#
#
# Elastic Compliance Matrix: (Units=1/GPa)
#
#
# Indices 1 2 3 4 5 6 
#
# 1 0.020212 -0.003393 -0.005451 0.000000 -0.001090 0.000000
# 2 -0.003393 0.009748 -0.001524 0.000000 -0.002521 0.000000
# 3 -0.005451 -0.001524 0.014802 0.000000 -0.000382 0.000000
# 4 0.000000 0.000000 0.000000 0.042184 0.000000 0.015340
# 5 -0.001090 -0.002521 -0.000382 0.000000 0.041591 0.000000
# 6 0.000000 0.000000 0.000000 0.015340 0.000000 0.045031
#
#
# Mechanical properties :
#
#
# Convention : Reuss Voigt Hill
#
# Bulk Modulus (GPa) = 41.61825 44.76916 43.19371
# Shear Modulus (GPa) = 24.71412 27.68130 26.19771
#
# Velocity S-wave (km/s) = 3.19955 3.38618 3.29418
# Velocity P-wave (km/s) = 5.55776 5.81658 5.68864
#
# Compressibility (1/GPa) = 0.02402792
#
# Stress axis : x y z
#
# Youngs Moduli (GPa) = 49.47524 102.57993 67.55623
#
# Poissons Ratio (x) = 0.34803 0.36824
# Poissons Ratio (y) = 0.16786 0.10295
# Poissons Ratio (z) = 0.26968 0.15632
#
# Static dielectric constant tensor:
#      x y z
#    x 1.991700 0.000000 0.027240 
#    y 0.000000 1.863020 0.000000 
#    z 0.027240 0.000000 2.026980 
# 
# From -- ./inp_files/1233.got.cif
#   From: 2010.05.17/outbox.cif.g08.bks.cpg/sg9_1_cif.got.tgz:1233.got - 2010.06.03 20:04:27.
