data_PCOD9138328
_publ_section_title
;
Structure prediction by ZEFSAII (Michael W. Deem and Ramdas Pophale) SiO2 
 PCOD9138328
Probable space group: C C
;
_chemical_formula_sum "Si O2"
_cell_formula_units_Z 24
_cell_length_a 8.495327
_cell_length_b 14.736309
_cell_length_c 7.551455
_cell_angle_alpha 90.000000
_cell_angle_beta 100.206271
_cell_angle_gamma 90.000000
_cell_volume 930.405622
_symmetry_space_group_name_H-M "C C"
_symmetry_group_IT_number 9
_symmetry_cell_setting 'monoclinic'
loop_
_space_group_symop_operation_xyz
x,y,z
x,-y,1/2+z
1/2+x,1/2+y,z
1/2+x,1/2-y,1/2+z
loop_
_atom_site_type_symbol
_atom_site_label
_atom_site_fract_x
_atom_site_fract_y
_atom_site_fract_z
Si Si1 0.316570 0.152899 0.477900
Si Si2 0.761368 0.805011 0.717531
Si Si3 0.178937 0.372378 0.055096
Si Si4 0.105688 0.423970 0.421043
Si Si5 0.239863 0.957595 0.347632
Si Si6 0.589526 0.381749 0.637075
O O1 0.242216 0.206185 0.627597
O O2 0.503018 0.171863 0.498012
O O3 0.217045 0.174287 0.280395
O O4 0.782493 0.181510 0.431019
O O5 0.621038 0.865606 0.603245
O O6 0.917216 0.846996 0.653316
O O7 0.201104 0.383884 0.270545
O O8 0.167114 0.475454 0.977859
O O9 0.796011 0.455457 0.980006
O O10 0.918670 0.425600 0.331004
O O11 0.146664 0.885592 0.448052
O O12 0.110522 0.013263 0.205886
#
# Coordination Sequence:
#
# PCOD9138328 Si02
#       6
#     4   4   4   4   4   4
#     4   9  24  46  65 101 138 191 231 283 367 414
#     4  12  26  45  68 108 152 171 241 306 348 415
#     4  11  23  44  72 100 134 188 238 283 351 430
#     4  11  22  42  76 100 131 193 238 279 350 432
#     4   9  20  45  73  97 137 183 244 277 349 439
#     4  10  23  42  70 104 136 184 236 292 351 408
#
# _framework density 25.795200999999999
#
# number of rings (size 3 to 8) (size 9 to 14) (size 15 to 20)
#    1.000    0.667    1.667    3.000    4.667    0.000 
#    9.000    0.000    0.000    0.000    0.000    0.000 
#    0.000    0.000    0.000    0.000    0.000    0.000 
#
# Total GULP energy -66993.670795 kJ/mol
# GULP energy per Si atom -5582.805900 kJ/mol
# Density = 2.573649 g / cm^3
# Si number density = 25.795201 Si / 1000 Ang^3
#
#
#
# Elastic Constant Matrix: (Units=GPa)
#
#
# Indices 1 2 3 4 5 6 
#
# 1 63.7385 3.4758 8.1551 0.0000 -21.8671 0.0000
# 2 3.4758 70.4970 9.4483 0.0000 -20.8012 0.0000
# 3 8.1551 9.4483 93.2976 0.0000 -28.3863 0.0000
# 4 0.0000 0.0000 0.0000 36.8605 0.0000 -11.8661
# 5 -21.8671 -20.8012 -28.3863 0.0000 51.5984 0.0000
# 6 0.0000 0.0000 0.0000 -11.8661 0.0000 26.6527
#
#
#
# Elastic Compliance Matrix: (Units=1/GPa)
#
#
# Indices 1 2 3 4 5 6 
#
# 1 0.018587 0.001629 0.000969 0.000000 0.009067 0.000000
# 2 0.001629 0.016256 0.000499 0.000000 0.007518 0.000000
# 3 0.000969 0.000499 0.012934 0.000000 0.007727 0.000000
# 4 0.000000 0.000000 0.000000 0.031668 0.000000 0.014099
# 5 0.009067 0.007518 0.007727 0.000000 0.030505 0.000000
# 6 0.000000 0.000000 0.000000 0.014099 0.000000 0.043797
#
#
# Mechanical properties :
#
#
# Convention : Reuss Voigt Hill
#
# Bulk Modulus (GPa) = 18.52845 29.96571 24.24708
# Shear Modulus (GPa) = 30.20349 36.78592 33.49470
#
# Velocity S-wave (km/s) = 3.42555 3.78044 3.60736
# Velocity P-wave (km/s) = 4.77957 5.54054 5.17407
#
# Compressibility (1/GPa) = 0.05397105
#
# Stress axis : x y z
#
# Youngs Moduli (GPa) = 53.80132 61.51495 77.31391
#
# Poissons Ratio (x) = -0.10021 -0.07492
# Poissons Ratio (y) = -0.08764 -0.03857
# Poissons Ratio (z) = -0.05213 -0.03068
#
# Static dielectric constant tensor:
#      x y z
#    x 1.979710 0.000000 -0.075200 
#    y 0.000000 2.108820 0.000000 
#    z -0.075200 0.000000 2.130140 
# 
# From -- ./inp_files/8112.got.cif
#   From: 2010.05.17/outbox.cif.g08.bks.cpg/sg9_5_cif.got.tgz:8112.got - 2010.06.03 20:04:27.
