data_PCOD9138506
_publ_section_title
;
Structure prediction by ZEFSAII (Michael W. Deem and Ramdas Pophale) SiO2 
 PCOD9138506
Probable space group: C C
;
_chemical_formula_sum "Si O2"
_cell_formula_units_Z 32
_cell_length_a 5.363121
_cell_length_b 16.665649
_cell_length_c 14.877649
_cell_angle_alpha 90.000000
_cell_angle_beta 114.357090
_cell_angle_gamma 90.000000
_cell_volume 1211.404195
_symmetry_space_group_name_H-M "C C"
_symmetry_group_IT_number 9
_symmetry_cell_setting 'monoclinic'
loop_
_space_group_symop_operation_xyz
x,y,z
x,-y,1/2+z
1/2+x,1/2+y,z
1/2+x,1/2-y,1/2+z
loop_
_atom_site_type_symbol
_atom_site_label
_atom_site_fract_x
_atom_site_fract_y
_atom_site_fract_z
Si Si1 0.161190 0.398038 0.500000
Si Si2 0.981040 0.484792 0.841346
Si Si3 0.695704 0.755898 0.202140
Si Si4 0.054190 0.889694 0.234647
Si Si5 0.152374 0.202112 0.998855
Si Si6 0.125182 0.477762 0.673421
Si Si7 0.743995 0.332698 0.884984
Si Si8 0.226017 0.881946 0.072795
O O1 0.172543 0.482866 0.448522
O O2 0.369610 0.345286 0.474326
O O3 0.241973 0.420529 0.614203
O O4 0.876331 0.348674 0.475616
O O5 0.053349 0.441278 0.759125
O O6 0.845482 0.569990 0.792817
O O7 0.783777 0.423375 0.859940
O O8 0.610891 0.711732 0.280646
O O9 0.458375 0.818918 0.140498
O O10 0.969283 0.806620 0.264466
O O11 0.755907 0.709716 0.118114
O O12 0.012443 0.882801 0.121646
O O13 0.845143 0.956446 0.235577
O O14 0.034661 0.287013 0.945747
O O15 0.872041 0.529973 0.593113
O O16 0.615935 0.344884 0.964305
#
# Coordination Sequence:
#
# PCOD9138506 Si02
#       8
#     4   4   4   4   4   4   4   4
#     4  12  27  49  74 106 150 195 247 306 369 447
#     4  11  25  45  74 107 140 197 249 305 369 441
#     4  10  23  44  68 101 148 189 243 300 374 438
#     4  10  23  44  73  99 148 192 241 308 375 434
#     4  11  29  48  73 108 151 197 240 308 376 440
#     4  10  23  44  70 104 139 190 243 309 357 439
#     4  11  23  47  69 109 140 193 247 302 365 449
#     4   9  21  43  67 102 142 189 236 304 371 424
#
# _framework density 26.415623
#
# number of rings (size 3 to 8) (size 9 to 14) (size 15 to 20)
#    0.000    1.500    1.250    1.500   15.750    0.000 
#    2.250    0.000    0.000    0.000    0.000    0.000 
#    0.000    0.000    0.000    0.000    0.000    0.000 
#
# Total GULP energy -89420.573074 kJ/mol
# GULP energy per Si atom -5588.785817 kJ/mol
# Density = 2.635550 g / cm^3
# Si number density = 26.415623 Si / 1000 Ang^3
#
#
#
# Elastic Constant Matrix: (Units=GPa)
#
#
# Indices 1 2 3 4 5 6 
#
# 1 71.3539 19.2177 3.3173 0.0000 -5.0582 0.0000
# 2 19.2177 61.1814 30.0800 0.0000 -9.9964 0.0000
# 3 3.3173 30.0800 123.6419 0.0000 -17.6822 0.0000
# 4 0.0000 0.0000 0.0000 45.1564 0.0000 -9.9334
# 5 -5.0582 -9.9964 -17.6822 0.0000 19.0231 0.0000
# 6 0.0000 0.0000 0.0000 -9.9334 0.0000 19.7885
#
#
#
# Elastic Compliance Matrix: (Units=1/GPa)
#
#
# Indices 1 2 3 4 5 6 
#
# 1 0.015496 -0.005025 0.001174 0.000000 0.002571 0.000000
# 2 -0.005025 0.020898 -0.004117 0.000000 0.005819 0.000000
# 3 0.001174 -0.004117 0.010141 0.000000 0.007575 0.000000
# 4 0.000000 0.000000 0.000000 0.024894 0.000000 0.012496
# 5 0.002571 0.005819 0.007575 0.000000 0.063350 0.000000
# 6 0.000000 0.000000 0.000000 0.012496 0.000000 0.056807
#
#
# Mechanical properties :
#
#
# Convention : Reuss Voigt Hill
#
# Bulk Modulus (GPa) = 32.67946 40.15636 36.41791
# Shear Modulus (GPa) = 22.96513 30.36442 26.66478
#
# Velocity S-wave (km/s) = 2.95172 3.39409 3.18060
# Velocity P-wave (km/s) = 4.90051 5.53123 5.22539
#
# Compressibility (1/GPa) = 0.03060026
#
# Stress axis : x y z
#
# Youngs Moduli (GPa) = 64.53447 47.85137 98.60621
#
# Poissons Ratio (x) = 0.24043 -0.11580
# Poissons Ratio (y) = 0.32426 0.40598
# Poissons Ratio (z) = -0.07579 0.19701
#
# Static dielectric constant tensor:
#      x y z
#    x 2.044220 0.000000 0.067200 
#    y 0.000000 2.089840 0.000000 
#    z 0.067200 0.000000 2.143020 
# 
# From -- ./inp_files/22091.got.cif
#   From: 2010.05.17/outbox.cif.g08.bks.cpg/sg9_12_cif.got.tgz:22091.got - 2010.06.03 20:04:27.
