data_PCOD9138194
_publ_section_title
;
Structure prediction by ZEFSAII (Michael W. Deem and Ramdas Pophale) SiO2 
 PCOD9138194
Probable space group: C C
;
_chemical_formula_sum "Si O2"
_cell_formula_units_Z 28
_cell_length_a 9.969171
_cell_length_b 11.470323
_cell_length_c 12.133695
_cell_angle_alpha 90.000000
_cell_angle_beta 56.917880
_cell_angle_gamma 90.000000
_cell_volume 1162.557134
_symmetry_space_group_name_H-M "C C"
_symmetry_group_IT_number 9
_symmetry_cell_setting 'monoclinic'
loop_
_space_group_symop_operation_xyz
x,y,z
x,-y,1/2+z
1/2+x,1/2+y,z
1/2+x,1/2-y,1/2+z
loop_
_atom_site_type_symbol
_atom_site_label
_atom_site_fract_x
_atom_site_fract_y
_atom_site_fract_z
Si Si1 0.597880 0.883665 0.843320
Si Si2 0.684059 0.305583 0.465978
Si Si3 0.540725 0.656451 0.504048
Si Si4 0.988299 0.144496 0.786740
Si Si5 0.856912 0.943859 0.545050
Si Si6 0.271430 0.991261 0.279596
Si Si7 0.426194 0.897298 0.516042
O O1 0.663648 0.823899 0.927239
O O2 0.517411 0.772989 0.820851
O O3 0.727574 0.923766 0.696114
O O4 0.485419 0.991608 0.921730
O O5 0.514927 0.373002 0.520888
O O6 0.809231 0.372679 0.327790
O O7 0.757719 0.340635 0.549866
O O8 0.499633 0.651208 0.651458
O O9 0.399456 0.579002 0.515887
O O10 0.696498 0.585183 0.396802
O O11 0.541931 0.786778 0.460204
O O12 0.838849 0.100447 0.927577
O O13 0.132775 0.056660 0.758420
O O14 0.404412 0.053238 0.148577
#
# Coordination Sequence:
#
# PCOD9138194 Si02
#       7
#     4   4   4   4   4   4   4
#     4  10  24  42  68 102 133 184 234 274 349 421
#     4   9  23  43  68  92 139 183 222 292 345 409
#     4  10  23  41  62 100 129 176 226 282 349 408
#     4   9  21  42  70  92 129 178 226 284 343 416
#     4   9  21  46  65  94 132 182 221 284 353 406
#     4   9  21  42  64  91 134 181 220 282 357 401
#     4  12  25  40  67 105 136 180 235 284 342 423
#
# _framework density 24.084835999999999
#
# number of rings (size 3 to 8) (size 9 to 14) (size 15 to 20)
#    0.000    2.857    0.000    1.714   12.000    4.571 
#    2.571    0.000    0.000    0.000    0.000    0.000 
#    0.000    0.000    0.000    0.000    0.000    0.000 
#
# Total GULP energy -78133.940941 kJ/mol
# GULP energy per Si atom -5580.995782 kJ/mol
# Density = 2.403002 g / cm^3
# Si number density = 24.084836 Si / 1000 Ang^3
#
#
#
# Elastic Constant Matrix: (Units=GPa)
#
#
# Indices 1 2 3 4 5 6 
#
# 1 49.9547 36.6429 7.5027 0.0000 12.4059 0.0000
# 2 36.6429 162.4254 40.6711 0.0000 -10.3778 0.0000
# 3 7.5027 40.6711 107.3046 0.0000 -9.5389 0.0000
# 4 0.0000 0.0000 0.0000 35.4363 0.0000 2.4109
# 5 12.4059 -10.3778 -9.5389 0.0000 26.3457 0.0000
# 6 0.0000 0.0000 0.0000 2.4109 0.0000 19.3405
#
#
#
# Elastic Compliance Matrix: (Units=1/GPa)
#
#
# Indices 1 2 3 4 5 6 
#
# 1 0.030153 -0.007738 -0.000732 0.000000 -0.017512 0.000000
# 2 -0.007738 0.008872 -0.002260 0.000000 0.006320 0.000000
# 3 -0.000732 -0.002260 0.010517 0.000000 0.003262 0.000000
# 4 0.000000 0.000000 0.000000 0.028461 0.000000 -0.003548
# 5 -0.017512 0.006320 0.003262 0.000000 0.049874 0.000000
# 6 0.000000 0.000000 0.000000 -0.003548 0.000000 0.052147
#
#
# Mechanical properties :
#
#
# Convention : Reuss Voigt Hill
#
# Bulk Modulus (GPa) = 35.60980 54.36867 44.98924
# Shear Modulus (GPa) = 23.71409 31.88237 27.79823
#
# Velocity S-wave (km/s) = 3.14125 3.64229 3.40101
# Velocity P-wave (km/s) = 5.28903 6.34911 5.84316
#
# Compressibility (1/GPa) = 0.02808215
#
# Stress axis : x y z
#
# Youngs Moduli (GPa) = 33.16408 112.71353 95.08410
#
# Poissons Ratio (x) = 0.87218 0.06961
# Poissons Ratio (y) = 0.25663 0.21487
# Poissons Ratio (z) = 0.02428 0.25471
#
# Static dielectric constant tensor:
#      x y z
#    x 2.081200 0.000000 0.030630 
#    y 0.000000 1.880820 0.000000 
#    z 0.030630 0.000000 1.934940 
# 
# From -- ./inp_files/16089.got.cif
#   From: 2010.05.17/outbox.cif.g08.bks.cpg/sg9_9_cif.got.tgz:16089.got - 2010.06.03 20:04:27.
