data_PCOD9138605
_publ_section_title
;
Structure prediction by ZEFSAII (Michael W. Deem and Ramdas Pophale) SiO2 
 PCOD9138605
Probable space group: C C
;
_chemical_formula_sum "Si O2"
_cell_formula_units_Z 32
_cell_length_a 8.079724
_cell_length_b 21.718042
_cell_length_c 12.216057
_cell_angle_alpha 90.000000
_cell_angle_beta 133.974925
_cell_angle_gamma 90.000000
_cell_volume 1542.644298
_symmetry_space_group_name_H-M "C C"
_symmetry_group_IT_number 9
_symmetry_cell_setting 'monoclinic'
loop_
_space_group_symop_operation_xyz
x,y,z
x,-y,1/2+z
1/2+x,1/2+y,z
1/2+x,1/2-y,1/2+z
loop_
_atom_site_type_symbol
_atom_site_label
_atom_site_fract_x
_atom_site_fract_y
_atom_site_fract_z
Si Si1 0.091300 0.918024 0.949340
Si Si2 0.948939 0.318496 0.849304
Si Si3 0.381903 0.251825 0.102436
Si Si4 0.988887 0.798890 0.763061
Si Si5 0.506745 0.188806 0.935494
Si Si6 0.916435 0.546174 0.418419
Si Si7 0.116919 0.884410 0.209238
Si Si8 0.910883 0.003946 0.698404
O O1 0.338138 0.935425 0.007247
O O2 0.025963 0.851156 0.871843
O O3 0.084212 0.914204 0.075487
O O4 0.916707 0.967171 0.815129
O O5 0.964031 0.295881 0.731576
O O6 0.701963 0.301638 0.780999
O O7 0.979870 0.391277 0.882719
O O8 0.127038 0.278031 0.000874
O O9 0.396044 0.219563 0.992054
O O10 0.526679 0.314684 0.166124
O O11 0.769514 0.815305 0.590427
O O12 0.975319 0.733824 0.817799
O O13 0.384355 0.124155 0.858148
O O14 0.658259 0.522767 0.259892
O O15 0.150935 0.505332 0.529677
O O16 0.980722 0.924414 0.234913
#
# Coordination Sequence:
#
# PCOD9138605 Si02
#       8
#     4   4   4   4   4   4   4   4
#     4   9  23  43  66  92 131 177 227 281 330 401
#     4  11  23  41  64  99 145 174 222 285 340 408
#     4  12  22  40  65 104 136 177 216 279 351 410
#     4  11  21  40  64  95 135 177 219 278 339 409
#     4  12  23  39  66 100 132 173 230 273 348 417
#     4   9  22  45  69  96 138 180 231 287 336 401
#     4  12  23  43  68  96 133 177 221 285 338 412
#     4  10  23  45  66  96 130 183 228 282 340 402
#
# _framework density 20.743603
#
# number of rings (size 3 to 8) (size 9 to 14) (size 15 to 20)
#    0.750    0.500    5.000    0.750    1.750    1.000 
#    4.500    0.000    0.000    0.000    0.000    0.000 
#    0.000    0.000    0.000    0.000    0.000    0.000 
#
# Total GULP energy -89112.060975 kJ/mol
# GULP energy per Si atom -5569.503811 kJ/mol
# Density = 2.069639 g / cm^3
# Si number density = 20.743603 Si / 1000 Ang^3
#
#
#
# Elastic Constant Matrix: (Units=GPa)
#
#
# Indices 1 2 3 4 5 6 
#
# 1 60.8331 27.6180 38.8702 0.0000 22.1377 0.0000
# 2 27.6180 66.9764 22.1615 0.0000 1.7109 0.0000
# 3 38.8702 22.1615 64.0945 0.0000 32.0563 0.0000
# 4 0.0000 0.0000 0.0000 28.6265 0.0000 -1.9490
# 5 22.1377 1.7109 32.0563 0.0000 37.2493 0.0000
# 6 0.0000 0.0000 0.0000 -1.9490 0.0000 31.7308
#
#
#
# Elastic Compliance Matrix: (Units=1/GPa)
#
#
# Indices 1 2 3 4 5 6 
#
# 1 0.030641 -0.008536 -0.011797 0.000000 -0.007666 0.000000
# 2 -0.008536 0.020503 -0.006985 0.000000 0.010143 0.000000
# 3 -0.011797 -0.006985 0.037755 0.000000 -0.025159 0.000000
# 4 0.000000 0.000000 0.000000 0.035079 0.000000 0.002155
# 5 -0.007666 0.010143 -0.025159 0.000000 0.052588 0.000000
# 6 0.000000 0.000000 0.000000 0.002155 0.000000 0.031647
#
#
# Mechanical properties :
#
#
# Convention : Reuss Voigt Hill
#
# Bulk Modulus (GPa) = 29.18636 41.02262 35.10449
# Shear Modulus (GPa) = 18.23019 26.40494 22.31757
#
# Velocity S-wave (km/s) = 2.96773 3.57167 3.28362
# Velocity P-wave (km/s) = 5.08368 6.06861 5.59785
#
# Compressibility (1/GPa) = 0.03426258
#
# Stress axis : x y z
#
# Youngs Moduli (GPa) = 32.63583 48.77421 26.48678
#
# Poissons Ratio (x) = 0.41633 0.31246
# Poissons Ratio (y) = 0.27857 0.18502
# Poissons Ratio (z) = 0.38500 0.34070
#
# Static dielectric constant tensor:
#      x y z
#    x 1.814330 0.000000 0.094010 
#    y 0.000000 1.759390 0.000000 
#    z 0.094010 0.000000 1.824190 
# 
# From -- ./inp_files/15594.got.cif
#   From: 2010.05.17/outbox.cif.g08.bks.cpg/sg9_8_cif.got.tgz:15594.got - 2010.06.03 20:04:27.
