data_PCOD9138524
_publ_section_title
;
Structure prediction by ZEFSAII (Michael W. Deem and Ramdas Pophale) SiO2 
 PCOD9138524
Probable space group: C C
;
_chemical_formula_sum "Si O2"
_cell_formula_units_Z 20
_cell_length_a 5.443037
_cell_length_b 16.477292
_cell_length_c 8.472729
_cell_angle_alpha 90.000000
_cell_angle_beta 85.452747
_cell_angle_gamma 90.000000
_cell_volume 757.497581
_symmetry_space_group_name_H-M "C C"
_symmetry_group_IT_number 9
_symmetry_cell_setting 'monoclinic'
loop_
_space_group_symop_operation_xyz
x,y,z
x,-y,1/2+z
1/2+x,1/2+y,z
1/2+x,1/2-y,1/2+z
loop_
_atom_site_type_symbol
_atom_site_label
_atom_site_fract_x
_atom_site_fract_y
_atom_site_fract_z
Si Si1 0.580450 0.950560 0.832840
Si Si2 0.565714 0.776253 0.335760
Si Si3 0.348932 0.166508 0.553290
Si Si4 0.454775 0.580476 0.787304
Si Si5 0.802783 0.407713 0.534078
O O1 0.397395 0.922686 0.704165
O O2 0.581578 0.878218 0.960201
O O3 0.831462 0.993046 0.763473
O O4 0.455459 0.025456 0.928441
O O5 0.419994 0.765443 0.179256
O O6 0.692747 0.703539 0.419199
O O7 0.388884 0.819223 0.471753
O O8 0.768245 0.844398 0.280513
O O9 0.183810 0.101823 0.660528
O O10 0.538318 0.582550 0.966066
#
# Coordination Sequence:
#
# PCOD9138524 Si02
#       5
#     4   4   4   4   4
#     4  11  24  45  72 106 147 196 255 304 360 451
#     4  10  25  45  70 110 150 194 244 304 376 452
#     4  11  26  46  75 112 151 194 253 295 384 445
#     4  10  24  48  72 103 155 194 246 313 362 440
#     4  10  23  44  69 109 141 196 256 294 374 436
#
# _framework density 26.402722000000001
#
# number of rings (size 3 to 8) (size 9 to 14) (size 15 to 20)
#    0.000    1.600    0.000    3.600    5.600   11.200 
#    3.600    2.000    0.000    0.000    0.000    0.000 
#    0.000    0.000    0.000    0.000    0.000    0.000 
#
# Total GULP energy -55972.713499 kJ/mol
# GULP energy per Si atom -5597.271350 kJ/mol
# Density = 2.634263 g / cm^3
# Si number density = 26.402722 Si / 1000 Ang^3
#
#
#
# Elastic Constant Matrix: (Units=GPa)
#
#
# Indices 1 2 3 4 5 6 
#
# 1 77.2498 26.8817 58.8592 0.0000 23.3095 0.0000
# 2 26.8817 89.5709 80.2231 0.0000 8.8948 0.0000
# 3 58.8592 80.2231 187.9749 0.0000 27.0962 0.0000
# 4 0.0000 0.0000 0.0000 48.7212 0.0000 6.5996
# 5 23.3095 8.8948 27.0962 0.0000 40.1971 0.0000
# 6 0.0000 0.0000 0.0000 6.5996 0.0000 43.4444
#
#
#
# Elastic Compliance Matrix: (Units=1/GPa)
#
#
# Indices 1 2 3 4 5 6 
#
# 1 0.019006 -0.000983 -0.004402 0.000000 -0.007836 0.000000
# 2 -0.000983 0.018187 -0.007705 0.000000 0.001739 0.000000
# 3 -0.004402 -0.007705 0.010381 0.000000 -0.002740 0.000000
# 4 0.000000 0.000000 0.000000 0.020956 0.000000 -0.003183
# 5 -0.007836 0.001739 -0.002740 0.000000 0.030884 0.000000
# 6 0.000000 0.000000 0.000000 -0.003183 0.000000 0.023501
#
#
# Mechanical properties :
#
#
# Convention : Reuss Voigt Hill
#
# Bulk Modulus (GPa) = 46.74075 76.30263 61.52169
# Shear Modulus (GPa) = 32.00465 39.06134 35.53299
#
# Velocity S-wave (km/s) = 3.48540 3.85053 3.67251
# Velocity P-wave (km/s) = 5.82570 6.98076 6.42922
#
# Compressibility (1/GPa) = 0.02139461
#
# Stress axis : x y z
#
# Youngs Moduli (GPa) = 52.61605 54.98315 96.32572
#
# Poissons Ratio (x) = 0.05406 0.42402
# Poissons Ratio (y) = 0.05173 0.74217
# Poissons Ratio (z) = 0.23161 0.42363
#
# Static dielectric constant tensor:
#      x y z
#    x 2.213250 0.000000 -0.019160 
#    y 0.000000 2.031040 0.000000 
#    z -0.019160 0.000000 2.028910 
# 
# From -- ./inp_files/3603.got.cif
#   From: 2010.05.17/outbox.cif.g08.bks.cpg/sg9_2_cif.got.tgz:3603.got - 2010.06.03 20:04:27.
