data_PCOD9138941
_publ_section_title
;
Structure prediction by ZEFSAII (Michael W. Deem and Ramdas Pophale) SiO2 
 PCOD9138941
Probable space group: C C
;
_chemical_formula_sum "Si O2"
_cell_formula_units_Z 28
_cell_length_a 8.710573
_cell_length_b 28.685368
_cell_length_c 5.228286
_cell_angle_alpha 90.000000
_cell_angle_beta 55.687080
_cell_angle_gamma 90.000000
_cell_volume 1079.024714
_symmetry_space_group_name_H-M "C C"
_symmetry_group_IT_number 9
_symmetry_cell_setting 'monoclinic'
loop_
_space_group_symop_operation_xyz
x,y,z
x,-y,1/2+z
1/2+x,1/2+y,z
1/2+x,1/2-y,1/2+z
loop_
_atom_site_type_symbol
_atom_site_label
_atom_site_fract_x
_atom_site_fract_y
_atom_site_fract_z
Si Si1 0.025860 0.818381 0.669990
Si Si2 0.241069 0.880101 0.840592
Si Si3 0.413809 0.781607 0.162381
Si Si4 0.375306 0.615743 0.943041
Si Si5 0.286045 0.520038 0.778302
Si Si6 0.077424 0.322119 0.523769
Si Si7 0.224771 0.978681 0.743324
O O1 0.139797 0.836198 0.805936
O O2 0.207983 0.803759 0.326518
O O3 0.908391 0.771080 0.774487
O O4 0.895395 0.861290 0.702886
O O5 0.442630 0.864692 0.733005
O O6 0.252080 0.924801 0.646798
O O7 0.091552 0.895178 0.188522
O O8 0.521895 0.808638 0.288955
O O9 0.520265 0.784193 0.791141
O O10 0.276671 0.569059 0.937529
O O11 0.282729 0.658533 0.873255
O O12 0.210735 0.483262 0.059256
O O13 0.505052 0.512031 0.501320
O O14 0.305025 0.989324 0.946435
#
# Coordination Sequence:
#
# PCOD9138941 Si02
#       7
#     4   4   4   4   4   4   4
#     4  11  25  42  68  95 130 173 214 272 320 389
#     4  10  24  42  64  97 131 169 220 263 322 384
#     4  11  26  45  65  96 136 164 221 267 324 380
#     4  11  24  40  71  93 130 176 214 264 328 377
#     4   9  20  36  58  93 127 163 211 261 311 379
#     4  11  26  45  65  98 132 171 214 273 313 390
#     4   9  19  34  61  90 124 166 208 260 316 375
#
# _framework density 25.949361
#
# number of rings (size 3 to 8) (size 9 to 14) (size 15 to 20)
#    0.000    1.714    1.429    0.857   16.000    1.143 
#    0.000    1.429    0.000    0.000    0.000    0.000 
#    0.000    0.000    0.000    0.000    0.000    0.000 
#
# Total GULP energy -78095.781464 kJ/mol
# GULP energy per Si atom -5578.270105 kJ/mol
# Density = 2.589030 g / cm^3
# Si number density = 25.949361 Si / 1000 Ang^3
#
#
#
# Elastic Constant Matrix: (Units=GPa)
#
#
# Indices 1 2 3 4 5 6 
#
# 1 60.4743 8.6147 29.4575 0.0000 -9.3737 0.0000
# 2 8.6147 73.9686 11.9672 0.0000 -0.2387 0.0000
# 3 29.4575 11.9672 51.3844 0.0000 3.5356 0.0000
# 4 0.0000 0.0000 0.0000 23.8568 0.0000 3.5730
# 5 -9.3737 -0.2387 3.5356 0.0000 44.5154 0.0000
# 6 0.0000 0.0000 0.0000 3.5730 0.0000 28.8605
#
#
#
# Elastic Compliance Matrix: (Units=1/GPa)
#
#
# Indices 1 2 3 4 5 6 
#
# 1 0.024618 -0.000512 -0.014429 0.000000 0.006327 0.000000
# 2 -0.000512 0.014064 -0.002996 0.000000 0.000206 0.000000
# 3 -0.014429 -0.002996 0.028798 0.000000 -0.005342 0.000000
# 4 0.000000 0.000000 0.000000 0.042709 0.000000 -0.005287
# 5 0.006327 0.000206 -0.005342 0.000000 0.024222 0.000000
# 6 0.000000 0.000000 0.000000 -0.005287 0.000000 0.035304
#
#
# Mechanical properties :
#
#
# Convention : Reuss Voigt Hill
#
# Bulk Modulus (GPa) = 31.63943 31.76732 31.70337
# Shear Modulus (GPa) = 23.13473 28.49907 25.81690
#
# Velocity S-wave (km/s) = 2.98910 3.31759 3.15762
# Velocity P-wave (km/s) = 4.91245 5.19075 5.05351
#
# Compressibility (1/GPa) = 0.03160614
#
# Stress axis : x y z
#
# Youngs Moduli (GPa) = 40.62044 71.10204 34.72422
#
# Poissons Ratio (x) = 0.03642 0.50104
# Poissons Ratio (y) = 0.02081 0.10403
# Poissons Ratio (z) = 0.58612 0.21302
#
# Static dielectric constant tensor:
#      x y z
#    x 2.041310 0.000000 -0.002260 
#    y 0.000000 2.106730 0.000000 
#    z -0.002260 0.000000 2.126120 
# 
# From -- ./inp_files/1191.got.cif
#   From: 2010.05.17/outbox.cif.g08.bks.cpg/sg9_1_cif.got.tgz:1191.got - 2010.06.03 20:04:27.
