data_PCOD9138672
_publ_section_title
;
Structure prediction by ZEFSAII (Michael W. Deem and Ramdas Pophale) SiO2 
 PCOD9138672
Probable space group: C C
;
_chemical_formula_sum "Si O2"
_cell_formula_units_Z 20
_cell_length_a 7.016441
_cell_length_b 18.046776
_cell_length_c 9.990716
_cell_angle_alpha 90.000000
_cell_angle_beta 45.939318
_cell_angle_gamma 90.000000
_cell_volume 909.080953
_symmetry_space_group_name_H-M "C C"
_symmetry_group_IT_number 9
_symmetry_cell_setting 'monoclinic'
loop_
_space_group_symop_operation_xyz
x,y,z
x,-y,1/2+z
1/2+x,1/2+y,z
1/2+x,1/2-y,1/2+z
loop_
_atom_site_type_symbol
_atom_site_label
_atom_site_fract_x
_atom_site_fract_y
_atom_site_fract_z
Si Si1 0.493240 0.078730 0.163260
Si Si2 0.825793 0.497947 0.497085
Si Si3 0.957826 0.189441 0.021415
Si Si4 0.891523 0.351031 0.101765
Si Si5 0.992642 0.874706 0.774867
O O1 0.431300 0.012289 0.297101
O O2 0.219579 0.124163 0.275093
O O3 0.721440 0.132644 0.102656
O O4 0.532119 0.043044 0.997001
O O5 0.566284 0.447611 0.648934
O O6 0.777221 0.579993 0.576276
O O7 0.888109 0.274028 0.020916
O O8 0.214747 0.162035 0.817661
O O9 0.014308 0.188774 0.152615
O O10 0.199074 0.371021 0.975083
#
# Coordination Sequence:
#
# PCOD9138672 Si02
#       5
#     4   4   4   4   4
#     4  10  24  47  74 107 140 191 239 294 359 426
#     4  10  23  45  74 102 142 185 242 292 353 425
#     4  12  24  49  70 105 146 191 233 300 360 423
#     4  12  24  46  75 100 150 187 236 299 357 421
#     4  10  25  47  71 106 140 190 240 289 359 423
#
# _framework density 22.000240000000002
#
# number of rings (size 3 to 8) (size 9 to 14) (size 15 to 20)
#    1.200    0.000    4.000    1.200    2.800    0.000 
#   14.400    0.000    0.000    0.000    0.000    0.000 
#    0.000    0.000    0.000    0.000    0.000    0.000 
#
# Total GULP energy -55785.780082 kJ/mol
# GULP energy per Si atom -5578.578008 kJ/mol
# Density = 2.195017 g / cm^3
# Si number density = 22.000240 Si / 1000 Ang^3
#
#
#
# Elastic Constant Matrix: (Units=GPa)
#
#
# Indices 1 2 3 4 5 6 
#
# 1 98.8290 32.0627 48.3716 0.0000 -4.3182 0.0000
# 2 32.0627 110.9520 13.1770 0.0000 -21.3287 0.0000
# 3 48.3716 13.1770 118.9763 0.0000 -30.4972 0.0000
# 4 0.0000 0.0000 0.0000 40.6642 0.0000 -5.5946
# 5 -4.3182 -21.3287 -30.4972 0.0000 30.8170 0.0000
# 6 0.0000 0.0000 0.0000 -5.5946 0.0000 29.8462
#
#
#
# Elastic Compliance Matrix: (Units=1/GPa)
#
#
# Indices 1 2 3 4 5 6 
#
# 1 0.015406 -0.005327 -0.008127 0.000000 -0.009570 0.000000
# 2 -0.005327 0.012315 0.003745 0.000000 0.011483 0.000000
# 3 -0.008127 0.003745 0.015632 0.000000 0.016923 0.000000
# 4 0.000000 0.000000 0.000000 0.025243 0.000000 0.004732
# 5 -0.009570 0.011483 0.016923 0.000000 0.055804 0.000000
# 6 0.000000 0.000000 0.000000 0.004732 0.000000 0.034392
#
#
# Mechanical properties :
#
#
# Convention : Reuss Voigt Hill
#
# Bulk Modulus (GPa) = 41.77673 57.33111 49.55392
# Shear Modulus (GPa) = 26.85473 35.94187 31.39830
#
# Velocity S-wave (km/s) = 3.49758 4.04629 3.78190
# Velocity P-wave (km/s) = 5.94485 6.92430 6.45318
#
# Compressibility (1/GPa) = 0.02393677
#
# Stress axis : x y z
#
# Youngs Moduli (GPa) = 64.90974 81.20303 63.97028
#
# Poissons Ratio (x) = 0.43253 0.51987
# Poissons Ratio (y) = 0.34575 -0.23958
# Poissons Ratio (z) = 0.52750 -0.30412
#
# Static dielectric constant tensor:
#      x y z
#    x 1.799890 0.000000 0.025640 
#    y 0.000000 1.839690 0.000000 
#    z 0.025640 0.000000 1.832140 
# 
# From -- ./inp_files/14857.got.cif
#   From: 2010.05.17/outbox.cif.g08.bks.cpg/sg9_8_cif.got.tgz:14857.got - 2010.06.03 20:04:27.
