data_PCOD9138056
_publ_section_title
;
Structure prediction by ZEFSAII (Michael W. Deem and Ramdas Pophale) SiO2 
 PCOD9138056
Probable space group: C C
;
_chemical_formula_sum "Si O2"
_cell_formula_units_Z 32
_cell_length_a 12.946895
_cell_length_b 7.121582
_cell_length_c 16.116650
_cell_angle_alpha 90.000000
_cell_angle_beta 66.741198
_cell_angle_gamma 90.000000
_cell_volume 1365.227542
_symmetry_space_group_name_H-M "C C"
_symmetry_group_IT_number 9
_symmetry_cell_setting 'monoclinic'
loop_
_space_group_symop_operation_xyz
x,y,z
x,-y,1/2+z
1/2+x,1/2+y,z
1/2+x,1/2-y,1/2+z
loop_
_atom_site_type_symbol
_atom_site_label
_atom_site_fract_x
_atom_site_fract_y
_atom_site_fract_z
Si Si1 0.991630 0.549143 0.226560
Si Si2 0.736615 0.580928 0.101019
Si Si3 0.685787 0.240198 0.392236
Si Si4 0.905325 0.690978 0.901407
Si Si5 0.529771 0.545010 0.480626
Si Si6 0.719932 0.183347 0.195903
Si Si7 0.378585 0.657542 0.669135
Si Si8 0.532683 0.790575 0.072204
O O1 0.964638 0.453847 0.321981
O O2 0.924092 0.742652 0.236741
O O3 0.125016 0.571234 0.175867
O O4 0.962399 0.416768 0.156538
O O5 0.734025 0.373785 0.139739
O O6 0.781015 0.717214 0.159209
O O7 0.617471 0.660071 0.101939
O O8 0.830911 0.601561 0.999078
O O9 0.814171 0.207333 0.372478
O O10 0.652729 0.457691 0.426712
O O11 0.663488 0.225670 0.302989
O O12 0.615294 0.110809 0.478785
O O13 0.987940 0.841630 0.915664
O O14 0.487555 0.662431 0.573175
O O15 0.471254 0.344900 0.524182
O O16 0.823561 0.047955 0.187734
#
# Coordination Sequence:
#
# PCOD9138056 Si02
#       8
#     4   4   4   4   4   4   4   4
#     4  12  26  42  70 107 148 192 240 306 367 444
#     4  10  22  47  71  97 144 187 240 307 358 432
#     4   9  23  41  67 105 136 188 238 300 360 432
#     4  10  23  43  70 107 142 187 242 300 366 440
#     4   9  22  43  74  98 141 189 239 297 364 433
#     4  12  26  44  71 103 146 194 246 301 366 441
#     4  11  25  44  69 110 137 191 247 292 369 441
#     4   9  21  44  68 101 140 184 240 297 364 427
#
# _framework density 23.439316000000002
#
# number of rings (size 3 to 8) (size 9 to 14) (size 15 to 20)
#    0.750    1.000    1.250    1.500    5.250    5.000 
#    2.250    0.000    0.000    0.000    0.000    0.000 
#    0.000    0.000    0.000    0.000    0.000    0.000 
#
# Total GULP energy -89103.589233 kJ/mol
# GULP energy per Si atom -5568.974327 kJ/mol
# Density = 2.338597 g / cm^3
# Si number density = 23.439316 Si / 1000 Ang^3
#
#
#
# Elastic Constant Matrix: (Units=GPa)
#
#
# Indices 1 2 3 4 5 6 
#
# 1 46.8002 14.6434 10.6903 0.0000 10.5579 0.0000
# 2 14.6434 78.0648 22.4597 0.0000 3.8857 0.0000
# 3 10.6903 22.4597 50.1861 0.0000 10.1601 0.0000
# 4 0.0000 0.0000 0.0000 31.3237 0.0000 0.2557
# 5 10.5579 3.8857 10.1601 0.0000 26.1210 0.0000
# 6 0.0000 0.0000 0.0000 0.2557 0.0000 25.9570
#
#
#
# Elastic Compliance Matrix: (Units=1/GPa)
#
#
# Indices 1 2 3 4 5 6 
#
# 1 0.024939 -0.003701 -0.001875 0.000000 -0.008800 0.000000
# 2 -0.003701 0.015256 -0.006385 0.000000 0.001710 0.000000
# 3 -0.001875 -0.006385 0.024789 0.000000 -0.007934 0.000000
# 4 0.000000 0.000000 0.000000 0.031927 0.000000 -0.000315
# 5 -0.008800 0.001710 -0.007934 0.000000 0.044672 0.000000
# 6 0.000000 0.000000 0.000000 -0.000315 0.000000 0.038528
#
#
# Mechanical properties :
#
#
# Convention : Reuss Voigt Hill
#
# Bulk Modulus (GPa) = 24.35295 30.07089 27.21192
# Shear Modulus (GPa) = 22.96521 25.16419 24.06470
#
# Velocity S-wave (km/s) = 3.13353 3.28012 3.20766
# Velocity P-wave (km/s) = 4.84813 5.21562 5.03523
#
# Compressibility (1/GPa) = 0.04106279
#
# Stress axis : x y z
#
# Youngs Moduli (GPa) = 40.09804 65.54782 40.34036
#
# Poissons Ratio (x) = 0.24257 0.07562
# Poissons Ratio (y) = 0.14839 0.25759
# Poissons Ratio (z) = 0.07516 0.41855
#
# Static dielectric constant tensor:
#      x y z
#    x 1.981400 0.000000 -0.061480 
#    y 0.000000 1.947950 0.000000 
#    z -0.061480 0.000000 1.964190 
# 
# From -- ./inp_files/30354.got.cif
#   From: 2010.05.17/outbox.cif.g08.bks.cpg/sg9_16_cif.got.tgz:30354.got - 2010.06.03 20:04:27.
