data_PCOD9138184
_publ_section_title
;
Structure prediction by ZEFSAII (Michael W. Deem and Ramdas Pophale) SiO2 
 PCOD9138184
Probable space group: C C
;
_chemical_formula_sum "Si O2"
_cell_formula_units_Z 24
_cell_length_a 24.094182
_cell_length_b 8.403742
_cell_length_c 17.050211
_cell_angle_alpha 90.000000
_cell_angle_beta 19.549054
_cell_angle_gamma 90.000000
_cell_volume 1155.203460
_symmetry_space_group_name_H-M "C C"
_symmetry_group_IT_number 9
_symmetry_cell_setting 'monoclinic'
loop_
_space_group_symop_operation_xyz
x,y,z
x,-y,1/2+z
1/2+x,1/2+y,z
1/2+x,1/2-y,1/2+z
loop_
_atom_site_type_symbol
_atom_site_label
_atom_site_fract_x
_atom_site_fract_y
_atom_site_fract_z
Si Si1 0.188460 0.900803 0.014050
Si Si2 0.855987 0.944186 0.888203
Si Si3 0.451351 0.877821 0.233693
Si Si4 0.250547 0.430126 0.365489
Si Si5 0.630890 0.801120 0.748489
Si Si6 0.277539 0.695766 0.218736
O O1 0.160314 0.820239 0.137289
O O2 0.257131 0.757817 0.868236
O O3 0.016202 0.969131 0.211222
O O4 0.323817 0.038474 0.845288
O O5 0.857216 0.757810 0.906171
O O6 0.847776 0.981404 0.805877
O O7 0.690926 0.027729 0.139872
O O8 0.602805 0.775558 0.994324
O O9 0.556596 0.017809 0.134077
O O10 0.303651 0.511083 0.212389
O O11 0.744307 0.769591 0.672684
O O12 0.439792 0.790046 0.026980
#
# Coordination Sequence:
#
# PCOD9138184 Si02
#       6
#     4   4   4   4   4   4
#     4  11  22  41  69  96 130 182 233 273 332 414
#     4  11  21  38  66  98 130 176 229 270 331 407
#     4  10  23  40  69  95 131 180 232 275 328 412
#     4   9  21  38  66  92 127 181 226 269 326 403
#     4  11  22  42  67  95 140 181 218 277 353 391
#     4  10  23  41  65 100 130 182 218 282 344 389
#
# _framework density 20.775561
#
# number of rings (size 3 to 8) (size 9 to 14) (size 15 to 20)
#    1.000    0.667    1.667    4.000    4.667    0.000 
#    0.000    1.667    7.333    0.000    0.000    0.000 
#    0.000    0.000    0.000    0.000    0.000    0.000 
#
# Total GULP energy -66833.047776 kJ/mol
# GULP energy per Si atom -5569.420648 kJ/mol
# Density = 2.072827 g / cm^3
# Si number density = 20.775561 Si / 1000 Ang^3
#
#
#
# Elastic Constant Matrix: (Units=GPa)
#
#
# Indices 1 2 3 4 5 6 
#
# 1 97.5713 20.0513 25.0980 0.0000 -26.3772 0.0000
# 2 20.0513 101.1528 48.2431 0.0000 -13.8321 0.0000
# 3 25.0980 48.2431 102.7975 0.0000 -25.6156 0.0000
# 4 0.0000 0.0000 0.0000 21.9857 0.0000 -9.4499
# 5 -26.3772 -13.8321 -25.6156 0.0000 30.8617 0.0000
# 6 0.0000 0.0000 0.0000 -9.4499 0.0000 28.6198
#
#
#
# Elastic Compliance Matrix: (Units=1/GPa)
#
#
# Indices 1 2 3 4 5 6 
#
# 1 0.013456 -0.001165 -0.000004 0.000000 0.010976 0.000000
# 2 -0.001165 0.012859 -0.005752 0.000000 -0.000006 0.000000
# 3 -0.000004 -0.005752 0.014858 0.000000 0.009751 0.000000
# 4 0.000000 0.000000 0.000000 0.053007 0.000000 0.017502
# 5 0.010976 -0.000006 0.009751 0.000000 0.049875 0.000000
# 6 0.000000 0.000000 0.000000 0.017502 0.000000 0.040720
#
#
# Mechanical properties :
#
#
# Convention : Reuss Voigt Hill
#
# Bulk Modulus (GPa) = 36.58614 54.25626 45.42120
# Shear Modulus (GPa) = 24.07000 30.16872 27.11936
#
# Velocity S-wave (km/s) = 3.40747 3.81481 3.61688
# Velocity P-wave (km/s) = 5.75583 6.75099 6.27317
#
# Compressibility (1/GPa) = 0.02733275
#
# Stress axis : x y z
#
# Youngs Moduli (GPa) = 74.31376 77.76374 67.30320
#
# Poissons Ratio (x) = 0.09058 0.00025
# Poissons Ratio (y) = 0.08656 0.38714
# Poissons Ratio (z) = 0.00028 0.44731
#
# Static dielectric constant tensor:
#      x y z
#    x 1.774900 0.000000 0.032080 
#    y 0.000000 1.761090 0.000000 
#    z 0.032080 0.000000 1.762240 
# 
# From -- ./inp_files/10349.got.cif
#   From: 2010.05.17/outbox.cif.g08.bks.cpg/sg9_6_cif.got.tgz:10349.got - 2010.06.03 20:04:27.
