data_PCOD9138919
_publ_section_title
;
Structure prediction by ZEFSAII (Michael W. Deem and Ramdas Pophale) SiO2 
 PCOD9138919
Probable space group: C C
;
_chemical_formula_sum "Si O2"
_cell_formula_units_Z 32
_cell_length_a 16.830235
_cell_length_b 9.649708
_cell_length_c 13.807722
_cell_angle_alpha 90.000000
_cell_angle_beta 144.965531
_cell_angle_gamma 90.000000
_cell_volume 1287.332050
_symmetry_space_group_name_H-M "C C"
_symmetry_group_IT_number 9
_symmetry_cell_setting 'monoclinic'
loop_
_space_group_symop_operation_xyz
x,y,z
x,-y,1/2+z
1/2+x,1/2+y,z
1/2+x,1/2-y,1/2+z
loop_
_atom_site_type_symbol
_atom_site_label
_atom_site_fract_x
_atom_site_fract_y
_atom_site_fract_z
Si Si1 0.938470 0.300674 0.385080
Si Si2 0.193017 0.710548 0.016386
Si Si3 0.532091 0.534399 0.576993
Si Si4 0.007058 0.340858 0.179624
Si Si5 0.769116 0.966424 0.416933
Si Si6 0.434091 0.108582 0.237180
Si Si7 0.170118 0.766486 0.372747
Si Si8 0.827927 0.560576 0.344571
O O1 0.810304 0.305364 0.180830
O O2 0.888277 0.402912 0.419878
O O3 0.091835 0.340271 0.500774
O O4 0.958231 0.139450 0.429476
O O5 0.270279 0.596413 0.027425
O O6 0.081421 0.770243 0.825604
O O7 0.411851 0.445373 0.504969
O O8 0.595834 0.636768 0.720987
O O9 0.663127 0.450195 0.669036
O O10 0.981523 0.468564 0.229163
O O11 0.134675 0.390109 0.239257
O O12 0.872862 0.344324 0.979210
O O13 0.734814 0.128946 0.388264
O O14 0.554966 0.216045 0.333626
O O15 0.402608 0.098965 0.319255
O O16 0.292235 0.154327 0.046814
#
# Coordination Sequence:
#
# PCOD9138919 Si02
#       8
#     4   4   4   4   4   4   4   4
#     4  12  22  41  65 106 127 169 230 281 322 398
#     4  10  24  41  63  93 139 173 208 274 347 387
#     4  12  23  35  70 102 128 158 234 290 311 383
#     4   9  21  43  63  89 130 178 203 265 338 389
#     4   9  21  40  60  92 123 178 199 270 334 381
#     4  11  22  39  67  91 131 172 213 271 327 395
#     4  11  20  41  63  93 127 170 223 267 328 382
#     4  12  23  40  67 100 133 170 224 272 335 391
#
# _framework density 24.857610999999999
#
# number of rings (size 3 to 8) (size 9 to 14) (size 15 to 20)
#    0.750    0.500    5.000    2.250    1.750    1.000 
#    2.250    1.250    0.000    0.000    0.000    0.000 
#    0.000    0.000    0.000    0.000    0.000    0.000 
#
# Total GULP energy -89394.137077 kJ/mol
# GULP energy per Si atom -5587.133567 kJ/mol
# Density = 2.480103 g / cm^3
# Si number density = 24.857611 Si / 1000 Ang^3
#
#
#
# Elastic Constant Matrix: (Units=GPa)
#
#
# Indices 1 2 3 4 5 6 
#
# 1 140.7042 13.0450 34.2084 0.0000 37.8268 0.0000
# 2 13.0450 55.6992 19.4772 0.0000 -0.4546 0.0000
# 3 34.2084 19.4772 117.1628 0.0000 14.4051 0.0000
# 4 0.0000 0.0000 0.0000 28.6905 0.0000 1.0998
# 5 37.8268 -0.4546 14.4051 0.0000 46.5516 0.0000
# 6 0.0000 0.0000 0.0000 1.0998 0.0000 32.5209
#
#
#
# Elastic Compliance Matrix: (Units=1/GPa)
#
#
# Indices 1 2 3 4 5 6 
#
# 1 0.009639 -0.001751 -0.001620 0.000000 -0.007348 0.000000
# 2 -0.001751 0.019446 -0.003035 0.000000 0.002552 0.000000
# 3 -0.001620 -0.003035 0.009724 0.000000 -0.001723 0.000000
# 4 0.000000 0.000000 0.000000 0.034900 0.000000 -0.001180
# 5 -0.007348 0.002552 -0.001723 0.000000 0.028010 0.000000
# 6 0.000000 0.000000 0.000000 -0.001180 0.000000 0.030789
#
#
# Mechanical properties :
#
#
# Convention : Reuss Voigt Hill
#
# Bulk Modulus (GPa) = 38.46580 49.66971 44.06776
# Shear Modulus (GPa) = 32.47044 38.00832 35.23938
#
# Velocity S-wave (km/s) = 3.61814 3.91454 3.76925
# Velocity P-wave (km/s) = 5.74131 6.36055 6.05884
#
# Compressibility (1/GPa) = 0.02599712
#
# Stress axis : x y z
#
# Youngs Moduli (GPa) = 103.74869 51.42482 102.83396
#
# Poissons Ratio (x) = 0.09005 0.16656
# Poissons Ratio (y) = 0.18167 0.31212
# Poissons Ratio (z) = 0.16804 0.15608
#
# Static dielectric constant tensor:
#      x y z
#    x 1.994080 0.000000 -0.011820 
#    y 0.000000 2.029130 0.000000 
#    z -0.011820 0.000000 1.972160 
# 
# From -- ./inp_files/26852.got.cif
#   From: 2010.05.17/outbox.cif.g08.bks.cpg/sg9_14_cif.got.tgz:26852.got - 2010.06.03 20:04:27.
