data_PCOD9138695
_publ_section_title
;
Structure prediction by ZEFSAII (Michael W. Deem and Ramdas Pophale) SiO2 
 PCOD9138695
Probable space group: C C
;
_chemical_formula_sum "Si O2"
_cell_formula_units_Z 28
_cell_length_a 13.777057
_cell_length_b 12.725258
_cell_length_c 9.164096
_cell_angle_alpha 90.000000
_cell_angle_beta 124.770277
_cell_angle_gamma 90.000000
_cell_volume 1319.748749
_symmetry_space_group_name_H-M "C C"
_symmetry_group_IT_number 9
_symmetry_cell_setting 'monoclinic'
loop_
_space_group_symop_operation_xyz
x,y,z
x,-y,1/2+z
1/2+x,1/2+y,z
1/2+x,1/2-y,1/2+z
loop_
_atom_site_type_symbol
_atom_site_label
_atom_site_fract_x
_atom_site_fract_y
_atom_site_fract_z
Si Si1 0.057390 0.913516 0.517270
Si Si2 0.335268 0.885033 0.784565
Si Si3 0.164074 0.590373 0.326714
Si Si4 0.528101 0.065406 0.909781
Si Si5 0.410122 0.624105 0.393503
Si Si6 0.996278 0.758531 0.227411
Si Si7 0.930960 0.753031 0.630515
O O1 0.198775 0.911709 0.645590
O O2 0.007941 0.865928 0.324665
O O3 0.009329 0.832693 0.599863
O O4 0.003012 0.029397 0.474228
O O5 0.393447 0.811927 0.709557
O O6 0.413503 0.991352 0.840690
O O7 0.355053 0.817343 0.950938
O O8 0.296569 0.587717 0.387010
O O9 0.125088 0.501340 0.404018
O O10 0.120668 0.699607 0.359234
O O11 0.082811 0.583344 0.114411
O O12 0.499765 0.165530 0.784809
O O13 0.467725 0.716717 0.537313
O O14 0.373929 0.671149 0.205003
#
# Coordination Sequence:
#
# PCOD9138695 Si02
#       7
#     4   4   4   4   4   4   4
#     4  11  26  44  67 100 138 178 223 282 337 400
#     4  10  24  46  69  97 137 176 227 280 336 411
#     4  11  25  42  69  96 137 170 228 281 333 413
#     4  11  23  45  69 100 129 184 227 278 342 403
#     4  12  26  43  67 103 136 178 223 284 338 397
#     4  10  23  46  65  98 129 181 221 271 345 396
#     4  11  25  44  68 102 134 183 229 272 351 402
#
# _framework density 21.216159999999999
#
# number of rings (size 3 to 8) (size 9 to 14) (size 15 to 20)
#    0.000    1.143    2.857    1.714    6.000    4.571 
#    0.000    0.000    0.000    0.000    0.000    0.000 
#    0.000    0.000    0.000    0.000    0.000    0.000 
#
# Total GULP energy -78193.496930 kJ/mol
# GULP energy per Si atom -5585.249781 kJ/mol
# Density = 2.116787 g / cm^3
# Si number density = 21.216160 Si / 1000 Ang^3
#
#
#
# Elastic Constant Matrix: (Units=GPa)
#
#
# Indices 1 2 3 4 5 6 
#
# 1 113.6027 29.6036 20.2044 0.0000 11.2317 0.0000
# 2 29.6036 76.8299 35.6196 0.0000 -1.8680 0.0000
# 3 20.2044 35.6196 38.3630 0.0000 -13.7519 0.0000
# 4 0.0000 0.0000 0.0000 21.4845 0.0000 -3.5592
# 5 11.2317 -1.8680 -13.7519 0.0000 35.8457 0.0000
# 6 0.0000 0.0000 0.0000 -3.5592 0.0000 16.1603
#
#
#
# Elastic Compliance Matrix: (Units=1/GPa)
#
#
# Indices 1 2 3 4 5 6 
#
# 1 0.010935 -0.001186 -0.006850 0.000000 -0.006116 0.000000
# 2 -0.001186 0.025182 -0.025685 0.000000 -0.008170 0.000000
# 3 -0.006850 -0.025685 0.062393 0.000000 0.024744 0.000000
# 4 0.000000 0.000000 0.000000 0.048308 0.000000 0.010640
# 5 -0.006116 -0.008170 0.024744 0.000000 0.038881 0.000000
# 6 0.000000 0.000000 0.000000 0.010640 0.000000 0.064223
#
#
# Mechanical properties :
#
#
# Convention : Reuss Voigt Hill
#
# Bulk Modulus (GPa) = 32.18853 44.40564 38.29708
# Shear Modulus (GPa) = 15.25690 24.25597 19.75644
#
# Velocity S-wave (km/s) = 2.68454 3.38491 3.05486
# Velocity P-wave (km/s) = 4.98133 6.02099 5.52567
#
# Compressibility (1/GPa) = 0.03106697
#
# Stress axis : x y z
#
# Youngs Moduli (GPa) = 91.45242 39.71021 16.02746
#
# Poissons Ratio (x) = 0.04711 0.10978
# Poissons Ratio (y) = 0.10849 0.41167
# Poissons Ratio (z) = 0.62642 1.01998
#
# Static dielectric constant tensor:
#      x y z
#    x 1.748910 0.000000 -0.017690 
#    y 0.000000 1.785050 0.000000 
#    z -0.017690 0.000000 1.744010 
# 
# From -- ./inp_files/6951.got.cif
#   From: 2010.05.17/outbox.cif.g08.bks.cpg/sg9_4_cif.got.tgz:6951.got - 2010.06.03 20:04:27.
