data_PCOD9138248
_publ_section_title
;
Structure prediction by ZEFSAII (Michael W. Deem and Ramdas Pophale) SiO2 
 PCOD9138248
Probable space group: C C
;
_chemical_formula_sum "Si O2"
_cell_formula_units_Z 28
_cell_length_a 12.287027
_cell_length_b 12.916344
_cell_length_c 9.590592
_cell_angle_alpha 90.000000
_cell_angle_beta 121.387413
_cell_angle_gamma 90.000000
_cell_volume 1299.329882
_symmetry_space_group_name_H-M "C C"
_symmetry_group_IT_number 9
_symmetry_cell_setting 'monoclinic'
loop_
_space_group_symop_operation_xyz
x,y,z
x,-y,1/2+z
1/2+x,1/2+y,z
1/2+x,1/2-y,1/2+z
loop_
_atom_site_type_symbol
_atom_site_label
_atom_site_fract_x
_atom_site_fract_y
_atom_site_fract_z
Si Si1 0.033110 0.957192 0.334150
Si Si2 0.270439 0.524216 0.252772
Si Si3 0.143214 0.826169 0.982729
Si Si4 0.411947 0.675617 0.524505
Si Si5 0.361012 0.942437 0.300481
Si Si6 0.797363 0.375351 0.567333
Si Si7 0.644469 0.106507 0.891742
O O1 0.143941 0.881064 0.459850
O O2 0.981327 0.915206 0.154726
O O3 0.093128 0.072138 0.368702
O O4 0.906803 0.967084 0.342095
O O5 0.296739 0.629255 0.356725
O O6 0.171798 0.452158 0.266629
O O7 0.228609 0.553398 0.069811
O O8 0.178899 0.727994 0.913458
O O9 0.256146 0.867908 0.156914
O O10 0.024133 0.787096 0.997338
O O11 0.358463 0.762620 0.591843
O O12 0.343279 0.931948 0.454364
O O13 0.499261 0.910265 0.339596
O O14 0.337884 0.057808 0.227087
#
# Coordination Sequence:
#
# PCOD9138248 Si02
#       7
#     4   4   4   4   4   4   4
#     4  10  23  45  66 100 133 172 229 281 326 408
#     4  11  25  43  66  99 135 178 225 279 330 402
#     4  10  23  41  72  94 130 185 222 271 340 405
#     4  11  21  44  73  93 128 182 229 265 340 408
#     4  11  23  42  63 101 130 171 222 283 325 398
#     4  11  23  41  72  97 130 175 225 277 338 399
#     4  12  24  42  68  98 138 177 224 276 337 396
#
# _framework density 21.549569999999999
#
# number of rings (size 3 to 8) (size 9 to 14) (size 15 to 20)
#    0.000    1.143    4.286    1.714    2.000    0.000 
#    5.143    1.429    0.000    0.000    0.000    0.000 
#    0.000    0.000    0.000    0.000    0.000    0.000 
#
# Total GULP energy -78252.246038 kJ/mol
# GULP energy per Si atom -5589.446146 kJ/mol
# Density = 2.150052 g / cm^3
# Si number density = 21.549570 Si / 1000 Ang^3
#
#
#
# Elastic Constant Matrix: (Units=GPa)
#
#
# Indices 1 2 3 4 5 6 
#
# 1 85.2504 31.9251 -5.8175 0.0000 18.1844 0.0000
# 2 31.9251 45.4024 11.3134 0.0000 9.7007 0.0000
# 3 -5.8175 11.3134 45.0539 0.0000 3.7088 0.0000
# 4 0.0000 0.0000 0.0000 21.1978 0.0000 -13.2602
# 5 18.1844 9.7007 3.7088 0.0000 23.8976 0.0000
# 6 0.0000 0.0000 0.0000 -13.2602 0.0000 31.0022
#
#
#
# Elastic Compliance Matrix: (Units=1/GPa)
#
#
# Indices 1 2 3 4 5 6 
#
# 1 0.019254 -0.012957 0.006597 0.000000 -0.010415 0.000000
# 2 -0.012957 0.034164 -0.010050 0.000000 -0.002449 0.000000
# 3 0.006597 -0.010050 0.025981 0.000000 -0.004972 0.000000
# 4 0.000000 0.000000 0.000000 0.064407 0.000000 0.027548
# 5 -0.010415 -0.002449 -0.004972 0.000000 0.051536 0.000000
# 6 0.000000 0.000000 0.000000 0.027548 0.000000 0.044039
#
#
# Mechanical properties :
#
#
# Convention : Reuss Voigt Hill
#
# Bulk Modulus (GPa) = 21.46946 27.83876 24.65411
# Shear Modulus (GPa) = 17.37751 24.43857 20.90804
#
# Velocity S-wave (km/s) = 2.84279 3.37124 3.11823
# Velocity P-wave (km/s) = 4.55629 5.30096 4.94267
#
# Compressibility (1/GPa) = 0.04657779
#
# Stress axis : x y z
#
# Youngs Moduli (GPa) = 51.93621 29.27064 38.49032
#
# Poissons Ratio (x) = 0.37927 -0.25393
# Poissons Ratio (y) = 0.67296 0.38684
# Poissons Ratio (z) = -0.34264 0.29418
#
# Static dielectric constant tensor:
#      x y z
#    x 1.782900 0.000000 -0.001260 
#    y 0.000000 1.814300 0.000000 
#    z -0.001260 0.000000 1.784180 
# 
# From -- ./inp_files/7338.got.cif
#   From: 2010.05.17/outbox.cif.g08.bks.cpg/sg9_4_cif.got.tgz:7338.got - 2010.06.03 20:04:27.
