data_PCOD9138539
_publ_section_title
;
Structure prediction by ZEFSAII (Michael W. Deem and Ramdas Pophale) SiO2 
 PCOD9138539
Probable space group: C C
;
_chemical_formula_sum "Si O2"
_cell_formula_units_Z 24
_cell_length_a 4.848546
_cell_length_b 20.069659
_cell_length_c 11.694495
_cell_angle_alpha 90.000000
_cell_angle_beta 68.095213
_cell_angle_gamma 90.000000
_cell_volume 1055.819640
_symmetry_space_group_name_H-M "C C"
_symmetry_group_IT_number 9
_symmetry_cell_setting 'monoclinic'
loop_
_space_group_symop_operation_xyz
x,y,z
x,-y,1/2+z
1/2+x,1/2+y,z
1/2+x,1/2-y,1/2+z
loop_
_atom_site_type_symbol
_atom_site_label
_atom_site_fract_x
_atom_site_fract_y
_atom_site_fract_z
Si Si1 0.199950 0.534512 0.985870
Si Si2 0.895708 0.878371 0.254459
Si Si3 0.590856 0.395181 0.592596
Si Si4 0.353572 0.899272 0.985015
Si Si5 0.940732 0.160963 0.358119
Si Si6 0.794232 0.690146 0.854139
O O1 0.384472 0.563366 0.850583
O O2 0.041641 0.467229 0.970053
O O3 0.419809 0.542849 0.059281
O O4 0.929116 0.583053 0.060683
O O5 0.052953 0.815305 0.291471
O O6 0.553774 0.862318 0.282423
O O7 0.093700 0.897011 0.117359
O O8 0.441451 0.371136 0.731815
O O9 0.625555 0.335937 0.493971
O O10 0.190203 0.877635 0.892913
O O11 0.616862 0.846927 0.965208
O O12 0.960124 0.240209 0.343449
#
# Coordination Sequence:
#
# PCOD9138539 Si02
#       6
#     4   4   4   4   4   4
#     4  10  23  46  68  95 135 183 231 279 344 414
#     4  10  23  44  71  97 134 187 226 283 353 405
#     4  10  23  44  70  96 136 186 223 281 352 407
#     4  12  26  42  71 104 138 179 237 290 344 412
#     4  12  26  43  68 110 137 177 235 292 348 411
#     4  10  23  45  70  98 138 182 228 283 349 419
#
# _framework density 22.731157
#
# number of rings (size 3 to 8) (size 9 to 14) (size 15 to 20)
#    0.000    1.333    0.000    4.000    7.000    0.000 
#    9.000    0.000    0.000    0.000    0.000    0.000 
#    0.000    0.000    0.000    0.000    0.000    0.000 
#
# Total GULP energy -67037.674848 kJ/mol
# GULP energy per Si atom -5586.472904 kJ/mol
# Density = 2.267942 g / cm^3
# Si number density = 22.731157 Si / 1000 Ang^3
#
#
#
# Elastic Constant Matrix: (Units=GPa)
#
#
# Indices 1 2 3 4 5 6 
#
# 1 125.0190 25.9635 27.9412 0.0000 2.8880 0.0000
# 2 25.9635 91.5428 47.0587 0.0000 10.0802 0.0000
# 3 27.9412 47.0587 82.8815 0.0000 -3.4340 0.0000
# 4 0.0000 0.0000 0.0000 9.2617 0.0000 -5.8328
# 5 2.8880 10.0802 -3.4340 0.0000 31.3484 0.0000
# 6 0.0000 0.0000 0.0000 -5.8328 0.0000 28.9943
#
#
#
# Elastic Compliance Matrix: (Units=1/GPa)
#
#
# Indices 1 2 3 4 5 6 
#
# 1 0.008782 -0.001246 -0.002281 0.000000 -0.000658 0.000000
# 2 -0.001246 0.016792 -0.009376 0.000000 -0.006312 0.000000
# 3 -0.002281 -0.009376 0.018375 0.000000 0.005238 0.000000
# 4 0.000000 0.000000 0.000000 0.123635 0.000000 0.024872
# 5 -0.000658 -0.006312 0.005238 0.000000 0.034563 0.000000
# 6 0.000000 0.000000 0.000000 0.024872 0.000000 0.039493
#
#
# Mechanical properties :
#
#
# Convention : Reuss Voigt Hill
#
# Bulk Modulus (GPa) = 55.11307 55.70778 55.41043
# Shear Modulus (GPa) = 18.28201 27.15288 22.71745
#
# Velocity S-wave (km/s) = 2.83904 3.45994 3.16475
# Velocity P-wave (km/s) = 5.91989 6.36569 6.14683
#
# Compressibility (1/GPa) = 0.01814452
#
# Stress axis : x y z
#
# Youngs Moduli (GPa) = 113.86332 59.55246 54.42306
#
# Poissons Ratio (x) = 0.07421 0.12411
# Poissons Ratio (y) = 0.14188 0.51025
# Poissons Ratio (z) = 0.25967 0.55834
#
# Static dielectric constant tensor:
#      x y z
#    x 1.819490 0.000000 0.046150 
#    y 0.000000 1.910460 0.000000 
#    z 0.046150 0.000000 1.815190 
# 
# From -- ./inp_files/13151.got.cif
#   From: 2010.05.17/outbox.cif.g08.bks.cpg/sg9_7_cif.got.tgz:13151.got - 2010.06.03 20:04:27.
