data_PCOD9138261
_publ_section_title
;
Structure prediction by ZEFSAII (Michael W. Deem and Ramdas Pophale) SiO2 
 PCOD9138261
Probable space group: C C
;
_chemical_formula_sum "Si O2"
_cell_formula_units_Z 24
_cell_length_a 6.895790
_cell_length_b 22.399034
_cell_length_c 8.664677
_cell_angle_alpha 90.000000
_cell_angle_beta 128.661558
_cell_angle_gamma 90.000000
_cell_volume 1045.040591
_symmetry_space_group_name_H-M "C C"
_symmetry_group_IT_number 9
_symmetry_cell_setting 'monoclinic'
loop_
_space_group_symop_operation_xyz
x,y,z
x,-y,1/2+z
1/2+x,1/2+y,z
1/2+x,1/2-y,1/2+z
loop_
_atom_site_type_symbol
_atom_site_label
_atom_site_fract_x
_atom_site_fract_y
_atom_site_fract_z
Si Si1 0.611770 0.862331 0.929550
Si Si2 0.905964 0.562356 0.058563
Si Si3 0.001679 0.824923 0.876338
Si Si4 0.753538 0.888934 0.507770
Si Si5 0.342532 0.535618 0.764920
Si Si6 0.520117 0.796816 0.192612
O O1 0.418939 0.900090 0.725647
O O2 0.781698 0.829000 0.888820
O O3 0.753458 0.913289 0.100040
O O4 0.539514 0.811481 0.019087
O O5 0.140590 0.517263 0.159772
O O6 0.641824 0.530727 0.898342
O O7 0.990141 0.607180 0.964842
O O8 0.960445 0.879371 0.739562
O O9 0.005232 0.766855 0.768244
O O10 0.255876 0.827222 0.092834
O O11 0.806628 0.942906 0.422869
O O12 0.737311 0.832351 0.386034
#
# Coordination Sequence:
#
# PCOD9138261 Si02
#       6
#     4   4   4   4   4   4
#     4  10  25  42  64  98 134 176 221 276 330 400
#     4  11  24  43  68  98 133 177 223 277 340 400
#     4  11  22  41  63  92 130 174 223 269 325 388
#     4  10  23  42  62  94 134 170 223 278 322 400
#     4  11  24  43  68  98 133 177 223 277 340 400
#     4  11  22  41  63  92 130 174 223 269 325 388
#
# _framework density 22.965613000000001
#
# number of rings (size 3 to 8) (size 9 to 14) (size 15 to 20)
#    0.000    1.333    1.667    3.000    0.000   12.000 
#    3.000    0.000    0.000    0.000    0.000    0.000 
#    0.000    0.000    0.000    0.000    0.000    0.000 
#
# Total GULP energy -66880.147708 kJ/mol
# GULP energy per Si atom -5573.345642 kJ/mol
# Density = 2.291334 g / cm^3
# Si number density = 22.965613 Si / 1000 Ang^3
#
#
#
# Elastic Constant Matrix: (Units=GPa)
#
#
# Indices 1 2 3 4 5 6 
#
# 1 92.9974 30.1926 38.2044 0.0000 -14.6246 0.0000
# 2 30.1926 58.5292 50.9471 0.0000 -28.1137 0.0000
# 3 38.2044 50.9471 108.0134 0.0000 5.3704 0.0000
# 4 0.0000 0.0000 0.0000 14.2204 0.0000 4.9861
# 5 -14.6246 -28.1137 5.3704 0.0000 30.3563 0.0000
# 6 0.0000 0.0000 0.0000 4.9861 0.0000 28.5957
#
#
#
# Elastic Compliance Matrix: (Units=1/GPa)
#
#
# Indices 1 2 3 4 5 6 
#
# 1 0.015673 0.022227 -0.017581 0.000000 0.031246 0.000000
# 2 0.022227 0.336014 -0.183974 0.000000 0.354446 0.000000
# 3 -0.017581 -0.183974 0.112131 0.000000 -0.198690 0.000000
# 4 0.000000 0.000000 0.000000 0.074901 0.000000 -0.013060
# 5 0.031246 0.354446 -0.198690 0.000000 0.411407 0.000000
# 6 0.000000 0.000000 0.000000 -0.013060 0.000000 0.037247
#
#
# Mechanical properties :
#
#
# Convention : Reuss Voigt Hill
#
# Bulk Modulus (GPa) = 9.50910 55.35871 32.43390
# Shear Modulus (GPa) = 3.62035 23.98087 13.80061
#
# Velocity S-wave (km/s) = 1.25692 3.23493 2.45404
# Velocity P-wave (km/s) = 2.50121 6.17336 4.70990
#
# Compressibility (1/GPa) = 0.10516247
#
# Stress axis : x y z
#
# Youngs Moduli (GPa) = 63.80463 2.97607 8.91814
#
# Poissons Ratio (x) = -0.06615 0.15679
# Poissons Ratio (y) = -1.41820 1.64070
# Poissons Ratio (z) = 1.12175 0.54752
#
# Static dielectric constant tensor:
#      x y z
#    x 1.870180 0.000000 -0.001530 
#    y 0.000000 2.177550 0.000000 
#    z -0.001530 0.000000 1.845940 
# 
# From -- ./inp_files/3928.got.cif
#   From: 2010.05.17/outbox.cif.g08.bks.cpg/sg9_2_cif.got.tgz:3928.got - 2010.06.03 20:04:27.
