data_PCOD9138575
_publ_section_title
;
Structure prediction by ZEFSAII (Michael W. Deem and Ramdas Pophale) SiO2 
 PCOD9138575
Probable space group: C C
;
_chemical_formula_sum "Si O2"
_cell_formula_units_Z 32
_cell_length_a 12.187976
_cell_length_b 16.150616
_cell_length_c 8.835338
_cell_angle_alpha 90.000000
_cell_angle_beta 54.315636
_cell_angle_gamma 90.000000
_cell_volume 1412.634117
_symmetry_space_group_name_H-M "C C"
_symmetry_group_IT_number 9
_symmetry_cell_setting 'monoclinic'
loop_
_space_group_symop_operation_xyz
x,y,z
x,-y,1/2+z
1/2+x,1/2+y,z
1/2+x,1/2-y,1/2+z
loop_
_atom_site_type_symbol
_atom_site_label
_atom_site_fract_x
_atom_site_fract_y
_atom_site_fract_z
Si Si1 0.427580 0.307489 0.481800
Si Si2 0.324025 0.908612 0.752369
Si Si3 0.882522 0.568107 0.855050
Si Si4 0.665240 0.842201 0.102267
Si Si5 0.517303 0.585003 0.479164
Si Si6 0.896597 0.944601 0.765529
Si Si7 0.223171 0.197727 0.811942
Si Si8 0.839209 0.786349 0.233641
O O1 0.419639 0.376554 0.617459
O O2 0.351869 0.228988 0.614493
O O3 0.587090 0.299815 0.322285
O O4 0.347843 0.325903 0.392799
O O5 0.344837 0.929638 0.560239
O O6 0.167410 0.923135 0.917669
O O7 0.351062 0.811517 0.747598
O O8 0.407537 0.974310 0.782412
O O9 0.763281 0.610215 0.852029
O O10 0.013481 0.625669 0.727186
O O11 0.715466 0.814471 0.227910
O O12 0.758738 0.916516 0.959892
O O13 0.691748 0.763164 0.972342
O O14 0.415449 0.529399 0.660266
O O15 0.504285 0.559401 0.314988
O O16 0.466618 0.678804 0.536636
#
# Coordination Sequence:
#
# PCOD9138575 Si02
#       8
#     4   4   4   4   4   4   4   4
#     4  11  24  40  70 109 145 188 249 309 373 451
#     4  12  28  43  72 108 146 196 247 314 380 444
#     4  12  27  46  73 108 152 193 249 318 380 455
#     4  10  24  47  74 107 145 205 247 307 391 449
#     4  11  23  46  72 104 144 191 251 303 381 453
#     4  10  23  44  74 105 138 193 246 308 374 456
#     4  11  22  44  72 100 148 196 247 307 380 452
#     4  11  27  44  73 107 148 198 254 310 373 464
#
# _framework density 22.652716000000002
#
# number of rings (size 3 to 8) (size 9 to 14) (size 15 to 20)
#    0.000    1.000    2.500    3.000    5.250    2.000 
#    0.000    3.750    0.000    0.000    0.000    0.000 
#    0.000    0.000    0.000    0.000    0.000    0.000 
#
# Total GULP energy -89486.662304 kJ/mol
# GULP energy per Si atom -5592.916394 kJ/mol
# Density = 2.260116 g / cm^3
# Si number density = 22.652716 Si / 1000 Ang^3
#
#
#
# Elastic Constant Matrix: (Units=GPa)
#
#
# Indices 1 2 3 4 5 6 
#
# 1 77.4836 26.8269 29.4429 0.0000 8.9822 0.0000
# 2 26.8269 119.0347 39.0136 0.0000 3.3393 0.0000
# 3 29.4429 39.0136 63.5627 0.0000 11.6506 0.0000
# 4 0.0000 0.0000 0.0000 30.9930 0.0000 3.5693
# 5 8.9822 3.3393 11.6506 0.0000 44.2992 0.0000
# 6 0.0000 0.0000 0.0000 3.5693 0.0000 24.1735
#
#
#
# Elastic Compliance Matrix: (Units=1/GPa)
#
#
# Indices 1 2 3 4 5 6 
#
# 1 0.015957 -0.001529 -0.006179 0.000000 -0.001495 0.000000
# 2 -0.001529 0.010701 -0.006061 0.000000 0.001097 0.000000
# 3 -0.006179 -0.006061 0.023116 0.000000 -0.004370 0.000000
# 4 0.000000 0.000000 0.000000 0.032823 0.000000 -0.004846
# 5 -0.001495 0.001097 -0.004370 0.000000 0.023943 0.000000
# 6 0.000000 0.000000 0.000000 -0.004846 0.000000 0.042083
#
#
# Mechanical properties :
#
#
# Convention : Reuss Voigt Hill
#
# Bulk Modulus (GPa) = 44.97270 50.07199 47.52234
# Shear Modulus (GPa) = 27.23711 30.87966 29.05838
#
# Velocity S-wave (km/s) = 3.47129 3.69613 3.58547
# Velocity P-wave (km/s) = 5.99689 6.35353 6.17778
#
# Compressibility (1/GPa) = 0.02223571
#
# Stress axis : x y z
#
# Youngs Moduli (GPa) = 62.67032 93.44689 43.26080
#
# Poissons Ratio (x) = 0.14289 0.26729
# Poissons Ratio (y) = 0.09583 0.26221
# Poissons Ratio (z) = 0.38722 0.56639
#
# Static dielectric constant tensor:
#      x y z
#    x 1.838730 0.000000 0.001170 
#    y 0.000000 1.877710 0.000000 
#    z 0.001170 0.000000 1.819920 
# 
# From -- ./inp_files/7570.got.cif
#   From: 2010.05.17/outbox.cif.g08.bks.cpg/sg9_4_cif.got.tgz:7570.got - 2010.06.03 20:04:27.
