data_PCOD9138151
_publ_section_title
;
Structure prediction by ZEFSAII (Michael W. Deem and Ramdas Pophale) SiO2 
 PCOD9138151
Probable space group: C C
;
_chemical_formula_sum "Si O2"
_cell_formula_units_Z 32
_cell_length_a 6.843575
_cell_length_b 25.057170
_cell_length_c 8.093409
_cell_angle_alpha 90.000000
_cell_angle_beta 106.431790
_cell_angle_gamma 90.000000
_cell_volume 1331.178570
_symmetry_space_group_name_H-M "C C"
_symmetry_group_IT_number 9
_symmetry_cell_setting 'monoclinic'
loop_
_space_group_symop_operation_xyz
x,y,z
x,-y,1/2+z
1/2+x,1/2+y,z
1/2+x,1/2-y,1/2+z
loop_
_atom_site_type_symbol
_atom_site_label
_atom_site_fract_x
_atom_site_fract_y
_atom_site_fract_z
Si Si1 0.436860 0.826566 0.261920
Si Si2 0.755666 0.263440 0.518653
Si Si3 0.313858 0.113194 0.420926
Si Si4 0.967137 0.069124 0.119004
Si Si5 0.352351 0.674432 0.989667
Si Si6 0.798817 0.493796 0.133280
Si Si7 0.514005 0.060936 0.957980
Si Si8 0.113765 0.323893 0.782012
O O1 0.303057 0.791420 0.352002
O O2 0.671255 0.806466 0.324223
O O3 0.468251 0.883358 0.361475
O O4 0.337046 0.839686 0.062162
O O5 0.540908 0.285720 0.532258
O O6 0.742139 0.202230 0.460615
O O7 0.933110 0.283634 0.681314
O O8 0.101280 0.104845 0.276180
O O9 0.320041 0.057912 0.524546
O O10 0.492947 0.125964 0.331948
O O11 0.932289 0.114244 0.965805
O O12 0.075863 0.010809 0.141777
O O13 0.731417 0.056120 0.093813
O O14 0.247397 0.670720 0.147349
O O15 0.969970 0.483822 0.310425
O O16 0.841960 0.548139 0.047627
#
# Coordination Sequence:
#
# PCOD9138151 Si02
#       8
#     4   4   4   4   4   4   4   4
#     4   9  23  44  66  99 139 181 229 298 345 416
#     4  11  24  45  71 101 138 185 236 287 355 419
#     4  11  24  46  66 103 145 179 235 292 348 419
#     4  11  23  42  70  95 135 187 229 288 356 409
#     4  10  23  45  71  99 139 183 231 291 353 423
#     4  11  23  42  66  98 139 175 234 291 342 432
#     4  10  23  39  67  96 134 179 228 285 354 416
#     4  11  27  43  71 103 143 189 232 298 351 418
#
# _framework density 24.038848999999999
#
# number of rings (size 3 to 8) (size 9 to 14) (size 15 to 20)
#    0.000    1.500    2.500    0.750    8.750    2.000 
#    0.000    0.000    0.000    0.000    0.000    0.000 
#    0.000    0.000    0.000    0.000    0.000    0.000 
#
# Total GULP energy -89215.107942 kJ/mol
# GULP energy per Si atom -5575.944246 kJ/mol
# Density = 2.398414 g / cm^3
# Si number density = 24.038849 Si / 1000 Ang^3
#
#
#
# Elastic Constant Matrix: (Units=GPa)
#
#
# Indices 1 2 3 4 5 6 
#
# 1 100.9400 29.1682 40.4136 0.0000 19.0980 0.0000
# 2 29.1682 66.6466 19.1709 0.0000 7.9319 0.0000
# 3 40.4136 19.1709 80.6386 0.0000 2.8882 0.0000
# 4 0.0000 0.0000 0.0000 51.8407 0.0000 3.0610
# 5 19.0980 7.9319 2.8882 0.0000 27.3676 0.0000
# 6 0.0000 0.0000 0.0000 3.0610 0.0000 21.9751
#
#
#
# Elastic Compliance Matrix: (Units=1/GPa)
#
#
# Indices 1 2 3 4 5 6 
#
# 1 0.015248 -0.003769 -0.006428 0.000000 -0.008870 0.000000
# 2 -0.003769 0.017553 -0.002205 0.000000 -0.002225 0.000000
# 3 -0.006428 -0.002205 0.016024 0.000000 0.003434 0.000000
# 4 0.000000 0.000000 0.000000 0.019450 0.000000 -0.002709
# 5 -0.008870 -0.002225 0.003434 0.000000 0.043012 0.000000
# 6 0.000000 0.000000 0.000000 -0.002709 0.000000 0.045883
#
#
# Mechanical properties :
#
#
# Convention : Reuss Voigt Hill
#
# Bulk Modulus (GPa) = 41.62899 47.30339 44.46619
# Shear Modulus (GPa) = 26.31877 30.86818 28.59348
#
# Velocity S-wave (km/s) = 3.31243 3.58732 3.45261
# Velocity P-wave (km/s) = 5.65549 6.07281 5.86786
#
# Compressibility (1/GPa) = 0.02402172
#
# Stress axis : x y z
#
# Youngs Moduli (GPa) = 65.58396 56.97105 62.40769
#
# Poissons Ratio (x) = 0.21470 0.40116
# Poissons Ratio (y) = 0.24716 0.13758
# Poissons Ratio (z) = 0.42158 0.12560
#
# Static dielectric constant tensor:
#      x y z
#    x 1.922090 0.000000 -0.043340 
#    y 0.000000 1.996220 0.000000 
#    z -0.043340 0.000000 1.991440 
# 
# From -- ./inp_files/4336.got.cif
#   From: 2010.05.17/outbox.cif.g08.bks.cpg/sg9_3_cif.got.tgz:4336.got - 2010.06.03 20:04:27.
