data_PCOD9138800
_publ_section_title
;
Structure prediction by ZEFSAII (Michael W. Deem and Ramdas Pophale) SiO2 
 PCOD9138800
Probable space group: C C
;
_chemical_formula_sum "Si O2"
_cell_formula_units_Z 24
_cell_length_a 13.768823
_cell_length_b 4.984550
_cell_length_c 27.411355
_cell_angle_alpha 90.000000
_cell_angle_beta 151.236855
_cell_angle_gamma 90.000000
_cell_volume 905.252597
_symmetry_space_group_name_H-M "C C"
_symmetry_group_IT_number 9
_symmetry_cell_setting 'monoclinic'
loop_
_space_group_symop_operation_xyz
x,y,z
x,-y,1/2+z
1/2+x,1/2+y,z
1/2+x,1/2-y,1/2+z
loop_
_atom_site_type_symbol
_atom_site_label
_atom_site_fract_x
_atom_site_fract_y
_atom_site_fract_z
Si Si1 0.494750 0.666703 0.926030
Si Si2 0.592714 0.154825 0.030561
Si Si3 0.085345 0.372235 0.355800
Si Si4 0.842237 0.534090 0.015107
Si Si5 0.933870 0.883528 0.239002
Si Si6 0.217320 0.427067 0.733771
O O1 0.590144 0.448208 0.005304
O O2 0.630928 0.672821 0.936556
O O3 0.284958 0.556492 0.813562
O O4 0.491730 0.953849 0.948207
O O5 0.461778 0.159563 0.022388
O O6 0.804610 0.005414 0.137329
O O7 0.052367 0.612306 0.303197
O O8 0.873200 0.318000 0.291799
O O9 0.273653 0.274937 0.473170
O O10 0.087521 0.115767 0.320756
O O11 0.981096 0.600444 0.122973
O O12 0.766590 0.882994 0.208896
#
# Coordination Sequence:
#
# PCOD9138800 Si02
#       6
#     4   4   4   4   4   4
#     4  11  25  45  66 104 138 173 230 292 324 414
#     4  11  25  45  69 100 139 172 235 281 335 412
#     4   9  19  38  68  92 131 175 225 272 334 397
#     4  10  23  47  71  97 136 193 215 280 359 393
#     4   9  19  40  65  92 134 177 213 286 331 390
#     4   8  21  41  65  99 136 174 228 279 337 406
#
# _framework density 26.511937
#
# number of rings (size 3 to 8) (size 9 to 14) (size 15 to 20)
#    1.000    1.333    0.000    1.000    4.667    2.667 
#   15.000    0.000    0.000    0.000    0.000    0.000 
#    0.000    0.000    0.000    0.000    0.000    0.000 
#
# Total GULP energy -66907.408829 kJ/mol
# GULP energy per Si atom -5575.617402 kJ/mol
# Density = 2.645159 g / cm^3
# Si number density = 26.511937 Si / 1000 Ang^3
#
#
#
# Elastic Constant Matrix: (Units=GPa)
#
#
# Indices 1 2 3 4 5 6 
#
# 1 99.8096 -4.6071 -3.1752 -0.0007 -3.4391 0.0008
# 2 -4.6071 101.9352 -18.7998 -0.0011 0.4454 0.0039
# 3 -3.1752 -18.7998 142.2768 0.0032 5.1082 -0.0006
# 4 -0.0007 -0.0011 0.0032 29.2544 -0.0004 -6.8248
# 5 -3.4391 0.4454 5.1082 -0.0004 23.2941 0.0001
# 6 0.0008 0.0039 -0.0006 -6.8248 0.0001 18.9689
#
#
#
# Elastic Compliance Matrix: (Units=1/GPa)
#
#
# Indices 1 2 3 4 5 6 
#
# 1 0.010099 0.000494 0.000239 0.000000 0.001429 0.000000
# 2 0.000494 0.010085 0.001359 0.000000 -0.000418 -0.000002
# 3 0.000239 0.001359 0.007270 -0.000001 -0.001585 0.000000
# 4 0.000000 0.000000 -0.000001 0.037315 0.000001 0.013426
# 5 0.001429 -0.000418 -0.001585 0.000001 0.043496 0.000000
# 6 0.000000 -0.000002 0.000000 0.013426 0.000000 0.057548
#
#
# Mechanical properties :
#
#
# Convention : Reuss Voigt Hill
#
# Bulk Modulus (GPa) = 31.60697 32.31749 31.96223
# Shear Modulus (GPa) = 29.04031 39.01040 34.02535
#
# Velocity S-wave (km/s) = 3.31322 3.84008 3.58634
# Velocity P-wave (km/s) = 5.15599 5.64605 5.40658
#
# Compressibility (1/GPa) = 0.03163859
#
# Stress axis : x y z
#
# Youngs Moduli (GPa) = 99.02214 99.15830 137.54549
#
# Poissons Ratio (x) = -0.04902 -0.03293
# Poissons Ratio (y) = -0.04895 -0.18687
# Poissons Ratio (z) = -0.02370 -0.13472
#
# Static dielectric constant tensor:
#      x y z
#    x 2.104900 0.000000 -0.028700 
#    y 0.000000 2.172010 0.000000 
#    z -0.028700 0.000000 2.211420 
# 
# From -- ./inp_files/36649.got.cif
#   From: 2010.05.17/outbox.cif.g08.bks.cpg/sg9_19_cif.got.tgz:36649.got - 2010.06.03 20:04:27.
