data_PCOD9138836
_publ_section_title
;
Structure prediction by ZEFSAII (Michael W. Deem and Ramdas Pophale) SiO2 
 PCOD9138836
Probable space group: C C
;
_chemical_formula_sum "Si O2"
_cell_formula_units_Z 24
_cell_length_a 7.642778
_cell_length_b 9.734057
_cell_length_c 17.530451
_cell_angle_alpha 90.000000
_cell_angle_beta 131.472433
_cell_angle_gamma 90.000000
_cell_volume 977.190281
_symmetry_space_group_name_H-M "C C"
_symmetry_group_IT_number 9
_symmetry_cell_setting 'monoclinic'
loop_
_space_group_symop_operation_xyz
x,y,z
x,-y,1/2+z
1/2+x,1/2+y,z
1/2+x,1/2-y,1/2+z
loop_
_atom_site_type_symbol
_atom_site_label
_atom_site_fract_x
_atom_site_fract_y
_atom_site_fract_z
Si Si1 0.660570 0.575059 0.730800
Si Si2 0.969404 0.178614 0.113864
Si Si3 0.874813 0.181043 0.359331
Si Si4 0.765316 0.078680 0.746993
Si Si5 0.983648 0.265000 0.547386
Si Si6 0.555005 0.581621 0.969712
O O1 0.665927 0.415370 0.712510
O O2 0.875781 0.671326 0.818854
O O3 0.469701 0.584614 0.743032
O O4 0.564976 0.645059 0.626431
O O5 0.055104 0.333284 0.153067
O O6 0.713353 0.165360 0.077619
O O7 0.959720 0.123115 0.025038
O O8 0.816329 0.213524 0.430004
O O9 0.721809 0.079396 0.262016
O O10 0.079886 0.073358 0.440389
O O11 0.869441 0.141315 0.855325
O O12 0.813381 0.362180 0.543502
#
# Coordination Sequence:
#
# PCOD9138836 Si02
#       6
#     4   4   4   4   4   4
#     4  12  23  47  73 110 147 189 246 308 364 442
#     4  12  27  46  80 110 143 200 248 301 377 433
#     4  10  23  48  73 106 150 194 241 304 370 433
#     4  10  24  47  71 109 150 194 246 305 364 444
#     4  12  25  46  76 109 147 193 249 310 361 437
#     4  10  24  52  71 108 147 194 248 302 360 443
#
# _framework density 24.560212
#
# number of rings (size 3 to 8) (size 9 to 14) (size 15 to 20)
#    1.000    0.000    5.000    1.000    0.000    6.667 
#    6.000    0.000    0.000    0.000    0.000    0.000 
#    0.000    0.000    0.000    0.000    0.000    0.000 
#
# Total GULP energy -66834.397622 kJ/mol
# GULP energy per Si atom -5569.533135 kJ/mol
# Density = 2.450431 g / cm^3
# Si number density = 24.560212 Si / 1000 Ang^3
#
#
#
# Elastic Constant Matrix: (Units=GPa)
#
#
# Indices 1 2 3 4 5 6 
#
# 1 105.2582 16.2598 34.2861 0.0000 -15.0389 0.0000
# 2 16.2598 95.9459 35.3234 0.0000 4.0285 0.0000
# 3 34.2861 35.3234 139.2124 0.0000 -27.4605 0.0000
# 4 0.0000 0.0000 0.0000 35.2247 0.0000 -6.8498
# 5 -15.0389 4.0285 -27.4605 0.0000 36.6533 0.0000
# 6 0.0000 0.0000 0.0000 -6.8498 0.0000 -10.1188
#
#
#
# Elastic Compliance Matrix: (Units=1/GPa)
#
#
# Indices 1 2 3 4 5 6 
#
# 1 0.010718 -0.001351 -0.001643 0.000000 0.003315 0.000000
# 2 -0.001351 0.012202 -0.003681 0.000000 -0.004653 0.000000
# 3 -0.001643 -0.003681 0.009937 0.000000 0.007176 0.000000
# 4 0.000000 0.000000 0.000000 0.025087 0.000000 -0.016982
# 5 0.003315 -0.004653 0.007176 0.000000 0.034530 0.000000
# 6 0.000000 0.000000 0.000000 -0.016982 0.000000 -0.087330
#
#
# Mechanical properties :
#
#
# Convention : Reuss Voigt Hill
#
# Bulk Modulus (GPa) = 51.26271 56.90612 54.08442
# Shear Modulus (GPa) = 200.02531 29.32165 114.67348
#
# Velocity S-wave (km/s) = 9.03436 3.45899 6.84048
# Velocity P-wave (km/s) = 11.39051 6.25885 9.19013
#
# Compressibility (1/GPa) = 0.01950736
#
# Stress axis : x y z
#
# Youngs Moduli (GPa) = 93.30166 81.95271 100.62922
#
# Poissons Ratio (x) = 0.11069 0.16534
# Poissons Ratio (y) = 0.12602 0.37046
# Poissons Ratio (z) = 0.15330 0.30170
#
# Static dielectric constant tensor:
#      x y z
#    x 1.920150 0.000000 0.016200 
#    y 0.000000 2.079890 0.000000 
#    z 0.016200 0.000000 1.985540 
# 
# From -- ./inp_files/28963.got.cif
#   From: 2010.05.17/outbox.cif.g08.bks.cpg/sg9_15_cif.got.tgz:28963.got - 2010.06.03 20:04:27.
