data_PCOD9138176
_publ_section_title
;
Structure prediction by ZEFSAII (Michael W. Deem and Ramdas Pophale) SiO2 
 PCOD9138176
Probable space group: C C
;
_chemical_formula_sum "Si O2"
_cell_formula_units_Z 32
_cell_length_a 14.397370
_cell_length_b 11.026224
_cell_length_c 9.371656
_cell_angle_alpha 90.000000
_cell_angle_beta 112.427232
_cell_angle_gamma 90.000000
_cell_volume 1375.212211
_symmetry_space_group_name_H-M "C C"
_symmetry_group_IT_number 9
_symmetry_cell_setting 'monoclinic'
loop_
_space_group_symop_operation_xyz
x,y,z
x,-y,1/2+z
1/2+x,1/2+y,z
1/2+x,1/2-y,1/2+z
loop_
_atom_site_type_symbol
_atom_site_label
_atom_site_fract_x
_atom_site_fract_y
_atom_site_fract_z
Si Si1 0.621420 0.007404 0.731300
Si Si2 0.560255 0.325414 0.034603
Si Si3 0.149574 0.971223 0.768886
Si Si4 0.219386 0.353683 0.530085
Si Si5 0.034092 0.657165 0.432878
Si Si6 0.707507 0.354786 0.539506
Si Si7 0.931693 0.068720 0.219602
Si Si8 0.401475 0.282917 0.160870
O O1 0.548559 0.092304 0.593433
O O2 0.678634 0.927246 0.645813
O O3 0.564251 0.938542 0.826015
O O4 0.704627 0.080604 0.870147
O O5 0.476931 0.404305 0.902342
O O6 0.631890 0.402502 0.177067
O O7 0.637071 0.253977 0.978576
O O8 0.490101 0.250493 0.101059
O O9 0.218596 0.889264 0.711939
O O10 0.036763 0.916324 0.697395
O O11 0.189347 0.020637 0.942274
O O12 0.338719 0.344743 0.627207
O O13 0.112082 0.768186 0.469550
O O14 0.930383 0.718010 0.325735
O O15 0.800320 0.274964 0.543561
O O16 0.898726 0.928268 0.180488
#
# Coordination Sequence:
#
# PCOD9138176 Si02
#       8
#     4   4   4   4   4   4   4   4
#     4  10  23  40  67  99 147 176 232 301 349 415
#     4  11  23  44  70 103 144 185 237 299 358 428
#     4  11  24  46  69 101 149 186 235 300 356 434
#     4  11  24  43  70 107 136 187 238 297 353 428
#     4  11  22  45  66  99 144 186 237 298 359 424
#     4  12  25  46  73 102 148 188 245 302 363 429
#     4  11  25  45  75 103 141 187 247 281 369 437
#     4  11  24  45  76 100 137 203 233 292 369 435
#
# _framework density 23.269137000000001
#
# number of rings (size 3 to 8) (size 9 to 14) (size 15 to 20)
#    0.000    1.000    5.000    1.500    8.750    1.000 
#    2.250    0.000    0.000    0.000    0.000    0.000 
#    0.000    0.000    0.000    0.000    0.000    0.000 
#
# Total GULP energy -89296.889573 kJ/mol
# GULP energy per Si atom -5581.055598 kJ/mol
# Density = 2.321618 g / cm^3
# Si number density = 23.269137 Si / 1000 Ang^3
#
#
#
# Elastic Constant Matrix: (Units=GPa)
#
#
# Indices 1 2 3 4 5 6 
#
# 1 86.2917 41.9702 28.7352 0.0000 16.3248 0.0000
# 2 41.9702 48.5216 27.5195 0.0000 1.1194 0.0000
# 3 28.7352 27.5195 105.7531 0.0000 -7.5688 0.0000
# 4 0.0000 0.0000 0.0000 41.8326 0.0000 -0.3517
# 5 16.3248 1.1194 -7.5688 0.0000 37.0595 0.0000
# 6 0.0000 0.0000 0.0000 -0.3517 0.0000 23.0539
#
#
#
# Elastic Compliance Matrix: (Units=1/GPa)
#
#
# Indices 1 2 3 4 5 6 
#
# 1 0.023346 -0.018710 -0.002203 0.000000 -0.010169 0.000000
# 2 -0.018710 0.039326 -0.004714 0.000000 0.006091 0.000000
# 3 -0.002203 -0.004714 0.011529 0.000000 0.003467 0.000000
# 4 0.000000 0.000000 0.000000 0.023908 0.000000 0.000365
# 5 -0.010169 0.006091 0.003467 0.000000 0.031987 0.000000
# 6 0.000000 0.000000 0.000000 0.000365 0.000000 0.043382
#
#
# Mechanical properties :
#
#
# Convention : Reuss Voigt Hill
#
# Bulk Modulus (GPa) = 43.57547 48.55735 46.06641
# Shear Modulus (GPa) = 21.51647 29.87863 25.69755
#
# Velocity S-wave (km/s) = 3.04415 3.58725 3.32680
# Velocity P-wave (km/s) = 5.57882 6.17015 5.88192
#
# Compressibility (1/GPa) = 0.02294869
#
# Stress axis : x y z
#
# Youngs Moduli (GPa) = 42.83424 25.42847 86.73591
#
# Poissons Ratio (x) = 0.47576 0.19104
# Poissons Ratio (y) = 0.80142 0.40885
# Poissons Ratio (z) = 0.09434 0.11986
#
# Static dielectric constant tensor:
#      x y z
#    x 1.862030 0.000000 -0.052330 
#    y 0.000000 1.946800 0.000000 
#    z -0.052330 0.000000 1.879330 
# 
# From -- ./inp_files/9121.got.cif
#   From: 2010.05.17/outbox.cif.g08.bks.cpg/sg9_5_cif.got.tgz:9121.got - 2010.06.03 20:04:27.
