data_PCOD9138784
_publ_section_title
;
Structure prediction by ZEFSAII (Michael W. Deem and Ramdas Pophale) SiO2 
 PCOD9138784
Probable space group: C C
;
_chemical_formula_sum "Si O2"
_cell_formula_units_Z 28
_cell_length_a 7.123735
_cell_length_b 16.781976
_cell_length_c 12.728968
_cell_angle_alpha 90.000000
_cell_angle_beta 133.216163
_cell_angle_gamma 90.000000
_cell_volume 1109.015979
_symmetry_space_group_name_H-M "C C"
_symmetry_group_IT_number 9
_symmetry_cell_setting 'monoclinic'
loop_
_space_group_symop_operation_xyz
x,y,z
x,-y,1/2+z
1/2+x,1/2+y,z
1/2+x,1/2-y,1/2+z
loop_
_atom_site_type_symbol
_atom_site_label
_atom_site_fract_x
_atom_site_fract_y
_atom_site_fract_z
Si Si1 0.414120 0.737684 0.922440
Si Si2 0.959028 0.770129 0.892072
Si Si3 0.061421 0.618212 0.048881
Si Si4 0.422845 0.679597 0.687352
Si Si5 0.981238 0.060176 0.366635
Si Si6 0.247450 0.019011 0.797910
Si Si7 0.614974 0.419905 0.545966
O O1 0.148115 0.771573 0.864395
O O2 0.372915 0.701084 0.791049
O O3 0.662011 0.796259 0.025675
O O4 0.484928 0.662808 0.024646
O O5 0.971722 0.861431 0.933906
O O6 0.673094 0.736165 0.761712
O O7 0.072583 0.709103 0.019270
O O8 0.291587 0.579716 0.199185
O O9 0.827315 0.607282 0.041723
O O10 0.998530 0.570962 0.918014
O O11 0.522634 0.588047 0.713358
O O12 0.232895 0.037649 0.395558
O O13 0.931823 0.982741 0.416826
O O14 0.236657 0.966906 0.689866
#
# Coordination Sequence:
#
# PCOD9138784 Si02
#       7
#     4   4   4   4   4   4   4
#     4  12  26  49  75 108 148 198 247 302 373 443
#     4  11  26  43  75 103 149 193 245 301 369 434
#     4  10  23  47  67 106 147 187 248 303 358 452
#     4  11  27  50  72 108 152 192 251 306 363 455
#     4  11  24  44  71 103 143 189 244 301 370 431
#     4  10  24  47  68 106 147 187 245 306 371 437
#     4  11  24  46  72 104 146 192 240 307 372 434
#
# _framework density 25.247608
#
# number of rings (size 3 to 8) (size 9 to 14) (size 15 to 20)
#    0.000    1.143    4.286    1.714    6.000    6.857 
#    0.000    0.000    0.000    0.000    0.000    0.000 
#    0.000    0.000    0.000    0.000    0.000    0.000 
#
# Total GULP energy -78280.100278 kJ/mol
# GULP energy per Si atom -5591.435734 kJ/mol
# Density = 2.519014 g / cm^3
# Si number density = 25.247608 Si / 1000 Ang^3
#
#
#
# Elastic Constant Matrix: (Units=GPa)
#
#
# Indices 1 2 3 4 5 6 
#
# 1 112.3723 32.8647 3.3949 0.0000 0.8233 0.0000
# 2 32.8647 151.9330 14.2433 0.0000 -1.9730 0.0000
# 3 3.3949 14.2433 65.3748 0.0000 -18.0330 0.0000
# 4 0.0000 0.0000 0.0000 42.1515 0.0000 -12.3681
# 5 0.8233 -1.9730 -18.0330 0.0000 38.8488 0.0000
# 6 0.0000 0.0000 0.0000 -12.3681 0.0000 26.9826
#
#
#
# Elastic Compliance Matrix: (Units=1/GPa)
#
#
# Indices 1 2 3 4 5 6 
#
# 1 0.009505 -0.002047 -0.000151 0.000000 -0.000376 0.000000
# 2 -0.002047 0.007165 -0.001540 0.000000 -0.000307 0.000000
# 3 -0.000151 -0.001540 0.017913 0.000000 0.008240 0.000000
# 4 0.000000 0.000000 0.000000 0.027411 0.000000 0.012564
# 5 -0.000376 -0.000307 0.008240 0.000000 0.029558 0.000000
# 6 0.000000 0.000000 0.000000 0.012564 0.000000 0.042820
#
#
# Mechanical properties :
#
#
# Convention : Reuss Voigt Hill
#
# Bulk Modulus (GPa) = 36.89039 47.85398 42.37219
# Shear Modulus (GPa) = 33.13852 40.20839 36.67346
#
# Velocity S-wave (km/s) = 3.62683 3.99502 3.81537
# Velocity P-wave (km/s) = 5.67289 6.34628 6.01901
#
# Compressibility (1/GPa) = 0.02710733
#
# Stress axis : x y z
#
# Youngs Moduli (GPa) = 105.20890 139.56920 55.82683
#
# Poissons Ratio (x) = 0.28566 0.00845
# Poissons Ratio (y) = 0.21533 0.08595
# Poissons Ratio (z) = 0.01592 0.21487
#
# Static dielectric constant tensor:
#      x y z
#    x 2.082690 0.000000 0.009850 
#    y 0.000000 2.082120 0.000000 
#    z 0.009850 0.000000 1.986230 
# 
# From -- ./inp_files/23481.got.cif
#   From: 2010.05.17/outbox.cif.g08.bks.cpg/sg9_12_cif.got.tgz:23481.got - 2010.06.03 20:04:27.
