data_PCOD9138359
_publ_section_title
;
Structure prediction by ZEFSAII (Michael W. Deem and Ramdas Pophale) SiO2 
 PCOD9138359
Probable space group: C C
;
_chemical_formula_sum "Si O2"
_cell_formula_units_Z 32
_cell_length_a 14.320493
_cell_length_b 8.091610
_cell_length_c 11.193551
_cell_angle_alpha 90.000000
_cell_angle_beta 88.900124
_cell_angle_gamma 90.000000
_cell_volume 1296.823195
_symmetry_space_group_name_H-M "C C"
_symmetry_group_IT_number 9
_symmetry_cell_setting 'monoclinic'
loop_
_space_group_symop_operation_xyz
x,y,z
x,-y,1/2+z
1/2+x,1/2+y,z
1/2+x,1/2-y,1/2+z
loop_
_atom_site_type_symbol
_atom_site_label
_atom_site_fract_x
_atom_site_fract_y
_atom_site_fract_z
Si Si1 0.680670 0.256536 0.131070
Si Si2 0.270396 0.079587 0.435646
Si Si3 0.332474 0.747783 0.329229
Si Si4 0.165718 0.780935 0.714639
Si Si5 0.962438 0.368673 0.992327
Si Si6 0.294437 0.562999 0.554781
Si Si7 0.533845 0.963423 0.727869
Si Si8 0.479994 0.406393 0.654203
O O1 0.750111 0.280127 0.238763
O O2 0.581722 0.206520 0.185062
O O3 0.721847 0.088127 0.070008
O O4 0.689490 0.401398 0.034739
O O5 0.233025 0.157087 0.316519
O O6 0.354982 0.183192 0.488753
O O7 0.323640 0.908289 0.411920
O O8 0.314828 0.594575 0.415924
O O9 0.425228 0.711370 0.251858
O O10 0.236367 0.719209 0.609140
O O11 0.109249 0.610861 0.744568
O O12 0.083577 0.919953 0.707357
O O13 0.008974 0.198403 0.034940
O O14 0.977713 0.487195 0.107428
O O15 0.992659 0.429616 0.860824
O O16 0.394823 0.530320 0.619304
#
# Coordination Sequence:
#
# PCOD9138359 Si02
#       8
#     4   4   4   4   4   4   4   4
#     4  10  24  42  69 105 139 192 261 302 379 466
#     4  12  24  43  68 101 150 188 241 307 385 450
#     4  11  25  43  70 102 151 193 241 313 382 461
#     4  10  24  43  74 109 147 193 254 319 374 469
#     4  11  22  41  72 103 143 188 247 312 368 463
#     4  10  23  44  77  98 148 201 246 313 393 441
#     4  10  23  42  75 105 142 196 255 304 387 455
#     4  10  23  48  69 113 144 191 261 310 370 475
#
# _framework density 24.675685999999999
#
# number of rings (size 3 to 8) (size 9 to 14) (size 15 to 20)
#    0.000    1.500    2.500    2.250   12.250    0.000 
#    2.250    2.500    0.000    0.000    0.000    0.000 
#    0.000    0.000    0.000    0.000    0.000    0.000 
#
# Total GULP energy -89232.584026 kJ/mol
# GULP energy per Si atom -5577.036502 kJ/mol
# Density = 2.461952 g / cm^3
# Si number density = 24.675686 Si / 1000 Ang^3
#
#
#
# Elastic Constant Matrix: (Units=GPa)
#
#
# Indices 1 2 3 4 5 6 
#
# 1 79.0848 23.6973 51.0218 0.0000 -10.7559 0.0000
# 2 23.6973 66.3159 29.1557 0.0000 -17.1765 0.0000
# 3 51.0218 29.1557 148.3929 0.0000 -31.6280 0.0000
# 4 0.0000 0.0000 0.0000 33.0288 0.0000 -18.3623
# 5 -10.7559 -17.1765 -31.6280 0.0000 45.4544 0.0000
# 6 0.0000 0.0000 0.0000 -18.3623 0.0000 17.2784
#
#
#
# Elastic Compliance Matrix: (Units=1/GPa)
#
#
# Indices 1 2 3 4 5 6 
#
# 1 0.017160 -0.004092 -0.005354 0.000000 -0.001211 0.000000
# 2 -0.004092 0.018372 -0.001091 0.000000 0.005215 0.000000
# 3 -0.005354 -0.001091 0.009905 0.000000 0.005213 0.000000
# 4 0.000000 0.000000 0.000000 0.073994 0.000000 0.078636
# 5 -0.001211 0.005215 0.005213 0.000000 0.027311 0.000000
# 6 0.000000 0.000000 0.000000 0.078636 0.000000 0.141444
#
#
# Mechanical properties :
#
#
# Convention : Reuss Voigt Hill
#
# Bulk Modulus (GPa) = 41.04635 55.72703 48.38669
# Shear Modulus (GPa) = 15.75381 31.81359 23.78370
#
# Velocity S-wave (km/s) = 2.52947 3.59453 3.10796
# Velocity P-wave (km/s) = 5.02010 6.31351 5.70358
#
# Compressibility (1/GPa) = 0.02436270
#
# Stress axis : x y z
#
# Youngs Moduli (GPa) = 58.27354 54.43069 100.95526
#
# Poissons Ratio (x) = 0.22272 0.54056
# Poissons Ratio (y) = 0.23844 0.11017
# Poissons Ratio (z) = 0.31203 0.05940
#
# Static dielectric constant tensor:
#      x y z
#    x 2.002440 0.000000 -0.030470 
#    y 0.000000 2.124440 0.000000 
#    z -0.030470 0.000000 1.933240 
# 
# From -- ./inp_files/17941.got.cif
#   From: 2010.05.17/outbox.cif.g08.bks.cpg/sg9_9_cif.got.tgz:17941.got - 2010.06.03 20:04:27.
