data_PCOD9138397
_publ_section_title
;
Structure prediction by ZEFSAII (Michael W. Deem and Ramdas Pophale) SiO2 
 PCOD9138397
Probable space group: C C
;
_chemical_formula_sum "Si O2"
_cell_formula_units_Z 28
_cell_length_a 10.461083
_cell_length_b 10.622156
_cell_length_c 10.438268
_cell_angle_alpha 90.000000
_cell_angle_beta 93.864399
_cell_angle_gamma 90.000000
_cell_volume 1157.255377
_symmetry_space_group_name_H-M "C C"
_symmetry_group_IT_number 9
_symmetry_cell_setting 'monoclinic'
loop_
_space_group_symop_operation_xyz
x,y,z
x,-y,1/2+z
1/2+x,1/2+y,z
1/2+x,1/2-y,1/2+z
loop_
_atom_site_type_symbol
_atom_site_label
_atom_site_fract_x
_atom_site_fract_y
_atom_site_fract_z
Si Si1 0.780270 0.756349 0.784290
Si Si2 0.881435 0.944889 0.990350
Si Si3 0.370418 0.726447 0.734904
Si Si4 0.084673 0.135527 0.948167
Si Si5 0.668707 0.152028 0.890807
Si Si6 0.553715 0.889578 0.620566
Si Si7 0.003385 0.652797 0.637163
O O1 0.869756 0.847431 0.873474
O O2 0.716998 0.656551 0.880003
O O3 0.669661 0.849517 0.722073
O O4 0.863249 0.696107 0.674802
O O5 0.771646 0.051010 0.953724
O O6 0.847401 0.876266 0.121778
O O7 0.022074 0.008283 0.999860
O O8 0.482649 0.672325 0.831139
O O9 0.253893 0.751640 0.821026
O O10 0.421812 0.851509 0.675597
O O11 0.070243 0.236119 0.062334
O O12 0.574394 0.108395 0.772318
O O13 0.586073 0.198502 0.002440
O O14 0.527032 0.026296 0.558816
#
# Coordination Sequence:
#
# PCOD9138397 Si02
#       7
#     4   4   4   4   4   4   4
#     4  11  23  46  71 104 147 184 234 297 363 424
#     4  11  22  44  74 101 139 192 240 290 361 427
#     4  10  23  43  67 103 139 187 237 291 363 423
#     4  10  25  41  70 105 138 183 242 294 353 431
#     4  11  22  40  72  98 134 192 232 291 354 419
#     4  11  24  45  66 106 145 181 239 298 355 431
#     4  12  25  43  72 105 140 191 240 293 363 429
#
# _framework density 24.195179
#
# number of rings (size 3 to 8) (size 9 to 14) (size 15 to 20)
#    0.000    1.143    1.429    5.143    8.000    0.000 
#    5.143    4.286    0.000    0.000    0.000    0.000 
#    0.000    0.000    0.000    0.000    0.000    0.000 
#
# Total GULP energy -78154.107346 kJ/mol
# GULP energy per Si atom -5582.436239 kJ/mol
# Density = 2.414011 g / cm^3
# Si number density = 24.195179 Si / 1000 Ang^3
#
#
#
# Elastic Constant Matrix: (Units=GPa)
#
#
# Indices 1 2 3 4 5 6 
#
# 1 78.4958 37.0628 8.3531 0.0000 -30.3479 0.0000
# 2 37.0628 69.6759 14.5036 0.0000 -2.4964 0.0000
# 3 8.3531 14.5036 96.6079 0.0000 -6.8367 0.0000
# 4 0.0000 0.0000 0.0000 21.8005 0.0000 6.3293
# 5 -30.3479 -2.4964 -6.8367 0.0000 52.9995 0.0000
# 6 0.0000 0.0000 0.0000 6.3293 0.0000 24.5972
#
#
#
# Elastic Compliance Matrix: (Units=1/GPa)
#
#
# Indices 1 2 3 4 5 6 
#
# 1 0.023376 -0.012120 0.000712 0.000000 0.012906 0.000000
# 2 -0.012120 0.021108 -0.002565 0.000000 -0.006277 0.000000
# 3 0.000712 -0.002565 0.010794 0.000000 0.001679 0.000000
# 4 0.000000 0.000000 0.000000 0.049574 0.000000 -0.012756
# 5 0.012906 -0.006277 0.001679 0.000000 0.026179 0.000000
# 6 0.000000 0.000000 0.000000 -0.012756 0.000000 0.043937
#
#
# Mechanical properties :
#
#
# Convention : Reuss Voigt Hill
#
# Bulk Modulus (GPa) = 36.58883 40.51317 38.55100
# Shear Modulus (GPa) = 23.58188 32.20346 27.89267
#
# Velocity S-wave (km/s) = 3.12533 3.65223 3.39900
# Velocity P-wave (km/s) = 5.30837 5.87926 5.60109
#
# Compressibility (1/GPa) = 0.02733075
#
# Stress axis : x y z
#
# Youngs Moduli (GPa) = 42.77801 47.37432 92.64822
#
# Poissons Ratio (x) = 0.57420 -0.06594
# Poissons Ratio (y) = 0.51849 0.23766
# Poissons Ratio (z) = -0.03045 0.12153
#
# Static dielectric constant tensor:
#      x y z
#    x 2.018480 0.000000 0.009420 
#    y 0.000000 2.002230 0.000000 
#    z 0.009420 0.000000 1.964420 
# 
# From -- ./inp_files/15958.got.cif
#   From: 2010.05.17/outbox.cif.g08.bks.cpg/sg9_8_cif.got.tgz:15958.got - 2010.06.03 20:04:27.
