data_PCOD9138394
_publ_section_title
;
Structure prediction by ZEFSAII (Michael W. Deem and Ramdas Pophale) SiO2 
 PCOD9138394
Probable space group: C C
;
_chemical_formula_sum "Si O2"
_cell_formula_units_Z 28
_cell_length_a 4.977411
_cell_length_b 14.113036
_cell_length_c 15.023793
_cell_angle_alpha 90.000000
_cell_angle_beta 111.038581
_cell_angle_gamma 90.000000
_cell_volume 985.015153
_symmetry_space_group_name_H-M "C C"
_symmetry_group_IT_number 9
_symmetry_cell_setting 'monoclinic'
loop_
_space_group_symop_operation_xyz
x,y,z
x,-y,1/2+z
1/2+x,1/2+y,z
1/2+x,1/2-y,1/2+z
loop_
_atom_site_type_symbol
_atom_site_label
_atom_site_fract_x
_atom_site_fract_y
_atom_site_fract_z
Si Si1 0.225030 0.001289 0.662740
Si Si2 0.844938 0.884958 0.898155
Si Si3 0.248511 0.372813 0.156947
Si Si4 0.640753 0.803868 0.397083
Si Si5 0.834596 0.498667 0.884122
Si Si6 0.712914 0.232612 0.223051
Si Si7 0.709143 0.308436 0.554235
O O1 0.517845 0.054788 0.668980
O O2 0.226475 0.990783 0.769672
O O3 0.953434 0.069300 0.613351
O O4 0.170531 0.903724 0.606493
O O5 0.718455 0.861135 0.784000
O O6 0.004066 0.785784 0.933827
O O7 0.571462 0.916269 0.920779
O O8 0.072749 0.969741 0.915998
O O9 0.503322 0.314335 0.237937
O O10 0.095701 0.285056 0.091690
O O11 0.493547 0.901054 0.413033
O O12 0.522822 0.778228 0.283123
O O13 0.982342 0.812850 0.446721
O O14 0.556103 0.206605 0.112283
#
# Coordination Sequence:
#
# PCOD9138394 Si02
#       7
#     4   4   4   4   4   4   4
#     4  12  22  41  71  96 129 176 221 270 337 395
#     4  10  24  41  67  95 134 173 218 273 332 394
#     4  10  24  41  67  95 134 173 218 273 332 394
#     4  10  23  43  67 100 134 175 228 275 332 401
#     4  12  22  41  71  96 129 176 221 270 337 395
#     4   8  20  44  66  94 134 180 216 278 340 382
#     4  10  23  43  67 100 134 175 228 275 332 401
#
# _framework density 28.425958000000001
#
# number of rings (size 3 to 8) (size 9 to 14) (size 15 to 20)
#    1.714    0.000    2.857    0.857    0.000    9.143 
#    0.000    2.857    0.000    0.000    0.000    0.000 
#    0.000    0.000    0.000    0.000    0.000    0.000 
#
# Total GULP energy -78234.021005 kJ/mol
# GULP energy per Si atom -5588.144357 kJ/mol
# Density = 2.836126 g / cm^3
# Si number density = 28.425958 Si / 1000 Ang^3
#
#
#
# Elastic Constant Matrix: (Units=GPa)
#
#
# Indices 1 2 3 4 5 6 
#
# 1 115.6124 45.4038 32.1661 0.0000 37.5911 0.0000
# 2 45.4038 200.3124 36.7248 0.0000 6.4700 0.0000
# 3 32.1661 36.7248 206.7827 0.0000 39.5378 0.0000
# 4 0.0000 0.0000 0.0000 28.7359 0.0000 3.6482
# 5 37.5911 6.4700 39.5378 0.0000 35.1332 0.0000
# 6 0.0000 0.0000 0.0000 3.6482 0.0000 28.2408
#
#
#
# Elastic Compliance Matrix: (Units=1/GPa)
#
#
# Indices 1 2 3 4 5 6 
#
# 1 0.015067 -0.003135 0.001510 0.000000 -0.017244 0.000000
# 2 -0.003135 0.005813 -0.001250 0.000000 0.003691 0.000000
# 3 0.001510 -0.001250 0.006483 0.000000 -0.008681 0.000000
# 4 0.000000 0.000000 0.000000 0.035380 0.000000 -0.004570
# 5 -0.017244 0.003691 -0.008681 0.000000 0.056003 0.000000
# 6 0.000000 0.000000 0.000000 -0.004570 0.000000 0.036000
#
#
# Mechanical properties :
#
#
# Convention : Reuss Voigt Hill
#
# Bulk Modulus (GPa) = 46.27016 83.47742 64.87379
# Shear Modulus (GPa) = 29.81489 45.64950 37.73220
#
# Velocity S-wave (km/s) = 3.24213 4.01173 3.64728
# Velocity P-wave (km/s) = 5.50708 7.13365 6.37248
#
# Compressibility (1/GPa) = 0.02161220
#
# Stress axis : x y z
#
# Youngs Moduli (GPa) = 66.36846 172.03233 154.24759
#
# Poissons Ratio (x) = 0.53935 -0.23292
# Poissons Ratio (y) = 0.20807 0.19288
# Poissons Ratio (z) = -0.10022 0.21512
#
# Static dielectric constant tensor:
#      x y z
#    x 2.173210 0.000000 -0.061530 
#    y 0.000000 2.172110 0.000000 
#    z -0.061530 0.000000 2.287650 
# 
# From -- ./inp_files/34837.got.cif
#   From: 2010.05.17/outbox.cif.g08.bks.cpg/sg9_18_cif.got.tgz:34837.got - 2010.06.03 20:04:27.
