data_PCOD9138750
_publ_section_title
;
Structure prediction by ZEFSAII (Michael W. Deem and Ramdas Pophale) SiO2 
 PCOD9138750
Probable space group: C C
;
_chemical_formula_sum "Si O2"
_cell_formula_units_Z 24
_cell_length_a 6.692717
_cell_length_b 17.435231
_cell_length_c 9.633866
_cell_angle_alpha 90.000000
_cell_angle_beta 52.438976
_cell_angle_gamma 90.000000
_cell_volume 891.132127
_symmetry_space_group_name_H-M "C C"
_symmetry_group_IT_number 9
_symmetry_cell_setting 'monoclinic'
loop_
_space_group_symop_operation_xyz
x,y,z
x,-y,1/2+z
1/2+x,1/2+y,z
1/2+x,1/2-y,1/2+z
loop_
_atom_site_type_symbol
_atom_site_label
_atom_site_fract_x
_atom_site_fract_y
_atom_site_fract_z
Si Si1 0.623060 0.562630 0.037730
Si Si2 0.483434 0.179572 0.801331
Si Si3 0.791219 0.960409 0.309827
Si Si4 0.178232 0.836967 0.185263
Si Si5 0.405345 0.957308 0.694971
Si Si6 0.811675 0.298280 0.825886
O O1 0.684216 0.557327 0.175678
O O2 0.702723 0.648887 0.964827
O O3 0.794283 0.503960 0.872456
O O4 0.115724 0.506564 0.005081
O O5 0.651686 0.111245 0.793947
O O6 0.604705 0.256247 0.814755
O O7 0.441737 0.173982 0.653862
O O8 0.029947 0.915747 0.276979
O O9 0.850717 0.023423 0.166684
O O10 0.000750 0.766377 0.297624
O O11 0.190186 0.833397 0.014130
O O12 0.470588 0.868028 0.695600
#
# Coordination Sequence:
#
# PCOD9138750 Si02
#       6
#     4   4   4   4   4   4
#     4  11  23  45  75 106 150 197 252 312 382 454
#     4  10  25  44  75 108 149 201 254 310 392 453
#     4  10  23  46  72 108 153 195 253 320 375 453
#     4  11  22  42  71 102 153 197 253 309 383 458
#     4  11  25  46  76 107 152 200 252 320 386 447
#     4  11  24  47  71 109 155 198 254 327 372 463
#
# _framework density 26.932034000000002
#
# number of rings (size 3 to 8) (size 9 to 14) (size 15 to 20)
#    0.000    1.333    1.667    4.000    0.000   10.667 
#    0.000    6.667    0.000    0.000    0.000    0.000 
#    0.000    0.000    0.000    0.000    0.000    0.000 
#
# Total GULP energy -67010.695441 kJ/mol
# GULP energy per Si atom -5584.224620 kJ/mol
# Density = 2.687074 g / cm^3
# Si number density = 26.932034 Si / 1000 Ang^3
#
#
#
# Elastic Constant Matrix: (Units=GPa)
#
#
# Indices 1 2 3 4 5 6 
#
# 1 98.3396 28.0528 19.0252 0.0000 31.6654 0.0000
# 2 28.0528 143.7638 42.5956 0.0000 0.4983 0.0000
# 3 19.0252 42.5956 97.6863 0.0000 -17.2723 0.0000
# 4 0.0000 0.0000 0.0000 34.1621 0.0000 5.7241
# 5 31.6654 0.4983 -17.2723 0.0000 48.7165 0.0000
# 6 0.0000 0.0000 0.0000 5.7241 0.0000 39.5281
#
#
#
# Elastic Compliance Matrix: (Units=1/GPa)
#
#
# Indices 1 2 3 4 5 6 
#
# 1 0.015090 -0.001658 -0.004211 0.000000 -0.011285 0.000000
# 2 -0.001658 0.008261 -0.003311 0.000000 -0.000181 0.000000
# 3 -0.004211 -0.003311 0.013860 0.000000 0.007685 0.000000
# 4 0.000000 0.000000 0.000000 0.030000 0.000000 -0.004344
# 5 -0.011285 -0.000181 0.007685 0.000000 0.030589 0.000000
# 6 0.000000 0.000000 0.000000 -0.004344 0.000000 0.025928
#
#
# Mechanical properties :
#
#
# Convention : Reuss Voigt Hill
#
# Bulk Modulus (GPa) = 53.04994 57.68187 55.36590
# Shear Modulus (GPa) = 33.69918 41.15574 37.42746
#
# Velocity S-wave (km/s) = 3.54116 3.91338 3.73191
# Velocity P-wave (km/s) = 6.03823 6.47174 6.25874
#
# Compressibility (1/GPa) = 0.01885016
#
# Stress axis : x y z
#
# Youngs Moduli (GPa) = 66.26840 121.04981 72.15095
#
# Poissons Ratio (x) = 0.20066 0.30386
# Poissons Ratio (y) = 0.10985 0.23892
# Poissons Ratio (z) = 0.27908 0.40084
#
# Static dielectric constant tensor:
#      x y z
#    x 2.363570 0.000000 -0.048940 
#    y 0.000000 2.221520 0.000000 
#    z -0.048940 0.000000 2.209160 
# 
# From -- ./inp_files/5537.got.cif
#   From: 2010.05.17/outbox.cif.g08.bks.cpg/sg9_3_cif.got.tgz:5537.got - 2010.06.03 20:04:27.
