data_PCOD9138189
_publ_section_title
;
Structure prediction by ZEFSAII (Michael W. Deem and Ramdas Pophale) SiO2 
 PCOD9138189
Probable space group: C C
;
_chemical_formula_sum "Si O2"
_cell_formula_units_Z 32
_cell_length_a 15.085949
_cell_length_b 12.267330
_cell_length_c 8.110890
_cell_angle_alpha 90.000000
_cell_angle_beta 111.043687
_cell_angle_gamma 90.000000
_cell_volume 1400.927545
_symmetry_space_group_name_H-M "C C"
_symmetry_group_IT_number 9
_symmetry_cell_setting 'monoclinic'
loop_
_space_group_symop_operation_xyz
x,y,z
x,-y,1/2+z
1/2+x,1/2+y,z
1/2+x,1/2-y,1/2+z
loop_
_atom_site_type_symbol
_atom_site_label
_atom_site_fract_x
_atom_site_fract_y
_atom_site_fract_z
Si Si1 0.174630 0.231037 0.138540
Si Si2 0.872942 0.261573 0.608956
Si Si3 0.813159 0.709438 0.707151
Si Si4 0.600460 0.930566 0.274627
Si Si5 0.219729 0.008819 0.797462
Si Si6 0.639967 0.146197 0.148892
Si Si7 0.051351 0.158804 0.789408
Si Si8 0.404024 0.890763 0.966407
O O1 0.260458 0.250140 0.068221
O O2 0.166357 0.334548 0.247824
O O3 0.194613 0.114240 0.232603
O O4 0.075617 0.212660 0.980344
O O5 0.876439 0.287424 0.416195
O O6 0.938750 0.155607 0.688221
O O7 0.903152 0.348221 0.775292
O O8 0.744875 0.602001 0.679700
O O9 0.743824 0.812409 0.668389
O O10 0.868049 0.700982 0.572033
O O11 0.587278 0.901143 0.454920
O O12 0.503741 0.927447 0.106052
O O13 0.643902 0.049890 0.283889
O O14 0.126516 0.059275 0.824528
O O15 0.326071 0.987263 0.937647
O O16 0.584325 0.249465 0.181986
#
# Coordination Sequence:
#
# PCOD9138189 Si02
#       8
#     4   4   4   4   4   4   4   4
#     4  11  22  45  67 100 142 181 234 291 347 425
#     4  11  23  43  74  98 140 189 227 290 355 422
#     4  11  24  45  68 104 137 186 234 290 357 419
#     4  12  26  42  70 104 137 183 242 294 358 420
#     4  10  23  40  73 101 140 180 228 296 352 416
#     4  11  25  42  67  97 143 180 231 299 352 423
#     4  11  22  44  68 103 140 180 229 289 364 417
#     4  11  25  41  71 109 137 179 241 295 347 426
#
# _framework density 22.842009000000001
#
# number of rings (size 3 to 8) (size 9 to 14) (size 15 to 20)
#    0.000    1.000    3.750    3.750    5.250    1.000 
#    0.000    2.500    0.000    0.000    0.000    0.000 
#    0.000    0.000    0.000    0.000    0.000    0.000 
#
# Total GULP energy -89274.408829 kJ/mol
# GULP energy per Si atom -5579.650552 kJ/mol
# Density = 2.279002 g / cm^3
# Si number density = 22.842009 Si / 1000 Ang^3
#
#
#
# Elastic Constant Matrix: (Units=GPa)
#
#
# Indices 1 2 3 4 5 6 
#
# 1 56.7379 47.8195 19.2148 0.0000 11.0598 0.0000
# 2 47.8195 92.3608 21.6241 0.0000 12.1552 0.0000
# 3 19.2148 21.6241 120.3078 0.0000 6.4466 0.0000
# 4 0.0000 0.0000 0.0000 21.0372 0.0000 0.0336
# 5 11.0598 12.1552 6.4466 0.0000 35.0987 0.0000
# 6 0.0000 0.0000 0.0000 0.0336 0.0000 41.9543
#
#
#
# Elastic Compliance Matrix: (Units=1/GPa)
#
#
# Indices 1 2 3 4 5 6 
#
# 1 0.032456 -0.015730 -0.002121 0.000000 -0.004390 0.000000
# 2 -0.015730 0.019389 -0.000887 0.000000 -0.001595 0.000000
# 3 -0.002121 -0.000887 0.008845 0.000000 -0.000649 0.000000
# 4 0.000000 0.000000 0.000000 0.047535 0.000000 -0.000038
# 5 -0.004390 -0.001595 -0.000649 0.000000 0.030546 0.000000
# 6 0.000000 0.000000 0.000000 -0.000038 0.000000 0.023836
#
#
# Mechanical properties :
#
#
# Convention : Reuss Voigt Hill
#
# Bulk Modulus (GPa) = 43.07788 49.63593 46.35690
# Shear Modulus (GPa) = 24.05918 31.66790 27.86354
#
# Velocity S-wave (km/s) = 3.24896 3.72746 3.49641
# Velocity P-wave (km/s) = 5.74233 6.34843 6.05297
#
# Compressibility (1/GPa) = 0.02321377
#
# Stress axis : x y z
#
# Youngs Moduli (GPa) = 30.81066 51.57624 113.05773
#
# Poissons Ratio (x) = 0.81128 0.23982
# Poissons Ratio (y) = 0.48464 0.10030
# Poissons Ratio (z) = 0.06536 0.04576
#
# Static dielectric constant tensor:
#      x y z
#    x 1.905730 0.000000 -0.004480 
#    y 0.000000 1.854840 0.000000 
#    z -0.004480 0.000000 1.924350 
# 
# From -- ./inp_files/9285.got.cif
#   From: 2010.05.17/outbox.cif.g08.bks.cpg/sg9_5_cif.got.tgz:9285.got - 2010.06.03 20:04:27.
