data_PCOD9138663
_publ_section_title
;
Structure prediction by ZEFSAII (Michael W. Deem and Ramdas Pophale) SiO2 
 PCOD9138663
Probable space group: C C
;
_chemical_formula_sum "Si O2"
_cell_formula_units_Z 28
_cell_length_a 7.519261
_cell_length_b 11.903627
_cell_length_c 14.844536
_cell_angle_alpha 90.000000
_cell_angle_beta 71.241548
_cell_angle_gamma 90.000000
_cell_volume 1258.106134
_symmetry_space_group_name_H-M "C C"
_symmetry_group_IT_number 9
_symmetry_cell_setting 'monoclinic'
loop_
_space_group_symop_operation_xyz
x,y,z
x,-y,1/2+z
1/2+x,1/2+y,z
1/2+x,1/2-y,1/2+z
loop_
_atom_site_type_symbol
_atom_site_label
_atom_site_fract_x
_atom_site_fract_y
_atom_site_fract_z
Si Si1 0.072940 0.017531 0.495360
Si Si2 0.301188 0.125820 0.095706
Si Si3 0.233019 0.614931 0.974165
Si Si4 0.886235 0.835948 0.156743
Si Si5 0.251973 0.990190 0.285513
Si Si6 0.030133 0.241889 0.818715
Si Si7 0.159886 0.512015 0.299355
O O1 0.049263 0.123049 0.564257
O O2 0.211961 0.929331 0.521362
O O3 0.143150 0.051731 0.384823
O O4 0.871902 0.957563 0.513940
O O5 0.246355 0.255826 0.123077
O O6 0.242616 0.050586 0.190987
O O7 0.528284 0.130961 0.050328
O O8 0.363146 0.718672 0.917793
O O9 0.191018 0.544040 0.890711
O O10 0.943086 0.760011 0.232801
O O11 0.810348 0.951425 0.211529
O O12 0.159490 0.867960 0.298896
O O13 0.463100 0.981439 0.285563
O O14 0.149150 0.354246 0.812283
#
# Coordination Sequence:
#
# PCOD9138663 Si02
#       7
#     4   4   4   4   4   4   4
#     4  11  25  45  68 106 141 186 241 291 355 431
#     4  12  24  44  74 105 141 190 237 296 357 426
#     4  10  25  45  71 106 142 187 239 295 361 422
#     4  11  25  42  69 107 145 185 238 291 362 432
#     4  11  23  45  70 102 138 188 237 291 357 409
#     4  10  23  45  73 104 143 188 236 298 354 429
#     4  11  23  46  73 106 144 186 238 302 354 427
#
# _framework density 22.255673000000002
#
# number of rings (size 3 to 8) (size 9 to 14) (size 15 to 20)
#    0.000    1.143    4.286    0.857    2.000    3.429 
#    0.000    0.000    0.000    0.000    0.000    0.000 
#    0.000    0.000    0.000    0.000    0.000    0.000 
#
# Total GULP energy -78220.955173 kJ/mol
# GULP energy per Si atom -5587.211084 kJ/mol
# Density = 2.220502 g / cm^3
# Si number density = 22.255673 Si / 1000 Ang^3
#
#
#
# Elastic Constant Matrix: (Units=GPa)
#
#
# Indices 1 2 3 4 5 6 
#
# 1 62.2932 12.6810 8.4719 0.0000 -0.3517 0.0000
# 2 12.6810 108.6693 42.4434 0.0000 -22.4825 0.0000
# 3 8.4719 42.4434 138.5664 0.0000 -12.2150 0.0000
# 4 0.0000 0.0000 0.0000 17.8624 0.0000 -0.6984
# 5 -0.3517 -22.4825 -12.2150 0.0000 27.2071 0.0000
# 6 0.0000 0.0000 0.0000 -0.6984 0.0000 34.7485
#
#
#
# Elastic Compliance Matrix: (Units=1/GPa)
#
#
# Indices 1 2 3 4 5 6 
#
# 1 0.016539 -0.002086 -0.000526 0.000000 -0.001746 0.000000
# 2 -0.002086 0.012424 -0.002890 0.000000 0.008943 0.000000
# 3 -0.000526 -0.002890 0.008249 0.000000 0.001309 0.000000
# 4 0.000000 0.000000 0.000000 0.056028 0.000000 0.001126
# 5 -0.001746 0.008943 0.001309 0.000000 0.044710 0.000000
# 6 0.000000 0.000000 0.000000 0.001126 0.000000 0.028801
#
#
# Mechanical properties :
#
#
# Convention : Reuss Voigt Hill
#
# Bulk Modulus (GPa) = 38.15384 48.52463 43.33923
# Shear Modulus (GPa) = 26.81081 32.35909 29.58495
#
# Velocity S-wave (km/s) = 3.47461 3.81723 3.64994
# Velocity P-wave (km/s) = 5.76869 6.42487 6.10560
#
# Compressibility (1/GPa) = 0.02620968
#
# Stress axis : x y z
#
# Youngs Moduli (GPa) = 60.46155 80.48664 121.21982
#
# Poissons Ratio (x) = 0.16787 0.06379
# Poissons Ratio (y) = 0.12611 0.35030
# Poissons Ratio (z) = 0.03182 0.23259
#
# Static dielectric constant tensor:
#      x y z
#    x 1.822830 0.000000 -0.044000 
#    y 0.000000 1.887870 0.000000 
#    z -0.044000 0.000000 1.877150 
# 
# From -- ./inp_files/22672.got.cif
#   From: 2010.05.17/outbox.cif.g08.bks.cpg/sg9_12_cif.got.tgz:22672.got - 2010.06.03 20:04:27.
