data_PCOD9138745
_publ_section_title
;
Structure prediction by ZEFSAII (Michael W. Deem and Ramdas Pophale) SiO2 
 PCOD9138745
Probable space group: C C
;
_chemical_formula_sum "Si O2"
_cell_formula_units_Z 28
_cell_length_a 5.373044
_cell_length_b 18.982474
_cell_length_c 11.092994
_cell_angle_alpha 90.000000
_cell_angle_beta 111.058334
_cell_angle_gamma 90.000000
_cell_volume 1055.853679
_symmetry_space_group_name_H-M "C C"
_symmetry_group_IT_number 9
_symmetry_cell_setting 'monoclinic'
loop_
_space_group_symop_operation_xyz
x,y,z
x,-y,1/2+z
1/2+x,1/2+y,z
1/2+x,1/2-y,1/2+z
loop_
_atom_site_type_symbol
_atom_site_label
_atom_site_fract_x
_atom_site_fract_y
_atom_site_fract_z
Si Si1 0.560210 0.340704 0.237400
Si Si2 0.273169 0.053844 0.038863
Si Si3 0.556003 0.644810 0.331339
Si Si4 0.181311 0.298235 0.372354
Si Si5 0.403957 0.561811 0.517510
Si Si6 0.541700 0.197111 0.120496
Si Si7 0.879790 0.523024 0.312268
O O1 0.407670 0.337519 0.337535
O O2 0.468689 0.413489 0.161540
O O3 0.443425 0.274482 0.139311
O O4 0.878789 0.325675 0.291248
O O5 0.328661 0.134976 0.073336
O O6 0.430243 0.012223 0.177426
O O7 0.986171 0.017921 0.003391
O O8 0.350467 0.035437 0.913186
O O9 0.716430 0.716239 0.341190
O O10 0.585473 0.614419 0.470263
O O11 0.258262 0.670603 0.253544
O O12 0.628469 0.576231 0.267277
O O13 0.191565 0.300165 0.518207
O O14 0.111400 0.569363 0.414700
#
# Coordination Sequence:
#
# PCOD9138745 Si02
#       7
#     4   4   4   4   4   4   4
#     4  11  27  47  77 114 157 200 252 324 395 455
#     4  11  27  45  70 109 144 201 252 316 380 462
#     4  10  23  46  72 103 146 202 243 309 399 457
#     4  11  26  45  77 119 152 194 259 329 379 457
#     4  11  25  48  73 100 153 201 250 306 400 457
#     4  11  24  49  75 112 151 196 265 318 383 462
#     4  11  26  46  76  97 153 198 261 306 394 464
#
# _framework density 26.518825
#
# number of rings (size 3 to 8) (size 9 to 14) (size 15 to 20)
#    0.000    1.143    2.857    0.857   10.000    3.429 
#    0.000    0.000    0.000    0.000    0.000    0.000 
#    0.000    0.000    0.000    0.000    0.000    0.000 
#
# Total GULP energy -78266.211137 kJ/mol
# GULP energy per Si atom -5590.443653 kJ/mol
# Density = 2.645847 g / cm^3
# Si number density = 26.518825 Si / 1000 Ang^3
#
#
#
# Elastic Constant Matrix: (Units=GPa)
#
#
# Indices 1 2 3 4 5 6 
#
# 1 76.0915 18.1676 19.6958 0.0000 -8.6340 0.0000
# 2 18.1676 121.4589 14.5797 0.0000 -5.9050 0.0000
# 3 19.6958 14.5797 130.9433 0.0000 -24.5409 0.0000
# 4 0.0000 0.0000 0.0000 49.2514 0.0000 -4.0281
# 5 -8.6340 -5.9050 -24.5409 0.0000 39.9842 0.0000
# 6 0.0000 0.0000 0.0000 -4.0281 0.0000 30.3681
#
#
#
# Elastic Compliance Matrix: (Units=1/GPa)
#
#
# Indices 1 2 3 4 5 6 
#
# 1 0.014200 -0.001845 -0.001590 0.000000 0.001818 0.000000
# 2 -0.001845 0.008604 -0.000584 0.000000 0.000514 0.000000
# 3 -0.001590 -0.000584 0.008882 0.000000 0.005022 0.000000
# 4 0.000000 0.000000 0.000000 0.020527 0.000000 0.002723
# 5 0.001818 0.000514 0.005022 0.000000 0.028561 0.000000
# 6 0.000000 0.000000 0.000000 0.002723 0.000000 0.033290
#
#
# Mechanical properties :
#
#
# Convention : Reuss Voigt Hill
#
# Bulk Modulus (GPa) = 42.28477 48.15334 45.21905
# Shear Modulus (GPa) = 38.46582 42.32412 40.39497
#
# Velocity S-wave (km/s) = 3.81269 3.99933 3.90713
# Velocity P-wave (km/s) = 5.94659 6.28680 6.11906
#
# Compressibility (1/GPa) = 0.02364918
#
# Stress axis : x y z
#
# Youngs Moduli (GPa) = 70.42079 116.22105 112.58363
#
# Poissons Ratio (x) = 0.21441 0.17898
# Poissons Ratio (y) = 0.12991 0.06578
# Poissons Ratio (z) = 0.11195 0.06790
#
# Static dielectric constant tensor:
#      x y z
#    x 2.117030 0.000000 -0.064850 
#    y 0.000000 2.118930 0.000000 
#    z -0.064850 0.000000 2.119640 
# 
# From -- ./inp_files/13420.got.cif
#   From: 2010.05.17/outbox.cif.g08.bks.cpg/sg9_7_cif.got.tgz:13420.got - 2010.06.03 20:04:27.
