data_PCOD9138329
_publ_section_title
;
Structure prediction by ZEFSAII (Michael W. Deem and Ramdas Pophale) SiO2 
 PCOD9138329
Probable space group: C C
;
_chemical_formula_sum "Si O2"
_cell_formula_units_Z 28
_cell_length_a 28.248512
_cell_length_b 7.336364
_cell_length_c 8.308115
_cell_angle_alpha 90.000000
_cell_angle_beta 137.230765
_cell_angle_gamma 90.000000
_cell_volume 1169.173406
_symmetry_space_group_name_H-M "C C"
_symmetry_group_IT_number 9
_symmetry_cell_setting 'monoclinic'
loop_
_space_group_symop_operation_xyz
x,y,z
x,-y,1/2+z
1/2+x,1/2+y,z
1/2+x,1/2-y,1/2+z
loop_
_atom_site_type_symbol
_atom_site_label
_atom_site_fract_x
_atom_site_fract_y
_atom_site_fract_z
Si Si1 0.708020 0.157282 0.164220
Si Si2 0.068646 0.222609 0.713883
Si Si3 0.115403 0.419836 0.142602
Si Si4 0.209736 0.062842 0.950541
Si Si5 0.418634 0.408469 0.888537
Si Si6 0.863889 0.776623 0.077305
Si Si7 0.308244 0.131307 0.482523
O O1 0.703837 0.331969 0.267536
O O2 0.789561 0.137125 0.338589
O O3 0.681247 0.991942 0.205328
O O4 0.650163 0.174178 0.882552
O O5 0.076078 0.401116 0.615697
O O6 0.133509 0.089994 0.835623
O O7 0.995720 0.122478 0.513415
O O8 0.075380 0.296603 0.914385
O O9 0.254299 0.890047 0.998500
O O10 0.262285 0.156613 0.208033
O O11 0.393478 0.616368 0.805433
O O12 0.363553 0.286961 0.652201
O O13 0.414421 0.326672 0.056997
O O14 0.849732 0.562724 0.070918
#
# Coordination Sequence:
#
# PCOD9138329 Si02
#       7
#     4   4   4   4   4   4   4
#     4   9  19  37  68 104 133 181 237 308 359 431
#     4  10  24  42  69 108 149 200 243 309 375 459
#     4   9  19  39  69 103 145 183 241 301 378 433
#     4  10  23  42  70 104 136 188 248 303 365 433
#     4  12  28  45  72 105 152 202 245 301 390 444
#     4  11  26  44  70 107 143 188 243 315 362 447
#     4  11  25  47  74 107 146 190 253 313 371 449
#
# _framework density 23.948543999999998
#
# number of rings (size 3 to 8) (size 9 to 14) (size 15 to 20)
#    0.000    1.714    1.429    0.857   14.000    1.143 
#    0.000    1.429    0.000    0.000    0.000    0.000 
#    0.000    0.000    0.000    0.000    0.000    0.000 
#
# Total GULP energy -78266.828331 kJ/mol
# GULP energy per Si atom -5590.487738 kJ/mol
# Density = 2.389404 g / cm^3
# Si number density = 23.948544 Si / 1000 Ang^3
#
#
#
# Elastic Constant Matrix: (Units=GPa)
#
#
# Indices 1 2 3 4 5 6 
#
# 1 97.7759 20.1342 43.6855 0.0000 14.8994 0.0000
# 2 20.1342 95.4089 33.1211 0.0000 8.4811 0.0000
# 3 43.6855 33.1211 87.6479 0.0000 16.3302 0.0000
# 4 0.0000 0.0000 0.0000 29.0049 0.0000 -1.3513
# 5 14.8994 8.4811 16.3302 0.0000 43.9667 0.0000
# 6 0.0000 0.0000 0.0000 -1.3513 0.0000 31.6557
#
#
#
# Elastic Compliance Matrix: (Units=1/GPa)
#
#
# Indices 1 2 3 4 5 6 
#
# 1 0.013376 -0.000524 -0.006063 0.000000 -0.002180 0.000000
# 2 -0.000524 0.012103 -0.004201 0.000000 -0.000597 0.000000
# 3 -0.006063 -0.004201 0.016636 0.000000 -0.003314 0.000000
# 4 0.000000 0.000000 0.000000 0.034546 0.000000 0.001475
# 5 -0.002180 -0.000597 -0.003314 0.000000 0.024829 0.000000
# 6 0.000000 0.000000 0.000000 0.001475 0.000000 0.031653
#
#
# Mechanical properties :
#
#
# Convention : Reuss Voigt Hill
#
# Bulk Modulus (GPa) = 48.68727 52.74604 50.71665
# Shear Modulus (GPa) = 30.94698 33.18493 32.06596
#
# Velocity S-wave (km/s) = 3.59866 3.72651 3.66314
# Velocity P-wave (km/s) = 6.13524 6.37090 6.25418
#
# Compressibility (1/GPa) = 0.02053925
#
# Stress axis : x y z
#
# Youngs Moduli (GPa) = 74.75828 82.62188 60.11013
#
# Poissons Ratio (x) = 0.04332 0.36443
# Poissons Ratio (y) = 0.03920 0.25253
# Poissons Ratio (z) = 0.45324 0.34711
#
# Static dielectric constant tensor:
#      x y z
#    x 1.949130 0.000000 -0.038180 
#    y 0.000000 1.991380 0.000000 
#    z -0.038180 0.000000 1.885900 
# 
# From -- ./inp_files/12434.got.cif
#   From: 2010.05.17/outbox.cif.g08.bks.cpg/sg9_7_cif.got.tgz:12434.got - 2010.06.03 20:04:27.
