data_PCOD9138422
_publ_section_title
;
Structure prediction by ZEFSAII (Michael W. Deem and Ramdas Pophale) SiO2 
 PCOD9138422
Probable space group: C C
;
_chemical_formula_sum "Si O2"
_cell_formula_units_Z 32
_cell_length_a 12.328485
_cell_length_b 13.371700
_cell_length_c 11.577540
_cell_angle_alpha 90.000000
_cell_angle_beta 132.350389
_cell_angle_gamma 90.000000
_cell_volume 1410.522243
_symmetry_space_group_name_H-M "C C"
_symmetry_group_IT_number 9
_symmetry_cell_setting 'monoclinic'
loop_
_space_group_symop_operation_xyz
x,y,z
x,-y,1/2+z
1/2+x,1/2+y,z
1/2+x,1/2-y,1/2+z
loop_
_atom_site_type_symbol
_atom_site_label
_atom_site_fract_x
_atom_site_fract_y
_atom_site_fract_z
Si Si1 0.521790 0.721539 0.149070
Si Si2 0.329614 0.562750 0.148779
Si Si3 0.526567 0.150439 0.868608
Si Si4 0.056556 0.094567 0.747739
Si Si5 0.375981 0.040149 0.947415
Si Si6 0.445001 0.334094 0.949476
Si Si7 0.939984 0.298660 0.650402
Si Si8 0.855910 0.675871 0.344749
O O1 0.427781 0.633139 0.137132
O O2 0.500746 0.816669 0.219455
O O3 0.691955 0.695687 0.270014
O O4 0.461631 0.743342 0.979101
O O5 0.415454 0.457529 0.205103
O O6 0.343262 0.610664 0.285673
O O7 0.163834 0.576721 0.986319
O O8 0.390231 0.101881 0.837683
O O9 0.548071 0.256534 0.952606
O O10 0.032031 0.087764 0.591184
O O11 0.056408 0.213514 0.770401
O O12 0.213297 0.046858 0.884854
O O13 0.479129 0.098278 0.113335
O O14 0.410269 0.929023 0.934840
O O15 0.368477 0.265946 0.993513
O O16 0.856903 0.323064 0.707559
#
# Coordination Sequence:
#
# PCOD9138422 Si02
#       8
#     4   4   4   4   4   4   4   4
#     4  11  25  44  69 106 143 185 241 292 366 415
#     4  11  21  44  69 101 138 187 240 287 356 434
#     4  10  23  43  69  95 142 181 233 304 345 424
#     4  10  23  43  69 102 139 183 237 288 358 432
#     4  11  25  45  71 105 135 191 244 292 355 438
#     4   8  22  40  68  95 133 186 228 286 353 424
#     4   9  25  45  65 104 141 181 232 297 356 414
#     4  12  26  46  72 104 147 190 235 308 355 431
#
# _framework density 22.686633
#
# number of rings (size 3 to 8) (size 9 to 14) (size 15 to 20)
#    0.750    1.000    2.500    0.000    8.750    3.000 
#    2.250    0.000    0.000    0.000    0.000    0.000 
#    0.000    0.000    0.000    0.000    0.000    0.000 
#
# Total GULP energy -89166.953530 kJ/mol
# GULP energy per Si atom -5572.934596 kJ/mol
# Density = 2.263500 g / cm^3
# Si number density = 22.686633 Si / 1000 Ang^3
#
#
#
# Elastic Constant Matrix: (Units=GPa)
#
#
# Indices 1 2 3 4 5 6 
#
# 1 72.5115 20.2575 31.5236 0.0000 -14.9243 0.0000
# 2 20.2575 59.6634 21.1295 0.0000 -4.6217 0.0000
# 3 31.5236 21.1295 60.1157 0.0000 -14.8827 0.0000
# 4 0.0000 0.0000 0.0000 14.5650 0.0000 1.3451
# 5 -14.9243 -4.6217 -14.8827 0.0000 44.3848 0.0000
# 6 0.0000 0.0000 0.0000 1.3451 0.0000 27.5943
#
#
#
# Elastic Compliance Matrix: (Units=1/GPa)
#
#
# Indices 1 2 3 4 5 6 
#
# 1 0.018838 -0.003349 -0.007873 0.000000 0.003346 0.000000
# 2 -0.003349 0.019742 -0.005401 0.000000 -0.000881 0.000000
# 3 -0.007873 -0.005401 0.023846 0.000000 0.004786 0.000000
# 4 0.000000 0.000000 0.000000 0.068968 0.000000 -0.003362
# 5 0.003346 -0.000881 0.004786 0.000000 0.025168 0.000000
# 6 0.000000 0.000000 0.000000 -0.003362 0.000000 0.036403
#
#
# Mechanical properties :
#
#
# Convention : Reuss Voigt Hill
#
# Bulk Modulus (GPa) = 34.26926 37.56799 35.91862
# Shear Modulus (GPa) = 21.19197 25.26747 23.22972
#
# Velocity S-wave (km/s) = 3.05965 3.34093 3.20338
# Velocity P-wave (km/s) = 5.25549 5.61051 5.43590
#
# Compressibility (1/GPa) = 0.02918067
#
# Stress axis : x y z
#
# Youngs Moduli (GPa) = 53.08509 50.65292 41.93518
#
# Poissons Ratio (x) = 0.16962 0.33015
# Poissons Ratio (y) = 0.17776 0.22650
# Poissons Ratio (z) = 0.41793 0.27359
#
# Static dielectric constant tensor:
#      x y z
#    x 1.823160 0.000000 0.004990 
#    y 0.000000 1.942640 0.000000 
#    z 0.004990 0.000000 1.849820 
# 
# From -- ./inp_files/16893.got.cif
#   From: 2010.05.17/outbox.cif.g08.bks.cpg/sg9_9_cif.got.tgz:16893.got - 2010.06.03 20:04:27.
