data_PCOD9138118
_publ_section_title
;
Structure prediction by ZEFSAII (Michael W. Deem and Ramdas Pophale) SiO2 
 PCOD9138118
Probable space group: C C
;
_chemical_formula_sum "Si O2"
_cell_formula_units_Z 32
_cell_length_a 20.784016
_cell_length_b 6.168502
_cell_length_c 12.164547
_cell_angle_alpha 90.000000
_cell_angle_beta 62.137218
_cell_angle_gamma 90.000000
_cell_volume 1378.768896
_symmetry_space_group_name_H-M "C C"
_symmetry_group_IT_number 9
_symmetry_cell_setting 'monoclinic'
loop_
_space_group_symop_operation_xyz
x,y,z
x,-y,1/2+z
1/2+x,1/2+y,z
1/2+x,1/2-y,1/2+z
loop_
_atom_site_type_symbol
_atom_site_label
_atom_site_fract_x
_atom_site_fract_y
_atom_site_fract_z
Si Si1 0.266200 0.667197 0.153750
Si Si2 0.003402 0.945948 0.703755
Si Si3 0.069195 0.592480 0.507270
Si Si4 0.358932 0.354678 0.957240
Si Si5 0.621509 0.593931 0.770598
Si Si6 0.687204 0.786038 0.350437
Si Si7 0.810582 0.462141 0.318734
Si Si8 0.934339 0.702016 0.113294
O O1 0.198183 0.809938 0.169283
O O2 0.233522 0.457073 0.242418
O O3 0.307758 0.806562 0.213253
O O4 0.317234 0.577041 0.017363
O O5 0.059885 0.085658 0.728606
O O6 0.973387 0.081020 0.624396
O O7 0.046137 0.734176 0.629625
O O8 0.933170 0.890850 0.831805
O O9 0.095531 0.754185 0.391205
O O10 0.134728 0.423654 0.471091
O O11 0.997245 0.463470 0.529571
O O12 0.310747 0.190650 0.924409
O O13 0.381412 0.253172 0.055374
O O14 0.637284 0.357203 0.808847
O O15 0.741575 0.619108 0.364960
O O16 0.884726 0.598953 0.248752
#
# Coordination Sequence:
#
# PCOD9138118 Si02
#       8
#     4   4   4   4   4   4   4   4
#     4  10  24  50  72 108 147 190 249 310 365 456
#     4  12  26  46  71 115 145 194 251 305 381 451
#     4  11  24  46  73 105 147 195 242 312 369 454
#     4  12  25  46  78 105 150 196 244 307 384 441
#     4  10  25  49  74 104 147 195 251 304 376 444
#     4  10  22  51  72 103 149 188 247 309 365 449
#     4  11  25  47  75 112 146 196 248 306 382 444
#     4  12  27  47  71 106 149 184 248 313 362 451
#
# _framework density 23.209111
#
# number of rings (size 3 to 8) (size 9 to 14) (size 15 to 20)
#    0.000    1.000    2.500    3.000    3.500    2.000 
#   18.000    0.000    0.000    0.000    0.000    0.000 
#    0.000    0.000    0.000    0.000    0.000    0.000 
#
# Total GULP energy -89691.110993 kJ/mol
# GULP energy per Si atom -5605.694437 kJ/mol
# Density = 2.315629 g / cm^3
# Si number density = 23.209111 Si / 1000 Ang^3
#
#
#
# Elastic Constant Matrix: (Units=GPa)
#
#
# Indices 1 2 3 4 5 6 
#
# 1 90.5201 35.4316 34.4583 0.0000 -5.0843 0.0000
# 2 35.4316 105.1536 49.4187 0.0000 -7.4578 0.0000
# 3 34.4583 49.4187 97.5291 0.0000 -22.3642 0.0000
# 4 0.0000 0.0000 0.0000 45.9109 0.0000 -16.9576
# 5 -5.0843 -7.4578 -22.3642 0.0000 34.8730 0.0000
# 6 0.0000 0.0000 0.0000 -16.9576 0.0000 39.4495
#
#
#
# Elastic Compliance Matrix: (Units=1/GPa)
#
#
# Indices 1 2 3 4 5 6 
#
# 1 0.013480 -0.002981 -0.003456 0.000000 -0.000888 0.000000
# 2 -0.002981 0.013221 -0.005976 0.000000 -0.001440 0.000000
# 3 -0.003456 -0.005976 0.016524 0.000000 0.008815 0.000000
# 4 0.000000 0.000000 0.000000 0.025892 0.000000 0.011130
# 5 -0.000888 -0.001440 0.008815 0.000000 0.033891 0.000000
# 6 0.000000 0.000000 0.000000 0.011130 0.000000 0.030133
#
#
# Mechanical properties :
#
#
# Convention : Reuss Voigt Hill
#
# Bulk Modulus (GPa) = 54.35154 59.09109 56.72132
# Shear Modulus (GPa) = 30.46945 35.63965 33.05455
#
# Velocity S-wave (km/s) = 3.62722 3.92291 3.77796
# Velocity P-wave (km/s) = 6.40401 6.78488 6.59719
#
# Compressibility (1/GPa) = 0.01839874
#
# Stress axis : x y z
#
# Youngs Moduli (GPa) = 74.18577 75.63886 60.51897
#
# Poissons Ratio (x) = 0.22547 0.20914
# Poissons Ratio (y) = 0.22114 0.36166
# Poissons Ratio (z) = 0.25637 0.45202
#
# Static dielectric constant tensor:
#      x y z
#    x 1.836110 0.000000 -0.012890 
#    y 0.000000 1.875510 0.000000 
#    z -0.012890 0.000000 1.871960 
# 
# From -- ./inp_files/19792.got.cif
#   From: 2010.05.17/outbox.cif.g08.bks.cpg/sg9_10_cif.got.tgz:19792.got - 2010.06.03 20:04:27.
