data_PCOD9138347
_publ_section_title
;
Structure prediction by ZEFSAII (Michael W. Deem and Ramdas Pophale) SiO2 
 PCOD9138347
Probable space group: C C
;
_chemical_formula_sum "Si O2"
_cell_formula_units_Z 28
_cell_length_a 18.803463
_cell_length_b 7.534700
_cell_length_c 8.758487
_cell_angle_alpha 90.000000
_cell_angle_beta 53.748457
_cell_angle_gamma 90.000000
_cell_volume 1000.688386
_symmetry_space_group_name_H-M "C C"
_symmetry_group_IT_number 9
_symmetry_cell_setting 'monoclinic'
loop_
_space_group_symop_operation_xyz
x,y,z
x,-y,1/2+z
1/2+x,1/2+y,z
1/2+x,1/2-y,1/2+z
loop_
_atom_site_type_symbol
_atom_site_label
_atom_site_fract_x
_atom_site_fract_y
_atom_site_fract_z
Si Si1 0.384970 0.295478 0.266840
Si Si2 0.493341 0.820001 0.383883
Si Si3 0.780190 0.168910 0.181157
Si Si4 0.839946 0.606136 0.854784
Si Si5 0.180469 0.036595 0.251063
Si Si6 0.103643 0.517866 0.517756
Si Si7 0.072947 0.825121 0.169431
O O1 0.314463 0.383159 0.470215
O O2 0.471137 0.318134 0.262498
O O3 0.342955 0.097880 0.290110
O O4 0.432144 0.331126 0.043693
O O5 0.417299 0.912013 0.380526
O O6 0.538252 0.927799 0.471292
O O7 0.565244 0.807466 0.154139
O O8 0.851777 0.232696 0.218857
O O9 0.733587 0.360669 0.225561
O O10 0.702889 0.041703 0.336050
O O11 0.748093 0.642152 0.058798
O O12 0.138848 0.130871 0.446897
O O13 0.096943 0.962646 0.266760
O O14 0.100540 0.377006 0.661002
#
# Coordination Sequence:
#
# PCOD9138347 Si02
#       7
#     4   4   4   4   4   4   4
#     4  10  23  42  72 105 146 200 245 307 367 460
#     4  11  22  41  73 103 146 191 253 294 374 450
#     4  11  25  44  73 108 146 189 260 307 383 438
#     4  11  22  41  70 107 137 198 243 304 364 463
#     4  11  24  42  70 106 144 195 244 313 366 450
#     4  11  26  44  76 113 142 194 253 320 360 453
#     4  11  24  46  74 102 153 195 254 301 380 446
#
# _framework density 27.980737000000001
#
# number of rings (size 3 to 8) (size 9 to 14) (size 15 to 20)
#    0.000    1.143    4.286    2.571    6.000    0.000 
#    0.000    4.286    3.143    0.000    0.000    0.000 
#    0.000    0.000    0.000    0.000    0.000    0.000 
#
# Total GULP energy -78107.102216 kJ/mol
# GULP energy per Si atom -5579.078730 kJ/mol
# Density = 2.791705 g / cm^3
# Si number density = 27.980737 Si / 1000 Ang^3
#
#
#
# Elastic Constant Matrix: (Units=GPa)
#
#
# Indices 1 2 3 4 5 6 
#
# 1 106.3995 10.1579 5.3943 0.0000 -4.2376 0.0000
# 2 10.1579 27.8635 -12.9549 0.0000 3.2761 0.0000
# 3 5.3943 -12.9549 141.2007 0.0000 -18.4719 0.0000
# 4 0.0000 0.0000 0.0000 31.0381 0.0000 -3.4278
# 5 -4.2376 3.2761 -18.4719 0.0000 42.7249 0.0000
# 6 0.0000 0.0000 0.0000 -3.4278 0.0000 42.9665
#
#
#
# Elastic Compliance Matrix: (Units=1/GPa)
#
#
# Indices 1 2 3 4 5 6 
#
# 1 0.009851 -0.003995 -0.000609 0.000000 0.001020 0.000000
# 2 -0.003995 0.039196 0.003502 0.000000 -0.001888 0.000000
# 3 -0.000609 0.003502 0.007826 0.000000 0.003055 0.000000
# 4 0.000000 0.000000 0.000000 0.032505 0.000000 0.002593
# 5 0.001020 -0.001888 0.003055 0.000000 0.024972 0.000000
# 6 0.000000 0.000000 0.000000 0.002593 0.000000 0.023481
#
#
# Mechanical properties :
#
#
# Convention : Reuss Voigt Hill
#
# Bulk Modulus (GPa) = 18.29205 31.18426 24.73815
# Shear Modulus (GPa) = 31.59385 41.53699 36.56542
#
# Velocity S-wave (km/s) = 3.36390 3.85708 3.61890
# Velocity P-wave (km/s) = 4.65181 5.56823 5.13052
#
# Compressibility (1/GPa) = 0.05466857
#
# Stress axis : x y z
#
# Youngs Moduli (GPa) = 101.50808 25.51311 127.77438
#
# Poissons Ratio (x) = 0.10192 0.07787
# Poissons Ratio (y) = 0.40549 -0.44744
# Poissons Ratio (z) = 0.06186 -0.08934
#
# Static dielectric constant tensor:
#      x y z
#    x 2.352350 0.000000 0.082180 
#    y 0.000000 2.310270 0.000000 
#    z 0.082180 0.000000 2.173190 
# 
# From -- ./inp_files/11303.got.cif
#   From: 2010.05.17/outbox.cif.g08.bks.cpg/sg9_6_cif.got.tgz:11303.got - 2010.06.03 20:04:27.
