data_PCOD9138729
_publ_section_title
;
Structure prediction by ZEFSAII (Michael W. Deem and Ramdas Pophale) SiO2 
 PCOD9138729
Probable space group: C C
;
_chemical_formula_sum "Si O2"
_cell_formula_units_Z 28
_cell_length_a 12.239994
_cell_length_b 6.961496
_cell_length_c 13.728428
_cell_angle_alpha 90.000000
_cell_angle_beta 78.770951
_cell_angle_gamma 90.000000
_cell_volume 1147.387438
_symmetry_space_group_name_H-M "C C"
_symmetry_group_IT_number 9
_symmetry_cell_setting 'monoclinic'
loop_
_space_group_symop_operation_xyz
x,y,z
x,-y,1/2+z
1/2+x,1/2+y,z
1/2+x,1/2-y,1/2+z
loop_
_atom_site_type_symbol
_atom_site_label
_atom_site_fract_x
_atom_site_fract_y
_atom_site_fract_z
Si Si1 0.920070 0.660443 0.404300
Si Si2 0.270708 0.358326 0.782566
Si Si3 0.003785 0.302942 0.521046
Si Si4 0.680468 0.535707 0.375762
Si Si5 0.007866 0.885472 0.748728
Si Si6 0.407524 0.555246 0.080978
Si Si7 0.560364 0.959533 0.720704
O O1 0.967203 0.472071 0.453863
O O2 0.796150 0.629842 0.387011
O O3 0.927447 0.827368 0.481383
O O4 0.995113 0.695949 0.296173
O O5 0.383978 0.439632 0.810310
O O6 0.318253 0.327332 0.662611
O O7 0.171176 0.494293 0.765455
O O8 0.217723 0.190073 0.857549
O O9 0.089044 0.150562 0.457196
O O10 0.058494 0.395800 0.608790
O O11 0.894086 0.171806 0.564120
O O12 0.620720 0.566622 0.282604
O O13 0.994326 0.655831 0.742312
O O14 0.011856 0.951124 0.636780
#
# Coordination Sequence:
#
# PCOD9138729 Si02
#       7
#     4   4   4   4   4   4   4
#     4  12  25  48  73 112 156 200 258 318 378 460
#     4  10  23  46  70 108 146 192 247 305 378 453
#     4  12  25  46  75 112 155 203 255 313 390 447
#     4  12  23  47  75 106 153 202 245 320 382 448
#     4  10  23  47  71 107 149 196 249 310 389 435
#     4  10  24  49  73 109 156 192 254 318 378 459
#     4  12  23  47  75 108 153 199 254 314 373 462
#
# _framework density 24.403265000000001
#
# number of rings (size 3 to 8) (size 9 to 14) (size 15 to 20)
#    0.857    0.000    4.286    2.571    0.000    1.143 
#    7.714    0.000    0.000    0.000    0.000    0.000 
#    0.000    0.000    0.000    0.000    0.000    0.000 
#
# Total GULP energy -77956.194567 kJ/mol
# GULP energy per Si atom -5568.299612 kJ/mol
# Density = 2.434772 g / cm^3
# Si number density = 24.403265 Si / 1000 Ang^3
#
#
#
# Elastic Constant Matrix: (Units=GPa)
#
#
# Indices 1 2 3 4 5 6 
#
# 1 144.7098 38.6326 31.1489 0.0000 24.9031 0.0000
# 2 38.6326 82.3236 22.0092 0.0000 13.9328 0.0000
# 3 31.1489 22.0092 109.7769 0.0000 28.7137 0.0000
# 4 0.0000 0.0000 0.0000 38.7266 0.0000 6.6647
# 5 24.9031 13.9328 28.7137 0.0000 31.0967 0.0000
# 6 0.0000 0.0000 0.0000 6.6647 0.0000 38.1971
#
#
#
# Elastic Compliance Matrix: (Units=1/GPa)
#
#
# Indices 1 2 3 4 5 6 
#
# 1 0.008729 -0.003090 -0.000515 0.000000 -0.005130 0.000000
# 2 -0.003090 0.014414 -0.001280 0.000000 -0.002801 0.000000
# 3 -0.000515 -0.001280 0.012201 0.000000 -0.010280 0.000000
# 4 0.000000 0.000000 0.000000 0.026621 0.000000 -0.004645
# 5 -0.005130 -0.002801 -0.010280 0.000000 0.047013 0.000000
# 6 0.000000 0.000000 0.000000 -0.004645 0.000000 0.026990
#
#
# Mechanical properties :
#
#
# Convention : Reuss Voigt Hill
#
# Bulk Modulus (GPa) = 39.10556 57.82131 48.46343
# Shear Modulus (GPa) = 32.41173 37.93872 35.17522
#
# Velocity S-wave (km/s) = 3.64836 3.94719 3.80072
# Velocity P-wave (km/s) = 5.81437 6.67228 6.25804
#
# Compressibility (1/GPa) = 0.02557181
#
# Stress axis : x y z
#
# Youngs Moduli (GPa) = 114.55833 69.37810 81.95958
#
# Poissons Ratio (x) = 0.21440 0.04225
# Poissons Ratio (y) = 0.35403 0.10493
# Poissons Ratio (z) = 0.05905 0.08882
#
# Static dielectric constant tensor:
#      x y z
#    x 1.978740 0.000000 -0.053520 
#    y 0.000000 2.036590 0.000000 
#    z -0.053520 0.000000 1.986070 
# 
# From -- ./inp_files/24057.got.cif
#   From: 2010.05.17/outbox.cif.g08.bks.cpg/sg9_13_cif.got.tgz:24057.got - 2010.06.03 20:04:27.
