data_PCOD9138393
_publ_section_title
;
Structure prediction by ZEFSAII (Michael W. Deem and Ramdas Pophale) SiO2 
 PCOD9138393
Probable space group: C C
;
_chemical_formula_sum "Si O2"
_cell_formula_units_Z 32
_cell_length_a 12.149169
_cell_length_b 8.428597
_cell_length_c 15.573717
_cell_angle_alpha 90.000000
_cell_angle_beta 108.462316
_cell_angle_gamma 90.000000
_cell_volume 1512.676968
_symmetry_space_group_name_H-M "C C"
_symmetry_group_IT_number 9
_symmetry_cell_setting 'monoclinic'
loop_
_space_group_symop_operation_xyz
x,y,z
x,-y,1/2+z
1/2+x,1/2+y,z
1/2+x,1/2-y,1/2+z
loop_
_atom_site_type_symbol
_atom_site_label
_atom_site_fract_x
_atom_site_fract_y
_atom_site_fract_z
Si Si1 0.268570 0.753530 0.083920
Si Si2 0.412070 0.650286 0.282733
Si Si3 0.383800 0.859099 0.945900
Si Si4 0.636927 0.038052 0.463009
Si Si5 0.572278 0.099020 0.762606
Si Si6 0.856107 0.419916 0.625580
Si Si7 0.314046 0.672358 0.760493
Si Si8 0.830934 0.287377 0.446834
O O1 0.316046 0.707696 0.189403
O O2 0.253997 0.947259 0.086039
O O3 0.359432 0.762904 0.026997
O O4 0.183529 0.613769 0.029179
O O5 0.530228 0.725289 0.277163
O O6 0.409838 0.462807 0.275572
O O7 0.383230 0.707521 0.373350
O O8 0.520303 0.894310 0.976000
O O9 0.341338 0.757085 0.856125
O O10 0.313288 0.026404 0.918558
O O11 0.730189 0.174832 0.461193
O O12 0.597398 0.978425 0.360071
O O13 0.687807 0.094824 0.736275
O O14 0.465433 0.012664 0.691318
O O15 0.815159 0.293412 0.683689
O O16 0.900293 0.326590 0.551954
#
# Coordination Sequence:
#
# PCOD9138393 Si02
#       8
#     4   4   4   4   4   4   4   4
#     4  10  23  43  66  99 137 176 232 290 343 421
#     4  11  23  41  66  98 136 180 234 280 342 424
#     4  11  23  43  69 100 141 174 233 299 346 422
#     4  12  22  45  72  98 135 188 229 290 364 409
#     4  11  23  45  71  99 136 183 231 291 360 407
#     4  10  24  44  65 102 140 176 233 293 344 422
#     4  12  23  44  72  99 139 181 233 296 353 422
#     4  11  23  41  67  99 136 182 231 279 350 417
#
# _framework density 21.154548999999999
#
# number of rings (size 3 to 8) (size 9 to 14) (size 15 to 20)
#    0.000    1.000    5.000    1.500    0.000    7.000 
#    0.000    5.000    0.000    0.000    0.000    0.000 
#    0.000    0.000    0.000    0.000    0.000    0.000 
#
# Total GULP energy -89132.223671 kJ/mol
# GULP energy per Si atom -5570.763979 kJ/mol
# Density = 2.110640 g / cm^3
# Si number density = 21.154549 Si / 1000 Ang^3
#
#
#
# Elastic Constant Matrix: (Units=GPa)
#
#
# Indices 1 2 3 4 5 6 
#
# 1 58.5149 16.3141 6.8114 0.0000 -1.6538 0.0000
# 2 16.3141 68.2058 17.5300 0.0000 1.2146 0.0000
# 3 6.8114 17.5300 105.9723 0.0000 -16.9130 0.0000
# 4 0.0000 0.0000 0.0000 49.0570 0.0000 -0.0469
# 5 -1.6538 1.2146 -16.9130 0.0000 30.3696 0.0000
# 6 0.0000 0.0000 0.0000 -0.0469 0.0000 36.7904
#
#
#
# Elastic Compliance Matrix: (Units=1/GPa)
#
#
# Indices 1 2 3 4 5 6 
#
# 1 0.018361 -0.004332 -0.000303 0.000000 0.001004 0.000000
# 2 -0.004332 0.016472 -0.002842 0.000000 -0.002477 0.000000
# 3 -0.000303 -0.002842 0.010911 0.000000 0.006174 0.000000
# 4 0.000000 0.000000 0.000000 0.020384 0.000000 0.000026
# 5 0.001004 -0.002477 0.006174 0.000000 0.036520 0.000000
# 6 0.000000 0.000000 0.000000 0.000026 0.000000 0.027181
#
#
# Mechanical properties :
#
#
# Convention : Reuss Voigt Hill
#
# Bulk Modulus (GPa) = 32.47714 34.88931 33.68322
# Shear Modulus (GPa) = 32.24834 36.04590 34.14712
#
# Velocity S-wave (km/s) = 3.90861 4.13235 4.02204
# Velocity P-wave (km/s) = 5.97958 6.26872 6.12585
#
# Compressibility (1/GPa) = 0.03079089
#
# Stress axis : x y z
#
# Youngs Moduli (GPa) = 54.46312 60.70875 91.64791
#
# Poissons Ratio (x) = 0.26297 0.02780
# Poissons Ratio (y) = 0.23592 0.26044
# Poissons Ratio (z) = 0.01652 0.17252
#
# Static dielectric constant tensor:
#      x y z
#    x 1.771230 0.000000 -0.012020 
#    y 0.000000 1.817490 0.000000 
#    z -0.012020 0.000000 1.800910 
# 
# From -- ./inp_files/24403.got.cif
#   From: 2010.05.17/outbox.cif.g08.bks.cpg/sg9_13_cif.got.tgz:24403.got - 2010.06.03 20:04:27.
