data_PCOD9138765
_publ_section_title
;
Structure prediction by ZEFSAII (Michael W. Deem and Ramdas Pophale) SiO2 
 PCOD9138765
Probable space group: C C
;
_chemical_formula_sum "Si O2"
_cell_formula_units_Z 32
_cell_length_a 14.557426
_cell_length_b 20.589620
_cell_length_c 5.427088
_cell_angle_alpha 90.000000
_cell_angle_beta 52.004432
_cell_angle_gamma 90.000000
_cell_volume 1281.911887
_symmetry_space_group_name_H-M "C C"
_symmetry_group_IT_number 9
_symmetry_cell_setting 'monoclinic'
loop_
_space_group_symop_operation_xyz
x,y,z
x,-y,1/2+z
1/2+x,1/2+y,z
1/2+x,1/2-y,1/2+z
loop_
_atom_site_type_symbol
_atom_site_label
_atom_site_fract_x
_atom_site_fract_y
_atom_site_fract_z
Si Si1 0.891130 0.017111 0.289780
Si Si2 0.424399 0.337410 0.706152
Si Si3 0.033279 0.263193 0.351714
Si Si4 0.764404 0.538275 0.221484
Si Si5 0.653354 0.669199 0.540631
Si Si6 0.024518 0.412702 0.361131
Si Si7 0.170323 0.419750 0.608528
Si Si8 0.245574 0.717521 0.119639
O O1 0.865470 0.093294 0.352709
O O2 0.778040 0.969957 0.456803
O O3 0.955988 0.995296 0.427401
O O4 0.436600 0.285828 0.904082
O O5 0.555421 0.352487 0.397951
O O6 0.352882 0.302840 0.610312
O O7 0.091547 0.223811 0.476224
O O8 0.998441 0.336814 0.458336
O O9 0.132657 0.272383 0.979986
O O10 0.736743 0.502029 0.522776
O O11 0.699502 0.607418 0.320956
O O12 0.903212 0.551907 0.010694
O O13 0.756898 0.711027 0.488726
O O14 0.101066 0.418688 0.983887
O O15 0.092202 0.435379 0.497418
O O16 0.216700 0.345643 0.503120
#
# Coordination Sequence:
#
# PCOD9138765 Si02
#       8
#     4   4   4   4   4   4   4   4
#     4  12  27  44  69 110 160 205 239 305 388 463
#     4  11  27  46  73 117 154 202 255 316 395 457
#     4  10  25  45  75 115 148 196 253 327 382 456
#     4  12  31  53  78 109 152 217 261 307 374 470
#     4  11  27  49  79 108 154 204 258 323 378 467
#     4  11  25  49  81 110 154 196 258 323 386 448
#     4  11  23  46  75 119 155 192 250 321 394 455
#     4  10  23  46  74 114 149 192 258 318 391 446
#
# _framework density 24.962714999999999
#
# number of rings (size 3 to 8) (size 9 to 14) (size 15 to 20)
#    0.000    1.000    2.500    1.500   10.500    4.000 
#    0.000    0.000    0.000    0.000    0.000    0.000 
#    0.000    0.000    0.000    0.000    0.000    0.000 
#
# Total GULP energy -89646.838800 kJ/mol
# GULP energy per Si atom -5602.927425 kJ/mol
# Density = 2.490590 g / cm^3
# Si number density = 24.962715 Si / 1000 Ang^3
#
#
#
# Elastic Constant Matrix: (Units=GPa)
#
#
# Indices 1 2 3 4 5 6 
#
# 1 71.4805 42.2896 58.5369 0.0000 -0.8180 0.0000
# 2 42.2896 179.9701 51.3644 0.0000 1.0788 0.0000
# 3 58.5369 51.3644 89.7474 0.0000 19.6516 0.0000
# 4 0.0000 0.0000 0.0000 38.0651 0.0000 -1.6838
# 5 -0.8180 1.0788 19.6516 0.0000 44.5257 0.0000
# 6 0.0000 0.0000 0.0000 -1.6838 0.0000 44.4919
#
#
#
# Elastic Compliance Matrix: (Units=1/GPa)
#
#
# Indices 1 2 3 4 5 6 
#
# 1 0.035106 -0.001267 -0.024708 0.000000 0.011581 0.000000
# 2 -0.001267 0.006802 -0.003349 0.000000 0.001290 0.000000
# 3 -0.024708 -0.003349 0.032387 0.000000 -0.014667 0.000000
# 4 0.000000 0.000000 0.000000 0.026315 0.000000 0.000996
# 5 0.011581 0.001290 -0.014667 0.000000 0.029114 0.000000
# 6 0.000000 0.000000 0.000000 0.000996 0.000000 0.022514
#
#
# Mechanical properties :
#
#
# Convention : Reuss Voigt Hill
#
# Bulk Modulus (GPa) = 63.91440 71.73109 67.82275
# Shear Modulus (GPa) = 23.13728 38.01702 30.57715
#
# Velocity S-wave (km/s) = 3.04776 3.90674 3.50367
# Velocity P-wave (km/s) = 6.16804 7.01055 6.60274
#
# Compressibility (1/GPa) = 0.01564593
#
# Stress axis : x y z
#
# Youngs Moduli (GPa) = 28.48514 147.00805 30.87696
#
# Poissons Ratio (x) = 0.18623 0.76292
# Poissons Ratio (y) = 0.03608 0.10342
# Poissons Ratio (z) = 0.70382 0.49239
#
# Static dielectric constant tensor:
#      x y z
#    x 1.950210 0.000000 0.010230 
#    y 0.000000 1.956240 0.000000 
#    z 0.010230 0.000000 2.030710 
# 
# From -- ./inp_files/2566.got.cif
#   From: 2010.05.17/outbox.cif.g08.bks.cpg/sg9_2_cif.got.tgz:2566.got - 2010.06.03 20:04:27.
