data_PCOD9138336
_publ_section_title
;
Structure prediction by ZEFSAII (Michael W. Deem and Ramdas Pophale) SiO2 
 PCOD9138336
Probable space group: C C
;
_chemical_formula_sum "Si O2"
_cell_formula_units_Z 28
_cell_length_a 22.930972
_cell_length_b 7.336730
_cell_length_c 9.182483
_cell_angle_alpha 90.000000
_cell_angle_beta 127.617337
_cell_angle_gamma 90.000000
_cell_volume 1223.680051
_symmetry_space_group_name_H-M "C C"
_symmetry_group_IT_number 9
_symmetry_cell_setting 'monoclinic'
loop_
_space_group_symop_operation_xyz
x,y,z
x,-y,1/2+z
1/2+x,1/2+y,z
1/2+x,1/2-y,1/2+z
loop_
_atom_site_type_symbol
_atom_site_label
_atom_site_fract_x
_atom_site_fract_y
_atom_site_fract_z
Si Si1 0.520600 0.470886 0.763170
Si Si2 0.417755 0.531038 0.838666
Si Si3 0.893707 0.384548 0.342944
Si Si4 0.605531 0.191539 0.482501
Si Si5 0.794682 0.456785 0.441257
Si Si6 0.762335 0.233056 0.658942
Si Si7 0.030792 0.599754 0.673528
O O1 0.452167 0.577292 0.734951
O O2 0.485845 0.438102 0.550789
O O3 0.589583 0.596859 0.911508
O O4 0.536928 0.256196 0.808554
O O5 0.417018 0.313703 0.831069
O O6 0.340157 0.625022 0.759814
O O7 0.833773 0.342124 0.376071
O O8 0.856116 0.470850 0.145381
O O9 0.951095 0.534310 0.490454
O O10 0.688859 0.124826 0.583442
O O11 0.580541 0.151170 0.609379
O O12 0.557241 0.080664 0.294934
O O13 0.747550 0.338026 0.482607
O O14 0.765887 0.625766 0.300835
#
# Coordination Sequence:
#
# PCOD9138336 Si02
#       7
#     4   4   4   4   4   4   4
#     4  12  25  45  74 107 142 193 258 301 369 439
#     4  12  23  42  72 105 140 186 254 310 354 441
#     4  11  21  41  73 107 134 184 244 312 360 425
#     4  12  29  48  72 109 155 200 248 304 385 460
#     4  10  23  42  70  96 143 182 238 303 370 432
#     4  11  27  47  68 109 147 198 244 310 386 448
#     4  12  26  47  75 109 151 197 248 312 376 443
#
# _framework density 22.881799000000001
#
# number of rings (size 3 to 8) (size 9 to 14) (size 15 to 20)
#    0.000    0.571    2.857    6.000    2.000    3.429 
#    2.571    0.000    0.000    0.000    0.000    0.000 
#    0.000    0.000    0.000    0.000    0.000    0.000 
#
# Total GULP energy -77999.421382 kJ/mol
# GULP energy per Si atom -5571.387242 kJ/mol
# Density = 2.282972 g / cm^3
# Si number density = 22.881799 Si / 1000 Ang^3
#
#
#
# Elastic Constant Matrix: (Units=GPa)
#
#
# Indices 1 2 3 4 5 6 
#
# 1 -77.5868 89.1073 39.9498 0.0000 7.6310 0.0000
# 2 89.1073 36.8893 -7.2509 0.0000 -8.3718 0.0000
# 3 39.9498 -7.2509 49.1516 0.0000 -22.5846 0.0000
# 4 0.0000 0.0000 0.0000 23.5739 0.0000 -4.8880
# 5 7.6310 -8.3718 -22.5846 0.0000 29.9421 0.0000
# 6 0.0000 0.0000 0.0000 -4.8880 0.0000 21.8479
#
#
#
# Elastic Compliance Matrix: (Units=1/GPa)
#
#
# Indices 1 2 3 4 5 6 
#
# 1 -0.001759 0.006746 0.005352 0.000000 0.006371 0.000000
# 2 0.006746 0.008823 -0.005874 0.000000 -0.003683 0.000000
# 3 0.005352 -0.005874 0.021039 0.000000 0.012863 0.000000
# 4 0.000000 0.000000 0.000000 0.044483 0.000000 0.009952
# 5 0.006371 -0.003683 0.012863 0.000000 0.040446 0.000000
# 6 0.000000 0.000000 0.000000 0.009952 0.000000 0.047997
#
#
# Mechanical properties :
#
#
# Convention : Reuss Voigt Hill
#
# Bulk Modulus (GPa) = 24.66000 28.00738 26.33369
# Shear Modulus (GPa) = 30.84546 7.51597 19.18072
#
# Velocity S-wave (km/s) = 3.67554 1.81434 2.89840
# Velocity P-wave (km/s) = 5.36781 4.08114 4.76807
#
# Compressibility (1/GPa) = 0.04055151
#
# Stress axis : x y z
#
# Youngs Moduli (GPa) = -568.62511 113.34504 47.53120
#
# Poissons Ratio (x) = -0.76462 -0.25439
# Poissons Ratio (y) = 3.83594 0.27919
# Poissons Ratio (z) = 3.04336 0.66576
#
# Static dielectric constant tensor:
#      x y z
#    x 2.040790 0.000000 0.045300 
#    y 0.000000 1.656070 0.000000 
#    z 0.045300 0.000000 1.907750 
# 
# From -- ./inp_files/11422.got.cif
#   From: 2010.05.17/outbox.cif.g08.bks.cpg/sg9_6_cif.got.tgz:11422.got - 2010.06.03 20:04:27.
