data_PCOD9138326
_publ_section_title
;
Structure prediction by ZEFSAII (Michael W. Deem and Ramdas Pophale) SiO2 
 PCOD9138326
Probable space group: C C
;
_chemical_formula_sum "Si O2"
_cell_formula_units_Z 24
_cell_length_a 4.989042
_cell_length_b 19.252967
_cell_length_c 11.302886
_cell_angle_alpha 90.000000
_cell_angle_beta 62.512171
_cell_angle_gamma 90.000000
_cell_volume 963.121571
_symmetry_space_group_name_H-M "C C"
_symmetry_group_IT_number 9
_symmetry_cell_setting 'monoclinic'
loop_
_space_group_symop_operation_xyz
x,y,z
x,-y,1/2+z
1/2+x,1/2+y,z
1/2+x,1/2-y,1/2+z
loop_
_atom_site_type_symbol
_atom_site_label
_atom_site_fract_x
_atom_site_fract_y
_atom_site_fract_z
Si Si1 0.872310 0.611141 0.462890
Si Si2 0.847920 0.133061 0.185304
Si Si3 0.090264 0.897879 0.402627
Si Si4 0.673215 0.223797 0.565992
Si Si5 0.662571 0.189951 0.834575
Si Si6 0.950155 0.045560 0.381548
O O1 0.965182 0.667181 0.542382
O O2 0.556204 0.582239 0.481788
O O3 0.024290 0.641007 0.311398
O O4 0.086358 0.545337 0.450838
O O5 0.978941 0.206888 0.123482
O O6 0.026273 0.094062 0.253515
O O7 0.876354 0.089891 0.059936
O O8 0.937631 0.836382 0.358021
O O9 0.416638 0.872270 0.377522
O O10 0.095441 0.970770 0.335696
O O11 0.761600 0.203497 0.680722
O O12 0.968742 0.246582 0.430541
#
# Coordination Sequence:
#
# PCOD9138326 Si02
#       6
#     4   4   4   4   4   4
#     4  10  23  42  69  98 132 186 220 292 349 413
#     4   9  24  41  69  97 138 174 231 288 352 396
#     4  11  25  44  69 102 135 189 238 289 342 429
#     4  11  23  48  68 108 142 181 236 295 353 427
#     4  11  26  42  72 104 141 184 235 292 353 415
#     4  10  23  45  63 101 136 184 230 286 353 408
#
# _framework density 24.918970999999999
#
# number of rings (size 3 to 8) (size 9 to 14) (size 15 to 20)
#    1.000    0.667    1.667    1.000    4.667   12.000 
#    0.000    0.000    0.000    0.000    0.000    0.000 
#    0.000    0.000    0.000    0.000    0.000    0.000 
#
# Total GULP energy -67088.929602 kJ/mol
# GULP energy per Si atom -5590.744133 kJ/mol
# Density = 2.486225 g / cm^3
# Si number density = 24.918971 Si / 1000 Ang^3
#
#
#
# Elastic Constant Matrix: (Units=GPa)
#
#
# Indices 1 2 3 4 5 6 
#
# 1 88.1156 0.2861 23.8403 0.0000 14.8673 0.0000
# 2 0.2861 63.3759 8.6689 0.0000 5.9731 0.0000
# 3 23.8403 8.6689 107.5651 0.0000 22.1599 0.0000
# 4 0.0000 0.0000 0.0000 28.0335 0.0000 10.2695
# 5 14.8673 5.9731 22.1599 0.0000 35.4708 0.0000
# 6 0.0000 0.0000 0.0000 10.2695 0.0000 26.1142
#
#
#
# Elastic Compliance Matrix: (Units=1/GPa)
#
#
# Indices 1 2 3 4 5 6 
#
# 1 0.012582 0.000604 -0.001985 0.000000 -0.004135 0.000000
# 2 0.000604 0.016130 -0.000944 0.000000 -0.002380 0.000000
# 3 -0.001985 -0.000944 0.011028 0.000000 -0.005899 0.000000
# 4 0.000000 0.000000 0.000000 0.041675 0.000000 -0.016389
# 5 -0.004135 -0.002380 -0.005899 0.000000 0.034011 0.000000
# 6 0.000000 0.000000 0.000000 -0.016389 0.000000 0.044738
#
#
# Mechanical properties :
#
#
# Convention : Reuss Voigt Hill
#
# Bulk Modulus (GPa) = 28.49808 36.07192 32.28500
# Shear Modulus (GPa) = 28.32709 33.00778 30.66744
#
# Velocity S-wave (km/s) = 3.37526 3.64346 3.51192
# Velocity P-wave (km/s) = 5.16245 5.67511 5.42484
#
# Compressibility (1/GPa) = 0.03509009
#
# Stress axis : x y z
#
# Youngs Moduli (GPa) = 79.48119 61.99814 90.67861
#
# Poissons Ratio (x) = -0.03748 0.18003
# Poissons Ratio (y) = -0.04805 0.08556
# Poissons Ratio (z) = 0.15780 0.05850
#
# Static dielectric constant tensor:
#      x y z
#    x 1.958580 0.000000 -0.038620 
#    y 0.000000 2.018610 0.000000 
#    z -0.038620 0.000000 1.993490 
# 
# From -- ./inp_files/13150.got.cif
#   From: 2010.05.17/outbox.cif.g08.bks.cpg/sg9_7_cif.got.tgz:13150.got - 2010.06.03 20:04:27.
