data_PCOD9138543
_publ_section_title
;
Structure prediction by ZEFSAII (Michael W. Deem and Ramdas Pophale) SiO2 
 PCOD9138543
Probable space group: C C
;
_chemical_formula_sum "Si O2"
_cell_formula_units_Z 28
_cell_length_a 7.903457
_cell_length_b 13.806466
_cell_length_c 11.602690
_cell_angle_alpha 90.000000
_cell_angle_beta 128.437010
_cell_angle_gamma 90.000000
_cell_volume 991.703940
_symmetry_space_group_name_H-M "C C"
_symmetry_group_IT_number 9
_symmetry_cell_setting 'monoclinic'
loop_
_space_group_symop_operation_xyz
x,y,z
x,-y,1/2+z
1/2+x,1/2+y,z
1/2+x,1/2-y,1/2+z
loop_
_atom_site_type_symbol
_atom_site_label
_atom_site_fract_x
_atom_site_fract_y
_atom_site_fract_z
Si Si1 0.739300 0.740762 0.033090
Si Si2 0.771370 0.158442 0.333309
Si Si3 0.401084 0.374886 0.285299
Si Si4 0.401831 0.319872 0.631144
Si Si5 0.019783 0.984934 0.105564
Si Si6 0.850537 0.355885 0.932993
Si Si7 0.963865 0.487725 0.167381
O O1 0.576406 0.835523 0.966588
O O2 0.875055 0.774197 0.200087
O O3 0.827447 0.752258 0.942312
O O4 0.579436 0.649494 0.958348
O O5 0.819530 0.192775 0.225087
O O6 0.922917 0.077641 0.458607
O O7 0.553964 0.095997 0.215752
O O8 0.487575 0.441091 0.219618
O O9 0.176385 0.415862 0.243116
O O10 0.358095 0.422451 0.553198
O O11 0.344769 0.228979 0.528167
O O12 0.655989 0.337105 0.765296
O O13 0.277215 0.981586 0.185085
O O14 0.850697 0.456812 0.999391
#
# Coordination Sequence:
#
# PCOD9138543 Si02
#       7
#     4   4   4   4   4   4   4
#     4  10  23  44  70  99 149 186 246 298 375 443
#     4  11  25  47  73 107 148 199 250 308 378 454
#     4  10  23  46  70 110 142 194 248 309 368 455
#     4  12  26  46  73 110 151 190 255 312 368 452
#     4  11  25  47  75 103 152 198 250 307 374 456
#     4  11  25  45  71 108 143 195 244 305 378 442
#     4  11  23  45  72 101 147 190 247 301 375 438
#
# _framework density 28.234231000000001
#
# number of rings (size 3 to 8) (size 9 to 14) (size 15 to 20)
#    0.000    1.143    2.857    2.571    6.000    0.000 
#    2.571    0.000    0.000    0.000    0.000    0.000 
#    0.000    0.000    0.000    0.000    0.000    0.000 
#
# Total GULP energy -78190.320068 kJ/mol
# GULP energy per Si atom -5585.022862 kJ/mol
# Density = 2.816997 g / cm^3
# Si number density = 28.234231 Si / 1000 Ang^3
#
#
#
# Elastic Constant Matrix: (Units=GPa)
#
#
# Indices 1 2 3 4 5 6 
#
# 1 96.5518 -3.9742 7.9309 0.0000 -21.6296 0.0000
# 2 -3.9742 83.1802 8.5064 0.0000 -17.2800 0.0000
# 3 7.9309 8.5064 127.6595 0.0000 -7.1919 0.0000
# 4 0.0000 0.0000 0.0000 68.1456 0.0000 -13.6331
# 5 -21.6296 -17.2800 -7.1919 0.0000 53.7099 0.0000
# 6 0.0000 0.0000 0.0000 -13.6331 0.0000 34.8458
#
#
#
# Elastic Compliance Matrix: (Units=1/GPa)
#
#
# Indices 1 2 3 4 5 6 
#
# 1 0.011625 0.001681 -0.000544 0.000000 0.005149 0.000000
# 2 0.001681 0.013177 -0.000711 0.000000 0.004821 0.000000
# 3 -0.000544 -0.000711 0.007949 0.000000 0.000617 0.000000
# 4 0.000000 0.000000 0.000000 0.015921 0.000000 0.006229
# 5 0.005149 0.004821 0.000617 0.000000 0.022326 0.000000
# 6 0.000000 0.000000 0.000000 0.006229 0.000000 0.031135
#
#
# Mechanical properties :
#
#
# Convention : Reuss Voigt Hill
#
# Bulk Modulus (GPa) = 29.76006 36.92417 33.34212
# Shear Modulus (GPa) = 44.45213 51.00217 47.72715
#
# Velocity S-wave (km/s) = 3.97218 4.25478 4.11591
# Velocity P-wave (km/s) = 5.62147 6.10277 5.86706
#
# Compressibility (1/GPa) = 0.03360208
#
# Stress axis : x y z
#
# Youngs Moduli (GPa) = 86.02485 75.89210 125.79814
#
# Poissons Ratio (x) = -0.12756 0.06845
# Poissons Ratio (y) = -0.14459 0.08942
# Poissons Ratio (z) = 0.04681 0.05395
#
# Static dielectric constant tensor:
#      x y z
#    x 2.351520 0.000000 0.064470 
#    y 0.000000 2.325320 0.000000 
#    z 0.064470 0.000000 2.246870 
# 
# From -- ./inp_files/14793.got.cif
#   From: 2010.05.17/outbox.cif.g08.bks.cpg/sg9_8_cif.got.tgz:14793.got - 2010.06.03 20:04:27.
