data_PCOD9138733
_publ_section_title
;
Structure prediction by ZEFSAII (Michael W. Deem and Ramdas Pophale) SiO2 
 PCOD9138733
Probable space group: C C
;
_chemical_formula_sum "Si O2"
_cell_formula_units_Z 32
_cell_length_a 13.945748
_cell_length_b 26.288743
_cell_length_c 11.953102
_cell_angle_alpha 90.000000
_cell_angle_beta 159.748629
_cell_angle_gamma 90.000000
_cell_volume 1516.852772
_symmetry_space_group_name_H-M "C C"
_symmetry_group_IT_number 9
_symmetry_cell_setting 'monoclinic'
loop_
_space_group_symop_operation_xyz
x,y,z
x,-y,1/2+z
1/2+x,1/2+y,z
1/2+x,1/2-y,1/2+z
loop_
_atom_site_type_symbol
_atom_site_label
_atom_site_fract_x
_atom_site_fract_y
_atom_site_fract_z
Si Si1 0.379860 0.624601 0.603130
Si Si2 0.254809 0.714060 0.300325
Si Si3 0.443330 0.897515 0.817541
Si Si4 0.366497 0.524248 0.455094
Si Si5 0.164906 0.069687 0.392262
Si Si6 0.618165 0.126714 0.754403
Si Si7 0.007761 0.284157 0.298575
Si Si8 0.288598 0.009812 0.732385
O O1 0.269463 0.672782 0.413815
O O2 0.438673 0.579670 0.578862
O O3 0.157162 0.604994 0.449464
O O4 0.668324 0.633494 0.983251
O O5 0.554528 0.738636 0.608837
O O6 0.135177 0.692146 0.052130
O O7 0.537621 0.981621 0.591472
O O8 0.586368 0.875671 0.086129
O O9 0.504929 0.481519 0.682907
O O10 0.495742 0.512614 0.474805
O O11 0.845848 0.455284 0.738047
O O12 0.402057 0.085310 0.565831
O O13 0.298373 0.056172 0.656263
O O14 0.928050 0.112267 0.130313
O O15 0.531788 0.178423 0.720784
O O16 0.199270 0.234998 0.484566
#
# Coordination Sequence:
#
# PCOD9138733 Si02
#       8
#     4   4   4   4   4   4   4   4
#     4  12  26  42  69  98 131 179 222 270 331 397
#     4  10  23  46  70  95 129 165 216 284 344 389
#     4  12  24  43  65  95 140 178 217 265 330 391
#     4  12  24  42  61  95 135 175 222 262 321 389
#     4  12  24  39  64  96 134 177 218 268 323 396
#     4  12  25  44  66  99 131 177 224 264 336 397
#     4  10  23  46  71  95 127 166 215 285 341 389
#     4  12  25  40  62  93 137 175 220 272 318 376
#
# _framework density 21.096312000000001
#
# number of rings (size 3 to 8) (size 9 to 14) (size 15 to 20)
#    0.000    0.500    3.750    4.500    5.250    0.000 
#    0.000    3.750    0.000    0.000    0.000    0.000 
#    0.000    0.000    0.000    0.000    0.000    0.000 
#
# Total GULP energy -89522.669987 kJ/mol
# GULP energy per Si atom -5595.166874 kJ/mol
# Density = 2.104830 g / cm^3
# Si number density = 21.096312 Si / 1000 Ang^3
#
#
#
# Elastic Constant Matrix: (Units=GPa)
#
#
# Indices 1 2 3 4 5 6 
#
# 1 94.9035 26.3766 12.3816 0.0045 1.6781 0.0039
# 2 26.3766 52.9624 14.8953 0.0012 -20.6437 0.0011
# 3 12.3816 14.8953 65.4059 -0.0068 -0.0225 -0.0043
# 4 0.0045 0.0012 -0.0068 21.2807 -0.0028 -7.7975
# 5 1.6781 -20.6437 -0.0225 -0.0028 34.8860 -0.0012
# 6 0.0039 0.0011 -0.0043 -7.7975 -0.0012 28.4718
#
#
#
# Elastic Compliance Matrix: (Units=1/GPa)
#
#
# Indices 1 2 3 4 5 6 
#
# 1 0.013099 -0.008608 -0.000521 -0.000004 -0.005724 -0.000003
# 2 -0.008608 0.032423 -0.005748 0.000001 0.019597 0.000000
# 3 -0.000521 -0.005748 0.016696 0.000007 -0.003365 0.000005
# 4 -0.000004 0.000001 0.000007 0.052232 0.000005 0.014305
# 5 -0.005724 0.019597 -0.003365 0.000005 0.040534 0.000003
# 6 -0.000003 0.000000 0.000005 0.014305 0.000003 0.039040
#
#
# Mechanical properties :
#
#
# Convention : Reuss Voigt Hill
#
# Bulk Modulus (GPa) = 30.80372 35.61985 33.21178
# Shear Modulus (GPa) = 21.31293 27.56892 24.44093
#
# Velocity S-wave (km/s) = 3.18192 3.61891 3.40743
# Velocity P-wave (km/s) = 5.30402 5.86371 5.59087
#
# Compressibility (1/GPa) = 0.03246362
#
# Stress axis : x y z
#
# Youngs Moduli (GPa) = 76.34354 30.84210 59.89598
#
# Poissons Ratio (x) = 0.26549 0.03122
# Poissons Ratio (y) = 0.65717 0.34426
# Poissons Ratio (z) = 0.03979 0.17727
#
# Static dielectric constant tensor:
#      x y z
#    x 1.745800 0.000000 -0.016580 
#    y 0.000000 1.738660 0.000000 
#    z -0.016580 0.000000 1.742790 
# 
# From -- ./inp_files/18691.got.cif
#   From: 2010.05.17/outbox.cif.g08.bks.cpg/sg9_10_cif.got.tgz:18691.got - 2010.06.03 20:04:27.
