data_PCOD9138263
_publ_section_title
;
Structure prediction by ZEFSAII (Michael W. Deem and Ramdas Pophale) SiO2 
 PCOD9138263
Probable space group: C C
;
_chemical_formula_sum "Si O2"
_cell_formula_units_Z 32
_cell_length_a 18.257597
_cell_length_b 9.513920
_cell_length_c 16.504340
_cell_angle_alpha 90.000000
_cell_angle_beta 153.472211
_cell_angle_gamma 90.000000
_cell_volume 1280.415513
_symmetry_space_group_name_H-M "C C"
_symmetry_group_IT_number 9
_symmetry_cell_setting 'monoclinic'
loop_
_space_group_symop_operation_xyz
x,y,z
x,-y,1/2+z
1/2+x,1/2+y,z
1/2+x,1/2-y,1/2+z
loop_
_atom_site_type_symbol
_atom_site_label
_atom_site_fract_x
_atom_site_fract_y
_atom_site_fract_z
Si Si1 0.605870 0.331610 0.384330
Si Si2 0.791066 0.919788 0.996288
Si Si3 0.394970 0.266980 0.848625
Si Si4 0.326338 0.911689 0.123496
Si Si5 0.210634 0.713358 0.741398
Si Si6 0.520336 0.425228 0.469143
Si Si7 0.638948 0.197477 0.854384
Si Si8 0.605149 0.920298 0.639479
O O1 0.677385 0.178873 0.439035
O O2 0.765540 0.429952 0.555738
O O3 0.500136 0.360456 0.360131
O O4 0.480121 0.373548 0.188067
O O5 0.705186 0.917170 0.822828
O O6 0.773896 0.079450 0.008924
O O7 0.389721 0.156539 0.769535
O O8 0.508903 0.406924 0.955332
O O9 0.219822 0.341511 0.687676
O O10 0.442758 0.172930 0.974176
O O11 0.465154 0.876225 0.194797
O O12 0.164279 0.825486 0.938864
O O13 0.382282 0.638458 0.891812
O O14 0.184662 0.853583 0.664925
O O15 0.176217 0.744999 0.800612
O O16 0.086461 0.583744 0.598225
#
# Coordination Sequence:
#
# PCOD9138263 Si02
#       8
#     4   4   4   4   4   4   4   4
#     4  12  25  42  68  99 134 176 224 278 339 404
#     4  11  24  43  65  97 134 176 225 277 334 398
#     4  11  23  41  64  93 128 171 217 270 330 390
#     4  12  25  42  68  98 133 177 222 278 339 402
#     4  10  24  41  63  92 126 170 216 271 325 386
#     4  11  23  42  65  95 131 170 220 271 327 394
#     4  11  23  43  65  95 134 174 226 276 332 397
#     4  10  23  42  64  91 130 170 218 271 324 391
#
# _framework density 24.991886999999998
#
# number of rings (size 3 to 8) (size 9 to 14) (size 15 to 20)
#    0.000    1.000    0.000    6.750    0.000   10.000 
#    0.000    0.000    0.000    0.000    0.000    0.000 
#    0.000    0.000    0.000    0.000    0.000    0.000 
#
# Total GULP energy -89502.718332 kJ/mol
# GULP energy per Si atom -5593.919896 kJ/mol
# Density = 2.493500 g / cm^3
# Si number density = 24.991887 Si / 1000 Ang^3
#
#
#
# Elastic Constant Matrix: (Units=GPa)
#
#
# Indices 1 2 3 4 5 6 
#
# 1 74.8313 -1.2629 11.4311 0.0000 -8.9012 0.0000
# 2 -1.2629 100.8050 27.0373 0.0000 -21.2586 0.0000
# 3 11.4311 27.0373 89.1986 0.0000 -6.4220 0.0000
# 4 0.0000 0.0000 0.0000 45.6577 0.0000 2.1987
# 5 -8.9012 -21.2586 -6.4220 0.0000 25.7879 0.0000
# 6 0.0000 0.0000 0.0000 2.1987 0.0000 33.0082
#
#
#
# Elastic Compliance Matrix: (Units=1/GPa)
#
#
# Indices 1 2 3 4 5 6 
#
# 1 0.014437 0.002018 -0.002020 0.000000 0.006144 0.000000
# 2 0.002018 0.013122 -0.003469 0.000000 0.010650 0.000000
# 3 -0.002020 -0.003469 0.012489 0.000000 -0.000447 0.000000
# 4 0.000000 0.000000 0.000000 0.021973 0.000000 -0.001464
# 5 0.006144 0.010650 -0.000447 0.000000 0.049567 0.000000
# 6 0.000000 0.000000 0.000000 -0.001464 0.000000 0.030393
#
#
# Mechanical properties :
#
#
# Convention : Reuss Voigt Hill
#
# Bulk Modulus (GPa) = 30.20548 37.69402 33.94975
# Shear Modulus (GPa) = 31.25843 36.06605 33.66224
#
# Velocity S-wave (km/s) = 3.54042 3.80295 3.67403
# Velocity P-wave (km/s) = 5.36890 5.86502 5.62244
#
# Compressibility (1/GPa) = 0.03310658
#
# Stress axis : x y z
#
# Youngs Moduli (GPa) = 69.26754 76.20862 80.06939
#
# Poissons Ratio (x) = -0.15381 0.16170
# Poissons Ratio (y) = -0.13980 0.27779
# Poissons Ratio (z) = 0.13989 0.26439
#
# Static dielectric constant tensor:
#      x y z
#    x 1.976980 0.000000 0.009780 
#    y 0.000000 1.941120 0.000000 
#    z 0.009780 0.000000 2.030620 
# 
# From -- ./inp_files/34507.got.cif
#   From: 2010.05.17/outbox.cif.g08.bks.cpg/sg9_18_cif.got.tgz:34507.got - 2010.06.03 20:04:27.
