data_PCOD9138412
_publ_section_title
;
Structure prediction by ZEFSAII (Michael W. Deem and Ramdas Pophale) SiO2 
 PCOD9138412
Probable space group: C C
;
_chemical_formula_sum "Si O2"
_cell_formula_units_Z 28
_cell_length_a 8.373725
_cell_length_b 27.034189
_cell_length_c 5.154738
_cell_angle_alpha 90.000000
_cell_angle_beta 81.550256
_cell_angle_gamma 90.000000
_cell_volume 1154.246733
_symmetry_space_group_name_H-M "C C"
_symmetry_group_IT_number 9
_symmetry_cell_setting 'monoclinic'
loop_
_space_group_symop_operation_xyz
x,y,z
x,-y,1/2+z
1/2+x,1/2+y,z
1/2+x,1/2-y,1/2+z
loop_
_atom_site_type_symbol
_atom_site_label
_atom_site_fract_x
_atom_site_fract_y
_atom_site_fract_z
Si Si1 0.665800 0.742728 0.506280
Si Si2 0.566517 0.535400 0.770014
Si Si3 0.355492 0.892095 0.087652
Si Si4 0.488289 0.846203 0.562011
Si Si5 0.006930 0.795347 0.528409
Si Si6 0.154720 0.534437 0.489789
Si Si7 0.326111 0.396998 0.608116
O O1 0.553349 0.791090 0.576234
O O2 0.623542 0.725264 0.225829
O O3 0.847330 0.760995 0.522989
O O4 0.603001 0.704051 0.734673
O O5 0.582860 0.502283 0.508696
O O6 0.697864 0.578575 0.708065
O O7 0.407715 0.565668 0.889048
O O8 0.414088 0.856162 0.300969
O O9 0.363890 0.862909 0.814547
O O10 0.490316 0.934820 0.030220
O O11 0.650635 0.879358 0.552057
O O12 0.936622 0.848929 0.617563
O O13 0.158889 0.502910 0.747428
O O14 0.294012 0.573722 0.382609
#
# Coordination Sequence:
#
# PCOD9138412 Si02
#       7
#     4   4   4   4   4   4   4
#     4  11  24  44  69 102 135 174 219 275 333 398
#     4  12  26  43  62  93 133 168 210 269 329 381
#     4  11  22  40  66  95 128 168 215 266 319 384
#     4  10  23  43  68  94 126 169 220 264 315 392
#     4  11  25  44  70 100 136 173 222 274 333 400
#     4  11  21  37  62  89 121 167 217 260 312 382
#     4  10  25  43  65  95 129 169 217 270 325 387
#
# _framework density 24.258244999999999
#
# number of rings (size 3 to 8) (size 9 to 14) (size 15 to 20)
#    0.000    1.143    0.000    6.000    0.000   13.714 
#    0.000    0.000    0.000    0.000    0.000    0.000 
#    0.000    0.000    0.000    0.000    0.000    0.000 
#
# Total GULP energy -78484.238795 kJ/mol
# GULP energy per Si atom -5606.017057 kJ/mol
# Density = 2.420303 g / cm^3
# Si number density = 24.258245 Si / 1000 Ang^3
#
#
#
# Elastic Constant Matrix: (Units=GPa)
#
#
# Indices 1 2 3 4 5 6 
#
# 1 80.5189 29.4242 46.0982 0.0000 -4.9722 0.0000
# 2 29.4242 73.7612 25.9618 0.0000 8.3167 0.0000
# 3 46.0982 25.9618 139.4095 0.0000 -0.5186 0.0000
# 4 0.0000 0.0000 0.0000 82.4378 0.0000 9.6967
# 5 -4.9722 8.3167 -0.5186 0.0000 36.6072 0.0000
# 6 0.0000 0.0000 0.0000 9.6967 0.0000 49.2404
#
#
#
# Elastic Compliance Matrix: (Units=1/GPa)
#
#
# Indices 1 2 3 4 5 6 
#
# 1 0.017404 -0.005700 -0.004680 0.000000 0.003593 0.000000
# 2 -0.005700 0.016794 -0.001260 0.000000 -0.004608 0.000000
# 3 -0.004680 -0.001260 0.008954 0.000000 -0.000223 0.000000
# 4 0.000000 0.000000 0.000000 0.012418 0.000000 -0.002445
# 5 0.003593 -0.004608 -0.000223 0.000000 0.028849 0.000000
# 6 0.000000 0.000000 0.000000 -0.002445 0.000000 0.020790
#
#
# Mechanical properties :
#
#
# Convention : Reuss Voigt Hill
#
# Bulk Modulus (GPa) = 50.32178 55.18424 52.75301
# Shear Modulus (GPa) = 37.00600 46.47075 41.73838
#
# Velocity S-wave (km/s) = 3.91000 4.38158 4.15249
# Velocity P-wave (km/s) = 6.41665 6.95670 6.69213
#
# Compressibility (1/GPa) = 0.01987211
#
# Stress axis : x y z
#
# Youngs Moduli (GPa) = 57.45885 59.54460 111.67726
#
# Poissons Ratio (x) = 0.33943 0.52264
# Poissons Ratio (y) = 0.32754 0.14068
# Poissons Ratio (z) = 0.26890 0.07501
#
# Static dielectric constant tensor:
#      x y z
#    x 1.956470 0.000000 0.005490 
#    y 0.000000 1.789530 0.000000 
#    z 0.005490 0.000000 1.875260 
# 
# From -- ./inp_files/1220.got.cif
#   From: 2010.05.17/outbox.cif.g08.bks.cpg/sg9_1_cif.got.tgz:1220.got - 2010.06.03 20:04:27.
