data_PCOD9138348
_publ_section_title
;
Structure prediction by ZEFSAII (Michael W. Deem and Ramdas Pophale) SiO2 
 PCOD9138348
Probable space group: C C
;
_chemical_formula_sum "Si O2"
_cell_formula_units_Z 32
_cell_length_a 15.469855
_cell_length_b 12.471545
_cell_length_c 6.856490
_cell_angle_alpha 90.000000
_cell_angle_beta 98.004910
_cell_angle_gamma 90.000000
_cell_volume 1309.953535
_symmetry_space_group_name_H-M "C C"
_symmetry_group_IT_number 9
_symmetry_cell_setting 'monoclinic'
loop_
_space_group_symop_operation_xyz
x,y,z
x,-y,1/2+z
1/2+x,1/2+y,z
1/2+x,1/2-y,1/2+z
loop_
_atom_site_type_symbol
_atom_site_label
_atom_site_fract_x
_atom_site_fract_y
_atom_site_fract_z
Si Si1 0.130230 0.357495 0.875000
Si Si2 0.535336 0.734656 0.169774
Si Si3 0.102990 0.024643 0.358176
Si Si4 0.239369 0.002411 0.149613
Si Si5 0.835014 0.862929 0.002408
Si Si6 0.355274 0.869053 0.438627
Si Si7 0.922037 0.915229 0.401293
Si Si8 0.540910 0.920525 0.467290
O O1 0.234197 0.359615 0.913391
O O2 0.092046 0.352908 0.646148
O O3 0.093000 0.471431 0.939989
O O4 0.094642 0.261626 0.998507
O O5 0.578845 0.649019 0.327426
O O6 0.528622 0.847546 0.273725
O O7 0.450316 0.672755 0.067090
O O8 0.215563 0.024095 0.392245
O O9 0.127875 0.003788 0.614809
O O10 0.013925 0.952945 0.333559
O O11 0.304232 0.905376 0.228379
O O12 0.291449 0.109800 0.102962
O O13 0.879013 0.755297 0.936869
O O14 0.878235 0.974802 0.956296
O O15 0.852996 0.861184 0.237286
O O16 0.441530 0.938930 0.502739
#
# Coordination Sequence:
#
# PCOD9138348 Si02
#       8
#     4   4   4   4   4   4   4   4
#     4  12  27  50  78 109 158 199 259 317 384 471
#     4  12  26  46  79 107 143 213 245 313 392 449
#     4  11  21  44  71 108 144 194 245 309 385 449
#     4  10  23  42  72 106 149 183 252 317 369 463
#     4  12  27  48  72 112 149 197 252 325 374 443
#     4  11  25  46  71 110 145 194 249 317 384 445
#     4  12  25  48  76 107 154 194 261 312 382 467
#     4  12  26  50  75 109 152 206 253 312 394 463
#
# _framework density 24.428349000000001
#
# number of rings (size 3 to 8) (size 9 to 14) (size 15 to 20)
#    0.000    0.500    3.750    3.750    3.500    0.000 
#    4.500    0.000    0.000    0.000    0.000    0.000 
#    0.000    0.000    0.000    0.000    0.000    0.000 
#
# Total GULP energy -89401.223502 kJ/mol
# GULP energy per Si atom -5587.576469 kJ/mol
# Density = 2.437275 g / cm^3
# Si number density = 24.428349 Si / 1000 Ang^3
#
#
#
# Elastic Constant Matrix: (Units=GPa)
#
#
# Indices 1 2 3 4 5 6 
#
# 1 67.8933 -5.3815 25.5756 0.0000 -1.3809 0.0000
# 2 -5.3815 94.1943 22.2864 0.0000 -5.7914 0.0000
# 3 25.5756 22.2864 140.6388 0.0000 14.2914 0.0000
# 4 0.0000 0.0000 0.0000 49.4843 0.0000 -4.3376
# 5 -1.3809 -5.7914 14.2914 0.0000 48.0189 0.0000
# 6 0.0000 0.0000 0.0000 -4.3376 0.0000 25.7993
#
#
#
# Elastic Compliance Matrix: (Units=1/GPa)
#
#
# Indices 1 2 3 4 5 6 
#
# 1 0.016193 0.001836 -0.003409 0.000000 0.001702 0.000000
# 2 0.001836 0.011410 -0.002359 0.000000 0.002131 0.000000
# 3 -0.003409 -0.002359 0.008397 0.000000 -0.002882 0.000000
# 4 0.000000 0.000000 0.000000 0.020511 0.000000 0.003448
# 5 0.001702 0.002131 -0.002882 0.000000 0.021989 0.000000
# 6 0.000000 0.000000 0.000000 0.003448 0.000000 0.039341
#
#
# Mechanical properties :
#
#
# Convention : Reuss Voigt Hill
#
# Bulk Modulus (GPa) = 35.53866 43.07635 39.30750
# Shear Modulus (GPa) = 37.01458 42.01022 39.51240
#
# Velocity S-wave (km/s) = 3.89682 4.15146 4.02616
# Velocity P-wave (km/s) = 5.90141 6.37586 6.14322
#
# Compressibility (1/GPa) = 0.02813837
#
# Stress axis : x y z
#
# Youngs Moduli (GPa) = 61.75425 87.63985 119.09205
#
# Poissons Ratio (x) = -0.16093 0.40595
# Poissons Ratio (y) = -0.11340 0.28089
# Poissons Ratio (z) = 0.21050 0.20671
#
# Static dielectric constant tensor:
#      x y z
#    x 1.986780 0.000000 -0.123660 
#    y 0.000000 1.828520 0.000000 
#    z -0.123660 0.000000 2.159250 
# 
# From -- ./inp_files/9178.got.cif
#   From: 2010.05.17/outbox.cif.g08.bks.cpg/sg9_5_cif.got.tgz:9178.got - 2010.06.03 20:04:27.
