data_PCOD9138644
_publ_section_title
;
Structure prediction by ZEFSAII (Michael W. Deem and Ramdas Pophale) SiO2 
 PCOD9138644
Probable space group: C C
;
_chemical_formula_sum "Si O2"
_cell_formula_units_Z 28
_cell_length_a 8.718092
_cell_length_b 17.475987
_cell_length_c 10.777265
_cell_angle_alpha 90.000000
_cell_angle_beta 137.897602
_cell_angle_gamma 90.000000
_cell_volume 1100.887872
_symmetry_space_group_name_H-M "C C"
_symmetry_group_IT_number 9
_symmetry_cell_setting 'monoclinic'
loop_
_space_group_symop_operation_xyz
x,y,z
x,-y,1/2+z
1/2+x,1/2+y,z
1/2+x,1/2-y,1/2+z
loop_
_atom_site_type_symbol
_atom_site_label
_atom_site_fract_x
_atom_site_fract_y
_atom_site_fract_z
Si Si1 0.667020 0.821891 0.913610
Si Si2 0.016113 0.684147 0.609172
Si Si3 0.534914 0.647012 0.226911
Si Si4 0.052741 0.535840 0.756796
Si Si5 0.631479 0.650545 0.790405
Si Si6 0.209080 0.079076 0.085903
Si Si7 0.114371 0.434938 0.557206
O O1 0.620702 0.810971 0.033873
O O2 0.665543 0.740669 0.841692
O O3 0.448255 0.870836 0.735315
O O4 0.923409 0.856040 0.068567
O O5 0.764430 0.650507 0.442473
O O6 0.011868 0.768743 0.657338
O O7 0.114661 0.623691 0.766388
O O8 0.588843 0.590251 0.144702
O O9 0.316791 0.625362 0.175090
O O10 0.789577 0.506815 0.608158
O O11 0.136169 0.488966 0.688158
O O12 0.139720 0.516538 0.946313
O O13 0.869867 0.608354 0.900706
O O14 0.571264 0.611831 0.887016
#
# Coordination Sequence:
#
# PCOD9138644 Si02
#       7
#     4   4   4   4   4   4   4
#     4  11  20  41  72 106 137 198 241 305 366 440
#     4  11  23  43  74 108 146 189 249 306 369 437
#     4  11  23  44  76 107 142 196 250 305 361 442
#     4  11  26  53  68 109 157 188 247 303 380 445
#     4  11  22  40  71 104 143 189 251 300 361 439
#     4  10  23  45  71 103 146 191 249 295 372 447
#     4  11  27  48  72 109 149 197 243 306 373 444
#
# _framework density 25.434017000000001
#
# number of rings (size 3 to 8) (size 9 to 14) (size 15 to 20)
#    0.000    1.143    2.857    3.429    2.000    3.429 
#   18.000    0.000    0.000    0.000    0.000    0.000 
#    0.000    0.000    0.000    0.000    0.000    0.000 
#
# Total GULP energy -78406.088183 kJ/mol
# GULP energy per Si atom -5600.434870 kJ/mol
# Density = 2.537613 g / cm^3
# Si number density = 25.434017 Si / 1000 Ang^3
#
#
#
# Elastic Constant Matrix: (Units=GPa)
#
#
# Indices 1 2 3 4 5 6 
#
# 1 104.0894 55.5882 38.2592 0.0000 2.4625 0.0000
# 2 55.5882 102.3086 -0.3718 0.0000 -5.4772 0.0000
# 3 38.2592 -0.3718 102.3615 0.0000 6.7670 0.0000
# 4 0.0000 0.0000 0.0000 31.6106 0.0000 -7.6529
# 5 2.4625 -5.4772 6.7670 0.0000 53.8082 0.0000
# 6 0.0000 0.0000 0.0000 -7.6529 0.0000 29.9844
#
#
#
# Elastic Compliance Matrix: (Units=1/GPa)
#
#
# Indices 1 2 3 4 5 6 
#
# 1 0.016870 -0.009239 -0.006278 0.000000 -0.000923 0.000000
# 2 -0.009239 0.014887 0.003407 0.000000 0.001510 0.000000
# 3 -0.006278 0.003407 0.012188 0.000000 -0.000899 0.000000
# 4 0.000000 0.000000 0.000000 0.033718 0.000000 0.008606
# 5 -0.000923 0.001510 -0.000899 0.000000 0.018893 0.000000
# 6 0.000000 0.000000 0.000000 0.008606 0.000000 0.035547
#
#
# Mechanical properties :
#
#
# Convention : Reuss Voigt Hill
#
# Bulk Modulus (GPa) = 50.69313 55.07896 52.88605
# Shear Modulus (GPa) = 30.69400 37.43290 34.06345
#
# Velocity S-wave (km/s) = 3.47768 3.84052 3.66360
# Velocity P-wave (km/s) = 6.00835 6.43186 6.22370
#
# Compressibility (1/GPa) = 0.01972654
#
# Stress axis : x y z
#
# Youngs Moduli (GPa) = 59.27572 67.17178 82.05052
#
# Poissons Ratio (x) = 0.62057 0.51512
# Poissons Ratio (y) = 0.54762 -0.27957
# Poissons Ratio (z) = 0.37214 -0.22888
#
# Static dielectric constant tensor:
#      x y z
#    x 2.004940 0.000000 0.031140 
#    y 0.000000 1.949960 0.000000 
#    z 0.031140 0.000000 2.028890 
# 
# From -- ./inp_files/15506.got.cif
#   From: 2010.05.17/outbox.cif.g08.bks.cpg/sg9_8_cif.got.tgz:15506.got - 2010.06.03 20:04:27.
