data_PCOD9138696
_publ_section_title
;
Structure prediction by ZEFSAII (Michael W. Deem and Ramdas Pophale) SiO2 
 PCOD9138696
Probable space group: C C
;
_chemical_formula_sum "Si O2"
_cell_formula_units_Z 24
_cell_length_a 9.457329
_cell_length_b 11.292972
_cell_length_c 15.996182
_cell_angle_alpha 90.000000
_cell_angle_beta 36.791164
_cell_angle_gamma 90.000000
_cell_volume 1023.169238
_symmetry_space_group_name_H-M "C C"
_symmetry_group_IT_number 9
_symmetry_cell_setting 'monoclinic'
loop_
_space_group_symop_operation_xyz
x,y,z
x,-y,1/2+z
1/2+x,1/2+y,z
1/2+x,1/2-y,1/2+z
loop_
_atom_site_type_symbol
_atom_site_label
_atom_site_fract_x
_atom_site_fract_y
_atom_site_fract_z
Si Si1 0.477090 0.921477 0.352600
Si Si2 0.831749 0.355402 0.821226
Si Si3 0.618982 0.678999 0.257244
Si Si4 0.024188 0.500951 0.513416
Si Si5 0.628141 0.246546 0.465682
Si Si6 0.278724 0.676596 0.997269
O O1 0.664001 0.821563 0.234993
O O2 0.556729 0.986826 0.398568
O O3 0.237981 0.841367 0.477619
O O4 0.411392 0.015552 0.313506
O O5 0.616609 0.350102 0.857784
O O6 0.784732 0.277074 0.924236
O O7 0.054945 0.305341 0.663982
O O8 0.368435 0.674827 0.329593
O O9 0.809719 0.589346 0.132653
O O10 0.967041 0.635414 0.567337
O O11 0.234372 0.445389 0.469057
O O12 0.506536 0.313527 0.447469
#
# Coordination Sequence:
#
# PCOD9138696 Si02
#       6
#     4   4   4   4   4   4
#     4  10  23  46  66 100 142 186 239 289 365 423
#     4  11  23  48  71 105 148 193 241 299 361 432
#     4   9  24  44  68 100 145 184 239 293 366 424
#     4  11  22  45  69 100 142 188 236 303 351 429
#     4  10  24  43  69 107 135 191 242 292 363 428
#     4  11  24  44  73 108 140 188 247 294 362 424
#
# _framework density 23.456529
#
# number of rings (size 3 to 8) (size 9 to 14) (size 15 to 20)
#    1.000    0.667    3.333    0.000    2.333    5.333 
#    9.000    0.000    0.000    0.000    0.000    0.000 
#    0.000    0.000    0.000    0.000    0.000    0.000 
#
# Total GULP energy -66914.646262 kJ/mol
# GULP energy per Si atom -5576.220522 kJ/mol
# Density = 2.340314 g / cm^3
# Si number density = 23.456529 Si / 1000 Ang^3
#
#
#
# Elastic Constant Matrix: (Units=GPa)
#
#
# Indices 1 2 3 4 5 6 
#
# 1 180.0067 52.9564 21.4445 -0.0001 -14.3786 0.0001
# 2 52.9564 109.3501 25.2252 -0.0001 17.3693 0.0000
# 3 21.4445 25.2252 58.9126 -0.0004 6.6359 0.0005
# 4 -0.0001 -0.0001 -0.0004 18.0127 0.0002 -5.8705
# 5 -14.3786 17.3693 6.6359 0.0002 15.7597 -0.0002
# 6 0.0001 0.0000 0.0005 -5.8705 -0.0002 48.8887
#
#
#
# Elastic Compliance Matrix: (Units=1/GPa)
#
#
# Indices 1 2 3 4 5 6 
#
# 1 0.009028 -0.006414 -0.002377 0.000000 0.016307 0.000000
# 2 -0.006414 0.016393 -0.002089 0.000000 -0.023039 0.000000
# 3 -0.002377 -0.002089 0.019651 0.000000 -0.008140 0.000000
# 4 0.000000 0.000000 0.000000 0.057778 -0.000001 0.006938
# 5 0.016307 -0.023039 -0.008140 -0.000001 0.107151 0.000000
# 6 0.000000 0.000000 0.000000 0.006938 0.000000 0.021288
#
#
# Mechanical properties :
#
#
# Convention : Reuss Voigt Hill
#
# Bulk Modulus (GPa) = 42.89664 60.83573 51.86618
# Shear Modulus (GPa) = 19.17047 33.10843 26.13945
#
# Velocity S-wave (km/s) = 2.86191 3.76104 3.34185
# Velocity P-wave (km/s) = 5.40815 6.69719 6.08689
#
# Compressibility (1/GPa) = 0.02331185
#
# Stress axis : x y z
#
# Youngs Moduli (GPa) = 110.76668 61.00297 50.88834
#
# Poissons Ratio (x) = 0.39127 0.12094
# Poissons Ratio (y) = 0.71046 0.10631
# Poissons Ratio (z) = 0.26326 0.12744
#
# Static dielectric constant tensor:
#      x y z
#    x 1.896150 0.000000 -0.065190 
#    y 0.000000 1.971100 0.000000 
#    z -0.065190 0.000000 1.943070 
# 
# From -- ./inp_files/14167.got.cif
#   From: 2010.05.17/outbox.cif.g08.bks.cpg/sg9_8_cif.got.tgz:14167.got - 2010.06.03 20:04:27.
