data_PCOD9138381
_publ_section_title
;
Structure prediction by ZEFSAII (Michael W. Deem and Ramdas Pophale) SiO2 
 PCOD9138381
Probable space group: C C
;
_chemical_formula_sum "Si O2"
_cell_formula_units_Z 32
_cell_length_a 9.586033
_cell_length_b 20.513593
_cell_length_c 15.340281
_cell_angle_alpha 90.000000
_cell_angle_beta 29.812289
_cell_angle_gamma 90.000000
_cell_volume 1499.720095
_symmetry_space_group_name_H-M "C C"
_symmetry_group_IT_number 9
_symmetry_cell_setting 'monoclinic'
loop_
_space_group_symop_operation_xyz
x,y,z
x,-y,1/2+z
1/2+x,1/2+y,z
1/2+x,1/2-y,1/2+z
loop_
_atom_site_type_symbol
_atom_site_label
_atom_site_fract_x
_atom_site_fract_y
_atom_site_fract_z
Si Si1 0.646010 0.718494 0.289530
Si Si2 0.720947 0.138698 0.802302
Si Si3 0.848092 0.420741 0.365702
Si Si4 0.342172 0.846157 0.942323
Si Si5 0.197465 0.368492 0.505025
Si Si6 0.716884 0.952733 0.667820
Si Si7 0.554452 0.796579 0.161472
Si Si8 0.183551 0.771391 0.206346
O O1 0.686197 0.782899 0.327861
O O2 0.584030 0.748479 0.227619
O O3 0.368681 0.681749 0.469275
O O4 0.912639 0.672680 0.150397
O O5 0.448869 0.112387 0.901028
O O6 0.022787 0.134978 0.589992
O O7 0.745227 0.103492 0.881764
O O8 0.537667 0.449850 0.526272
O O9 0.078779 0.477060 0.230012
O O10 0.881394 0.360692 0.280813
O O11 0.303413 0.807546 0.055482
O O12 0.528235 0.910928 0.838098
O O13 0.513751 0.795999 0.787686
O O14 0.196045 0.417636 0.585211
O O15 0.455447 0.318941 0.373295
O O16 0.424178 0.761684 0.147794
#
# Coordination Sequence:
#
# PCOD9138381 Si02
#       8
#     4   4   4   4   4   4   4   4
#     4  11  22  37  66 101 140 174 212 270 347 394
#     4  10  23  43  66 103 141 177 221 276 338 414
#     4  11  27  48  70  95 133 183 236 272 348 398
#     4  11  24  38  71  97 143 178 221 278 337 406
#     4  11  23  42  69 103 134 178 226 278 342 403
#     4  12  27  48  71  95 134 186 232 287 333 410
#     4  11  24  41  66 101 142 171 220 281 331 415
#     4  11  22  41  65 109 137 177 220 278 348 402
#
# _framework density 21.337313999999999
#
# number of rings (size 3 to 8) (size 9 to 14) (size 15 to 20)
#    0.000    1.000    3.750    2.250   10.500    1.000 
#    2.250    1.250    0.000    0.000    0.000    0.000 
#    0.000    0.000    0.000    0.000    0.000    0.000 
#
# Total GULP energy -89373.503202 kJ/mol
# GULP energy per Si atom -5585.843950 kJ/mol
# Density = 2.128875 g / cm^3
# Si number density = 21.337314 Si / 1000 Ang^3
#
#
#
# Elastic Constant Matrix: (Units=GPa)
#
#
# Indices 1 2 3 4 5 6 
#
# 1 117.1524 20.1067 36.3417 0.0041 -17.5810 -0.0034
# 2 20.1067 53.1582 4.6145 -0.0054 -6.6473 -0.0041
# 3 36.3417 4.6145 96.1829 -0.0110 -24.7559 -0.0048
# 4 0.0041 -0.0054 -0.0110 28.1362 -0.0017 -13.3103
# 5 -17.5810 -6.6473 -24.7559 -0.0017 38.9746 0.0014
# 6 -0.0034 -0.0041 -0.0048 -13.3103 0.0014 14.8399
#
#
#
# Elastic Compliance Matrix: (Units=1/GPa)
#
#
# Indices 1 2 3 4 5 6 
#
# 1 0.010439 -0.003408 -0.003249 -0.000006 0.002063 -0.000005
# 2 -0.003408 0.020335 0.000967 0.000013 0.002545 0.000016
# 3 -0.003249 0.000967 0.013441 0.000014 0.007236 0.000015
# 4 -0.000006 0.000013 0.000014 0.061737 0.000009 0.055373
# 5 0.002063 0.002545 0.007236 0.000009 0.031619 0.000009
# 6 -0.000005 0.000016 0.000015 0.055373 0.000009 0.117052
#
#
# Mechanical properties :
#
#
# Convention : Reuss Voigt Hill
#
# Bulk Modulus (GPa) = 30.45654 43.17992 36.81823
# Shear Modulus (GPa) = 18.05399 30.08554 24.06976
#
# Velocity S-wave (km/s) = 2.91198 3.75907 3.36230
# Velocity P-wave (km/s) = 5.06073 6.25472 5.68913
#
# Compressibility (1/GPa) = 0.03283368
#
# Stress axis : x y z
#
# Youngs Moduli (GPa) = 95.79917 49.17578 74.40041
#
# Poissons Ratio (x) = 0.16760 0.24176
# Poissons Ratio (y) = 0.32650 -0.07196
# Poissons Ratio (z) = 0.31130 -0.04757
#
# Static dielectric constant tensor:
#      x y z
#    x 1.828380 0.000000 0.025800 
#    y 0.000000 1.752700 0.000010 
#    z 0.025800 0.000010 1.802430 
# 
# From -- ./inp_files/23783.got.cif
#   From: 2010.05.17/outbox.cif.g08.bks.cpg/sg9_12_cif.got.tgz:23783.got - 2010.06.03 20:04:27.
