data_PCOD9138021
_publ_section_title
;
Structure prediction by ZEFSAII (Michael W. Deem and Ramdas Pophale) SiO2 
 PCOD9138021
Probable space group: C C
;
_chemical_formula_sum "Si O2"
_cell_formula_units_Z 20
_cell_length_a 16.238339
_cell_length_b 5.509898
_cell_length_c 22.272539
_cell_angle_alpha 90.000000
_cell_angle_beta 21.968031
_cell_angle_gamma 90.000000
_cell_volume 745.469811
_symmetry_space_group_name_H-M "C C"
_symmetry_group_IT_number 9
_symmetry_cell_setting 'monoclinic'
loop_
_space_group_symop_operation_xyz
x,y,z
x,-y,1/2+z
1/2+x,1/2+y,z
1/2+x,1/2-y,1/2+z
loop_
_atom_site_type_symbol
_atom_site_label
_atom_site_fract_x
_atom_site_fract_y
_atom_site_fract_z
Si Si1 0.872100 0.575050 0.300140
Si Si2 0.234376 0.898636 0.089326
Si Si3 0.590775 0.269882 0.572917
Si Si4 0.480796 0.268514 0.988191
Si Si5 0.198730 0.557174 0.254903
O O1 0.774283 0.338524 0.399619
O O2 0.665907 0.726281 0.414493
O O3 0.026462 0.729705 0.237798
O O4 0.033580 0.494610 0.136831
O O5 0.160915 0.075699 0.083916
O O6 0.304178 0.052706 0.100557
O O7 0.472043 0.796327 0.907416
O O8 0.363057 0.346360 0.694687
O O9 0.339255 0.504458 0.100564
O O10 0.615759 0.207452 0.836492
#
# Coordination Sequence:
#
# PCOD9138021 Si02
#       5
#     4   4   4   4   4
#     4  11  25  47  75 110 154 194 253 306 377 444
#     4  10  22  46  74 105 146 198 250 302 366 453
#     4  11  25  43  74 110 148 202 241 317 368 442
#     4   9  21  43  74 104 151 187 246 309 371 441
#     4   9  21  43  69 109 143 189 242 302 376 430
#
# _framework density 26.828717999999999
#
# number of rings (size 3 to 8) (size 9 to 14) (size 15 to 20)
#    1.200    0.800    2.000    0.000    2.800    4.800 
#    3.600    0.000    4.400    0.000    0.000    0.000 
#    0.000    0.000    0.000    0.000    0.000    0.000 
#
# Total GULP energy -55811.303601 kJ/mol
# GULP energy per Si atom -5581.130360 kJ/mol
# Density = 2.676766 g / cm^3
# Si number density = 26.828718 Si / 1000 Ang^3
#
#
#
# Elastic Constant Matrix: (Units=GPa)
#
#
# Indices 1 2 3 4 5 6 
#
# 1 104.2907 53.2445 95.0007 -0.0039 -11.6993 0.0006
# 2 53.2445 55.3851 38.3024 -0.0091 -14.8429 0.0096
# 3 95.0007 38.3024 161.4215 -0.0063 -41.5528 0.0049
# 4 -0.0039 -0.0091 -0.0063 33.2487 0.0042 3.3812
# 5 -11.6993 -14.8429 -41.5528 0.0042 64.8033 0.0028
# 6 0.0006 0.0096 0.0049 3.3812 0.0028 41.2826
#
#
#
# Elastic Compliance Matrix: (Units=1/GPa)
#
#
# Indices 1 2 3 4 5 6 
#
# 1 0.043095 -0.029970 -0.021577 -0.000007 -0.012920 0.000010
# 2 -0.029970 0.042658 0.010346 0.000010 0.010994 -0.000012
# 3 -0.021577 0.010346 0.019218 0.000003 0.010797 -0.000005
# 4 -0.000007 0.000010 0.000003 0.030329 0.000001 -0.002484
# 5 -0.012920 0.010994 0.010797 0.000001 0.022540 -0.000005
# 6 0.000010 -0.000012 -0.000005 -0.002484 -0.000005 0.024427
#
#
# Mechanical properties :
#
#
# Convention : Reuss Voigt Hill
#
# Bulk Modulus (GPa) = 44.30702 77.13249 60.71975
# Shear Modulus (GPa) = 18.36933 36.83689 27.60311
#
# Velocity S-wave (km/s) = 2.61950 3.70947 3.21107
# Velocity P-wave (km/s) = 5.06948 6.86726 6.03568
#
# Compressibility (1/GPa) = 0.02256979
#
# Stress axis : x y z
#
# Youngs Moduli (GPa) = 23.20447 23.44201 52.03445
#
# Poissons Ratio (x) = 0.70256 1.12275
# Poissons Ratio (y) = 0.69544 -0.53836
# Poissons Ratio (z) = 0.50068 -0.24253
#
# Static dielectric constant tensor:
#      x y z
#    x 2.039370 0.000000 0.027200 
#    y 0.000000 2.191950 0.000010 
#    z 0.027200 0.000010 2.047210 
# 
# From -- ./inp_files/11106.got.cif
#   From: 2010.05.17/outbox.cif.g08.bks.cpg/sg9_6_cif.got.tgz:11106.got - 2010.06.03 20:04:27.
