data_PCOD9138198
_publ_section_title
;
Structure prediction by ZEFSAII (Michael W. Deem and Ramdas Pophale) SiO2 
 PCOD9138198
Probable space group: C C
;
_chemical_formula_sum "Si O2"
_cell_formula_units_Z 20
_cell_length_a 13.220985
_cell_length_b 9.131210
_cell_length_c 10.057097
_cell_angle_alpha 90.000000
_cell_angle_beta 34.518337
_cell_angle_gamma 90.000000
_cell_volume 688.010355
_symmetry_space_group_name_H-M "C C"
_symmetry_group_IT_number 9
_symmetry_cell_setting 'monoclinic'
loop_
_space_group_symop_operation_xyz
x,y,z
x,-y,1/2+z
1/2+x,1/2+y,z
1/2+x,1/2-y,1/2+z
loop_
_atom_site_type_symbol
_atom_site_label
_atom_site_fract_x
_atom_site_fract_y
_atom_site_fract_z
Si Si1 0.697140 0.004773 0.861480
Si Si2 0.913345 0.750594 0.608016
Si Si3 0.199176 0.075745 0.056841
Si Si4 0.911301 0.690435 0.308428
Si Si5 0.972796 0.719158 0.953629
O O1 0.883766 0.920498 0.683306
O O2 0.647893 0.119084 0.796262
O O3 0.579554 0.859692 0.950106
O O4 0.582796 0.081015 0.104738
O O5 0.902416 0.761208 0.460455
O O6 0.772076 0.657330 0.848523
O O7 0.022379 0.151870 0.300545
O O8 0.332609 0.112395 0.036017
O O9 0.229679 0.906460 0.997832
O O10 0.913873 0.773015 0.164139
#
# Coordination Sequence:
#
# PCOD9138198 Si02
#       5
#     4   4   4   4   4
#     4   9  22  40  63  91 127 160 206 258 305 368
#     4  11  20  38  70  88 125 166 208 251 318 357
#     4  11  19  40  67  90 123 171 198 263 307 368
#     4   9  20  41  61  90 125 161 203 258 299 372
#     4  10  23  41  63  91 130 160 209 254 315 361
#
# _framework density 29.069331999999999
#
# number of rings (size 3 to 8) (size 9 to 14) (size 15 to 20)
#    1.200    0.800    2.000    2.400    0.000    1.600 
#    3.600    0.000    4.400    0.000    0.000    0.000 
#    0.000    0.000    0.000    0.000    0.000    0.000 
#
# Total GULP energy -55887.603971 kJ/mol
# GULP energy per Si atom -5588.760397 kJ/mol
# Density = 2.900317 g / cm^3
# Si number density = 29.069332 Si / 1000 Ang^3
#
#
#
# Elastic Constant Matrix: (Units=GPa)
#
#
# Indices 1 2 3 4 5 6 
#
# 1 102.3120 14.9863 43.2164 0.0000 30.7419 0.0000
# 2 14.9863 128.0417 41.2879 0.0000 21.6146 0.0000
# 3 43.2164 41.2879 162.6446 0.0000 50.1033 0.0000
# 4 0.0000 0.0000 0.0000 59.4945 0.0000 6.2907
# 5 30.7419 21.6146 50.1033 0.0000 48.0040 0.0000
# 6 0.0000 0.0000 0.0000 6.2907 0.0000 23.0617
#
#
#
# Elastic Compliance Matrix: (Units=1/GPa)
#
#
# Indices 1 2 3 4 5 6 
#
# 1 0.012270 0.000079 -0.001251 0.000000 -0.006588 0.000000
# 2 0.000079 0.008686 -0.001482 0.000000 -0.002415 0.000000
# 3 -0.001251 -0.001482 0.009440 0.000000 -0.008384 0.000000
# 4 0.000000 0.000000 0.000000 0.017307 0.000000 -0.004721
# 5 -0.006588 -0.002415 -0.008384 0.000000 0.034889 0.000000
# 6 0.000000 0.000000 0.000000 -0.004721 0.000000 0.044650
#
#
# Mechanical properties :
#
#
# Convention : Reuss Voigt Hill
#
# Bulk Modulus (GPa) = 39.85875 65.77550 52.81712
# Shear Modulus (GPa) = 35.48291 45.67922 40.58107
#
# Velocity S-wave (km/s) = 3.49754 3.96838 3.74037
# Velocity P-wave (km/s) = 5.48195 6.60860 6.07146
#
# Compressibility (1/GPa) = 0.02508860
#
# Stress axis : x y z
#
# Youngs Moduli (GPa) = 81.49737 115.12414 105.93450
#
# Poissons Ratio (x) = -0.00914 0.13253
# Poissons Ratio (y) = -0.00647 0.15702
# Poissons Ratio (z) = 0.10196 0.17064
#
# Static dielectric constant tensor:
#      x y z
#    x 2.387390 0.000000 -0.266610 
#    y 0.000000 2.359620 0.000000 
#    z -0.266610 0.000000 2.342430 
# 
# From -- ./inp_files/6834.got.cif
#   From: 2010.05.17/outbox.cif.g08.bks.cpg/sg9_4_cif.got.tgz:6834.got - 2010.06.03 20:04:27.
