data_PCOD9138037
_publ_section_title
;
Structure prediction by ZEFSAII (Michael W. Deem and Ramdas Pophale) SiO2 
 PCOD9138037
Probable space group: C C
;
_chemical_formula_sum "Si O2"
_cell_formula_units_Z 28
_cell_length_a 10.090374
_cell_length_b 13.219011
_cell_length_c 11.881065
_cell_angle_alpha 90.000000
_cell_angle_beta 55.235977
_cell_angle_gamma 90.000000
_cell_volume 1301.886380
_symmetry_space_group_name_H-M "C C"
_symmetry_group_IT_number 9
_symmetry_cell_setting 'monoclinic'
loop_
_space_group_symop_operation_xyz
x,y,z
x,-y,1/2+z
1/2+x,1/2+y,z
1/2+x,1/2-y,1/2+z
loop_
_atom_site_type_symbol
_atom_site_label
_atom_site_fract_x
_atom_site_fract_y
_atom_site_fract_z
Si Si1 0.376160 0.013622 0.403030
Si Si2 0.415241 0.818274 0.702919
Si Si3 0.386107 0.704542 0.271276
Si Si4 0.256871 0.813019 0.537282
Si Si5 0.277025 0.321375 0.460245
Si Si6 0.390640 0.172975 0.571856
Si Si7 0.676104 0.026155 0.400788
O O1 0.396889 0.076064 0.279165
O O2 0.306360 0.093035 0.529263
O O3 0.554334 0.983269 0.364412
O O4 0.269826 0.915212 0.458445
O O5 0.344799 0.828824 0.613071
O O6 0.321282 0.735455 0.822729
O O7 0.603502 0.792193 0.597465
O O8 0.347878 0.730377 0.418216
O O9 0.573371 0.710210 0.153605
O O10 0.310779 0.788038 0.223787
O O11 0.314163 0.594927 0.280280
O O12 0.405122 0.274414 0.487474
O O13 0.251300 0.439467 0.442307
O O14 0.554871 0.109422 0.515959
#
# Coordination Sequence:
#
# PCOD9138037 Si02
#       7
#     4   4   4   4   4   4   4
#     4   9  22  42  70  97 137 186 232 295 367 430
#     4  11  23  44  67 108 139 183 241 302 356 437
#     4  12  25  46  66 102 143 190 241 303 368 440
#     4  12  25  41  71 100 144 192 231 304 369 434
#     4  11  23  43  76 101 141 185 244 298 364 446
#     4   9  22  45  69  97 140 185 231 298 362 427
#     4  10  22  47  67 103 136 189 236 296 372 424
#
# _framework density 21.507252000000001
#
# number of rings (size 3 to 8) (size 9 to 14) (size 15 to 20)
#    0.857    0.571    2.857    1.714    4.000    2.286 
#    5.143    0.000    0.000    0.000    0.000    0.000 
#    0.000    0.000    0.000    0.000    0.000    0.000 
#
# Total GULP energy -78015.378011 kJ/mol
# GULP energy per Si atom -5572.527001 kJ/mol
# Density = 2.145830 g / cm^3
# Si number density = 21.507252 Si / 1000 Ang^3
#
#
#
# Elastic Constant Matrix: (Units=GPa)
#
#
# Indices 1 2 3 4 5 6 
#
# 1 37.5726 33.5372 40.2262 0.0000 2.3231 0.0000
# 2 33.5372 97.1884 42.3269 0.0000 -2.1711 0.0000
# 3 40.2262 42.3269 120.0432 0.0000 -3.2373 0.0000
# 4 0.0000 0.0000 0.0000 43.4249 0.0000 -0.4199
# 5 2.3231 -2.1711 -3.2373 0.0000 38.3730 0.0000
# 6 0.0000 0.0000 0.0000 -0.4199 0.0000 31.0948
#
#
#
# Elastic Compliance Matrix: (Units=1/GPa)
#
#
# Indices 1 2 3 4 5 6 
#
# 1 0.052106 -0.012321 -0.013250 0.000000 -0.004969 0.000000
# 2 -0.012321 0.015073 -0.001146 0.000000 0.001502 0.000000
# 3 -0.013250 -0.001146 0.013224 0.000000 0.001853 0.000000
# 4 0.000000 0.000000 0.000000 0.023031 0.000000 0.000311
# 5 -0.004969 0.001502 0.001853 0.000000 0.026602 0.000000
# 6 0.000000 0.000000 0.000000 0.000311 0.000000 0.032164
#
#
# Mechanical properties :
#
#
# Convention : Reuss Voigt Hill
#
# Bulk Modulus (GPa) = 37.07789 54.10942 45.59365
# Shear Modulus (GPa) = 22.25937 31.82615 27.04276
#
# Velocity S-wave (km/s) = 3.22059 3.85097 3.54980
# Velocity P-wave (km/s) = 5.57734 6.70721 6.16820
#
# Compressibility (1/GPa) = 0.02697025
#
# Stress axis : x y z
#
# Youngs Moduli (GPa) = 19.19168 66.34215 75.61772
#
# Poissons Ratio (x) = 0.81738 1.00196
# Poissons Ratio (y) = 0.23646 0.08663
# Poissons Ratio (z) = 0.25430 0.07601
#
# Static dielectric constant tensor:
#      x y z
#    x 1.852500 0.000000 0.004520 
#    y 0.000000 1.811140 0.000000 
#    z 0.004520 0.000000 1.784640 
# 
# From -- ./inp_files/16638.got.cif
#   From: 2010.05.17/outbox.cif.g08.bks.cpg/sg9_9_cif.got.tgz:16638.got - 2010.06.03 20:04:27.
