data_PCOD9138476
_publ_section_title
;
Structure prediction by ZEFSAII (Michael W. Deem and Ramdas Pophale) SiO2 
 PCOD9138476
Probable space group: C C
;
_chemical_formula_sum "Si O2"
_cell_formula_units_Z 24
_cell_length_a 7.541433
_cell_length_b 16.760942
_cell_length_c 11.257978
_cell_angle_alpha 90.000000
_cell_angle_beta 44.184169
_cell_angle_gamma 90.000000
_cell_volume 991.801832
_symmetry_space_group_name_H-M "C C"
_symmetry_group_IT_number 9
_symmetry_cell_setting 'monoclinic'
loop_
_space_group_symop_operation_xyz
x,y,z
x,-y,1/2+z
1/2+x,1/2+y,z
1/2+x,1/2-y,1/2+z
loop_
_atom_site_type_symbol
_atom_site_label
_atom_site_fract_x
_atom_site_fract_y
_atom_site_fract_z
Si Si1 0.538930 0.156999 0.510590
Si Si2 0.224755 0.884010 0.924653
Si Si3 0.886888 0.497951 0.643226
Si Si4 0.116699 0.293817 0.384972
Si Si5 0.061657 0.787725 0.677564
Si Si6 0.376987 0.554001 0.771819
O O1 0.384269 0.136673 0.466266
O O2 0.491500 0.244645 0.588240
O O3 0.834987 0.158967 0.333703
O O4 0.465018 0.088462 0.639197
O O5 0.380342 0.934973 0.753348
O O6 0.149737 0.796866 0.912291
O O7 0.984905 0.936980 0.085987
O O8 0.599831 0.508286 0.733164
O O9 0.102529 0.480409 0.439122
O O10 0.109423 0.283708 0.247476
O O11 0.334453 0.352201 0.326306
O O12 0.836658 0.328007 0.546102
#
# Coordination Sequence:
#
# PCOD9138476 Si02
#       6
#     4   4   4   4   4   4
#     4  10  26  47  72 118 152 208 259 326 396 465
#     4  11  26  50  78 110 157 211 266 318 396 475
#     4  11  28  48  76 114 159 204 261 327 397 464
#     4  11  22  45  78 107 150 209 261 325 385 469
#     4  10  23  43  77 109 159 193 268 324 388 461
#     4  11  27  47  77 114 153 207 259 326 394 466
#
# _framework density 24.198381999999999
#
# number of rings (size 3 to 8) (size 9 to 14) (size 15 to 20)
#    0.000    1.333    1.667    1.000   11.667    5.333 
#    9.000    0.000    0.000    0.000    0.000    0.000 
#    0.000    0.000    0.000    0.000    0.000    0.000 
#
# Total GULP energy -66978.727421 kJ/mol
# GULP energy per Si atom -5581.560618 kJ/mol
# Density = 2.414331 g / cm^3
# Si number density = 24.198382 Si / 1000 Ang^3
#
#
#
# Elastic Constant Matrix: (Units=GPa)
#
#
# Indices 1 2 3 4 5 6 
#
# 1 104.5137 54.1054 39.0105 0.0000 -4.9530 0.0000
# 2 54.1054 98.9049 37.4005 0.0000 -8.2436 0.0000
# 3 39.0105 37.4005 116.5819 0.0000 -25.5535 -0.0001
# 4 0.0000 0.0000 0.0000 49.7167 0.0000 -5.2152
# 5 -4.9530 -8.2436 -25.5535 0.0000 43.3223 0.0001
# 6 0.0000 0.0000 -0.0001 -5.2152 0.0001 44.6930
#
#
#
# Elastic Compliance Matrix: (Units=1/GPa)
#
#
# Indices 1 2 3 4 5 6 
#
# 1 0.014043 -0.006721 -0.002838 0.000000 -0.001348 0.000000
# 2 -0.006721 0.014724 -0.002330 0.000000 0.000659 0.000000
# 3 -0.002838 -0.002330 0.011607 0.000000 0.006079 0.000000
# 4 0.000000 0.000000 0.000000 0.020363 0.000000 0.002376
# 5 -0.001348 0.000659 0.006079 0.000000 0.026640 0.000000
# 6 0.000000 0.000000 0.000000 0.002376 0.000000 0.022652
#
#
# Mechanical properties :
#
#
# Convention : Reuss Voigt Hill
#
# Bulk Modulus (GPa) = 60.25903 64.55925 62.40914
# Shear Modulus (GPa) = 35.88358 40.17867 38.03113
#
# Velocity S-wave (km/s) = 3.85501 4.07920 3.96869
# Velocity P-wave (km/s) = 6.69111 6.99454 6.84451
#
# Compressibility (1/GPa) = 0.01659502
#
# Stress axis : x y z
#
# Youngs Moduli (GPa) = 71.20899 67.91845 86.15327
#
# Poissons Ratio (x) = 0.45650 0.24452
# Poissons Ratio (y) = 0.47862 0.20073
# Poissons Ratio (z) = 0.20211 0.15825
#
# Static dielectric constant tensor:
#      x y z
#    x 1.916180 0.000000 -0.010300 
#    y 0.000000 1.970830 0.000000 
#    z -0.010300 0.000000 2.003080 
# 
# From -- ./inp_files/15006.got.cif
#   From: 2010.05.17/outbox.cif.g08.bks.cpg/sg9_8_cif.got.tgz:15006.got - 2010.06.03 20:04:27.
