data_PCOD9138822
_publ_section_title
;
Structure prediction by ZEFSAII (Michael W. Deem and Ramdas Pophale) SiO2 
 PCOD9138822
Probable space group: C C
;
_chemical_formula_sum "Si O2"
_cell_formula_units_Z 20
_cell_length_a 9.376147
_cell_length_b 15.691964
_cell_length_c 6.815738
_cell_angle_alpha 90.000000
_cell_angle_beta 58.023159
_cell_angle_gamma 90.000000
_cell_volume 850.637890
_symmetry_space_group_name_H-M "C C"
_symmetry_group_IT_number 9
_symmetry_cell_setting 'monoclinic'
loop_
_space_group_symop_operation_xyz
x,y,z
x,-y,1/2+z
1/2+x,1/2+y,z
1/2+x,1/2-y,1/2+z
loop_
_atom_site_type_symbol
_atom_site_label
_atom_site_fract_x
_atom_site_fract_y
_atom_site_fract_z
Si Si1 0.602070 0.402700 0.358560
Si Si2 0.509142 0.220980 0.469205
Si Si3 0.501311 0.105176 0.852035
Si Si4 0.766019 0.149180 0.975796
Si Si5 0.316738 0.052343 0.351981
O O1 0.593618 0.311540 0.472017
O O2 0.413135 0.417603 0.418668
O O3 0.670913 0.482909 0.423166
O O4 0.739847 0.394784 0.084873
O O5 0.473451 0.169502 0.693515
O O6 0.374371 0.263407 0.416092
O O7 0.631177 0.163091 0.247758
O O8 0.476669 0.008574 0.787469
O O9 0.172162 0.371748 0.342674
O O10 0.361890 0.104401 0.126281
#
# Coordination Sequence:
#
# PCOD9138822 Si02
#       5
#     4   4   4   4   4
#     4   9  23  47  70 107 147 190 248 300 363 451
#     4  10  24  48  69 110 149 195 249 309 353 457
#     4  11  25  45  79 106 148 203 239 312 368 447
#     4  10  25  43  75 104 151 185 261 291 374 429
#     4  10  23  47  79 105 153 193 241 302 392 426
#
# _framework density 23.511768
#
# number of rings (size 3 to 8) (size 9 to 14) (size 15 to 20)
#    1.200    0.800    0.000    1.200    8.400    4.800 
#   10.800    0.000    0.000    0.000    0.000    0.000 
#    0.000    0.000    0.000    0.000    0.000    0.000 
#
# Total GULP energy -55724.986660 kJ/mol
# GULP energy per Si atom -5572.498666 kJ/mol
# Density = 2.345825 g / cm^3
# Si number density = 23.511768 Si / 1000 Ang^3
#
#
#
# Elastic Constant Matrix: (Units=GPa)
#
#
# Indices 1 2 3 4 5 6 
#
# 1 205.7372 55.6767 39.8338 0.0000 -5.1135 0.0000
# 2 55.6767 104.9988 42.3516 0.0000 -9.7575 0.0000
# 3 39.8338 42.3516 105.2268 0.0000 12.1880 0.0000
# 4 0.0000 0.0000 0.0000 47.0414 0.0000 4.2452
# 5 -5.1135 -9.7575 12.1880 0.0000 17.3887 0.0000
# 6 0.0000 0.0000 0.0000 4.2452 0.0000 45.8348
#
#
#
# Elastic Compliance Matrix: (Units=1/GPa)
#
#
# Indices 1 2 3 4 5 6 
#
# 1 0.005812 -0.002396 -0.001391 0.000000 0.001339 0.000000
# 2 -0.002396 0.014412 -0.006256 0.000000 0.011767 0.000000
# 3 -0.001391 -0.006256 0.014150 0.000000 -0.013838 0.000000
# 4 0.000000 0.000000 0.000000 0.021437 0.000000 -0.001986
# 5 0.001339 0.011767 -0.013838 0.000000 0.074205 0.000000
# 6 0.000000 0.000000 0.000000 -0.001986 0.000000 0.022001
#
#
# Mechanical properties :
#
#
# Convention : Reuss Voigt Hill
#
# Bulk Modulus (GPa) = 69.99177 76.85411 73.42294
# Shear Modulus (GPa) = 28.27007 40.59302 34.43154
#
# Velocity S-wave (km/s) = 3.47130 4.15962 3.83095
# Velocity P-wave (km/s) = 6.77495 7.47184 7.13191
#
# Compressibility (1/GPa) = 0.01428739
#
# Stress axis : x y z
#
# Youngs Moduli (GPa) = 172.07008 69.38878 70.66903
#
# Poissons Ratio (x) = 0.16628 0.09827
# Poissons Ratio (y) = 0.41233 0.44212
# Poissons Ratio (z) = 0.23929 0.43411
#
# Static dielectric constant tensor:
#      x y z
#    x 1.993060 0.000000 -0.056430 
#    y 0.000000 1.971320 0.000000 
#    z -0.056430 0.000000 1.879240 
# 
# From -- ./inp_files/9370.got.cif
#   From: 2010.05.17/outbox.cif.g08.bks.cpg/sg9_5_cif.got.tgz:9370.got - 2010.06.03 20:04:27.
