data_PCOD9138948
_publ_section_title
;
Structure prediction by ZEFSAII (Michael W. Deem and Ramdas Pophale) SiO2 
 PCOD9138948
Probable space group: C C
;
_chemical_formula_sum "Si O2"
_cell_formula_units_Z 28
_cell_length_a 25.792766
_cell_length_b 4.933451
_cell_length_c 8.794350
_cell_angle_alpha 90.000000
_cell_angle_beta 83.058276
_cell_angle_gamma 90.000000
_cell_volume 1110.854559
_symmetry_space_group_name_H-M "C C"
_symmetry_group_IT_number 9
_symmetry_cell_setting 'monoclinic'
loop_
_space_group_symop_operation_xyz
x,y,z
x,-y,1/2+z
1/2+x,1/2+y,z
1/2+x,1/2-y,1/2+z
loop_
_atom_site_type_symbol
_atom_site_label
_atom_site_fract_x
_atom_site_fract_y
_atom_site_fract_z
Si Si1 0.145140 0.148815 0.016500
Si Si2 0.790866 0.106326 0.273981
Si Si3 0.606557 0.823848 0.708401
Si Si4 0.400552 0.361929 0.781335
Si Si5 0.489433 0.726324 0.748908
Si Si6 0.756958 0.622642 0.468684
Si Si7 0.428372 0.023001 0.026281
O O1 0.127486 0.396151 0.131216
O O2 0.108209 0.897517 0.073027
O O3 0.139898 0.236958 0.843344
O O4 0.201885 0.021213 0.024623
O O5 0.848342 0.970153 0.271226
O O6 0.788703 0.368958 0.386666
O O7 0.752747 0.866370 0.346070
O O8 0.777623 0.225027 0.112565
O O9 0.546498 0.798674 0.783077
O O10 0.461866 0.437175 0.731386
O O11 0.393327 0.125170 0.660481
O O12 0.400008 0.268610 0.954716
O O13 0.447227 0.833125 0.884853
O O14 0.479608 0.870169 0.592706
#
# Coordination Sequence:
#
# PCOD9138948 Si02
#       7
#     4   4   4   4   4   4   4
#     4  12  28  52  79 114 149 199 263 326 391 460
#     4  12  28  48  81 113 155 208 258 319 397 460
#     4  12  28  48  82 111 155 202 256 317 401 458
#     4  11  25  42  72 106 157 197 254 301 379 455
#     4  11  25  42  72 106 153 195 250 303 376 458
#     4  12  28  52  79 113 153 201 267 326 392 457
#     4  10  24  42  67 103 156 194 246 300 368 440
#
# _framework density 25.205818000000001
#
# number of rings (size 3 to 8) (size 9 to 14) (size 15 to 20)
#    0.000    0.571    0.000    6.000   16.000    2.286 
#    0.000    0.000    0.000    0.000    0.000    0.000 
#    0.000    0.000    0.000    0.000    0.000    0.000 
#
# Total GULP energy -78239.478907 kJ/mol
# GULP energy per Si atom -5588.534208 kJ/mol
# Density = 2.514845 g / cm^3
# Si number density = 25.205818 Si / 1000 Ang^3
#
#
#
# Elastic Constant Matrix: (Units=GPa)
#
#
# Indices 1 2 3 4 5 6 
#
# 1 93.6434 26.2146 34.5510 0.0000 5.8056 0.0000
# 2 26.2146 131.6599 29.7740 0.0000 -8.5030 0.0000
# 3 34.5510 29.7740 83.2405 0.0000 -0.1735 0.0000
# 4 0.0000 0.0000 0.0000 21.6142 0.0000 -3.5428
# 5 5.8056 -8.5030 -0.1735 0.0000 35.8209 0.0000
# 6 0.0000 0.0000 0.0000 -3.5428 0.0000 28.1260
#
#
#
# Elastic Compliance Matrix: (Units=1/GPa)
#
#
# Indices 1 2 3 4 5 6 
#
# 1 0.013091 -0.001676 -0.004840 0.000000 -0.002543 0.000000
# 2 -0.001676 0.008617 -0.002381 0.000000 0.002306 0.000000
# 3 -0.004840 -0.002381 0.014875 0.000000 0.000291 0.000000
# 4 0.000000 0.000000 0.000000 0.047241 0.000000 0.005951
# 5 -0.002543 0.002306 0.000291 0.000000 0.028878 0.000000
# 6 0.000000 0.000000 0.000000 0.005951 0.000000 0.036304
#
#
# Mechanical properties :
#
#
# Convention : Reuss Voigt Hill
#
# Bulk Modulus (GPa) = 53.22612 54.40255 53.81434
# Shear Modulus (GPa) = 28.89133 31.64585 30.26859
#
# Velocity S-wave (km/s) = 3.38925 3.54714 3.46910
# Velocity P-wave (km/s) = 6.03974 6.19730 6.11903
#
# Compressibility (1/GPa) = 0.01878777
#
# Stress axis : x y z
#
# Youngs Moduli (GPa) = 76.38603 116.05576 67.22889
#
# Poissons Ratio (x) = 0.19456 0.32536
# Poissons Ratio (y) = 0.12806 0.16010
# Poissons Ratio (z) = 0.36968 0.27637
#
# Static dielectric constant tensor:
#      x y z
#    x 2.114880 0.000000 -0.026320 
#    y 0.000000 2.144460 0.000000 
#    z -0.026320 0.000000 1.937280 
# 
# From -- ./inp_files/12307.got.cif
#   From: 2010.05.17/outbox.cif.g08.bks.cpg/sg9_7_cif.got.tgz:12307.got - 2010.06.03 20:04:27.
