data_PCOD9138598
_publ_section_title
;
Structure prediction by ZEFSAII (Michael W. Deem and Ramdas Pophale) SiO2 
 PCOD9138598
Probable space group: C C
;
_chemical_formula_sum "Si O2"
_cell_formula_units_Z 32
_cell_length_a 18.447001
_cell_length_b 13.852047
_cell_length_c 12.581513
_cell_angle_alpha 90.000000
_cell_angle_beta 27.151299
_cell_angle_gamma 90.000000
_cell_volume 1467.110468
_symmetry_space_group_name_H-M "C C"
_symmetry_group_IT_number 9
_symmetry_cell_setting 'monoclinic'
loop_
_space_group_symop_operation_xyz
x,y,z
x,-y,1/2+z
1/2+x,1/2+y,z
1/2+x,1/2-y,1/2+z
loop_
_atom_site_type_symbol
_atom_site_label
_atom_site_fract_x
_atom_site_fract_y
_atom_site_fract_z
Si Si1 0.143320 0.686068 0.978410
Si Si2 0.815689 0.021809 0.868061
Si Si3 0.159392 0.912957 0.986971
Si Si4 0.645928 0.286554 0.572104
Si Si5 0.293416 0.647910 0.555028
Si Si6 0.371034 0.074110 0.639892
Si Si7 0.100186 0.590073 0.512433
Si Si8 0.859560 0.429937 0.909582
O O1 0.227973 0.623147 0.960709
O O2 0.158099 0.799317 0.972869
O O3 0.216711 0.654939 0.770311
O O4 0.960799 0.653465 0.220113
O O5 0.999457 0.042392 0.648068
O O6 0.759240 0.951599 0.036830
O O7 0.766256 0.959064 0.828522
O O8 0.192114 0.936923 0.068357
O O9 0.306823 0.965533 0.737835
O O10 0.726473 0.235012 0.568410
O O11 0.761131 0.357993 0.357462
O O12 0.602745 0.198480 0.549867
O O13 0.482948 0.338748 0.815778
O O14 0.545145 0.084290 0.462972
O O15 0.353326 0.096288 0.540232
O O16 0.965718 0.526242 0.750386
#
# Coordination Sequence:
#
# PCOD9138598 Si02
#       8
#     4   4   4   4   4   4   4   4
#     4  11  26  45  69 102 142 192 231 292 358 422
#     4  10  23  45  65 105 140 175 239 295 355 410
#     4  11  24  42  67 104 136 184 246 285 361 418
#     4  11  22  42  69 107 130 184 243 295 345 410
#     4  11  25  43  75 102 140 183 247 294 346 422
#     4  11  23  43  69  98 142 185 238 293 351 427
#     4   9  22  42  68  94 135 185 236 289 355 412
#     4  10  25  44  64  98 139 190 228 293 363 415
#
# _framework density 21.811581
#
# number of rings (size 3 to 8) (size 9 to 14) (size 15 to 20)
#    0.000    1.500    2.500    0.750    5.250   10.000 
#    0.000    3.750    0.000    0.000    0.000    0.000 
#    0.000    0.000    0.000    0.000    0.000    0.000 
#
# Total GULP energy -89418.167539 kJ/mol
# GULP energy per Si atom -5588.635471 kJ/mol
# Density = 2.176194 g / cm^3
# Si number density = 21.811581 Si / 1000 Ang^3
#
#
#
# Elastic Constant Matrix: (Units=GPa)
#
#
# Indices 1 2 3 4 5 6 
#
# 1 161.7788 35.5784 70.8209 0.0000 -11.6311 0.0000
# 2 35.5784 135.5858 31.7827 0.0000 6.0600 0.0000
# 3 70.8209 31.7827 61.2586 0.0000 10.1897 0.0000
# 4 0.0000 0.0000 0.0000 21.6708 0.0000 -5.0194
# 5 -11.6311 6.0600 10.1897 0.0000 37.3004 0.0000
# 6 0.0000 0.0000 0.0000 -5.0194 0.0000 27.8970
#
#
#
# Elastic Compliance Matrix: (Units=1/GPa)
#
#
# Indices 1 2 3 4 5 6 
#
# 1 0.015503 0.000086 -0.019662 0.000000 0.010191 0.000000
# 2 0.000086 0.008398 -0.004435 0.000000 -0.000126 0.000000
# 3 -0.019662 -0.004435 0.044268 0.000000 -0.017504 0.000000
# 4 0.000000 0.000000 0.000000 0.048152 0.000000 0.008664
# 5 0.010191 -0.000126 -0.017504 0.000000 0.034789 0.000000
# 6 0.000000 0.000000 0.000000 0.008664 0.000000 0.037405
#
#
# Mechanical properties :
#
#
# Convention : Reuss Voigt Hill
#
# Bulk Modulus (GPa) = 49.63869 70.55412 60.09640
# Shear Modulus (GPa) = 20.55468 32.06972 26.31220
#
# Velocity S-wave (km/s) = 3.07314 3.83862 3.47701
# Velocity P-wave (km/s) = 5.94976 7.21554 6.61300
#
# Compressibility (1/GPa) = 0.02014558
#
# Stress axis : x y z
#
# Youngs Moduli (GPa) = 64.50563 119.07255 22.58960
#
# Poissons Ratio (x) = -0.01019 0.44416
# Poissons Ratio (y) = -0.00552 0.10019
# Poissons Ratio (z) = 1.26831 0.52811
#
# Static dielectric constant tensor:
#      x y z
#    x 1.842120 0.000000 -0.031850 
#    y 0.000000 1.793810 0.000000 
#    z -0.031850 0.000000 1.788000 
# 
# From -- ./inp_files/19399.got.cif
#   From: 2010.05.17/outbox.cif.g08.bks.cpg/sg9_10_cif.got.tgz:19399.got - 2010.06.03 20:04:27.
