data_PCOD9138957
_publ_section_title
;
Structure prediction by ZEFSAII (Michael W. Deem and Ramdas Pophale) SiO2 
 PCOD9138957
Probable space group: C C
;
_chemical_formula_sum "Si O2"
_cell_formula_units_Z 28
_cell_length_a 6.838489
_cell_length_b 26.900912
_cell_length_c 7.990027
_cell_angle_alpha 90.000000
_cell_angle_beta 55.311603
_cell_angle_gamma 90.000000
_cell_volume 1208.604488
_symmetry_space_group_name_H-M "C C"
_symmetry_group_IT_number 9
_symmetry_cell_setting 'monoclinic'
loop_
_space_group_symop_operation_xyz
x,y,z
x,-y,1/2+z
1/2+x,1/2+y,z
1/2+x,1/2-y,1/2+z
loop_
_atom_site_type_symbol
_atom_site_label
_atom_site_fract_x
_atom_site_fract_y
_atom_site_fract_z
Si Si1 0.079290 0.151974 0.761390
Si Si2 0.580912 0.203770 0.093175
Si Si3 0.576007 0.178489 0.474881
Si Si4 0.619003 0.935520 0.848848
Si Si5 0.374134 0.974177 0.644409
Si Si6 0.124615 0.946971 0.450810
Si Si7 0.075358 0.809570 0.911501
O O1 0.317200 0.184563 0.688120
O O2 0.115216 0.099319 0.831370
O O3 0.079086 0.150551 0.559783
O O4 0.820447 0.173394 0.935256
O O5 0.577119 0.206546 0.296880
O O6 0.314011 0.182742 0.185149
O O7 0.596872 0.255749 0.989478
O O8 0.586229 0.119681 0.431618
O O9 0.819162 0.190303 0.450513
O O10 0.889484 0.944733 0.673591
O O11 0.484413 0.941779 0.737243
O O12 0.530714 0.977694 0.018532
O O13 0.147643 0.001907 0.837008
O O14 0.329578 0.946346 0.492111
#
# Coordination Sequence:
#
# PCOD9138957 Si02
#       7
#     4   4   4   4   4   4   4
#     4  11  24  47  71 104 140 179 237 289 342 421
#     4  11  24  50  68 103 139 180 231 289 352 419
#     4  11  26  46  73 103 141 181 237 291 346 419
#     4  11  22  45  66 103 137 182 232 283 344 417
#     4  10  24  42  69  98 144 180 229 285 351 402
#     4  11  22  43  69 102 137 185 227 285 344 413
#     4  11  26  47  72 101 140 185 229 290 355 417
#
# _framework density 23.167214000000001
#
# number of rings (size 3 to 8) (size 9 to 14) (size 15 to 20)
#    0.000    1.143    4.286    0.857    0.000    6.857 
#    2.571    0.000    0.000    0.000    0.000    0.000 
#    0.000    0.000    0.000    0.000    0.000    0.000 
#
# Total GULP energy -78262.075607 kJ/mol
# GULP energy per Si atom -5590.148258 kJ/mol
# Density = 2.311448 g / cm^3
# Si number density = 23.167214 Si / 1000 Ang^3
#
#
#
# Elastic Constant Matrix: (Units=GPa)
#
#
# Indices 1 2 3 4 5 6 
#
# 1 139.4978 40.1026 29.5829 0.0000 -24.1040 0.0000
# 2 40.1026 80.3299 9.4893 0.0000 -0.3573 0.0000
# 3 29.5829 9.4893 87.8225 0.0000 -30.1224 0.0000
# 4 0.0000 0.0000 0.0000 24.8802 0.0000 10.9940
# 5 -24.1040 -0.3573 -30.1224 0.0000 41.1877 0.0000
# 6 0.0000 0.0000 0.0000 10.9940 0.0000 25.7672
#
#
#
# Elastic Compliance Matrix: (Units=1/GPa)
#
#
# Indices 1 2 3 4 5 6 
#
# 1 0.009548 -0.004617 -0.001087 0.000000 0.004752 0.000000
# 2 -0.004617 0.014886 -0.001249 0.000000 -0.003486 0.000000
# 3 -0.001087 -0.001249 0.015572 0.000000 0.010741 0.000000
# 4 0.000000 0.000000 0.000000 0.049531 0.000000 -0.021133
# 5 0.004752 -0.003486 0.010741 0.000000 0.034886 0.000000
# 6 0.000000 0.000000 0.000000 -0.021133 0.000000 0.047826
#
#
# Mechanical properties :
#
#
# Convention : Reuss Voigt Hill
#
# Bulk Modulus (GPa) = 38.31556 51.77777 45.04667
# Shear Modulus (GPa) = 25.66038 33.59870 29.62954
#
# Velocity S-wave (km/s) = 3.33170 3.81237 3.58011
# Velocity P-wave (km/s) = 5.60133 6.46351 6.04780
#
# Compressibility (1/GPa) = 0.02609906
#
# Stress axis : x y z
#
# Youngs Moduli (GPa) = 104.73938 67.17947 64.21776
#
# Poissons Ratio (x) = 0.31015 0.06982
# Poissons Ratio (y) = 0.48356 0.08021
# Poissons Ratio (z) = 0.11388 0.08390
#
# Static dielectric constant tensor:
#      x y z
#    x 1.944320 0.000000 -0.040020 
#    y 0.000000 1.859380 0.000000 
#    z -0.040020 0.000000 1.899990 
# 
# From -- ./inp_files/4440.got.cif
#   From: 2010.05.17/outbox.cif.g08.bks.cpg/sg9_3_cif.got.tgz:4440.got - 2010.06.03 20:04:27.
