data_PCOD9138728
_publ_section_title
;
Structure prediction by ZEFSAII (Michael W. Deem and Ramdas Pophale) SiO2 
 PCOD9138728
Probable space group: C C
;
_chemical_formula_sum "Si O2"
_cell_formula_units_Z 32
_cell_length_a 11.869740
_cell_length_b 7.908007
_cell_length_c 24.538504
_cell_angle_alpha 90.000000
_cell_angle_beta 32.807086
_cell_angle_gamma 90.000000
_cell_volume 1247.972694
_symmetry_space_group_name_H-M "C C"
_symmetry_group_IT_number 9
_symmetry_cell_setting 'monoclinic'
loop_
_space_group_symop_operation_xyz
x,y,z
x,-y,1/2+z
1/2+x,1/2+y,z
1/2+x,1/2-y,1/2+z
loop_
_atom_site_type_symbol
_atom_site_label
_atom_site_fract_x
_atom_site_fract_y
_atom_site_fract_z
Si Si1 0.421860 0.128988 0.358300
Si Si2 0.882845 0.253700 0.359741
Si Si3 0.346490 0.205337 0.277695
Si Si4 0.450566 0.541454 0.427944
Si Si5 0.424480 0.369875 0.057576
Si Si6 0.963658 0.803084 0.602172
Si Si7 0.994594 0.417918 0.604909
Si Si8 0.780344 0.088880 0.286468
O O1 0.464406 0.233469 0.286630
O O2 0.174928 0.133249 0.466688
O O3 0.568277 0.172773 0.349311
O O4 0.482365 0.936846 0.318573
O O5 0.007223 0.127551 0.347517
O O6 0.678383 0.278613 0.481323
O O7 0.837526 0.174924 0.319934
O O8 0.475294 0.159587 0.172674
O O9 0.242199 0.389260 0.311548
O O10 0.192029 0.042521 0.350393
O O11 0.368360 0.638386 0.516523
O O12 0.247347 0.432968 0.494913
O O13 0.356925 0.551943 0.108217
O O14 0.370570 0.203749 0.113634
O O15 0.946551 0.882609 0.670042
O O16 0.904879 0.607066 0.634741
#
# Coordination Sequence:
#
# PCOD9138728 Si02
#       8
#     4   4   4   4   4   4   4   4
#     4  10  24  43  72 102 144 192 244 304 381 431
#     4  10  23  46  71 104 148 193 245 308 377 442
#     4  11  24  45  72 111 144 195 255 308 374 448
#     4  10  24  44  73 104 150 191 244 309 377 434
#     4  10  23  46  70 107 147 190 247 311 371 454
#     4  10  24  44  68 110 142 193 250 301 371 448
#     4  11  24  44  74 103 152 195 249 303 387 439
#     4  12  24  48  74 105 155 191 258 312 368 458
#
# _framework density 25.641584000000002
#
# number of rings (size 3 to 8) (size 9 to 14) (size 15 to 20)
#    0.000    1.500    2.500    0.750    8.750    4.000 
#    4.500    2.500    0.000    0.000    0.000    0.000 
#    0.000    0.000    0.000    0.000    0.000    0.000 
#
# Total GULP energy -89168.993765 kJ/mol
# GULP energy per Si atom -5573.062110 kJ/mol
# Density = 2.558322 g / cm^3
# Si number density = 25.641584 Si / 1000 Ang^3
#
#
#
# Elastic Constant Matrix: (Units=GPa)
#
#
# Indices 1 2 3 4 5 6 
#
# 1 137.0247 45.3887 11.9493 0.0000 41.1247 0.0001
# 2 45.3887 104.9371 3.8192 0.0000 10.3750 0.0001
# 3 11.9493 3.8192 79.4798 -0.0002 5.1287 0.0001
# 4 0.0000 0.0000 -0.0002 34.9346 0.0000 -0.9977
# 5 41.1247 10.3750 5.1287 0.0000 52.1396 0.0000
# 6 0.0001 0.0001 0.0001 -0.9977 0.0000 39.1513
#
#
#
# Elastic Compliance Matrix: (Units=1/GPa)
#
#
# Indices 1 2 3 4 5 6 
#
# 1 0.011046 -0.003969 -0.000965 0.000000 -0.007828 0.000000
# 2 -0.003969 0.011156 0.000002 0.000000 0.000910 0.000000
# 3 -0.000965 0.000002 0.012759 0.000000 -0.000494 0.000000
# 4 0.000000 0.000000 0.000000 0.028646 0.000000 0.000730
# 5 -0.007828 0.000910 -0.000494 0.000000 0.025221 0.000000
# 6 0.000000 0.000000 0.000000 0.000730 0.000000 0.025561
#
#
# Mechanical properties :
#
#
# Convention : Reuss Voigt Hill
#
# Bulk Modulus (GPa) = 39.84490 49.30620 44.57555
# Shear Modulus (GPa) = 37.70246 42.59739 40.14992
#
# Velocity S-wave (km/s) = 3.83869 4.08028 3.96133
# Velocity P-wave (km/s) = 5.93467 6.43964 6.19231
#
# Compressibility (1/GPa) = 0.02509731
#
# Stress axis : x y z
#
# Youngs Moduli (GPa) = 90.52996 89.63732 78.37797
#
# Poissons Ratio (x) = 0.35575 0.07563
# Poissons Ratio (y) = 0.35929 -0.00015
# Poissons Ratio (z) = 0.08735 -0.00017
#
# Static dielectric constant tensor:
#      x y z
#    x 2.004830 0.000000 -0.058370 
#    y 0.000000 2.076520 0.000000 
#    z -0.058370 0.000000 2.097600 
# 
# From -- ./inp_files/35307.got.cif
#   From: 2010.05.17/outbox.cif.g08.bks.cpg/sg9_18_cif.got.tgz:35307.got - 2010.06.03 20:04:27.
