data_PCOD9138445
_publ_section_title
;
Structure prediction by ZEFSAII (Michael W. Deem and Ramdas Pophale) SiO2 
 PCOD9138445
Probable space group: C C
;
_chemical_formula_sum "Si O2"
_cell_formula_units_Z 28
_cell_length_a 11.229075
_cell_length_b 10.762565
_cell_length_c 9.938926
_cell_angle_alpha 90.000000
_cell_angle_beta 119.595742
_cell_angle_gamma 90.000000
_cell_volume 1044.442688
_symmetry_space_group_name_H-M "C C"
_symmetry_group_IT_number 9
_symmetry_cell_setting 'monoclinic'
loop_
_space_group_symop_operation_xyz
x,y,z
x,-y,1/2+z
1/2+x,1/2+y,z
1/2+x,1/2-y,1/2+z
loop_
_atom_site_type_symbol
_atom_site_label
_atom_site_fract_x
_atom_site_fract_y
_atom_site_fract_z
Si Si1 0.678680 0.036542 0.208870
Si Si2 0.635635 0.662910 0.425061
Si Si3 0.010924 0.399114 0.887614
Si Si4 0.758671 0.443353 0.225196
Si Si5 0.874830 0.769864 0.925156
Si Si6 0.464397 0.515819 0.657004
Si Si7 0.345668 0.680058 0.896532
O O1 0.794789 0.928008 0.268731
O O2 0.595010 0.068158 0.299425
O O3 0.776869 0.155592 0.267454
O O4 0.576522 0.984694 0.040163
O O5 0.766979 0.628033 0.588585
O O6 0.525136 0.745201 0.444335
O O7 0.547319 0.543698 0.328769
O O8 0.707882 0.740615 0.347716
O O9 0.857872 0.443001 0.773844
O O10 0.977581 0.258709 0.920447
O O11 0.801519 0.362743 0.379858
O O12 0.600022 0.471371 0.140010
O O13 0.892051 0.852634 0.069896
O O14 0.377025 0.402942 0.546055
#
# Coordination Sequence:
#
# PCOD9138445 Si02
#       7
#     4   4   4   4   4   4   4
#     4  11  28  48  74 110 156 199 259 322 398 475
#     4  11  21  43  78 100 142 198 260 310 389 487
#     4  12  26  49  74 110 152 201 261 321 395 483
#     4  11  24  43  68 105 143 194 256 313 388 469
#     4  10  25  44  69 107 147 193 249 328 380 472
#     4  10  23  43  71 105 141 191 254 316 393 462
#     4  11  23  48  76 107 145 206 253 326 397 470
#
# _framework density 26.808554999999998
#
# number of rings (size 3 to 8) (size 9 to 14) (size 15 to 20)
#    0.000    1.143    1.429    3.429   10.000    0.000 
#   10.286    0.000    0.000    0.000    0.000    0.000 
#    0.000    0.000    0.000    0.000    0.000    0.000 
#
# Total GULP energy -78106.991316 kJ/mol
# GULP energy per Si atom -5579.070808 kJ/mol
# Density = 2.674754 g / cm^3
# Si number density = 26.808555 Si / 1000 Ang^3
#
#
#
# Elastic Constant Matrix: (Units=GPa)
#
#
# Indices 1 2 3 4 5 6 
#
# 1 47.4670 3.4522 -16.2186 0.0000 5.7732 0.0000
# 2 3.4522 76.6640 4.4647 0.0000 0.1342 0.0000
# 3 -16.2186 4.4647 90.4291 0.0000 3.8411 0.0000
# 4 0.0000 0.0000 0.0000 20.5750 0.0000 21.3829
# 5 5.7732 0.1342 3.8411 0.0000 40.3548 0.0000
# 6 0.0000 0.0000 0.0000 21.3829 0.0000 36.5062
#
#
#
# Elastic Compliance Matrix: (Units=1/GPa)
#
#
# Indices 1 2 3 4 5 6 
#
# 1 0.023105 -0.001288 0.004365 0.000000 -0.003717 0.000000
# 2 -0.001288 0.013153 -0.000890 0.000000 0.000225 0.000000
# 3 0.004365 -0.000890 0.011960 0.000000 -0.001760 0.000000
# 4 0.000000 0.000000 0.000000 0.124220 0.000000 -0.072760
# 5 -0.003717 0.000225 -0.001760 0.000000 0.025479 0.000000
# 6 0.000000 0.000000 0.000000 -0.072760 0.000000 0.070010
#
#
# Mechanical properties :
#
#
# Convention : Reuss Voigt Hill
#
# Bulk Modulus (GPa) = 19.01420 21.99518 20.50469
# Shear Modulus (GPa) = 17.78833 34.34465 26.06649
#
# Velocity S-wave (km/s) = 2.57871 3.58314 3.12159
# Velocity P-wave (km/s) = 3.99678 5.03397 4.54506
#
# Compressibility (1/GPa) = 0.05259228
#
# Stress axis : x y z
#
# Youngs Moduli (GPa) = 43.28155 76.02609 83.61191
#
# Poissons Ratio (x) = 0.09793 -0.36499
# Poissons Ratio (y) = 0.05575 0.07442
# Poissons Ratio (z) = -0.18894 0.06766
#
# Static dielectric constant tensor:
#      x y z
#    x 2.159440 0.000000 -0.122380 
#    y 0.000000 2.193350 0.000000 
#    z -0.122380 0.000000 2.100330 
# 
# From -- ./inp_files/16310.got.cif
#   From: 2010.05.17/outbox.cif.g08.bks.cpg/sg9_9_cif.got.tgz:16310.got - 2010.06.03 20:04:27.
