data_PCOD9138403
_publ_section_title
;
Structure prediction by ZEFSAII (Michael W. Deem and Ramdas Pophale) SiO2 
 PCOD9138403
Probable space group: C C
;
_chemical_formula_sum "Si O2"
_cell_formula_units_Z 32
_cell_length_a 14.391712
_cell_length_b 10.909845
_cell_length_c 28.882558
_cell_angle_alpha 90.000000
_cell_angle_beta 19.215403
_cell_angle_gamma 90.000000
_cell_volume 1492.525113
_symmetry_space_group_name_H-M "C C"
_symmetry_group_IT_number 9
_symmetry_cell_setting 'monoclinic'
loop_
_space_group_symop_operation_xyz
x,y,z
x,-y,1/2+z
1/2+x,1/2+y,z
1/2+x,1/2-y,1/2+z
loop_
_atom_site_type_symbol
_atom_site_label
_atom_site_fract_x
_atom_site_fract_y
_atom_site_fract_z
Si Si1 0.114140 0.303880 0.653940
Si Si2 0.510020 0.633512 0.135972
Si Si3 0.349039 0.997019 0.215106
Si Si4 0.974779 0.356723 0.822391
Si Si5 0.049383 0.862907 0.098395
Si Si6 0.798883 0.844686 0.956851
Si Si7 0.976766 0.362491 0.309461
Si Si8 0.247724 0.217666 0.829608
O O1 0.451369 0.287450 0.495316
O O2 0.032369 0.431562 0.667461
O O3 0.992071 0.298494 0.763257
O O4 0.009461 0.206309 0.665330
O O5 0.642574 0.500546 0.067861
O O6 0.332854 0.654498 0.266153
O O7 0.284123 0.644460 0.200249
O O8 0.733962 0.744535 0.027846
O O9 0.095828 0.085739 0.319369
O O10 0.219779 0.878646 0.300950
O O11 0.552077 0.945047 0.079280
O O12 0.868749 0.497745 0.864498
O O13 0.772446 0.304019 0.957659
O O14 0.761611 0.865161 0.204969
O O15 0.803151 0.751586 0.912050
O O16 0.992352 0.329403 0.248475
#
# Coordination Sequence:
#
# PCOD9138403 Si02
#       8
#     4   4   4   4   4   4   4   4
#     4  12  23  41  71 100 138 180 235 289 352 425
#     4  10  23  43  67  98 142 184 228 296 357 417
#     4  11  23  39  68  99 135 179 234 292 354 406
#     4  11  23  41  69 102 137 185 236 287 347 428
#     4  11  24  44  68 104 138 185 236 293 354 426
#     4  11  22  42  66 100 138 186 230 297 350 419
#     4  11  23  40  68 101 137 181 240 287 351 422
#     4  11  23  42  65 100 139 182 233 287 355 419
#
# _framework density 21.440176999999998
#
# number of rings (size 3 to 8) (size 9 to 14) (size 15 to 20)
#    0.000    1.000    6.250    0.750    1.750    2.000 
#    0.000    5.000    0.000    0.000    0.000    0.000 
#    0.000    0.000    0.000    0.000    0.000    0.000 
#
# Total GULP energy -89243.127407 kJ/mol
# GULP energy per Si atom -5577.695463 kJ/mol
# Density = 2.139138 g / cm^3
# Si number density = 21.440177 Si / 1000 Ang^3
#
#
#
# Elastic Constant Matrix: (Units=GPa)
#
#
# Indices 1 2 3 4 5 6 
#
# 1 99.1648 39.0115 29.5063 0.0239 11.4713 -0.0274
# 2 39.0115 75.0422 41.4799 0.0480 12.1417 0.0754
# 3 29.5063 41.4799 93.1305 0.0779 13.8759 -0.0009
# 4 0.0239 0.0480 0.0779 27.3913 0.0434 6.4989
# 5 11.4713 12.1417 13.8759 0.0434 31.2148 0.0766
# 6 -0.0274 0.0754 -0.0009 6.4989 0.0766 27.3054
#
#
#
# Elastic Compliance Matrix: (Units=1/GPa)
#
#
# Indices 1 2 3 4 5 6 
#
# 1 0.012933 -0.005707 -0.001262 -0.000003 -0.001972 0.000035
# 2 -0.005707 0.020586 -0.006940 0.000007 -0.002825 -0.000056
# 3 -0.001262 -0.006940 0.014733 -0.000032 -0.003386 0.000035
# 4 -0.000003 0.000007 -0.000032 0.038693 -0.000019 -0.009209
# 5 -0.001972 -0.002825 -0.003386 -0.000019 0.035365 -0.000089
# 6 0.000035 -0.000056 0.000035 -0.009209 -0.000089 0.038815
#
#
# Mechanical properties :
#
#
# Convention : Reuss Voigt Hill
#
# Bulk Modulus (GPa) = 48.93662 54.14810 51.54236
# Shear Modulus (GPa) = 25.54237 27.67162 26.60699
#
# Velocity S-wave (km/s) = 3.45531 3.59645 3.52659
# Velocity P-wave (km/s) = 6.22842 6.52351 6.37767
#
# Compressibility (1/GPa) = 0.02043459
#
# Stress axis : x y z
#
# Youngs Moduli (GPa) = 77.32235 48.57751 67.87515
#
# Poissons Ratio (x) = 0.27722 0.08565
# Poissons Ratio (y) = 0.44126 0.47104
# Poissons Ratio (z) = 0.09757 0.33712
#
# Static dielectric constant tensor:
#      x y z
#    x 1.783710 0.000010 0.040330 
#    y 0.000010 1.815570 -0.000030 
#    z 0.040330 -0.000030 1.867300 
# 
# From -- ./inp_files/20955.got.cif
#   From: 2010.05.17/outbox.cif.g08.bks.cpg/sg9_11_cif.got.tgz:20955.got - 2010.06.03 20:04:27.
