data_PCOD9138137
_publ_section_title
;
Structure prediction by ZEFSAII (Michael W. Deem and Ramdas Pophale) SiO2 
 PCOD9138137
Probable space group: C C
;
_chemical_formula_sum "Si O2"
_cell_formula_units_Z 24
_cell_length_a 5.451996
_cell_length_b 23.522046
_cell_length_c 8.595998
_cell_angle_alpha 90.000000
_cell_angle_beta 96.694879
_cell_angle_gamma 90.000000
_cell_volume 1094.851869
_symmetry_space_group_name_H-M "C C"
_symmetry_group_IT_number 9
_symmetry_cell_setting 'monoclinic'
loop_
_space_group_symop_operation_xyz
x,y,z
x,-y,1/2+z
1/2+x,1/2+y,z
1/2+x,1/2-y,1/2+z
loop_
_atom_site_type_symbol
_atom_site_label
_atom_site_fract_x
_atom_site_fract_y
_atom_site_fract_z
Si Si1 0.072770 0.003552 0.807840
Si Si2 0.592819 0.707291 0.132546
Si Si3 0.733300 0.967035 0.529684
Si Si4 0.412944 0.181721 0.445618
Si Si5 0.579665 0.146639 0.132250
Si Si6 0.869491 0.562974 0.582548
O O1 0.283523 0.041463 0.745024
O O2 0.958009 0.964170 0.667426
O O3 0.853918 0.039587 0.870459
O O4 0.171182 0.962606 0.947708
O O5 0.683926 0.705089 0.321435
O O6 0.340440 0.671685 0.095376
O O7 0.833150 0.680575 0.065947
O O8 0.536611 0.768016 0.052153
O O9 0.553604 0.917657 0.572673
O O10 0.611476 0.028795 0.543853
O O11 0.578073 0.153739 0.319732
O O12 0.363833 0.129934 0.558775
#
# Coordination Sequence:
#
# PCOD9138137 Si02
#       6
#     4   4   4   4   4   4
#     4  10  23  38  68 107 141 178 233 278 374 429
#     4  10  25  45  73  99 139 191 239 295 355 414
#     4  11  22  43  66 106 138 185 226 294 362 428
#     4  10  24  46  72 100 144 185 246 296 357 419
#     4  10  24  44  73  97 143 182 235 299 354 422
#     4  11  22  44  68 103 141 183 227 298 354 436
#
# _framework density 21.920770999999998
#
# number of rings (size 3 to 8) (size 9 to 14) (size 15 to 20)
#    1.000    0.667    0.000    4.000    7.000    1.333 
#    9.000    0.000    0.000    0.000    0.000    0.000 
#    0.000    0.000    0.000    0.000    0.000    0.000 
#
# Total GULP energy -66929.490258 kJ/mol
# GULP energy per Si atom -5577.457521 kJ/mol
# Density = 2.187088 g / cm^3
# Si number density = 21.920771 Si / 1000 Ang^3
#
#
#
# Elastic Constant Matrix: (Units=GPa)
#
#
# Indices 1 2 3 4 5 6 
#
# 1 102.8496 3.2758 31.0383 0.0000 0.3337 0.0000
# 2 3.2758 28.9794 77.1464 0.0000 19.1042 0.0000
# 3 31.0383 77.1464 42.2095 0.0000 -16.5208 0.0000
# 4 0.0000 0.0000 0.0000 34.0967 0.0000 -0.1521
# 5 0.3337 19.1042 -16.5208 0.0000 28.8175 0.0000
# 6 0.0000 0.0000 0.0000 -0.1521 0.0000 28.9630
#
#
#
# Elastic Compliance Matrix: (Units=1/GPa)
#
#
# Indices 1 2 3 4 5 6 
#
# 1 0.009731 -0.003570 0.000324 0.000000 0.002439 0.000000
# 2 -0.003570 -0.003220 0.012071 0.000000 0.009096 0.000000
# 3 0.000324 0.012071 -0.002247 0.000000 -0.009294 0.000000
# 4 0.000000 0.000000 0.000000 0.029329 0.000000 0.000154
# 5 0.002439 0.009096 -0.009294 0.000000 0.023314 0.000000
# 6 0.000000 0.000000 0.000000 0.000154 0.000000 0.034528
#
#
# Mechanical properties :
#
#
# Convention : Reuss Voigt Hill
#
# Bulk Modulus (GPa) = 45.63290 44.10661 44.86975
# Shear Modulus (GPa) = 61.65983 22.54730 42.10357
#
# Velocity S-wave (km/s) = 5.30938 3.21063 4.38735
# Velocity P-wave (km/s) = 7.64516 5.82313 6.79549
#
# Compressibility (1/GPa) = 0.02191402
#
# Stress axis : x y z
#
# Youngs Moduli (GPa) = 102.76393 -310.53360 -445.11952
#
# Poissons Ratio (x) = -1.10854 0.14407
# Poissons Ratio (y) = 0.36684 5.37305
# Poissons Ratio (z) = -0.03326 3.74846
#
# Static dielectric constant tensor:
#      x y z
#    x 1.884170 0.000000 -0.000600 
#    y 0.000000 1.779510 0.000000 
#    z -0.000600 0.000000 1.855150 
# 
# From -- ./inp_files/3958.got.cif
#   From: 2010.05.17/outbox.cif.g08.bks.cpg/sg9_2_cif.got.tgz:3958.got - 2010.06.03 20:04:27.
