data_PCOD9138357
_publ_section_title
;
Structure prediction by ZEFSAII (Michael W. Deem and Ramdas Pophale) SiO2 
 PCOD9138357
Probable space group: C C
;
_chemical_formula_sum "Si O2"
_cell_formula_units_Z 28
_cell_length_a 24.899620
_cell_length_b 6.980640
_cell_length_c 12.099157
_cell_angle_alpha 90.000000
_cell_angle_beta 147.960270
_cell_angle_gamma 90.000000
_cell_volume 1115.666383
_symmetry_space_group_name_H-M "C C"
_symmetry_group_IT_number 9
_symmetry_cell_setting 'monoclinic'
loop_
_space_group_symop_operation_xyz
x,y,z
x,-y,1/2+z
1/2+x,1/2+y,z
1/2+x,1/2-y,1/2+z
loop_
_atom_site_type_symbol
_atom_site_label
_atom_site_fract_x
_atom_site_fract_y
_atom_site_fract_z
Si Si1 0.992010 0.196180 0.004810
Si Si2 0.832130 0.855328 0.496049
Si Si3 0.103978 0.448744 0.778717
Si Si4 0.426270 0.722795 0.395323
Si Si5 0.802571 0.496154 0.335853
Si Si6 0.807443 0.236097 0.544049
Si Si7 0.627528 0.732956 0.036191
O O1 0.068455 0.332008 0.205497
O O2 0.052640 0.153078 0.996388
O O3 0.869242 0.311964 0.977747
O O4 0.890382 0.296711 0.778808
O O5 0.866071 0.789539 0.676209
O O6 0.713526 0.848465 0.254987
O O7 0.955435 0.008630 0.485957
O O8 0.856343 0.078575 0.546124
O O9 0.031120 0.336574 0.567120
O O10 0.217492 0.379793 0.948289
O O11 0.081639 0.366619 0.862123
O O12 0.358337 0.841705 0.361069
O O13 0.776311 0.409033 0.410937
O O14 0.696082 0.567376 0.100249
#
# Coordination Sequence:
#
# PCOD9138357 Si02
#       7
#     4   4   4   4   4   4   4
#     4  11  25  49  71 109 160 203 269 330 393 487
#     4   9  23  45  68 104 153 193 262 322 397 466
#     4  12  25  44  73 114 151 211 265 330 400 474
#     4  11  25  44  76 108 152 212 263 332 405 468
#     4  10  23  42  74 109 150 200 268 330 396 475
#     4  11  23  45  75 105 155 207 262 331 400 468
#     4  10  24  47  71 109 159 202 267 331 405 468
#
# _framework density 25.097107000000001
#
# number of rings (size 3 to 8) (size 9 to 14) (size 15 to 20)
#    0.857    0.571    1.429    2.571    4.000    3.429 
#    2.571    1.429    0.000    0.000    0.000    0.000 
#    0.000    0.000    0.000    0.000    0.000    0.000 
#
# Total GULP energy -78196.234052 kJ/mol
# GULP energy per Si atom -5585.445289 kJ/mol
# Density = 2.503998 g / cm^3
# Si number density = 25.097107 Si / 1000 Ang^3
#
#
#
# Elastic Constant Matrix: (Units=GPa)
#
#
# Indices 1 2 3 4 5 6 
#
# 1 87.6565 43.3350 24.4489 0.0000 0.9549 0.0000
# 2 43.3350 143.0694 34.1221 0.0000 -17.8467 0.0000
# 3 24.4489 34.1221 110.5616 0.0000 0.7549 0.0000
# 4 0.0000 0.0000 0.0000 50.1203 0.0000 -5.1629
# 5 0.9549 -17.8467 0.7549 0.0000 30.3331 0.0000
# 6 0.0000 0.0000 0.0000 -5.1629 0.0000 39.6784
#
#
#
# Elastic Compliance Matrix: (Units=1/GPa)
#
#
# Indices 1 2 3 4 5 6 
#
# 1 0.013999 -0.004169 -0.001790 0.000000 -0.002849 0.000000
# 2 -0.004169 0.009454 -0.002035 0.000000 0.005744 0.000000
# 3 -0.001790 -0.002035 0.010078 0.000000 -0.001392 0.000000
# 4 0.000000 0.000000 0.000000 0.020223 0.000000 0.002631
# 5 -0.002849 0.005744 -0.001392 0.000000 0.036471 0.000000
# 6 0.000000 0.000000 0.000000 0.002631 0.000000 0.025545
#
#
# Mechanical properties :
#
#
# Convention : Reuss Voigt Hill
#
# Bulk Modulus (GPa) = 56.99852 60.56663 58.78257
# Shear Modulus (GPa) = 36.33542 39.98512 38.16027
#
# Velocity S-wave (km/s) = 3.80912 3.99584 3.90360
# Velocity P-wave (km/s) = 6.48894 6.74346 6.61742
#
# Compressibility (1/GPa) = 0.01754432
#
# Stress axis : x y z
#
# Youngs Moduli (GPa) = 71.43181 105.77191 99.22507
#
# Poissons Ratio (x) = 0.44095 0.17758
# Poissons Ratio (y) = 0.29779 0.20194
# Poissons Ratio (z) = 0.12784 0.21526
#
# Static dielectric constant tensor:
#      x y z
#    x 2.078300 0.000000 0.047530 
#    y 0.000000 2.035310 0.000000 
#    z 0.047530 0.000000 1.932290 
# 
# From -- ./inp_files/20849.got.cif
#   From: 2010.05.17/outbox.cif.g08.bks.cpg/sg9_11_cif.got.tgz:20849.got - 2010.06.03 20:04:27.
