data_PCOD9138210
_publ_section_title
;
Structure prediction by ZEFSAII (Michael W. Deem and Ramdas Pophale) SiO2 
 PCOD9138210
Probable space group: C C
;
_chemical_formula_sum "Si O2"
_cell_formula_units_Z 24
_cell_length_a 14.121049
_cell_length_b 10.870975
_cell_length_c 9.356131
_cell_angle_alpha 90.000000
_cell_angle_beta 43.872417
_cell_angle_gamma 90.000000
_cell_volume 995.403967
_symmetry_space_group_name_H-M "C C"
_symmetry_group_IT_number 9
_symmetry_cell_setting 'monoclinic'
loop_
_space_group_symop_operation_xyz
x,y,z
x,-y,1/2+z
1/2+x,1/2+y,z
1/2+x,1/2-y,1/2+z
loop_
_atom_site_type_symbol
_atom_site_label
_atom_site_fract_x
_atom_site_fract_y
_atom_site_fract_z
Si Si1 0.277360 0.735766 0.790090
Si Si2 0.769105 0.498733 0.182636
Si Si3 0.953183 0.995422 0.096773
Si Si4 0.796994 0.081522 0.025264
Si Si5 0.350077 0.147578 0.838690
Si Si6 0.132296 0.658668 0.687993
O O1 0.312335 0.872886 0.711182
O O2 0.391124 0.636807 0.614895
O O3 0.261736 0.703037 0.973795
O O4 0.144116 0.700184 0.841284
O O5 0.608772 0.482555 0.390303
O O6 0.849619 0.391149 0.174363
O O7 0.795867 0.528923 0.988831
O O8 0.920078 0.984357 0.300432
O O9 0.854643 0.090174 0.121169
O O10 0.673796 0.984931 0.145173
O O11 0.496225 0.176595 0.746448
O O12 0.245707 0.255684 0.990188
#
# Coordination Sequence:
#
# PCOD9138210 Si02
#       6
#     4   4   4   4   4   4
#     4   8  21  35  67  86 124 168 203 251 312 384
#     4  11  23  41  64  96 126 167 216 266 311 376
#     4   9  19  36  64  92 122 163 211 254 318 369
#     4   9  19  38  63  91 120 170 208 258 311 386
#     4  11  27  41  69  91 134 166 217 263 315 381
#     4  10  23  41  65  94 128 172 211 254 327 380
#
# _framework density 24.110814999999999
#
# number of rings (size 3 to 8) (size 9 to 14) (size 15 to 20)
#    1.000    1.333    0.000    1.000   18.667    0.000 
#    3.000    0.000    0.000    0.000    0.000    0.000 
#    0.000    0.000    0.000    0.000    0.000    0.000 
#
# Total GULP energy -66995.427905 kJ/mol
# GULP energy per Si atom -5582.952325 kJ/mol
# Density = 2.405594 g / cm^3
# Si number density = 24.110815 Si / 1000 Ang^3
#
#
#
# Elastic Constant Matrix: (Units=GPa)
#
#
# Indices 1 2 3 4 5 6 
#
# 1 106.9629 20.3829 32.8868 0.0000 -18.5755 0.0000
# 2 20.3829 60.8002 -7.8352 0.0000 1.0169 0.0000
# 3 32.8868 -7.8352 47.4367 0.0000 -17.7989 0.0000
# 4 0.0000 0.0000 0.0000 29.2810 0.0000 16.4595
# 5 -18.5755 1.0169 -17.7989 0.0000 54.4166 0.0000
# 6 0.0000 0.0000 0.0000 16.4595 0.0000 30.1964
#
#
#
# Elastic Compliance Matrix: (Units=1/GPa)
#
#
# Indices 1 2 3 4 5 6 
#
# 1 0.013821 -0.005945 -0.009976 0.000000 0.001566 0.000000
# 2 -0.005945 0.019384 0.007325 0.000000 0.000004 0.000000
# 3 -0.009976 0.007325 0.031778 0.000000 0.006852 0.000000
# 4 0.000000 0.000000 0.000000 0.049239 0.000000 -0.026839
# 5 0.001566 0.000004 0.006852 0.000000 0.021152 0.000000
# 6 0.000000 0.000000 0.000000 -0.026839 0.000000 0.047746
#
#
# Mechanical properties :
#
#
# Convention : Reuss Voigt Hill
#
# Bulk Modulus (GPa) = 20.92478 34.00763 27.46620
# Shear Modulus (GPa) = 23.12207 34.09650 28.60928
#
# Velocity S-wave (km/s) = 3.10012 3.76461 3.44841
# Velocity P-wave (km/s) = 4.63807 5.74732 5.22223
#
# Compressibility (1/GPa) = 0.04779024
#
# Stress axis : x y z
#
# Youngs Moduli (GPa) = 72.35229 51.58803 31.46843
#
# Poissons Ratio (x) = 0.30671 0.31394
# Poissons Ratio (y) = 0.43016 -0.23051
# Poissons Ratio (z) = 0.72182 -0.37789
#
# Static dielectric constant tensor:
#      x y z
#    x 1.910870 0.000000 0.025490 
#    y 0.000000 1.907890 0.000000 
#    z 0.025490 0.000000 1.953030 
# 
# From -- ./inp_files/18001.got.cif
#   From: 2010.05.17/outbox.cif.g08.bks.cpg/sg9_10_cif.got.tgz:18001.got - 2010.06.03 20:04:27.
