data_PCOD9138389
_publ_section_title
;
Structure prediction by ZEFSAII (Michael W. Deem and Ramdas Pophale) SiO2 
 PCOD9138389
Probable space group: C C
;
_chemical_formula_sum "Si O2"
_cell_formula_units_Z 28
_cell_length_a 12.473131
_cell_length_b 7.072848
_cell_length_c 19.596591
_cell_angle_alpha 90.000000
_cell_angle_beta 45.194490
_cell_angle_gamma 90.000000
_cell_volume 1226.604504
_symmetry_space_group_name_H-M "C C"
_symmetry_group_IT_number 9
_symmetry_cell_setting 'monoclinic'
loop_
_space_group_symop_operation_xyz
x,y,z
x,-y,1/2+z
1/2+x,1/2+y,z
1/2+x,1/2-y,1/2+z
loop_
_atom_site_type_symbol
_atom_site_label
_atom_site_fract_x
_atom_site_fract_y
_atom_site_fract_z
Si Si1 0.345330 0.320422 0.051500
Si Si2 0.688427 0.213648 0.935343
Si Si3 0.542594 0.724891 0.223543
Si Si4 0.393085 0.400908 0.221868
Si Si5 0.004252 0.505784 0.112869
Si Si6 0.281192 0.882167 0.437316
Si Si7 0.423854 0.330775 0.579461
O O1 0.215881 0.261178 0.163780
O O2 0.023437 0.363215 0.166985
O O3 0.350906 0.551545 0.050318
O O4 0.309548 0.196898 0.000510
O O5 0.782119 0.390363 0.923801
O O6 0.756977 0.135731 0.834775
O O7 0.660396 0.053661 0.004183
O O8 0.515958 0.274391 0.996959
O O9 0.516763 0.510065 0.212402
O O10 0.412566 0.787195 0.333594
O O11 0.397710 0.889067 0.107759
O O12 0.447769 0.200961 0.169660
O O13 0.372325 0.547079 0.168828
O O14 0.107570 0.838374 0.493493
#
# Coordination Sequence:
#
# PCOD9138389 Si02
#       7
#     4   4   4   4   4   4   4
#     4  11  23  43  66 102 139 178 243 306 345 433
#     4  11  24  41  73 100 142 189 240 298 372 427
#     4  11  24  42  74  95 140 190 240 294 366 434
#     4  11  21  42  70  96 134 193 231 292 372 431
#     4  11  20  44  67  94 136 180 234 288 362 430
#     4  11  21  43  68  98 139 186 233 298 363 432
#     4  10  23  43  66  97 140 184 227 298 366 421
#
# _framework density 22.827244
#
# number of rings (size 3 to 8) (size 9 to 14) (size 15 to 20)
#    0.000    1.143    7.143    0.857    2.000    0.000 
#    5.143    0.000    3.143    0.000    0.000    0.000 
#    0.000    0.000    0.000    0.000    0.000    0.000 
#
# Total GULP energy -78086.565589 kJ/mol
# GULP energy per Si atom -5577.611828 kJ/mol
# Density = 2.277529 g / cm^3
# Si number density = 22.827244 Si / 1000 Ang^3
#
#
#
# Elastic Constant Matrix: (Units=GPa)
#
#
# Indices 1 2 3 4 5 6 
#
# 1 80.4277 39.2060 32.7841 0.0000 -15.4475 0.0000
# 2 39.2060 171.6925 54.2277 0.0000 -6.0155 0.0001
# 3 32.7841 54.2277 189.4288 0.0000 -2.0375 0.0000
# 4 0.0000 0.0000 0.0000 38.5587 0.0000 3.5578
# 5 -15.4475 -6.0155 -2.0375 0.0000 22.0034 0.0000
# 6 0.0000 0.0001 0.0000 3.5578 0.0000 35.1628
#
#
#
# Elastic Compliance Matrix: (Units=1/GPa)
#
#
# Indices 1 2 3 4 5 6 
#
# 1 0.016669 -0.002809 -0.001965 0.000000 0.010753 0.000000
# 2 -0.002809 0.006932 -0.001501 0.000000 -0.000216 0.000000
# 3 -0.001965 -0.001501 0.006035 0.000000 -0.001231 0.000000
# 4 0.000000 0.000000 0.000000 0.026179 0.000000 -0.002649
# 5 0.010753 -0.000216 -0.001231 0.000000 0.052824 0.000000
# 6 0.000000 0.000000 0.000000 -0.002649 0.000000 0.028707
#
#
# Mechanical properties :
#
#
# Convention : Reuss Voigt Hill
#
# Bulk Modulus (GPa) = 58.52309 77.10940 67.81624
# Shear Modulus (GPa) = 32.13541 40.16705 36.15123
#
# Velocity S-wave (km/s) = 3.75609 4.19932 3.98387
# Velocity P-wave (km/s) = 6.67113 7.57399 7.13685
#
# Compressibility (1/GPa) = 0.01708727
#
# Stress axis : x y z
#
# Youngs Moduli (GPa) = 59.99129 144.25423 165.68700
#
# Poissons Ratio (x) = 0.40521 0.32559
# Poissons Ratio (y) = 0.16851 0.24864
# Poissons Ratio (z) = 0.11789 0.21648
#
# Static dielectric constant tensor:
#      x y z
#    x 1.922810 0.000000 0.014410 
#    y 0.000000 1.923010 0.000000 
#    z 0.014410 0.000000 1.858660 
# 
# From -- ./inp_files/33576.got.cif
#   From: 2010.05.17/outbox.cif.g08.bks.cpg/sg9_17_cif.got.tgz:33576.got - 2010.06.03 20:04:27.
