data_PCOD9138558
_publ_section_title
;
Structure prediction by ZEFSAII (Michael W. Deem and Ramdas Pophale) SiO2 
 PCOD9138558
Probable space group: C C
;
_chemical_formula_sum "Si O2"
_cell_formula_units_Z 32
_cell_length_a 10.330034
_cell_length_b 9.492019
_cell_length_c 13.705068
_cell_angle_alpha 90.000000
_cell_angle_beta 71.749283
_cell_angle_gamma 90.000000
_cell_volume 1276.220718
_symmetry_space_group_name_H-M "C C"
_symmetry_group_IT_number 9
_symmetry_cell_setting 'monoclinic'
loop_
_space_group_symop_operation_xyz
x,y,z
x,-y,1/2+z
1/2+x,1/2+y,z
1/2+x,1/2-y,1/2+z
loop_
_atom_site_type_symbol
_atom_site_label
_atom_site_fract_x
_atom_site_fract_y
_atom_site_fract_z
Si Si1 0.236810 0.145442 0.760370
Si Si2 0.288725 0.648768 0.541513
Si Si3 0.762040 0.972081 0.744185
Si Si4 0.760810 0.481191 0.557271
Si Si5 0.959663 0.553272 0.264166
Si Si6 0.056093 0.459053 0.519339
Si Si7 0.441293 0.445026 0.391518
Si Si8 0.746063 0.278286 0.930499
O O1 0.276639 0.304251 0.723794
O O2 0.221305 0.044348 0.670372
O O3 0.366565 0.085686 0.787176
O O4 0.091087 0.120756 0.846036
O O5 0.289182 0.574744 0.646792
O O6 0.257962 0.813723 0.554084
O O7 0.165464 0.580713 0.508796
O O8 0.421269 0.590635 0.454086
O O9 0.596427 0.971479 0.793665
O O10 0.862986 0.021317 0.807044
O O11 0.692735 0.581147 0.494437
O O12 0.919729 0.515710 0.504857
O O13 0.849780 0.671284 0.321739
O O14 0.011746 0.584958 0.141190
O O15 0.120711 0.327343 0.448209
O O16 0.346780 0.327082 0.467011
#
# Coordination Sequence:
#
# PCOD9138558 Si02
#       8
#     4   4   4   4   4   4   4   4
#     4  11  25  47  70 107 140 189 242 297 363 429
#     4  10  25  46  69 105 140 187 240 293 356 435
#     4  11  25  49  75 102 152 187 238 302 364 427
#     4  11  25  45  72  99 144 185 239 301 360 424
#     4  10  23  44  72 104 140 182 239 294 354 422
#     4   9  23  46  67  97 144 187 236 290 360 426
#     4  11  26  45  76 106 143 193 243 293 369 433
#     4  11  24  42  71 100 141 190 229 294 358 428
#
# _framework density 25.074034000000001
#
# number of rings (size 3 to 8) (size 9 to 14) (size 15 to 20)
#    0.000    1.500    1.250    2.250   10.500    3.000 
#    0.000    0.000    0.000    0.000    0.000    0.000 
#    0.000    0.000    0.000    0.000    0.000    0.000 
#
# Total GULP energy -89391.728063 kJ/mol
# GULP energy per Si atom -5586.983004 kJ/mol
# Density = 2.501696 g / cm^3
# Si number density = 25.074034 Si / 1000 Ang^3
#
#
#
# Elastic Constant Matrix: (Units=GPa)
#
#
# Indices 1 2 3 4 5 6 
#
# 1 117.8701 38.3026 9.4058 0.0000 1.5499 0.0000
# 2 38.3026 224.1475 24.4416 0.0000 15.5753 0.0000
# 3 9.4058 24.4416 49.0033 0.0000 1.3978 0.0000
# 4 0.0000 0.0000 0.0000 33.0524 0.0000 -0.0517
# 5 1.5499 15.5753 1.3978 0.0000 23.9985 0.0000
# 6 0.0000 0.0000 0.0000 -0.0517 0.0000 41.9751
#
#
#
# Elastic Compliance Matrix: (Units=1/GPa)
#
#
# Indices 1 2 3 4 5 6 
#
# 1 0.009035 -0.001463 -0.001017 0.000000 0.000425 0.000000
# 2 -0.001463 0.005170 -0.002208 0.000000 -0.003132 0.000000
# 3 -0.001017 -0.002208 0.021697 0.000000 0.000235 0.000000
# 4 0.000000 0.000000 0.000000 0.030255 0.000000 0.000037
# 5 0.000425 -0.003132 0.000235 0.000000 0.043661 0.000000
# 6 0.000000 0.000000 0.000000 0.000037 0.000000 0.023824
#
#
# Mechanical properties :
#
#
# Convention : Reuss Voigt Hill
#
# Bulk Modulus (GPa) = 37.69936 59.48010 48.58973
# Shear Modulus (GPa) = 32.92545 41.06327 36.99436
#
# Velocity S-wave (km/s) = 3.62764 4.05122 3.84527
# Velocity P-wave (km/s) = 5.71089 6.75695 6.25583
#
# Compressibility (1/GPa) = 0.02652565
#
# Stress axis : x y z
#
# Youngs Moduli (GPa) = 110.68407 193.43394 46.08986
#
# Poissons Ratio (x) = 0.28290 0.04686
# Poissons Ratio (y) = 0.16188 0.10179
# Poissons Ratio (z) = 0.11254 0.42719
#
# Static dielectric constant tensor:
#      x y z
#    x 1.976050 0.000000 0.033600 
#    y 0.000000 2.000780 0.000000 
#    z 0.033600 0.000000 2.089040 
# 
# From -- ./inp_files/29904.got.cif
#   From: 2010.05.17/outbox.cif.g08.bks.cpg/sg9_15_cif.got.tgz:29904.got - 2010.06.03 20:04:27.
