data_PCOD9138594
_publ_section_title
;
Structure prediction by ZEFSAII (Michael W. Deem and Ramdas Pophale) SiO2 
 PCOD9138594
Probable space group: C C
;
_chemical_formula_sum "Si O2"
_cell_formula_units_Z 32
_cell_length_a 7.790386
_cell_length_b 25.083698
_cell_length_c 8.615240
_cell_angle_alpha 90.000000
_cell_angle_beta 54.307826
_cell_angle_gamma 90.000000
_cell_volume 1367.291900
_symmetry_space_group_name_H-M "C C"
_symmetry_group_IT_number 9
_symmetry_cell_setting 'monoclinic'
loop_
_space_group_symop_operation_xyz
x,y,z
x,-y,1/2+z
1/2+x,1/2+y,z
1/2+x,1/2-y,1/2+z
loop_
_atom_site_type_symbol
_atom_site_label
_atom_site_fract_x
_atom_site_fract_y
_atom_site_fract_z
Si Si1 0.237200 0.301857 0.109200
Si Si2 0.812568 0.678022 0.017768
Si Si3 0.490187 0.380382 0.168527
Si Si4 0.585148 0.890863 0.592318
Si Si5 0.514400 0.994880 0.791539
Si Si6 0.274084 0.054710 0.701023
Si Si7 0.442595 0.463482 0.935211
Si Si8 0.360821 0.370011 0.748272
O O1 0.251638 0.238644 0.090122
O O2 0.422504 0.324899 0.124898
O O3 0.008053 0.319182 0.294563
O O4 0.275971 0.329610 0.923683
O O5 0.598120 0.648378 0.080861
O O6 0.911940 0.648828 0.115429
O O7 0.273536 0.396879 0.368798
O O8 0.680297 0.389618 0.189599
O O9 0.542504 0.421428 0.002916
O O10 0.483712 0.947626 0.682494
O O11 0.704994 0.871866 0.684612
O O12 0.378585 0.046859 0.814291
O O13 0.751843 0.012269 0.635755
O O14 0.440435 0.968131 0.988763
O O15 0.082844 0.012501 0.806471
O O16 0.374977 0.427290 0.825521
#
# Coordination Sequence:
#
# PCOD9138594 Si02
#       8
#     4   4   4   4   4   4   4   4
#     4  10  23  47  75 102 142 180 234 296 362 425
#     4  11  23  49  75 100 142 187 225 295 372 413
#     4  10  23  45  64  96 140 179 225 287 347 407
#     4  11  25  46  70 107 137 182 244 288 346 430
#     4  12  25  40  65  97 138 183 233 283 342 416
#     4  12  24  39  65  95 134 188 229 274 349 407
#     4  11  24  44  62  95 143 179 227 289 339 408
#     4  11  25  46  72 102 142 180 235 298 345 424
#
# _framework density 23.403929000000002
#
# number of rings (size 3 to 8) (size 9 to 14) (size 15 to 20)
#    0.000    1.000    3.750    2.250    5.250    2.000 
#    6.750    0.000    0.000    0.000    0.000    0.000 
#    0.000    0.000    0.000    0.000    0.000    0.000 
#
# Total GULP energy -89560.127046 kJ/mol
# GULP energy per Si atom -5597.507940 kJ/mol
# Density = 2.335066 g / cm^3
# Si number density = 23.403929 Si / 1000 Ang^3
#
#
#
# Elastic Constant Matrix: (Units=GPa)
#
#
# Indices 1 2 3 4 5 6 
#
# 1 109.3413 34.7677 35.4377 0.0000 -4.6061 0.0000
# 2 34.7677 76.2864 31.1654 0.0000 -3.4475 0.0000
# 3 35.4377 31.1654 102.3209 0.0000 -12.2958 0.0000
# 4 0.0000 0.0000 0.0000 34.3604 0.0000 -5.3540
# 5 -4.6061 -3.4475 -12.2958 0.0000 39.3800 0.0000
# 6 0.0000 0.0000 0.0000 -5.3540 0.0000 28.9294
#
#
#
# Elastic Compliance Matrix: (Units=1/GPa)
#
#
# Indices 1 2 3 4 5 6 
#
# 1 0.011305 -0.004058 -0.002663 0.000000 0.000136 0.000000
# 2 -0.004058 0.016429 -0.003618 0.000000 -0.000166 0.000000
# 3 -0.002663 -0.003618 0.012179 0.000000 0.003174 0.000000
# 4 0.000000 0.000000 0.000000 0.029967 0.000000 0.005546
# 5 0.000136 -0.000166 0.003174 0.000000 0.026386 0.000000
# 6 0.000000 0.000000 0.000000 0.005546 0.000000 0.035593
#
#
# Mechanical properties :
#
#
# Convention : Reuss Voigt Hill
#
# Bulk Modulus (GPa) = 51.99254 54.52113 53.25684
# Shear Modulus (GPa) = 31.45646 32.97248 32.21447
#
# Velocity S-wave (km/s) = 3.67013 3.75753 3.71409
# Velocity P-wave (km/s) = 6.34219 6.49397 6.41853
#
# Compressibility (1/GPa) = 0.01923353
#
# Stress axis : x y z
#
# Youngs Moduli (GPa) = 88.45761 60.86891 82.10819
#
# Poissons Ratio (x) = 0.24702 0.21865
# Poissons Ratio (y) = 0.35898 0.29710
# Poissons Ratio (z) = 0.23556 0.22025
#
# Static dielectric constant tensor:
#      x y z
#    x 1.956760 0.000000 0.023230 
#    y 0.000000 1.868060 0.000000 
#    z 0.023230 0.000000 1.897040 
# 
# From -- ./inp_files/6358.got.cif
#   From: 2010.05.17/outbox.cif.g08.bks.cpg/sg9_4_cif.got.tgz:6358.got - 2010.06.03 20:04:27.
