data_PCOD9138952
_publ_section_title
;
Structure prediction by ZEFSAII (Michael W. Deem and Ramdas Pophale) SiO2 
 PCOD9138952
Probable space group: C C
;
_chemical_formula_sum "Si O2"
_cell_formula_units_Z 32
_cell_length_a 14.256536
_cell_length_b 12.014257
_cell_length_c 18.252145
_cell_angle_alpha 90.000000
_cell_angle_beta 150.706772
_cell_angle_gamma 90.000000
_cell_volume 1529.613656
_symmetry_space_group_name_H-M "C C"
_symmetry_group_IT_number 9
_symmetry_cell_setting 'monoclinic'
loop_
_space_group_symop_operation_xyz
x,y,z
x,-y,1/2+z
1/2+x,1/2+y,z
1/2+x,1/2-y,1/2+z
loop_
_atom_site_type_symbol
_atom_site_label
_atom_site_fract_x
_atom_site_fract_y
_atom_site_fract_z
Si Si1 0.046260 0.352424 0.380590
Si Si2 0.237736 0.191925 0.793596
Si Si3 0.590630 0.836806 0.144828
Si Si4 0.449559 0.396743 0.979991
Si Si5 0.273194 0.992555 0.105710
Si Si6 0.479317 0.638802 0.967856
Si Si7 0.283397 0.004905 0.938521
Si Si8 0.484723 0.312602 0.710226
O O1 0.270032 0.353567 0.549907
O O2 0.917792 0.346868 0.365979
O O3 0.967113 0.453918 0.276850
O O4 0.003973 0.243533 0.302650
O O5 0.053021 0.160822 0.619326
O O6 0.243500 0.120055 0.871349
O O7 0.273151 0.321501 0.834738
O O8 0.818788 0.845351 0.297066
O O9 0.538101 0.784654 0.188582
O O10 0.498950 0.747702 0.028428
O O11 0.492428 0.954508 0.064132
O O12 0.611620 0.404383 0.025582
O O13 0.411404 0.528066 0.966279
O O14 0.187097 0.105835 0.079657
O O15 0.272161 0.003105 0.018544
O O16 0.132643 0.913827 0.805510
#
# Coordination Sequence:
#
# PCOD9138952 Si02
#       8
#     4   4   4   4   4   4   4   4
#     4  11  20  38  63  96 132 173 216 288 334 392
#     4  11  23  39  65  96 137 170 224 268 336 406
#     4  12  22  40  68 100 127 173 223 293 327 389
#     4   9  22  42  65  92 131 176 214 267 329 410
#     4   9  22  44  62  95 133 171 227 274 333 405
#     4  10  24  42  68  93 136 169 227 273 345 397
#     4  12  24  39  63 104 129 175 231 278 334 399
#     4  12  21  36  66  98 133 161 232 289 330 386
#
# _framework density 20.920314999999999
#
# number of rings (size 3 to 8) (size 9 to 14) (size 15 to 20)
#    0.750    0.500    3.750    3.000    1.750    1.000 
#    0.000    1.250    0.000    1.500    0.000    0.000 
#    0.000    0.000    0.000    0.000    0.000    0.000 
#
# Total GULP energy -89329.417407 kJ/mol
# GULP energy per Si atom -5583.088588 kJ/mol
# Density = 2.087270 g / cm^3
# Si number density = 20.920315 Si / 1000 Ang^3
#
#
#
# Elastic Constant Matrix: (Units=GPa)
#
#
# Indices 1 2 3 4 5 6 
#
# 1 26.8389 2.0163 3.7646 -0.0011 -9.4610 -0.0004
# 2 2.0163 52.5252 6.2467 -0.0014 -6.2161 -0.0004
# 3 3.7646 6.2467 92.0532 -0.0027 4.0247 -0.0009
# 4 -0.0011 -0.0014 -0.0027 28.8554 -0.0010 2.2705
# 5 -9.4610 -6.2161 4.0247 -0.0010 25.8758 -0.0003
# 6 -0.0004 -0.0004 -0.0009 2.2705 -0.0003 22.1195
#
#
#
# Elastic Compliance Matrix: (Units=1/GPa)
#
#
# Indices 1 2 3 4 5 6 
#
# 1 0.043345 0.000575 -0.002528 0.000002 0.016380 0.000001
# 2 0.000575 0.019824 -0.001597 0.000001 0.005221 0.000000
# 3 -0.002528 -0.001597 0.011208 0.000001 -0.003051 0.000000
# 4 0.000002 0.000001 0.000001 0.034938 0.000002 -0.003586
# 5 0.016380 0.005221 -0.003051 0.000002 0.046364 0.000001
# 6 0.000001 0.000000 0.000000 -0.003586 0.000001 0.045577
#
#
# Mechanical properties :
#
#
# Convention : Reuss Voigt Hill
#
# Bulk Modulus (GPa) = 14.86370 21.71917 18.29144
# Shear Modulus (GPa) = 21.66553 25.99612 23.83083
#
# Velocity S-wave (km/s) = 3.22160 3.52891 3.37875
# Velocity P-wave (km/s) = 4.57806 5.19699 4.89731
#
# Compressibility (1/GPa) = 0.06727799
#
# Stress axis : x y z
#
# Youngs Moduli (GPa) = 23.07089 50.44334 89.21851
#
# Poissons Ratio (x) = -0.02901 0.22552
# Poissons Ratio (y) = -0.01327 0.14249
# Poissons Ratio (z) = 0.05832 0.08056
#
# Static dielectric constant tensor:
#      x y z
#    x 1.783620 0.000000 0.007580 
#    y 0.000000 1.754900 0.000000 
#    z 0.007580 0.000000 1.731730 
# 
# From -- ./inp_files/12198.got.cif
#   From: 2010.05.17/outbox.cif.g08.bks.cpg/sg9_7_cif.got.tgz:12198.got - 2010.06.03 20:04:27.
