data_PCOD9138547
_publ_section_title
;
Structure prediction by ZEFSAII (Michael W. Deem and Ramdas Pophale) SiO2 
 PCOD9138547
Probable space group: C C
;
_chemical_formula_sum "Si O2"
_cell_formula_units_Z 28
_cell_length_a 28.833410
_cell_length_b 6.261827
_cell_length_c 12.499246
_cell_angle_alpha 90.000000
_cell_angle_beta 25.514364
_cell_angle_gamma 90.000000
_cell_volume 972.060801
_symmetry_space_group_name_H-M "C C"
_symmetry_group_IT_number 9
_symmetry_cell_setting 'monoclinic'
loop_
_space_group_symop_operation_xyz
x,y,z
x,-y,1/2+z
1/2+x,1/2+y,z
1/2+x,1/2-y,1/2+z
loop_
_atom_site_type_symbol
_atom_site_label
_atom_site_fract_x
_atom_site_fract_y
_atom_site_fract_z
Si Si1 0.664940 0.213219 0.143510
Si Si2 0.511005 0.883018 0.241368
Si Si3 0.463301 0.491586 0.993798
Si Si4 0.533422 0.836056 0.511527
Si Si5 0.332343 0.193472 0.662190
Si Si6 0.754149 0.926256 0.242788
Si Si7 0.200023 0.973946 0.766801
O O1 0.564483 0.355751 0.311182
O O2 0.707275 0.350248 0.157695
O O3 0.623162 0.974135 0.259764
O O4 0.747396 0.183648 0.874162
O O5 0.494050 0.648235 0.322702
O O6 0.427780 0.029590 0.477349
O O7 0.481048 0.968815 0.185395
O O8 0.634329 0.966673 0.988523
O O9 0.460523 0.303739 0.086321
O O10 0.360079 0.648625 0.202854
O O11 0.589849 0.656658 0.469894
O O12 0.338160 0.382510 0.561003
O O13 0.229970 0.076648 0.820881
O O14 0.773231 0.739381 0.119825
#
# Coordination Sequence:
#
# PCOD9138547 Si02
#       7
#     4   4   4   4   4   4   4
#     4  11  23  43  72 104 144 196 247 310 386 445
#     4  11  24  45  72 102 146 195 244 313 371 444
#     4  11  23  44  71 105 146 192 251 304 374 449
#     4  10  23  44  71 105 144 196 249 302 380 441
#     4  12  25  43  69 104 146 192 251 300 381 446
#     4  11  24  43  72 103 143 197 244 313 371 443
#     4  10  24  42  67 105 143 192 248 300 373 448
#
# _framework density 28.804780000000001
#
# number of rings (size 3 to 8) (size 9 to 14) (size 15 to 20)
#    0.000    1.143    2.857    2.571    4.000    2.286 
#    0.000    5.714    0.000    0.000    0.000    0.000 
#    0.000    0.000    0.000    0.000    0.000    0.000 
#
# Total GULP energy -77956.474336 kJ/mol
# GULP energy per Si atom -5568.319595 kJ/mol
# Density = 2.873922 g / cm^3
# Si number density = 28.804780 Si / 1000 Ang^3
#
#
#
# Elastic Constant Matrix: (Units=GPa)
#
#
# Indices 1 2 3 4 5 6 
#
# 1 144.9214 96.1263 49.6589 0.0000 -9.8792 0.0000
# 2 96.1263 168.9310 69.6146 0.0000 -17.4121 0.0000
# 3 49.6589 69.6146 94.2329 0.0000 -12.9297 0.0000
# 4 0.0000 0.0000 0.0000 40.9629 0.0000 -23.2687
# 5 -9.8792 -17.4121 -12.9297 0.0000 41.1179 0.0000
# 6 0.0000 0.0000 0.0000 -23.2687 0.0000 100.9927
#
#
#
# Elastic Compliance Matrix: (Units=1/GPa)
#
#
# Indices 1 2 3 4 5 6 
#
# 1 0.011279 -0.005723 -0.001752 0.000000 -0.000265 0.000000
# 2 -0.005723 0.011530 -0.005247 0.000000 0.001858 0.000000
# 3 -0.001752 -0.005247 0.015727 0.000000 0.002303 0.000000
# 4 0.000000 0.000000 0.000000 0.028088 0.000000 0.006472
# 5 -0.000265 0.001858 0.002303 0.000000 0.025767 0.000000
# 6 0.000000 0.000000 0.000000 0.006472 0.000000 0.011393
#
#
# Mechanical properties :
#
#
# Convention : Reuss Voigt Hill
#
# Bulk Modulus (GPa) = 76.38277 93.20945 84.79611
# Shear Modulus (GPa) = 37.42722 49.46040 43.44381
#
# Velocity S-wave (km/s) = 3.60855 4.14827 3.88779
# Velocity P-wave (km/s) = 6.62851 7.44134 7.04665
#
# Compressibility (1/GPa) = 0.01309196
#
# Stress axis : x y z
#
# Youngs Moduli (GPa) = 88.66176 86.73122 63.58383
#
# Poissons Ratio (x) = 0.49639 0.11140
# Poissons Ratio (y) = 0.50743 0.33361
# Poissons Ratio (z) = 0.15533 0.45506
#
# Static dielectric constant tensor:
#      x y z
#    x 2.478600 0.000000 0.037520 
#    y 0.000000 2.225480 0.000000 
#    z 0.037520 0.000000 2.389360 
# 
# From -- ./inp_files/28195.got.cif
#   From: 2010.05.17/outbox.cif.g08.bks.cpg/sg9_15_cif.got.tgz:28195.got - 2010.06.03 20:04:27.
