data_PCOD9138353
_publ_section_title
;
Structure prediction by ZEFSAII (Michael W. Deem and Ramdas Pophale) SiO2 
 PCOD9138353
Probable space group: C C
;
_chemical_formula_sum "Si O2"
_cell_formula_units_Z 32
_cell_length_a 12.092510
_cell_length_b 8.363160
_cell_length_c 14.066124
_cell_angle_alpha 90.000000
_cell_angle_beta 88.089169
_cell_angle_gamma 90.000000
_cell_volume 1421.738543
_symmetry_space_group_name_H-M "C C"
_symmetry_group_IT_number 9
_symmetry_cell_setting 'monoclinic'
loop_
_space_group_symop_operation_xyz
x,y,z
x,-y,1/2+z
1/2+x,1/2+y,z
1/2+x,1/2-y,1/2+z
loop_
_atom_site_type_symbol
_atom_site_label
_atom_site_fract_x
_atom_site_fract_y
_atom_site_fract_z
Si Si1 0.198750 0.209489 0.424250
Si Si2 0.801378 0.594939 0.978974
Si Si3 0.870924 0.036125 0.969462
Si Si4 0.381414 0.255633 0.813651
Si Si5 0.624979 0.265930 0.732658
Si Si6 0.530266 0.096639 0.050400
Si Si7 0.229507 0.562761 0.169665
Si Si8 0.084250 0.223102 0.026739
O O1 0.296364 0.337092 0.415505
O O2 0.169972 0.140472 0.321958
O O3 0.091683 0.303410 0.466196
O O4 0.242423 0.074656 0.494130
O O5 0.856596 0.595277 0.873260
O O6 0.700785 0.718995 0.970362
O O7 0.899220 0.630257 0.050955
O O8 0.804715 0.023737 0.073110
O O9 0.990049 0.111759 0.987898
O O10 0.887206 0.886740 0.898997
O O11 0.497110 0.232218 0.758222
O O12 0.294434 0.320630 0.738578
O O13 0.621068 0.341344 0.629153
O O14 0.696132 0.104214 0.719489
O O15 0.610864 0.131311 0.137026
O O16 0.542661 0.905383 0.034383
#
# Coordination Sequence:
#
# PCOD9138353 Si02
#       8
#     4   4   4   4   4   4   4   4
#     4  11  22  44  68  96 136 176 226 290 338 408
#     4  12  25  43  69 101 134 183 235 280 351 412
#     4  11  22  45  75  98 143 184 227 283 354 406
#     4  12  23  42  73 100 139 188 230 286 346 414
#     4  11  22  43  68 101 135 177 233 288 340 407
#     4  10  23  45  68  95 133 179 223 279 350 401
#     4  10  23  42  73 100 136 187 224 286 348 408
#     4  11  24  44  70  99 138 182 228 284 351 416
#
# _framework density 22.507655
#
# number of rings (size 3 to 8) (size 9 to 14) (size 15 to 20)
#    0.000    1.000    5.000    3.000    0.000    0.000 
#    9.000    0.000    0.000    0.000    0.000    0.000 
#    0.000    0.000    0.000    0.000    0.000    0.000 
#
# Total GULP energy -89305.993619 kJ/mol
# GULP energy per Si atom -5581.624601 kJ/mol
# Density = 2.245643 g / cm^3
# Si number density = 22.507655 Si / 1000 Ang^3
#
#
#
# Elastic Constant Matrix: (Units=GPa)
#
#
# Indices 1 2 3 4 5 6 
#
# 1 152.4175 25.1978 29.1776 0.0000 22.1929 0.0000
# 2 25.1978 49.9311 15.2207 0.0000 4.7910 0.0000
# 3 29.1776 15.2207 85.0950 0.0000 22.3936 0.0000
# 4 0.0000 0.0000 0.0000 23.7707 0.0000 11.5384
# 5 22.1929 4.7910 22.3936 0.0000 36.5997 0.0000
# 6 0.0000 0.0000 0.0000 11.5384 0.0000 30.5336
#
#
#
# Elastic Compliance Matrix: (Units=1/GPa)
#
#
# Indices 1 2 3 4 5 6 
#
# 1 0.007849 -0.003261 -0.001154 0.000000 -0.003627 0.000000
# 2 -0.003261 0.022547 -0.003168 0.000000 0.000965 0.000000
# 3 -0.001154 -0.003168 0.014804 0.000000 -0.007944 0.000000
# 4 0.000000 0.000000 0.000000 0.051519 0.000000 -0.019468
# 5 -0.003627 0.000965 -0.007944 0.000000 0.034256 0.000000
# 6 0.000000 0.000000 0.000000 -0.019468 0.000000 0.040108
#
#
# Mechanical properties :
#
#
# Convention : Reuss Voigt Hill
#
# Bulk Modulus (GPa) = 33.29643 47.40398 40.35020
# Shear Modulus (GPa) = 25.47638 32.70396 29.09017
#
# Velocity S-wave (km/s) = 3.36802 3.81598 3.59898
# Velocity P-wave (km/s) = 5.47268 6.36574 5.93603
#
# Compressibility (1/GPa) = 0.03003325
#
# Stress axis : x y z
#
# Youngs Moduli (GPa) = 127.40501 44.35233 67.54773
#
# Poissons Ratio (x) = 0.14465 0.07792
# Poissons Ratio (y) = 0.41551 0.21402
# Poissons Ratio (z) = 0.14697 0.14053
#
# Static dielectric constant tensor:
#      x y z
#    x 1.857820 0.000000 0.006350 
#    y 0.000000 1.859870 0.000000 
#    z 0.006350 0.000000 1.854260 
# 
# From -- ./inp_files/24221.got.cif
#   From: 2010.05.17/outbox.cif.g08.bks.cpg/sg9_13_cif.got.tgz:24221.got - 2010.06.03 20:04:27.
