data_PCOD9138110
_publ_section_title
;
Structure prediction by ZEFSAII (Michael W. Deem and Ramdas Pophale) SiO2 
 PCOD9138110
Probable space group: C C
;
_chemical_formula_sum "Si O2"
_cell_formula_units_Z 24
_cell_length_a 8.747321
_cell_length_b 12.107040
_cell_length_c 10.072351
_cell_angle_alpha 90.000000
_cell_angle_beta 116.770619
_cell_angle_gamma 90.000000
_cell_volume 952.371301
_symmetry_space_group_name_H-M "C C"
_symmetry_group_IT_number 9
_symmetry_cell_setting 'monoclinic'
loop_
_space_group_symop_operation_xyz
x,y,z
x,-y,1/2+z
1/2+x,1/2+y,z
1/2+x,1/2-y,1/2+z
loop_
_atom_site_type_symbol
_atom_site_label
_atom_site_fract_x
_atom_site_fract_y
_atom_site_fract_z
Si Si1 0.757310 0.980347 0.690370
Si Si2 0.381327 0.049213 0.157034
Si Si3 0.521136 0.312512 0.877312
Si Si4 0.912217 0.794788 0.259615
Si Si5 0.864075 0.794763 0.546719
Si Si6 0.273730 0.118851 0.842075
O O1 0.580632 0.965046 0.697243
O O2 0.915996 0.927281 0.837045
O O3 0.769200 0.906481 0.561339
O O4 0.783544 0.107928 0.669837
O O5 0.359166 0.171957 0.205120
O O6 0.321031 0.961719 0.241203
O O7 0.282036 0.048023 0.979244
O O8 0.716241 0.297756 0.993958
O O9 0.505065 0.277051 0.715125
O O10 0.407386 0.219878 0.905838
O O11 0.933778 0.803312 0.427032
O O12 0.088929 0.826150 0.256591
#
# Coordination Sequence:
#
# PCOD9138110 Si02
#       6
#     4   4   4   4   4   4
#     4  10  25  48  76 113 154 204 254 325 386 466
#     4  12  29  52  76 115 153 210 259 325 391 466
#     4  10  22  49  76 113 155 203 254 323 390 459
#     4  12  28  47  78 114 152 206 260 321 393 468
#     4  10  24  45  80 116 151 206 258 325 390 464
#     4  12  28  49  78 113 157 203 265 323 386 475
#
# _framework density 25.200254999999999
#
# number of rings (size 3 to 8) (size 9 to 14) (size 15 to 20)
#    1.000    0.000    3.333    1.000    9.333    2.667 
#    0.000    0.000    0.000    0.000    0.000    0.000 
#    0.000    0.000    0.000    0.000    0.000    0.000 
#
# Total GULP energy -67265.077731 kJ/mol
# GULP energy per Si atom -5605.423144 kJ/mol
# Density = 2.514290 g / cm^3
# Si number density = 25.200255 Si / 1000 Ang^3
#
#
#
# Elastic Constant Matrix: (Units=GPa)
#
#
# Indices 1 2 3 4 5 6 
#
# 1 122.5538 62.5523 27.7145 0.0000 -12.5601 0.0000
# 2 62.5523 143.9042 31.7335 0.0000 -2.8032 0.0000
# 3 27.7145 31.7335 101.5523 0.0000 -21.1289 0.0000
# 4 0.0000 0.0000 0.0000 37.6153 0.0000 -6.2820
# 5 -12.5601 -2.8032 -21.1289 0.0000 41.2797 0.0000
# 6 0.0000 0.0000 0.0000 -6.2820 0.0000 34.8450
#
#
#
# Elastic Compliance Matrix: (Units=1/GPa)
#
#
# Indices 1 2 3 4 5 6 
#
# 1 0.010937 -0.004469 -0.001073 0.000000 0.002475 0.000000
# 2 -0.004469 0.009312 -0.002061 0.000000 -0.001782 0.000000
# 3 -0.001073 -0.002061 0.011961 0.000000 0.005656 0.000000
# 4 0.000000 0.000000 0.000000 0.027410 0.000000 0.004942
# 5 0.002475 -0.001782 0.005656 0.000000 0.027752 0.000000
# 6 0.000000 0.000000 0.000000 0.004942 0.000000 0.029589
#
#
# Mechanical properties :
#
#
# Convention : Reuss Voigt Hill
#
# Bulk Modulus (GPa) = 58.81474 68.00119 63.40797
# Shear Modulus (GPa) = 36.27519 39.14868 37.71194
#
# Velocity S-wave (km/s) = 3.79816 3.94573 3.87265
# Velocity P-wave (km/s) = 6.52873 6.91385 6.72405
#
# Compressibility (1/GPa) = 0.01700254
#
# Stress axis : x y z
#
# Youngs Moduli (GPa) = 91.43102 107.39396 83.60693
#
# Poissons Ratio (x) = 0.47997 0.08974
# Poissons Ratio (y) = 0.40863 0.17230
# Poissons Ratio (z) = 0.09814 0.22132
#
# Static dielectric constant tensor:
#      x y z
#    x 1.957770 0.000000 0.005530 
#    y 0.000000 1.956010 0.000000 
#    z 0.005530 0.000000 2.022850 
# 
# From -- ./inp_files/14266.got.cif
#   From: 2010.05.17/outbox.cif.g08.bks.cpg/sg9_8_cif.got.tgz:14266.got - 2010.06.03 20:04:27.
