data_PCOD9138478
_publ_section_title
;
Structure prediction by ZEFSAII (Michael W. Deem and Ramdas Pophale) SiO2 
 PCOD9138478
Probable space group: C C
;
_chemical_formula_sum "Si O2"
_cell_formula_units_Z 28
_cell_length_a 22.500706
_cell_length_b 8.812880
_cell_length_c 9.335118
_cell_angle_alpha 90.000000
_cell_angle_beta 33.803533
_cell_angle_gamma 90.000000
_cell_volume 1029.862990
_symmetry_space_group_name_H-M "C C"
_symmetry_group_IT_number 9
_symmetry_cell_setting 'monoclinic'
loop_
_space_group_symop_operation_xyz
x,y,z
x,-y,1/2+z
1/2+x,1/2+y,z
1/2+x,1/2-y,1/2+z
loop_
_atom_site_type_symbol
_atom_site_label
_atom_site_fract_x
_atom_site_fract_y
_atom_site_fract_z
Si Si1 0.009590 0.230686 0.912170
Si Si2 0.412213 0.697652 0.829957
Si Si3 0.618181 0.439638 0.786066
Si Si4 0.731136 0.987608 0.148480
Si Si5 0.730534 0.698639 0.311695
Si Si6 0.608765 0.171189 0.629637
Si Si7 0.396808 0.956366 0.677333
O O1 0.118017 0.263152 0.603086
O O2 0.923272 0.159793 0.974189
O O3 0.060671 0.101723 0.907597
O O4 0.945879 0.376225 0.094385
O O5 0.525542 0.664621 0.537001
O O6 0.394182 0.873857 0.836435
O O7 0.325854 0.600323 0.919901
O O8 0.712283 0.406400 0.708306
O O9 0.631381 0.351412 0.607516
O O10 0.652390 0.095546 0.397819
O O11 0.779900 0.852704 0.148970
O O12 0.672711 0.910282 0.132507
O O13 0.787589 0.595320 0.317004
O O14 0.485742 0.127796 0.899210
#
# Coordination Sequence:
#
# PCOD9138478 Si02
#       7
#     4   4   4   4   4   4   4
#     4  11  24  48  70 106 159 200 257 332 391 466
#     4  10  25  43  74 112 147 203 268 313 400 483
#     4   9  23  48  70 106 155 202 257 325 390 481
#     4  11  22  46  79 115 154 210 253 338 397 469
#     4  10  23  46  75 113 151 202 268 324 395 481
#     4  10  23  43  78 112 157 203 263 317 405 471
#     4  11  24  46  74 110 153 202 264 323 388 479
#
# _framework density 27.188082000000001
#
# number of rings (size 3 to 8) (size 9 to 14) (size 15 to 20)
#    0.000    1.714    1.429    1.714    6.000    2.286 
#   10.286    0.000    0.000    0.000    0.000    0.000 
#    0.000    0.000    0.000    0.000    0.000    0.000 
#
# Total GULP energy -78310.387227 kJ/mol
# GULP energy per Si atom -5593.599088 kJ/mol
# Density = 2.712620 g / cm^3
# Si number density = 27.188082 Si / 1000 Ang^3
#
#
#
# Elastic Constant Matrix: (Units=GPa)
#
#
# Indices 1 2 3 4 5 6 
#
# 1 89.0914 50.1898 6.4509 0.0000 -2.1905 0.0000
# 2 50.1898 172.2288 16.5677 0.0000 -13.6956 0.0000
# 3 6.4509 16.5677 41.5223 0.0000 -16.1797 0.0000
# 4 0.0000 0.0000 0.0000 56.1888 0.0000 -1.4577
# 5 -2.1905 -13.6956 -16.1797 0.0000 27.1299 0.0000
# 6 0.0000 0.0000 0.0000 -1.4577 0.0000 39.0299
#
#
#
# Elastic Compliance Matrix: (Units=1/GPa)
#
#
# Indices 1 2 3 4 5 6 
#
# 1 0.013492 -0.003948 -0.001137 0.000000 -0.001582 0.000000
# 2 -0.003948 0.007287 -0.001283 0.000000 0.002594 0.000000
# 3 -0.001137 -0.001283 0.031896 0.000000 0.018283 0.000000
# 4 0.000000 0.000000 0.000000 0.017814 0.000000 0.000665
# 5 -0.001582 0.002594 0.018283 0.000000 0.048945 0.000000
# 6 0.000000 0.000000 0.000000 0.000665 0.000000 0.025646
#
#
# Mechanical properties :
#
#
# Convention : Reuss Voigt Hill
#
# Bulk Modulus (GPa) = 25.03886 49.91768 37.47827
# Shear Modulus (GPa) = 29.21757 39.77867 34.49812
#
# Velocity S-wave (km/s) = 3.28174 3.82919 3.56598
# Velocity P-wave (km/s) = 4.85687 6.16038 5.54705
#
# Compressibility (1/GPa) = 0.03993792
#
# Stress axis : x y z
#
# Youngs Moduli (GPa) = 74.11749 137.23995 31.35175
#
# Poissons Ratio (x) = 0.54185 0.03565
# Poissons Ratio (y) = 0.29263 0.04023
# Poissons Ratio (z) = 0.08429 0.17609
#
# Static dielectric constant tensor:
#      x y z
#    x 2.173570 0.000000 0.029680 
#    y 0.000000 2.172980 0.000000 
#    z 0.029680 0.000000 2.134360 
# 
# From -- ./inp_files/21149.got.cif
#   From: 2010.05.17/outbox.cif.g08.bks.cpg/sg9_11_cif.got.tgz:21149.got - 2010.06.03 20:04:27.
