data_PCOD9138306
_publ_section_title
;
Structure prediction by ZEFSAII (Michael W. Deem and Ramdas Pophale) SiO2 
 PCOD9138306
Probable space group: C C
;
_chemical_formula_sum "Si O2"
_cell_formula_units_Z 24
_cell_length_a 5.216506
_cell_length_b 19.424683
_cell_length_c 9.913283
_cell_angle_alpha 90.000000
_cell_angle_beta 113.946088
_cell_angle_gamma 90.000000
_cell_volume 918.043011
_symmetry_space_group_name_H-M "C C"
_symmetry_group_IT_number 9
_symmetry_cell_setting 'monoclinic'
loop_
_space_group_symop_operation_xyz
x,y,z
x,-y,1/2+z
1/2+x,1/2+y,z
1/2+x,1/2-y,1/2+z
loop_
_atom_site_type_symbol
_atom_site_label
_atom_site_fract_x
_atom_site_fract_y
_atom_site_fract_z
Si Si1 0.367320 0.203280 0.168960
Si Si2 0.711656 0.251474 0.001477
Si Si3 0.810360 0.495689 0.838680
Si Si4 0.131241 0.064129 0.052793
Si Si5 0.530254 0.861112 0.967748
Si Si6 0.105276 0.373828 0.291702
O O1 0.538488 0.248269 0.101141
O O2 0.351749 0.126290 0.106125
O O3 0.537110 0.194642 0.345615
O O4 0.037263 0.226347 0.099616
O O5 0.727658 0.330799 0.956770
O O6 0.581570 0.199110 0.864098
O O7 0.875447 0.568815 0.782829
O O8 0.579725 0.460943 0.693076
O O9 0.043597 0.435279 0.899427
O O10 0.742911 0.505705 0.979502
O O11 0.868021 0.092761 0.920837
O O12 0.669444 0.866700 0.145719
#
# Coordination Sequence:
#
# PCOD9138306 Si02
#       6
#     4   4   4   4   4   4
#     4  10  24  48  72 104 152 191 249 310 373 448
#     4  11  24  49  74 107 148 196 250 317 373 455
#     4  11  22  45  66 106 146 193 254 306 384 447
#     4  10  23  42  68 103 143 196 248 310 373 456
#     4  11  25  45  72 112 143 201 258 312 386 453
#     4  11  24  45  72 102 152 197 253 313 387 451
#
# _framework density 26.142565000000001
#
# number of rings (size 3 to 8) (size 9 to 14) (size 15 to 20)
#    0.000    1.333    3.333    1.000    2.333    2.667 
#   18.000    0.000    0.000    0.000    0.000    0.000 
#    0.000    0.000    0.000    0.000    0.000    0.000 
#
# Total GULP energy -66908.892480 kJ/mol
# GULP energy per Si atom -5575.741040 kJ/mol
# Density = 2.608306 g / cm^3
# Si number density = 26.142565 Si / 1000 Ang^3
#
#
#
# Elastic Constant Matrix: (Units=GPa)
#
#
# Indices 1 2 3 4 5 6 
#
# 1 69.6545 8.4015 31.5308 0.0000 -5.7853 0.0000
# 2 8.4015 111.3803 34.1861 0.0000 1.0482 0.0000
# 3 31.5308 34.1861 188.1752 0.0000 1.0065 0.0000
# 4 0.0000 0.0000 0.0000 61.8578 0.0000 -5.2197
# 5 -5.7853 1.0482 1.0065 0.0000 33.5463 0.0000
# 6 0.0000 0.0000 0.0000 -5.2197 0.0000 17.7418
#
#
#
# Elastic Compliance Matrix: (Units=1/GPa)
#
#
# Indices 1 2 3 4 5 6 
#
# 1 0.015813 -0.000425 -0.002588 0.000000 0.002818 0.000000
# 2 -0.000425 0.009522 -0.001657 0.000000 -0.000321 0.000000
# 3 -0.002588 -0.001657 0.006052 0.000000 -0.000576 0.000000
# 4 0.000000 0.000000 0.000000 0.016578 0.000000 0.004877
# 5 0.002818 -0.000321 -0.000576 0.000000 0.030323 0.000000
# 6 0.000000 0.000000 0.000000 0.004877 0.000000 0.057799
#
#
# Mechanical properties :
#
#
# Convention : Reuss Voigt Hill
#
# Bulk Modulus (GPa) = 45.35586 57.49409 51.42498
# Shear Modulus (GPa) = 32.72789 42.30196 37.51493
#
# Velocity S-wave (km/s) = 3.54206 4.02696 3.79227
# Velocity P-wave (km/s) = 5.84083 6.60773 6.23608
#
# Compressibility (1/GPa) = 0.02204787
#
# Stress axis : x y z
#
# Youngs Moduli (GPa) = 63.23822 105.02113 165.23854
#
# Poissons Ratio (x) = 0.04465 0.42756
# Poissons Ratio (y) = 0.02688 0.27378
# Poissons Ratio (z) = 0.16363 0.17401
#
# Static dielectric constant tensor:
#      x y z
#    x 2.126280 0.000000 0.008510 
#    y 0.000000 2.146680 0.000000 
#    z 0.008510 0.000000 2.077920 
# 
# From -- ./inp_files/3778.got.cif
#   From: 2010.05.17/outbox.cif.g08.bks.cpg/sg9_2_cif.got.tgz:3778.got - 2010.06.03 20:04:27.
