data_PCOD9138147
_publ_section_title
;
Structure prediction by ZEFSAII (Michael W. Deem and Ramdas Pophale) SiO2 
 PCOD9138147
Probable space group: C C
;
_chemical_formula_sum "Si O2"
_cell_formula_units_Z 32
_cell_length_a 5.940522
_cell_length_b 27.925039
_cell_length_c 8.432255
_cell_angle_alpha 90.000000
_cell_angle_beta 92.755607
_cell_angle_gamma 90.000000
_cell_volume 1397.203476
_symmetry_space_group_name_H-M "C C"
_symmetry_group_IT_number 9
_symmetry_cell_setting 'monoclinic'
loop_
_space_group_symop_operation_xyz
x,y,z
x,-y,1/2+z
1/2+x,1/2+y,z
1/2+x,1/2-y,1/2+z
loop_
_atom_site_type_symbol
_atom_site_label
_atom_site_fract_x
_atom_site_fract_y
_atom_site_fract_z
Si Si1 0.280020 0.380044 0.236170
Si Si2 0.603763 0.975179 0.277049
Si Si3 0.652652 0.263961 0.726114
Si Si4 0.262824 0.994965 0.513790
Si Si5 0.532200 0.298621 0.394381
Si Si6 0.503097 0.652072 0.411293
Si Si7 0.380993 0.827420 0.143382
Si Si8 0.964254 0.946605 0.756120
O O1 0.299869 0.436622 0.253733
O O2 0.389566 0.347874 0.376486
O O3 0.013338 0.370398 0.229010
O O4 0.367919 0.362048 0.066766
O O5 0.463331 0.967095 0.431468
O O6 0.407804 0.974072 0.140937
O O7 0.726326 0.026759 0.274995
O O8 0.668720 0.294354 0.563485
O O9 0.860838 0.244882 0.840601
O O10 0.483245 0.295266 0.831186
O O11 0.559735 0.215098 0.646931
O O12 0.080966 0.961916 0.595836
O O13 0.131076 0.030194 0.392499
O O14 0.696577 0.304710 0.251988
O O15 0.762545 0.654587 0.480628
O O16 0.455396 0.609803 0.287157
#
# Coordination Sequence:
#
# PCOD9138147 Si02
#       8
#     4   4   4   4   4   4   4   4
#     4  10  23  41  64  95 128 177 219 279 338 407
#     4  11  22  42  66  95 141 175 228 279 334 398
#     4  11  23  41  64  95 126 172 218 283 332 403
#     4  10  23  39  64  94 133 183 223 272 339 393
#     4  10  24  40  65  92 129 169 221 273 344 389
#     4  11  23  40  66  95 130 174 225 276 341 403
#     4  10  23  42  64  90 128 169 219 276 339 399
#     4  11  23  41  65  98 135 181 225 278 333 408
#
# _framework density 22.902894
#
# number of rings (size 3 to 8) (size 9 to 14) (size 15 to 20)
#    0.000    1.500    1.250    3.000    5.250    7.000 
#    0.000    0.000    0.000    0.000    0.000    0.000 
#    0.000    0.000    0.000    0.000    0.000    0.000 
#
# Total GULP energy -89229.457277 kJ/mol
# GULP energy per Si atom -5576.841080 kJ/mol
# Density = 2.285077 g / cm^3
# Si number density = 22.902894 Si / 1000 Ang^3
#
#
#
# Elastic Constant Matrix: (Units=GPa)
#
#
# Indices 1 2 3 4 5 6 
#
# 1 42.6933 0.3464 -3.5377 0.0000 -3.0413 0.0000
# 2 0.3464 79.5137 8.6170 0.0000 -6.6511 0.0000
# 3 -3.5377 8.6170 73.7849 0.0000 -3.6208 0.0000
# 4 0.0000 0.0000 0.0000 28.0996 0.0000 -2.6706
# 5 -3.0413 -6.6511 -3.6208 0.0000 42.8062 0.0000
# 6 0.0000 0.0000 0.0000 -2.6706 0.0000 20.6798
#
#
#
# Elastic Compliance Matrix: (Units=1/GPa)
#
#
# Indices 1 2 3 4 5 6 
#
# 1 0.023652 -0.000088 0.001231 0.000000 0.001771 0.000000
# 2 -0.000088 0.012887 -0.001417 0.000000 0.001876 0.000000
# 3 0.001231 -0.001417 0.013828 0.000000 0.001037 0.000000
# 4 0.000000 0.000000 0.000000 0.036030 0.000000 0.004653
# 5 0.001771 0.001876 0.001037 0.000000 0.023866 0.000000
# 6 0.000000 0.000000 0.000000 0.004653 0.000000 0.048957
#
#
# Mechanical properties :
#
#
# Convention : Reuss Voigt Hill
#
# Bulk Modulus (GPa) = 20.07273 22.98258 21.52766
# Shear Modulus (GPa) = 28.34859 31.02155 29.68507
#
# Velocity S-wave (km/s) = 3.52202 3.68432 3.60408
# Velocity P-wave (km/s) = 5.03217 5.30618 5.17099
#
# Compressibility (1/GPa) = 0.04981883
#
# Stress axis : x y z
#
# Youngs Moduli (GPa) = 42.28013 77.59543 72.31526
#
# Poissons Ratio (x) = 0.00685 -0.08904
# Poissons Ratio (y) = 0.00373 0.10249
# Poissons Ratio (z) = -0.05206 0.10997
#
# Static dielectric constant tensor:
#      x y z
#    x 1.900420 0.000000 -0.000890 
#    y 0.000000 1.903420 0.000000 
#    z -0.000890 0.000000 1.905070 
# 
# From -- ./inp_files/4359.got.cif
#   From: 2010.05.17/outbox.cif.g08.bks.cpg/sg9_3_cif.got.tgz:4359.got - 2010.06.03 20:04:27.
