data_PCOD9138249
_publ_section_title
;
Structure prediction by ZEFSAII (Michael W. Deem and Ramdas Pophale) SiO2 
 PCOD9138249
Probable space group: C C
;
_chemical_formula_sum "Si O2"
_cell_formula_units_Z 32
_cell_length_a 13.759204
_cell_length_b 9.599664
_cell_length_c 19.734984
_cell_angle_alpha 90.000000
_cell_angle_beta 28.677844
_cell_angle_gamma 90.000000
_cell_volume 1250.900132
_symmetry_space_group_name_H-M "C C"
_symmetry_group_IT_number 9
_symmetry_cell_setting 'monoclinic'
loop_
_space_group_symop_operation_xyz
x,y,z
x,-y,1/2+z
1/2+x,1/2+y,z
1/2+x,1/2-y,1/2+z
loop_
_atom_site_type_symbol
_atom_site_label
_atom_site_fract_x
_atom_site_fract_y
_atom_site_fract_z
Si Si1 0.648870 0.300124 0.016270
Si Si2 0.912267 0.486655 0.666789
Si Si3 0.105923 0.495485 0.190760
Si Si4 0.356915 0.238203 0.514246
Si Si5 0.653063 0.226434 0.446802
Si Si6 0.537895 0.650931 0.432719
Si Si7 0.019822 0.464951 0.391160
Si Si8 0.947756 0.925400 0.678319
O O1 0.514888 0.162873 0.094354
O O2 0.538878 0.419870 0.127762
O O3 0.845402 0.253671 0.939214
O O4 0.645136 0.352441 0.941278
O O5 0.677882 0.448896 0.801643
O O6 0.977773 0.534941 0.702167
O O7 0.017720 0.595554 0.553575
O O8 0.985863 0.461148 0.331875
O O9 0.179965 0.656375 0.143376
O O10 0.311263 0.405999 0.069613
O O11 0.549946 0.284450 0.440821
O O12 0.359377 0.070463 0.522391
O O13 0.869618 0.159707 0.292415
O O14 0.598796 0.334781 0.539527
O O15 0.532341 0.810952 0.412562
O O16 0.236503 0.541940 0.268329
#
# Coordination Sequence:
#
# PCOD9138249 Si02
#       8
#     4   4   4   4   4   4   4   4
#     4  11  22  44  71 102 136 184 233 296 356 421
#     4  11  26  43  68 107 138 186 244 287 359 430
#     4  11  24  46  68 104 141 186 236 295 353 428
#     4  10  23  41  72  99 132 183 236 287 351 421
#     4  11  25  45  67 103 142 184 231 296 352 423
#     4  12  23  43  74 100 145 186 231 300 360 419
#     4  11  22  42  67 100 141 179 235 287 356 421
#     4  11  23  44  71  97 141 182 230 290 353 423
#
# _framework density 25.581578
#
# number of rings (size 3 to 8) (size 9 to 14) (size 15 to 20)
#    0.000    1.000    3.750    2.250    5.250    1.000 
#    6.750    0.000    0.000    0.000    0.000    0.000 
#    0.000    0.000    0.000    0.000    0.000    0.000 
#
# Total GULP energy -89401.532590 kJ/mol
# GULP energy per Si atom -5587.595787 kJ/mol
# Density = 2.552335 g / cm^3
# Si number density = 25.581578 Si / 1000 Ang^3
#
#
#
# Elastic Constant Matrix: (Units=GPa)
#
#
# Indices 1 2 3 4 5 6 
#
# 1 97.6368 12.7497 40.7156 -0.0001 8.7950 0.0001
# 2 12.7497 182.2545 68.8346 0.0000 6.4980 0.0000
# 3 40.7156 68.8346 79.2892 0.0000 11.2147 0.0002
# 4 -0.0001 0.0000 0.0000 44.2849 0.0001 3.8510
# 5 8.7950 6.4980 11.2147 0.0001 26.4878 -0.0002
# 6 0.0001 0.0000 0.0002 3.8510 -0.0002 22.2255
#
#
#
# Elastic Compliance Matrix: (Units=1/GPa)
#
#
# Indices 1 2 3 4 5 6 
#
# 1 0.013827 0.002515 -0.009092 0.000000 -0.001359 0.000000
# 2 0.002515 0.008649 -0.008916 0.000000 0.000818 0.000000
# 3 -0.009092 -0.008916 0.025831 0.000000 -0.005731 0.000000
# 4 0.000000 0.000000 0.000000 0.022927 0.000000 -0.003972
# 5 -0.001359 0.000818 -0.005731 0.000000 0.040430 0.000000
# 6 0.000000 0.000000 0.000000 -0.003972 0.000000 0.045682
#
#
# Mechanical properties :
#
#
# Convention : Reuss Voigt Hill
#
# Bulk Modulus (GPa) = 57.72689 67.08673 62.40681
# Shear Modulus (GPa) = 25.75922 34.39167 30.07544
#
# Velocity S-wave (km/s) = 3.17668 3.67057 3.43252
# Velocity P-wave (km/s) = 6.00582 6.65174 6.33702
#
# Compressibility (1/GPa) = 0.01732295
#
# Stress axis : x y z
#
# Youngs Moduli (GPa) = 72.32069 115.61910 38.71256
#
# Poissons Ratio (x) = -0.29077 0.35196
# Poissons Ratio (y) = -0.18188 0.34515
# Poissons Ratio (z) = 0.65750 1.03084
#
# Static dielectric constant tensor:
#      x y z
#    x 2.078310 0.000000 0.030520 
#    y 0.000000 2.024020 0.000000 
#    z 0.030520 0.000000 2.036490 
# 
# From -- ./inp_files/30618.got.cif
#   From: 2010.05.17/outbox.cif.g08.bks.cpg/sg9_16_cif.got.tgz:30618.got - 2010.06.03 20:04:27.
