data_PCOD9138088
_publ_section_title
;
Structure prediction by ZEFSAII (Michael W. Deem and Ramdas Pophale) SiO2 
 PCOD9138088
Probable space group: C C
;
_chemical_formula_sum "Si O2"
_cell_formula_units_Z 28
_cell_length_a 18.163524
_cell_length_b 13.189621
_cell_length_c 11.832024
_cell_angle_alpha 90.000000
_cell_angle_beta 155.480628
_cell_angle_gamma 90.000000
_cell_volume 1176.360653
_symmetry_space_group_name_H-M "C C"
_symmetry_group_IT_number 9
_symmetry_cell_setting 'monoclinic'
loop_
_space_group_symop_operation_xyz
x,y,z
x,-y,1/2+z
1/2+x,1/2+y,z
1/2+x,1/2-y,1/2+z
loop_
_atom_site_type_symbol
_atom_site_label
_atom_site_fract_x
_atom_site_fract_y
_atom_site_fract_z
Si Si1 0.505220 0.438857 0.679680
Si Si2 0.671243 0.886716 0.095467
Si Si3 0.710342 0.851924 0.909606
Si Si4 0.003381 0.847946 0.126652
Si Si5 0.996672 0.520444 0.684715
Si Si6 0.362507 0.354821 0.681622
Si Si7 0.721096 0.694109 0.317108
O O1 0.296112 0.445653 0.356416
O O2 0.590741 0.542341 0.759212
O O3 0.504402 0.424100 0.812487
O O4 0.577595 0.347688 0.705476
O O5 0.649363 0.775518 0.123379
O O6 0.784326 0.882916 0.136089
O O7 0.509490 0.955824 0.821710
O O8 0.637030 0.741674 0.831962
O O9 0.544499 0.929884 0.663385
O O10 0.850201 0.846876 0.006462
O O11 0.925512 0.831757 0.893921
O O12 0.833086 0.595667 0.433040
O O13 0.170682 0.592618 0.923715
O O14 0.347526 0.259623 0.576745
#
# Coordination Sequence:
#
# PCOD9138088 Si02
#       7
#     4   4   4   4   4   4   4
#     4  11  23  44  71  99 136 186 234 296 358 427
#     4   9  22  44  71  99 144 180 235 293 361 425
#     4  10  26  43  69  99 140 190 229 295 372 426
#     4  12  25  43  70  98 142 182 230 295 367 441
#     4  10  22  48  69 104 141 185 236 297 366 421
#     4  11  23  45  69  97 141 184 235 290 368 431
#     4  11  25  41  77 108 132 187 251 296 348 443
#
# _framework density 23.802223999999999
#
# number of rings (size 3 to 8) (size 9 to 14) (size 15 to 20)
#    0.857    0.571    2.857    1.714    8.000    0.000 
#    0.000    1.429    0.000    0.000    0.000    0.000 
#    0.000    0.000    0.000    0.000    0.000    0.000 
#
# Total GULP energy -78055.776184 kJ/mol
# GULP energy per Si atom -5575.412585 kJ/mol
# Density = 2.374805 g / cm^3
# Si number density = 23.802224 Si / 1000 Ang^3
#
#
#
# Elastic Constant Matrix: (Units=GPa)
#
#
# Indices 1 2 3 4 5 6 
#
# 1 128.5691 31.3092 24.4836 0.0000 -18.1895 0.0000
# 2 31.3092 130.2524 12.1966 0.0000 6.0391 0.0000
# 3 24.4836 12.1966 26.4282 0.0000 1.0126 0.0000
# 4 0.0000 0.0000 0.0000 26.7360 0.0000 0.4671
# 5 -18.1895 6.0391 1.0126 0.0000 26.9599 0.0000
# 6 0.0000 0.0000 0.0000 0.4671 0.0000 45.8928
#
#
#
# Elastic Compliance Matrix: (Units=1/GPa)
#
#
# Indices 1 2 3 4 5 6 
#
# 1 0.011410 -0.002215 -0.009876 0.000000 0.008565 0.000000
# 2 -0.002215 0.008529 -0.001756 0.000000 -0.003339 0.000000
# 3 -0.009876 -0.001756 0.048108 0.000000 -0.008077 0.000000
# 4 0.000000 0.000000 0.000000 0.037409 0.000000 -0.000381
# 5 0.008565 -0.003339 -0.008077 0.000000 0.043922 0.000000
# 6 0.000000 0.000000 0.000000 -0.000381 0.000000 0.021794
#
#
# Mechanical properties :
#
#
# Convention : Reuss Voigt Hill
#
# Bulk Modulus (GPa) = 24.78195 46.80315 35.79255
# Shear Modulus (GPa) = 23.54961 34.40179 28.97570
#
# Velocity S-wave (km/s) = 3.14886 3.80586 3.49284
# Velocity P-wave (km/s) = 4.86361 6.24650 5.59792
#
# Compressibility (1/GPa) = 0.04035194
#
# Stress axis : x y z
#
# Youngs Moduli (GPa) = 87.64383 117.24606 20.78656
#
# Poissons Ratio (x) = 0.25969 0.20529
# Poissons Ratio (y) = 0.19413 0.03651
# Poissons Ratio (z) = 0.86559 0.20592
#
# Static dielectric constant tensor:
#      x y z
#    x 1.919640 0.000000 0.037990 
#    y 0.000000 1.994120 0.000000 
#    z 0.037990 0.000000 1.887490 
# 
# From -- ./inp_files/19372.got.cif
#   From: 2010.05.17/outbox.cif.g08.bks.cpg/sg9_10_cif.got.tgz:19372.got - 2010.06.03 20:04:27.
