data_PCOD9138202
_publ_section_title
;
Structure prediction by ZEFSAII (Michael W. Deem and Ramdas Pophale) SiO2 
 PCOD9138202
Probable space group: C C
;
_chemical_formula_sum "Si O2"
_cell_formula_units_Z 32
_cell_length_a 15.084651
_cell_length_b 18.073692
_cell_length_c 5.232544
_cell_angle_alpha 90.000000
_cell_angle_beta 71.182882
_cell_angle_gamma 90.000000
_cell_volume 1350.330072
_symmetry_space_group_name_H-M "C C"
_symmetry_group_IT_number 9
_symmetry_cell_setting 'monoclinic'
loop_
_space_group_symop_operation_xyz
x,y,z
x,-y,1/2+z
1/2+x,1/2+y,z
1/2+x,1/2-y,1/2+z
loop_
_atom_site_type_symbol
_atom_site_label
_atom_site_fract_x
_atom_site_fract_y
_atom_site_fract_z
Si Si1 0.878280 0.685906 0.424720
Si Si2 0.699677 0.951018 0.857965
Si Si3 0.027225 0.814973 0.710788
Si Si4 0.202747 0.226110 0.317124
Si Si5 0.091571 0.046206 0.886266
Si Si6 0.314923 0.046429 0.744963
Si Si7 0.328184 0.319027 0.824988
Si Si8 0.077188 0.681540 0.310130
O O1 0.790329 0.676335 0.319852
O O2 0.866058 0.623788 0.652458
O O3 0.859804 0.766116 0.564729
O O4 0.983265 0.677508 0.225493
O O5 0.790325 0.897506 0.768577
O O6 0.613263 0.896047 0.880802
O O7 0.698495 0.011381 0.635610
O O8 0.115209 0.823959 0.815890
O O9 0.039589 0.877068 0.483270
O O10 0.045567 0.735176 0.568494
O O11 0.922127 0.822807 0.909529
O O12 0.159714 0.278593 0.576098
O O13 0.245725 0.278163 0.056894
O O14 0.203199 0.059521 0.816248
O O15 0.068111 0.009512 0.639236
O O16 0.338663 0.991388 0.489881
#
# Coordination Sequence:
#
# PCOD9138202 Si02
#       8
#     4   4   4   4   4   4   4   4
#     4  11  25  42  74 103 145 195 251 316 367 453
#     4  12  27  50  78 105 154 202 246 312 379 448
#     4  11  25  42  74 103 145 195 251 316 367 453
#     4  12  21  44  72 105 144 190 244 320 371 440
#     4  10  23  41  64 100 143 188 232 291 371 442
#     4  10  23  41  64 100 143 188 232 291 371 442
#     4  11  25  46  70 109 140 193 260 308 375 445
#     4  11  25  46  70 109 140 193 260 308 375 445
#
# _framework density 23.697911000000001
#
# number of rings (size 3 to 8) (size 9 to 14) (size 15 to 20)
#    0.000    1.000    2.500    3.000    8.750    2.000 
#    0.000    0.000    0.000    0.000    0.000    0.000 
#    0.000    0.000    0.000    0.000    0.000    0.000 
#
# Total GULP energy -89587.425785 kJ/mol
# GULP energy per Si atom -5599.214112 kJ/mol
# Density = 2.364397 g / cm^3
# Si number density = 23.697911 Si / 1000 Ang^3
#
#
#
# Elastic Constant Matrix: (Units=GPa)
#
#
# Indices 1 2 3 4 5 6 
#
# 1 163.7713 13.6152 8.6144 0.0000 -16.5410 0.0000
# 2 13.6152 83.3346 1.2392 0.0000 -12.3573 0.0000
# 3 8.6144 1.2392 64.1085 0.0000 -5.1308 0.0000
# 4 0.0000 0.0000 0.0000 30.7818 0.0000 6.6704
# 5 -16.5410 -12.3573 -5.1308 0.0000 21.8208 0.0000
# 6 0.0000 0.0000 0.0000 6.6704 0.0000 24.1767
#
#
#
# Elastic Compliance Matrix: (Units=1/GPa)
#
#
# Indices 1 2 3 4 5 6 
#
# 1 0.006639 -0.000381 -0.000509 0.000000 0.004697 0.000000
# 2 -0.000381 0.013129 0.000376 0.000000 0.007235 0.000000
# 3 -0.000509 0.000376 0.015946 0.000000 0.003577 0.000000
# 4 0.000000 0.000000 0.000000 0.034553 0.000000 -0.009533
# 5 0.004697 0.007235 0.003577 0.000000 0.054327 0.000000
# 6 0.000000 0.000000 0.000000 -0.009533 0.000000 0.043992
#
#
# Mechanical properties :
#
#
# Convention : Reuss Voigt Hill
#
# Bulk Modulus (GPa) = 28.82817 39.79467 34.31142
# Shear Modulus (GPa) = 27.59766 34.53890 31.06828
#
# Velocity S-wave (km/s) = 3.41627 3.82182 3.62472
# Velocity P-wave (km/s) = 5.26806 6.02528 5.65935
#
# Compressibility (1/GPa) = 0.03468829
#
# Stress axis : x y z
#
# Youngs Moduli (GPa) = 150.62689 76.16569 62.71199
#
# Poissons Ratio (x) = 0.02898 0.03191
# Poissons Ratio (y) = 0.05732 -0.02361
# Poissons Ratio (z) = 0.07664 -0.02867
#
# Static dielectric constant tensor:
#      x y z
#    x 2.010850 0.000000 0.049580 
#    y 0.000000 1.874430 0.000000 
#    z 0.049580 0.000000 1.928950 
# 
# From -- ./inp_files/2525.got.cif
#   From: 2010.05.17/outbox.cif.g08.bks.cpg/sg9_2_cif.got.tgz:2525.got - 2010.06.03 20:04:27.
