data_PCOD9138471
_publ_section_title
;
Structure prediction by ZEFSAII (Michael W. Deem and Ramdas Pophale) SiO2 
 PCOD9138471
Probable space group: C C
;
_chemical_formula_sum "Si O2"
_cell_formula_units_Z 28
_cell_length_a 17.318575
_cell_length_b 8.953916
_cell_length_c 22.532901
_cell_angle_alpha 90.000000
_cell_angle_beta 160.996353
_cell_angle_gamma 90.000000
_cell_volume 1137.796181
_symmetry_space_group_name_H-M "C C"
_symmetry_group_IT_number 9
_symmetry_cell_setting 'monoclinic'
loop_
_space_group_symop_operation_xyz
x,y,z
x,-y,1/2+z
1/2+x,1/2+y,z
1/2+x,1/2-y,1/2+z
loop_
_atom_site_type_symbol
_atom_site_label
_atom_site_fract_x
_atom_site_fract_y
_atom_site_fract_z
Si Si1 0.181680 0.307734 0.208240
Si Si2 0.610684 0.069036 0.774738
Si Si3 0.593412 0.686267 0.364733
Si Si4 0.509516 0.773726 0.841834
Si Si5 0.786899 0.486785 0.849590
Si Si6 0.086832 0.412524 0.458547
Si Si7 0.007569 0.757714 0.215461
O O1 0.378518 0.306995 0.300180
O O2 0.259167 0.393671 0.323838
O O3 0.149066 0.138822 0.210287
O O4 0.959911 0.392065 0.017946
O O5 0.640838 0.181555 0.851541
O O6 0.336536 0.100291 0.555211
O O7 0.648589 0.896960 0.816645
O O8 0.522822 0.765540 0.374943
O O9 0.368551 0.596168 0.176655
O O10 0.372464 0.738344 0.681353
O O11 0.521723 0.946812 0.869522
O O12 0.767019 0.728504 0.003563
O O13 0.635774 0.601325 0.779382
O O14 0.944724 0.574061 0.916267
#
# Coordination Sequence:
#
# PCOD9138471 Si02
#       7
#     4   4   4   4   4   4   4
#     4  11  25  48  74 105 147 208 242 308 385 467
#     4  11  24  44  75 106 146 198 253 306 381 445
#     4  10  23  43  75 106 151 201 251 305 385 450
#     4  11  25  45  71 103 150 193 255 306 382 447
#     4  11  27  48  76 107 154 198 257 316 383 457
#     4  10  23  46  69 107 146 199 250 311 372 454
#     4  12  27  46  72 114 144 195 254 330 370 444
#
# _framework density 24.608976999999999
#
# number of rings (size 3 to 8) (size 9 to 14) (size 15 to 20)
#    0.000    1.143    1.429    3.429   10.000    3.429 
#    2.571    1.429    0.000    0.000    0.000    0.000 
#    0.000    0.000    0.000    0.000    0.000    0.000 
#
# Total GULP energy -78287.706829 kJ/mol
# GULP energy per Si atom -5591.979059 kJ/mol
# Density = 2.455297 g / cm^3
# Si number density = 24.608977 Si / 1000 Ang^3
#
#
#
# Elastic Constant Matrix: (Units=GPa)
#
#
# Indices 1 2 3 4 5 6 
#
# 1 196.2060 84.6854 24.3805 -0.0084 3.0808 -0.0001
# 2 84.6854 139.5125 39.1135 -0.0345 2.8891 -0.0006
# 3 24.3805 39.1135 81.1279 -0.0534 3.5660 -0.0068
# 4 -0.0084 -0.0345 -0.0534 33.2408 0.0003 1.3612
# 5 3.0808 2.8891 3.5660 0.0003 32.5813 0.0002
# 6 -0.0001 -0.0006 -0.0068 1.3612 0.0002 49.7132
#
#
#
# Elastic Compliance Matrix: (Units=1/GPa)
#
#
# Indices 1 2 3 4 5 6 
#
# 1 0.006909 -0.004173 -0.000052 -0.000003 -0.000278 0.000000
# 2 -0.004173 0.010812 -0.003953 0.000004 -0.000132 -0.000001
# 3 -0.000052 -0.003953 0.014301 0.000019 -0.001210 0.000001
# 4 -0.000003 0.000004 0.000019 0.030117 -0.000002 -0.000825
# 5 -0.000278 -0.000132 -0.001210 -0.000002 0.030863 0.000000
# 6 0.000000 -0.000001 0.000001 -0.000825 0.000000 0.020138
#
#
# Mechanical properties :
#
#
# Convention : Reuss Voigt Hill
#
# Bulk Modulus (GPa) = 63.83509 79.24504 71.54007
# Shear Modulus (GPa) = 37.11470 41.01819 39.06645
#
# Velocity S-wave (km/s) = 3.88774 4.08707 3.98865
# Velocity P-wave (km/s) = 6.79329 7.38538 7.09551
#
# Compressibility (1/GPa) = 0.01566536
#
# Stress axis : x y z
#
# Youngs Moduli (GPa) = 144.74308 92.48975 69.92661
#
# Poissons Ratio (x) = 0.38600 0.00363
# Poissons Ratio (y) = 0.60407 0.27640
# Poissons Ratio (z) = 0.00752 0.36559
#
# Static dielectric constant tensor:
#      x y z
#    x 1.911510 0.000000 -0.011500 
#    y 0.000000 1.932290 -0.000010 
#    z -0.011500 -0.000010 1.975960 
# 
# From -- ./inp_files/35811.got.cif
#   From: 2010.05.17/outbox.cif.g08.bks.cpg/sg9_18_cif.got.tgz:35811.got - 2010.06.03 20:04:27.
