data_PCOD9138377
_publ_section_title
;
Structure prediction by ZEFSAII (Michael W. Deem and Ramdas Pophale) SiO2 
 PCOD9138377
Probable space group: C C
;
_chemical_formula_sum "Si O2"
_cell_formula_units_Z 28
_cell_length_a 15.365699
_cell_length_b 7.271859
_cell_length_c 15.984853
_cell_angle_alpha 90.000000
_cell_angle_beta 144.179238
_cell_angle_gamma 90.000000
_cell_volume 1045.319330
_symmetry_space_group_name_H-M "C C"
_symmetry_group_IT_number 9
_symmetry_cell_setting 'monoclinic'
loop_
_space_group_symop_operation_xyz
x,y,z
x,-y,1/2+z
1/2+x,1/2+y,z
1/2+x,1/2-y,1/2+z
loop_
_atom_site_type_symbol
_atom_site_label
_atom_site_fract_x
_atom_site_fract_y
_atom_site_fract_z
Si Si1 0.926710 0.848950 0.523050
Si Si2 0.461190 0.828161 0.779610
Si Si3 0.603206 0.364722 0.945209
Si Si4 0.774051 0.013762 0.563856
Si Si5 0.719218 0.519538 0.193540
Si Si6 0.330078 0.683658 0.349635
Si Si7 0.824379 0.534785 0.998557
O O1 0.876232 0.945400 0.568618
O O2 0.841816 0.972923 0.387372
O O3 0.104073 0.861235 0.654249
O O4 0.886147 0.638012 0.495881
O O5 0.378950 0.631371 0.706761
O O6 0.385127 0.915901 0.803215
O O7 0.417227 0.926485 0.656568
O O8 0.637312 0.857309 0.926676
O O9 0.653104 0.518393 0.049420
O O10 0.663958 0.453630 0.905831
O O11 0.697300 0.176789 0.030479
O O12 0.444333 0.307605 0.859674
O O13 0.698692 0.310443 0.210546
O O14 0.345686 0.798256 0.449724
#
# Coordination Sequence:
#
# PCOD9138377 Si02
#       7
#     4   4   4   4   4   4   4
#     4  10  24  40  67 104 135 184 249 286 371 432
#     4  11  24  45  71 100 151 190 243 299 372 441
#     4   9  22  44  63  98 143 187 240 300 367 440
#     4  11  23  44  68 105 141 195 238 302 369 436
#     4  10  23  43  65  98 139 191 237 305 365 446
#     4  11  21  44  68  97 149 183 239 309 368 435
#     4  10  23  44  68 102 142 188 244 303 366 448
#
# _framework density 26.786072999999998
#
# number of rings (size 3 to 8) (size 9 to 14) (size 15 to 20)
#    0.000    1.714    2.857    0.000    4.000    2.286 
#   12.857    0.000    0.000    0.000    0.000    0.000 
#    0.000    0.000    0.000    0.000    0.000    0.000 
#
# Total GULP energy -78119.361031 kJ/mol
# GULP energy per Si atom -5579.954359 kJ/mol
# Density = 2.672511 g / cm^3
# Si number density = 26.786073 Si / 1000 Ang^3
#
#
#
# Elastic Constant Matrix: (Units=GPa)
#
#
# Indices 1 2 3 4 5 6 
#
# 1 146.2158 48.6825 49.6413 0.0000 6.4109 0.0000
# 2 48.6825 159.8854 17.3414 0.0000 0.0793 0.0000
# 3 49.6413 17.3414 93.9471 0.0000 8.0053 0.0000
# 4 0.0000 0.0000 0.0000 35.0814 0.0000 -6.2526
# 5 6.4109 0.0793 8.0053 0.0000 39.4145 0.0000
# 6 0.0000 0.0000 0.0000 -6.2526 0.0000 42.1916
#
#
#
# Elastic Compliance Matrix: (Units=1/GPa)
#
#
# Indices 1 2 3 4 5 6 
#
# 1 0.009103 -0.002301 -0.004335 0.000000 -0.000596 0.000000
# 2 -0.002301 0.006966 -0.000102 0.000000 0.000381 0.000000
# 3 -0.004335 -0.000102 0.013121 0.000000 -0.001960 0.000000
# 4 0.000000 0.000000 0.000000 0.029278 0.000000 0.004339
# 5 -0.000596 0.000381 -0.001960 0.000000 0.025866 0.000000
# 6 0.000000 0.000000 0.000000 0.004339 0.000000 0.024344
#
#
# Mechanical properties :
#
#
# Convention : Reuss Voigt Hill
#
# Bulk Modulus (GPa) = 63.63980 70.15318 66.89649
# Shear Modulus (GPa) = 39.24883 42.29637 40.77260
#
# Velocity S-wave (km/s) = 3.83204 3.97803 3.90572
# Velocity P-wave (km/s) = 6.58707 6.88089 6.73558
#
# Compressibility (1/GPa) = 0.01571344
#
# Stress axis : x y z
#
# Youngs Moduli (GPa) = 109.85205 143.55227 76.21657
#
# Poissons Ratio (x) = 0.33036 0.33036
# Poissons Ratio (y) = 0.25281 0.00780
# Poissons Ratio (z) = 0.47616 0.01469
#
# Static dielectric constant tensor:
#      x y z
#    x 2.108120 0.000000 -0.002810 
#    y 0.000000 2.142920 0.000000 
#    z -0.002810 0.000000 2.160880 
# 
# From -- ./inp_files/21389.got.cif
#   From: 2010.05.17/outbox.cif.g08.bks.cpg/sg9_11_cif.got.tgz:21389.got - 2010.06.03 20:04:27.
