data_PCOD9138062
_publ_section_title
;
Structure prediction by ZEFSAII (Michael W. Deem and Ramdas Pophale) SiO2 
 PCOD9138062
Probable space group: C C
;
_chemical_formula_sum "Si O2"
_cell_formula_units_Z 32
_cell_length_a 10.231475
_cell_length_b 10.524207
_cell_length_c 14.371727
_cell_angle_alpha 90.000000
_cell_angle_beta 63.496058
_cell_angle_gamma 90.000000
_cell_volume 1384.882325
_symmetry_space_group_name_H-M "C C"
_symmetry_group_IT_number 9
_symmetry_cell_setting 'monoclinic'
loop_
_space_group_symop_operation_xyz
x,y,z
x,-y,1/2+z
1/2+x,1/2+y,z
1/2+x,1/2-y,1/2+z
loop_
_atom_site_type_symbol
_atom_site_label
_atom_site_fract_x
_atom_site_fract_y
_atom_site_fract_z
Si Si1 0.016060 0.464588 0.201440
Si Si2 0.296207 0.420379 0.565948
Si Si3 0.047897 0.779054 0.572379
Si Si4 0.371201 0.800523 0.410894
Si Si5 0.241566 0.130751 0.271417
Si Si6 0.395159 0.359392 0.152842
Si Si7 0.456383 0.442740 0.780005
Si Si8 0.125169 0.723132 0.978870
O O1 0.156445 0.552709 0.177736
O O2 0.055780 0.364471 0.107676
O O3 0.946581 0.388662 0.309452
O O4 0.888188 0.555528 0.209570
O O5 0.410955 0.307503 0.548245
O O6 0.381501 0.548798 0.567375
O O7 0.222219 0.389645 0.490783
O O8 0.203321 0.828261 0.486335
O O9 0.004638 0.862954 0.674567
O O10 0.368032 0.656924 0.370490
O O11 0.482408 0.811708 0.462454
O O12 0.264262 0.256962 0.200380
O O13 0.106223 0.041248 0.289023
O O14 0.217290 0.184566 0.382681
O O15 0.389867 0.434615 0.252102
O O16 0.553031 0.295560 0.089484
#
# Coordination Sequence:
#
# PCOD9138062 Si02
#       8
#     4   4   4   4   4   4   4   4
#     4  11  24  44  72 104 145 184 237 297 354 428
#     4  11  24  45  69 105 140 184 232 298 350 412
#     4  10  23  44  74 101 142 188 238 290 356 422
#     4  10  22  47  73 102 140 191 244 284 361 426
#     4  11  24  42  68 102 137 184 233 288 353 420
#     4  11  23  45  69  95 143 176 230 286 352 413
#     4   9  22  42  70  93 135 190 224 292 349 409
#     4  11  24  43  67 104 134 185 242 285 355 426
#
# _framework density 23.106656000000001
#
# number of rings (size 3 to 8) (size 9 to 14) (size 15 to 20)
#    0.000    1.500    1.250    3.750    5.250    3.000 
#    9.000    1.250    0.000    0.000    0.000    0.000 
#    0.000    0.000    0.000    0.000    0.000    0.000 
#
# Total GULP energy -89299.088137 kJ/mol
# GULP energy per Si atom -5581.193009 kJ/mol
# Density = 2.305406 g / cm^3
# Si number density = 23.106656 Si / 1000 Ang^3
#
#
#
# Elastic Constant Matrix: (Units=GPa)
#
#
# Indices 1 2 3 4 5 6 
#
# 1 112.3002 48.4712 26.5873 0.0000 0.0385 0.0000
# 2 48.4712 65.2145 22.5761 0.0000 16.1556 0.0000
# 3 26.5873 22.5761 92.3276 0.0000 7.0286 0.0000
# 4 0.0000 0.0000 0.0000 33.8308 0.0000 -5.7452
# 5 0.0385 16.1556 7.0286 0.0000 28.4314 0.0000
# 6 0.0000 0.0000 0.0000 -5.7452 0.0000 25.1892
#
#
#
# Elastic Compliance Matrix: (Units=1/GPa)
#
#
# Indices 1 2 3 4 5 6 
#
# 1 0.014472 -0.011915 -0.001802 0.000000 0.007196 0.000000
# 2 -0.011915 0.028959 -0.002444 0.000000 -0.015835 0.000000
# 3 -0.001802 -0.002444 0.012069 0.000000 -0.001592 0.000000
# 4 0.000000 0.000000 0.000000 0.030750 0.000000 0.007013
# 5 0.007196 -0.015835 -0.001592 0.000000 0.044554 0.000000
# 6 0.000000 0.000000 0.000000 0.007013 0.000000 0.041299
#
#
# Mechanical properties :
#
#
# Convention : Reuss Voigt Hill
#
# Bulk Modulus (GPa) = 43.14661 51.67905 47.41283
# Shear Modulus (GPa) = 23.56809 28.97079 26.26944
#
# Velocity S-wave (km/s) = 3.19716 3.54472 3.37542
# Velocity P-wave (km/s) = 5.68704 6.25839 5.97954
#
# Compressibility (1/GPa) = 0.02317679
#
# Stress axis : x y z
#
# Youngs Moduli (GPa) = 69.10057 34.53139 82.85863
#
# Poissons Ratio (x) = 0.41145 0.14928
# Poissons Ratio (y) = 0.82335 0.20255
# Poissons Ratio (z) = 0.12450 0.08441
#
# Static dielectric constant tensor:
#      x y z
#    x 1.896130 0.000000 0.030110 
#    y 0.000000 1.932410 0.000000 
#    z 0.030110 0.000000 1.892680 
# 
# From -- ./inp_files/22698.got.cif
#   From: 2010.05.17/outbox.cif.g08.bks.cpg/sg9_12_cif.got.tgz:22698.got - 2010.06.03 20:04:27.
