data_PCOD9138673
_publ_section_title
;
Structure prediction by ZEFSAII (Michael W. Deem and Ramdas Pophale) SiO2 
 PCOD9138673
Probable space group: C C
;
_chemical_formula_sum "Si O2"
_cell_formula_units_Z 32
_cell_length_a 13.313482
_cell_length_b 18.511369
_cell_length_c 5.224445
_cell_angle_alpha 90.000000
_cell_angle_beta 91.442158
_cell_angle_gamma 90.000000
_cell_volume 1287.160687
_symmetry_space_group_name_H-M "C C"
_symmetry_group_IT_number 9
_symmetry_cell_setting 'monoclinic'
loop_
_space_group_symop_operation_xyz
x,y,z
x,-y,1/2+z
1/2+x,1/2+y,z
1/2+x,1/2-y,1/2+z
loop_
_atom_site_type_symbol
_atom_site_label
_atom_site_fract_x
_atom_site_fract_y
_atom_site_fract_z
Si Si1 0.685930 0.040656 0.092770
Si Si2 0.935434 0.961667 0.266410
Si Si3 0.176607 0.960271 0.315425
Si Si4 0.944491 0.543808 0.045721
Si Si5 0.272829 0.307868 0.736604
Si Si6 0.359903 0.194888 0.107356
Si Si7 0.695798 0.324585 0.990716
Si Si8 0.969915 0.821577 0.947922
O O1 0.565460 0.049428 0.071665
O O2 0.729201 0.113052 0.222170
O O3 0.712139 0.977146 0.298448
O O4 0.055958 0.967314 0.307176
O O5 0.924236 0.885412 0.121466
O O6 0.900271 0.979746 0.551465
O O7 0.212005 0.986312 0.592528
O O8 0.198744 0.878912 0.231687
O O9 0.916793 0.511051 0.318757
O O10 0.899826 0.622283 0.979011
O O11 0.205084 0.259848 0.549268
O O12 0.281478 0.253442 0.980023
O O13 0.394000 0.313152 0.702624
O O14 0.298017 0.164506 0.341835
O O15 0.457053 0.248163 0.112670
O O16 0.583820 0.338386 0.874154
#
# Coordination Sequence:
#
# PCOD9138673 Si02
#       8
#     4   4   4   4   4   4   4   4
#     4  10  23  45  76 106 141 192 248 309 367 428
#     4   9  18  36  60  91 128 171 219 268 335 420
#     4   9  20  36  61  93 129 176 225 270 337 424
#     4  10  23  45  74 105 142 193 249 309 365 429
#     4  10  25  44  65 105 137 185 241 301 362 439
#     4  10  25  44  64 104 137 187 240 300 366 435
#     4  11  23  44  68  93 144 186 235 298 370 436
#     4   9  23  44  62 101 134 182 235 293 366 433
#
# _framework density 24.860921999999999
#
# number of rings (size 3 to 8) (size 9 to 14) (size 15 to 20)
#    0.750    1.500    0.000    0.750    5.250    3.000 
#    9.000    0.000    0.000    0.000    0.000    0.000 
#    0.000    0.000    0.000    0.000    0.000    0.000 
#
# Total GULP energy -89237.951744 kJ/mol
# GULP energy per Si atom -5577.371984 kJ/mol
# Density = 2.480434 g / cm^3
# Si number density = 24.860922 Si / 1000 Ang^3
#
#
#
# Elastic Constant Matrix: (Units=GPa)
#
#
# Indices 1 2 3 4 5 6 
#
# 1 103.2131 12.3775 21.2620 0.0000 20.6810 0.0000
# 2 12.3775 150.7849 26.6433 0.0000 -0.2127 0.0000
# 3 21.2620 26.6433 85.2397 0.0000 -6.4518 0.0000
# 4 0.0000 0.0000 0.0000 23.8479 0.0000 13.3553
# 5 20.6810 -0.2127 -6.4518 0.0000 40.9436 0.0000
# 6 0.0000 0.0000 0.0000 13.3553 0.0000 31.3018
#
#
#
# Elastic Compliance Matrix: (Units=1/GPa)
#
#
# Indices 1 2 3 4 5 6 
#
# 1 0.011700 -0.000389 -0.003283 0.000000 -0.006429 0.000000
# 2 -0.000389 0.007037 -0.002110 0.000000 -0.000099 0.000000
# 3 -0.003283 -0.002110 0.013496 0.000000 0.003774 0.000000
# 4 0.000000 0.000000 0.000000 0.055097 0.000000 -0.023508
# 5 -0.006429 -0.000099 0.003774 0.000000 0.028265 0.000000
# 6 0.000000 0.000000 0.000000 -0.023508 0.000000 0.041977
#
#
# Mechanical properties :
#
#
# Convention : Reuss Voigt Hill
#
# Bulk Modulus (GPa) = 48.38558 51.08926 49.73742
# Shear Modulus (GPa) = 28.40489 37.81567 33.11028
#
# Velocity S-wave (km/s) = 3.38383 3.90434 3.65337
# Velocity P-wave (km/s) = 5.89677 6.39686 6.15190
#
# Compressibility (1/GPa) = 0.02066732
#
# Stress axis : x y z
#
# Youngs Moduli (GPa) = 85.47017 142.11447 74.09741
#
# Poissons Ratio (x) = 0.05533 0.24329
# Poissons Ratio (y) = 0.03328 0.15633
# Poissons Ratio (z) = 0.28063 0.29984
#
# Static dielectric constant tensor:
#      x y z
#    x 2.039440 0.000000 -0.018730 
#    y 0.000000 1.964540 0.000000 
#    z -0.018730 0.000000 2.011110 
# 
# From -- ./inp_files/2587.got.cif
#   From: 2010.05.17/outbox.cif.g08.bks.cpg/sg9_2_cif.got.tgz:2587.got - 2010.06.03 20:04:27.
