data_PCOD9138724
_publ_section_title
;
Structure prediction by ZEFSAII (Michael W. Deem and Ramdas Pophale) SiO2 
 PCOD9138724
Probable space group: C C
;
_chemical_formula_sum "Si O2"
_cell_formula_units_Z 32
_cell_length_a 5.065973
_cell_length_b 31.950805
_cell_length_c 8.452088
_cell_angle_alpha 90.000000
_cell_angle_beta 71.550720
_cell_angle_gamma 90.000000
_cell_volume 1297.758003
_symmetry_space_group_name_H-M "C C"
_symmetry_group_IT_number 9
_symmetry_cell_setting 'monoclinic'
loop_
_space_group_symop_operation_xyz
x,y,z
x,-y,1/2+z
1/2+x,1/2+y,z
1/2+x,1/2-y,1/2+z
loop_
_atom_site_type_symbol
_atom_site_label
_atom_site_fract_x
_atom_site_fract_y
_atom_site_fract_z
Si Si1 0.420690 0.377434 0.706980
Si Si2 0.128139 0.005400 0.576266
Si Si3 0.951521 0.702835 0.798520
Si Si4 0.657673 0.344223 0.109150
Si Si5 0.718362 0.035346 0.936190
Si Si6 0.721387 0.128719 0.901148
Si Si7 0.853919 0.586997 0.373965
Si Si8 0.382697 0.296811 0.922802
O O1 0.416648 0.370621 0.519575
O O2 0.685763 0.392036 0.759522
O O3 0.333344 0.332414 0.801060
O O4 0.178434 0.412019 0.776342
O O5 0.197342 0.044767 0.448906
O O6 0.898611 0.019758 0.749358
O O7 0.445983 0.990083 0.550323
O O8 0.967431 0.969007 0.514725
O O9 0.033016 0.670438 0.922591
O O10 0.166673 0.702902 0.609703
O O11 0.690563 0.683490 0.757692
O O12 0.910093 0.750017 0.858417
O O13 0.376583 0.368907 0.202749
O O14 0.851036 0.382455 0.027913
O O15 0.657196 0.313023 0.961890
O O16 0.604131 0.081874 0.926165
#
# Coordination Sequence:
#
# PCOD9138724 Si02
#       8
#     4   4   4   4   4   4   4   4
#     4  11  26  44  76 108 147 196 249 311 375 457
#     4  12  28  49  77 114 151 202 256 325 391 467
#     4  11  25  44  72 100 148 198 250 317 377 456
#     4  10  23  46  70 100 140 200 242 306 377 449
#     4  12  29  49  78 112 158 199 262 321 395 465
#     4  11  28  46  71 107 148 198 257 312 387 461
#     4  11  24  49  75 101 150 196 247 304 385 459
#     4  10  25  43  67 106 144 193 253 304 377 446
#
# _framework density 24.657912
#
# number of rings (size 3 to 8) (size 9 to 14) (size 15 to 20)
#    0.000    1.000    2.500    1.500   12.250    3.000 
#    0.000    0.000    0.000    0.000    0.000    0.000 
#    0.000    0.000    0.000    0.000    0.000    0.000 
#
# Total GULP energy -89220.159566 kJ/mol
# GULP energy per Si atom -5576.259973 kJ/mol
# Density = 2.460179 g / cm^3
# Si number density = 24.657912 Si / 1000 Ang^3
#
#
#
# Elastic Constant Matrix: (Units=GPa)
#
#
# Indices 1 2 3 4 5 6 
#
# 1 96.8054 24.7459 17.5788 0.0000 6.8241 0.0000
# 2 24.7459 155.8312 48.8054 0.0000 -3.3352 0.0000
# 3 17.5788 48.8054 98.2263 0.0000 -5.9324 0.0000
# 4 0.0000 0.0000 0.0000 40.8419 0.0000 -1.4200
# 5 6.8241 -3.3352 -5.9324 0.0000 37.5635 0.0000
# 6 0.0000 0.0000 0.0000 -1.4200 0.0000 26.4726
#
#
#
# Elastic Compliance Matrix: (Units=1/GPa)
#
#
# Indices 1 2 3 4 5 6 
#
# 1 0.011109 -0.001359 -0.001456 0.000000 -0.002369 0.000000
# 2 -0.001359 0.007766 -0.003593 0.000000 0.000369 0.000000
# 3 -0.001456 -0.003593 0.012341 0.000000 0.001894 0.000000
# 4 0.000000 0.000000 0.000000 0.024530 0.000000 0.001316
# 5 -0.002369 0.000369 0.001894 0.000000 0.027384 0.000000
# 6 0.000000 0.000000 0.000000 0.001316 0.000000 0.037845
#
#
# Mechanical properties :
#
#
# Convention : Reuss Voigt Hill
#
# Bulk Modulus (GPa) = 54.34846 59.23588 56.79217
# Shear Modulus (GPa) = 35.73339 38.29111 37.01225
#
# Velocity S-wave (km/s) = 3.81092 3.94495 3.87852
# Velocity P-wave (km/s) = 6.43840 6.69518 6.56804
#
# Compressibility (1/GPa) = 0.01839979
#
# Stress axis : x y z
#
# Youngs Moduli (GPa) = 90.01958 128.76174 81.03087
#
# Poissons Ratio (x) = 0.17495 0.11798
# Poissons Ratio (y) = 0.12231 0.29117
# Poissons Ratio (z) = 0.13107 0.46269
#
# Static dielectric constant tensor:
#      x y z
#    x 2.109070 0.000000 -0.009350 
#    y 0.000000 1.978750 0.000000 
#    z -0.009350 0.000000 2.029060 
# 
# From -- ./inp_files/4484.got.cif
#   From: 2010.05.17/outbox.cif.g08.bks.cpg/sg9_3_cif.got.tgz:4484.got - 2010.06.03 20:04:27.
