data_PCOD9138312
_publ_section_title
;
Structure prediction by ZEFSAII (Michael W. Deem and Ramdas Pophale) SiO2 
 PCOD9138312
Probable space group: C C
;
_chemical_formula_sum "Si O2"
_cell_formula_units_Z 28
_cell_length_a 9.554145
_cell_length_b 11.104370
_cell_length_c 19.893352
_cell_angle_alpha 90.000000
_cell_angle_beta 147.698798
_cell_angle_gamma 90.000000
_cell_volume 1127.809775
_symmetry_space_group_name_H-M "C C"
_symmetry_group_IT_number 9
_symmetry_cell_setting 'monoclinic'
loop_
_space_group_symop_operation_xyz
x,y,z
x,-y,1/2+z
1/2+x,1/2+y,z
1/2+x,1/2-y,1/2+z
loop_
_atom_site_type_symbol
_atom_site_label
_atom_site_fract_x
_atom_site_fract_y
_atom_site_fract_z
Si Si1 0.380840 0.369397 0.889550
Si Si2 0.413823 0.717117 0.113324
Si Si3 0.057238 0.420614 0.092865
Si Si4 0.371979 0.178423 0.387079
Si Si5 0.584734 0.361929 0.249219
Si Si6 0.634840 0.408985 0.425802
Si Si7 0.346916 0.462486 0.026939
O O1 0.143858 0.280863 0.773289
O O2 0.439743 0.479279 0.862640
O O3 0.355086 0.426434 0.952740
O O4 0.636627 0.283126 0.001756
O O5 0.571163 0.676892 0.242870
O O6 0.617122 0.819474 0.171335
O O7 0.392020 0.603179 0.056521
O O8 0.874092 0.345965 0.966785
O O9 0.912131 0.535168 0.061952
O O10 0.313771 0.432592 0.153872
O O11 0.540532 0.294231 0.430577
O O12 0.545440 0.070704 0.425204
O O13 0.696304 0.388781 0.371007
O O14 0.575179 0.397340 0.165262
#
# Coordination Sequence:
#
# PCOD9138312 Si02
#       7
#     4   4   4   4   4   4   4
#     4  11  26  46  69 108 138 185 234 285 355 423
#     4  11  24  44  66 100 138 178 238 281 348 420
#     4  10  23  42  68  99 132 181 230 284 346 415
#     4  11  23  45  68  99 137 182 228 290 350 409
#     4  11  24  44  69 103 138 184 231 288 351 413
#     4  11  23  45  71  96 142 180 229 290 347 409
#     4  11  25  42  73  99 141 186 230 292 347 415
#
# _framework density 24.826882000000001
#
# number of rings (size 3 to 8) (size 9 to 14) (size 15 to 20)
#    0.000    1.143    2.857    1.714    6.000    5.714 
#    5.143    0.000    0.000    0.000    0.000    0.000 
#    0.000    0.000    0.000    0.000    0.000    0.000 
#
# Total GULP energy -77936.257231 kJ/mol
# GULP energy per Si atom -5566.875517 kJ/mol
# Density = 2.477038 g / cm^3
# Si number density = 24.826882 Si / 1000 Ang^3
#
#
#
# Elastic Constant Matrix: (Units=GPa)
#
#
# Indices 1 2 3 4 5 6 
#
# 1 64.2345 21.1270 -3.0623 0.0012 -3.0563 0.0001
# 2 21.1270 104.7536 23.5274 -0.0001 7.5389 -0.0001
# 3 -3.0623 23.5274 49.4341 -0.0017 -7.0843 -0.0001
# 4 0.0012 -0.0001 -0.0017 -1.2289 -0.0029 -3.5272
# 5 -3.0563 7.5389 -7.0843 -0.0029 25.8731 -0.0004
# 6 0.0001 -0.0001 -0.0001 -3.5272 -0.0004 47.4295
#
#
#
# Elastic Compliance Matrix: (Units=1/GPa)
#
#
# Indices 1 2 3 4 5 6 
#
# 1 0.017544 -0.004767 0.004009 0.000001 0.004559 0.000000
# 2 -0.004767 0.012561 -0.007159 0.000016 -0.006183 0.000001
# 3 0.004009 -0.007159 0.025242 -0.000044 0.009471 -0.000003
# 4 0.000001 0.000016 -0.000044 -0.670585 -0.000092 -0.049870
# 5 0.004559 -0.006183 0.009471 -0.000092 0.043584 -0.000006
# 6 0.000000 0.000001 -0.000003 -0.049870 -0.000006 0.017375
#
#
# Mechanical properties :
#
#
# Convention : Reuss Voigt Hill
#
# Bulk Modulus (GPa) = 25.30905 33.51184 29.41044
# Shear Modulus (GPa) = -9.51884 26.20341 8.34228
#
# Velocity S-wave (km/s) = -1.96021 3.25229 1.83507
# Velocity P-wave (km/s) = 2.25680 5.25649 4.04498
#
# Compressibility (1/GPa) = 0.03951156
#
# Stress axis : x y z
#
# Youngs Moduli (GPa) = 57.00028 79.61425 39.61653
#
# Poissons Ratio (x) = 0.37950 -0.15881
# Poissons Ratio (y) = 0.27170 0.28363
# Poissons Ratio (z) = -0.22850 0.56999
#
# Static dielectric constant tensor:
#      x y z
#    x 1.973830 0.000000 0.013470 
#    y 0.000000 2.082720 0.000000 
#    z 0.013470 0.000000 2.130100 
# 
# From -- ./inp_files/27790.got.cif
#   From: 2010.05.17/outbox.cif.g08.bks.cpg/sg9_14_cif.got.tgz:27790.got - 2010.06.03 20:04:27.
