data_PCOD9138841
_publ_section_title
;
Structure prediction by ZEFSAII (Michael W. Deem and Ramdas Pophale) SiO2 
 PCOD9138841
Probable space group: C C
;
_chemical_formula_sum "Si O2"
_cell_formula_units_Z 32
_cell_length_a 22.115257
_cell_length_b 9.029587
_cell_length_c 14.195596
_cell_angle_alpha 90.000000
_cell_angle_beta 27.129201
_cell_angle_gamma 90.000000
_cell_volume 1292.638148
_symmetry_space_group_name_H-M "C C"
_symmetry_group_IT_number 9
_symmetry_cell_setting 'monoclinic'
loop_
_space_group_symop_operation_xyz
x,y,z
x,-y,1/2+z
1/2+x,1/2+y,z
1/2+x,1/2-y,1/2+z
loop_
_atom_site_type_symbol
_atom_site_label
_atom_site_fract_x
_atom_site_fract_y
_atom_site_fract_z
Si Si1 0.943280 0.135948 0.647720
Si Si2 0.847096 0.756417 0.475933
Si Si3 0.738562 0.467720 0.535602
Si Si4 0.176582 0.039205 0.911320
Si Si5 0.522835 0.159983 0.589445
Si Si6 0.616136 0.188583 0.797597
Si Si7 0.264669 0.485758 0.232949
Si Si8 0.479958 0.092963 0.434559
O O1 0.869342 0.157991 0.848010
O O2 0.983915 0.290746 0.544142
O O3 0.864367 0.045640 0.678634
O O4 0.084107 0.065497 0.478612
O O5 0.757438 0.614752 0.571511
O O6 0.800145 0.872032 0.620154
O O7 0.979117 0.690611 0.342006
O O8 0.691768 0.514344 0.496994
O O9 0.641680 0.339902 0.707789
O O10 0.879573 0.382105 0.328042
O O11 0.324319 0.052639 0.665034
O O12 0.095045 0.193697 0.026693
O O13 0.621856 0.025517 0.473101
O O14 0.512685 0.170746 0.489075
O O15 0.739051 0.147029 0.694877
O O16 0.577584 0.046276 0.789568
#
# Coordination Sequence:
#
# PCOD9138841 Si02
#       8
#     4   4   4   4   4   4   4   4
#     4  12  29  46  79 115 156 210 260 329 390 471
#     4  12  26  49  78 113 156 203 263 321 393 471
#     4  11  28  47  79 112 156 212 259 321 405 467
#     4  11  24  44  75 110 155 204 261 321 384 471
#     4  10  23  48  74 113 154 204 256 330 384 470
#     4  11  28  50  77 109 163 204 260 328 389 477
#     4  11  27  51  79 112 156 205 264 327 393 472
#     4  10  23  49  73 108 154 206 259 323 392 455
#
# _framework density 24.755575
#
# number of rings (size 3 to 8) (size 9 to 14) (size 15 to 20)
#    0.000    1.000    1.250    3.750   12.250    2.000 
#    2.250    0.000    0.000    0.000    0.000    0.000 
#    0.000    0.000    0.000    0.000    0.000    0.000 
#
# Total GULP energy -89568.411188 kJ/mol
# GULP energy per Si atom -5598.025699 kJ/mol
# Density = 2.469923 g / cm^3
# Si number density = 24.755575 Si / 1000 Ang^3
#
#
#
# Elastic Constant Matrix: (Units=GPa)
#
#
# Indices 1 2 3 4 5 6 
#
# 1 200.0767 54.0099 51.8550 0.0000 -11.0094 0.0000
# 2 54.0099 80.4393 34.4208 0.0000 2.8451 0.0000
# 3 51.8550 34.4208 75.3908 0.0000 -6.4549 0.0000
# 4 0.0000 0.0000 0.0000 35.2942 0.0000 -4.9457
# 5 -11.0094 2.8451 -6.4549 0.0000 39.2792 0.0000
# 6 0.0000 0.0000 0.0000 -4.9457 0.0000 43.9597
#
#
#
# Elastic Compliance Matrix: (Units=1/GPa)
#
#
# Indices 1 2 3 4 5 6 
#
# 1 0.006760 -0.003315 -0.002995 0.000000 0.001643 0.000000
# 2 -0.003315 0.017286 -0.005881 0.000000 -0.003148 0.000000
# 3 -0.002995 -0.005881 0.018231 0.000000 0.002582 0.000000
# 4 0.000000 0.000000 0.000000 0.028787 0.000000 0.003239
# 5 0.001643 -0.003148 0.002582 0.000000 0.026571 0.000000
# 6 0.000000 0.000000 0.000000 0.003239 0.000000 0.023112
#
#
# Mechanical properties :
#
#
# Convention : Reuss Voigt Hill
#
# Bulk Modulus (GPa) = 55.88877 70.71980 63.30429
# Shear Modulus (GPa) = 33.09186 38.08137 35.58662
#
# Velocity S-wave (km/s) = 3.66012 3.92636 3.79558
# Velocity P-wave (km/s) = 6.36295 7.01316 6.69595
#
# Compressibility (1/GPa) = 0.01789268
#
# Stress axis : x y z
#
# Youngs Moduli (GPa) = 147.93670 57.85149 54.85259
#
# Poissons Ratio (x) = 0.19178 0.16429
# Poissons Ratio (y) = 0.49042 0.32261
# Poissons Ratio (z) = 0.44310 0.34024
#
# Static dielectric constant tensor:
#      x y z
#    x 1.950000 0.000000 0.024960 
#    y 0.000000 1.992520 0.000000 
#    z 0.024960 0.000000 1.988870 
# 
# From -- ./inp_files/27333.got.cif
#   From: 2010.05.17/outbox.cif.g08.bks.cpg/sg9_14_cif.got.tgz:27333.got - 2010.06.03 20:04:27.
