data_PCOD9138862
_publ_section_title
;
Structure prediction by ZEFSAII (Michael W. Deem and Ramdas Pophale) SiO2 
 PCOD9138862
Probable space group: C C
;
_chemical_formula_sum "Si O2"
_cell_formula_units_Z 24
_cell_length_a 20.308285
_cell_length_b 7.214144
_cell_length_c 9.421355
_cell_angle_alpha 90.000000
_cell_angle_beta 40.962216
_cell_angle_gamma 90.000000
_cell_volume 904.866811
_symmetry_space_group_name_H-M "C C"
_symmetry_group_IT_number 9
_symmetry_cell_setting 'monoclinic'
loop_
_space_group_symop_operation_xyz
x,y,z
x,-y,1/2+z
1/2+x,1/2+y,z
1/2+x,1/2-y,1/2+z
loop_
_atom_site_type_symbol
_atom_site_label
_atom_site_fract_x
_atom_site_fract_y
_atom_site_fract_z
Si Si1 0.573850 0.424929 0.835760
Si Si2 0.872120 0.146047 0.529305
Si Si3 0.376917 0.061931 0.780563
Si Si4 0.082703 0.674988 0.383482
Si Si5 0.805002 0.741740 0.609819
Si Si6 0.666054 0.289023 0.973731
O O1 0.536838 0.617072 0.968214
O O2 0.629547 0.318805 0.871793
O O3 0.642665 0.516259 0.597904
O O4 0.479944 0.317327 0.924262
O O5 0.857293 0.262536 0.412392
O O6 0.777273 0.205033 0.779047
O O7 0.869455 0.927586 0.504284
O O8 0.497143 0.041023 0.575691
O O9 0.335458 0.117488 0.694534
O O10 0.328931 0.889782 0.939222
O O11 0.189613 0.689485 0.287400
O O12 0.106479 0.651253 0.177114
#
# Coordination Sequence:
#
# PCOD9138862 Si02
#       6
#     4   4   4   4   4   4
#     4  10  23  49  84 123 174 221 282 357 424 505
#     4  12  28  50  92 117 169 228 281 354 431 516
#     4  12  30  53  81 125 167 226 281 360 424 506
#     4  10  26  48  81 116 170 222 274 354 424 496
#     4  12  30  53  84 123 171 219 294 345 426 517
#     4  10  25  47  86 122 173 224 282 356 431 504
#
# _framework density 26.523239
#
# number of rings (size 3 to 8) (size 9 to 14) (size 15 to 20)
#    1.000    0.000    1.667    2.000    7.000    5.333 
#    3.000    0.000    0.000    0.000    0.000    0.000 
#    0.000    0.000    0.000    0.000    0.000    0.000 
#
# Total GULP energy -67224.627762 kJ/mol
# GULP energy per Si atom -5602.052313 kJ/mol
# Density = 2.646287 g / cm^3
# Si number density = 26.523239 Si / 1000 Ang^3
#
#
#
# Elastic Constant Matrix: (Units=GPa)
#
#
# Indices 1 2 3 4 5 6 
#
# 1 194.8191 48.6461 68.9161 0.0000 12.0685 0.0000
# 2 48.6461 111.3417 38.1927 0.0000 12.2667 0.0000
# 3 68.9161 38.1927 149.4923 0.0000 -8.0250 0.0000
# 4 0.0000 0.0000 0.0000 24.7659 0.0000 0.4814
# 5 12.0685 12.2667 -8.0250 0.0000 52.5766 0.0000
# 6 0.0000 0.0000 0.0000 0.4814 0.0000 41.3648
#
#
#
# Elastic Compliance Matrix: (Units=1/GPa)
#
#
# Indices 1 2 3 4 5 6 
#
# 1 0.006624 -0.001812 -0.002671 0.000000 -0.001505 0.000000
# 2 -0.001812 0.010736 -0.002036 0.000000 -0.002400 0.000000
# 3 -0.002671 -0.002036 0.008570 0.000000 0.002396 0.000000
# 4 0.000000 0.000000 0.000000 0.040387 0.000000 -0.000470
# 5 -0.001505 -0.002400 0.002396 0.000000 0.020291 0.000000
# 6 0.000000 0.000000 0.000000 -0.000470 0.000000 0.024181
#
#
# Mechanical properties :
#
#
# Convention : Reuss Voigt Hill
#
# Bulk Modulus (GPa) = 77.57930 85.24032 81.40981
# Shear Modulus (GPa) = 39.02470 43.73468 41.37969
#
# Velocity S-wave (km/s) = 3.83997 4.06509 3.95413
# Velocity P-wave (km/s) = 6.99811 7.36485 7.18382
#
# Compressibility (1/GPa) = 0.01289004
#
# Stress axis : x y z
#
# Youngs Moduli (GPa) = 150.97512 93.14599 116.68931
#
# Poissons Ratio (x) = 0.16875 0.31173
# Poissons Ratio (y) = 0.27352 0.23763
# Poissons Ratio (z) = 0.40332 0.18969
#
# Static dielectric constant tensor:
#      x y z
#    x 2.102850 0.000000 -0.028240 
#    y 0.000000 2.125470 0.000000 
#    z -0.028240 0.000000 2.088900 
# 
# From -- ./inp_files/11288.got.cif
#   From: 2010.05.17/outbox.cif.g08.bks.cpg/sg9_6_cif.got.tgz:11288.got - 2010.06.03 20:04:27.
