data_PCOD9138345
_publ_section_title
;
Structure prediction by ZEFSAII (Michael W. Deem and Ramdas Pophale) SiO2 
 PCOD9138345
Probable space group: C C
;
_chemical_formula_sum "Si O2"
_cell_formula_units_Z 28
_cell_length_a 15.835226
_cell_length_b 7.587284
_cell_length_c 19.789529
_cell_angle_alpha 90.000000
_cell_angle_beta 28.838625
_cell_angle_gamma 90.000000
_cell_volume 1146.841041
_symmetry_space_group_name_H-M "C C"
_symmetry_group_IT_number 9
_symmetry_cell_setting 'monoclinic'
loop_
_space_group_symop_operation_xyz
x,y,z
x,-y,1/2+z
1/2+x,1/2+y,z
1/2+x,1/2-y,1/2+z
loop_
_atom_site_type_symbol
_atom_site_label
_atom_site_fract_x
_atom_site_fract_y
_atom_site_fract_z
Si Si1 0.149440 0.642307 0.925100
Si Si2 0.038397 0.109402 0.891106
Si Si3 0.660630 0.721664 0.663612
Si Si4 0.993434 0.395051 0.297625
Si Si5 0.866193 0.270957 0.527406
Si Si6 0.008720 0.097125 0.629256
Si Si7 0.808158 0.784454 0.804848
O O1 0.972516 0.617868 0.007603
O O2 0.314660 0.684855 0.761064
O O3 0.209823 0.450982 0.909999
O O4 0.126712 0.797190 0.994544
O O5 0.119278 0.114410 0.759862
O O6 0.178505 0.185707 0.845502
O O7 0.971035 0.914786 0.955351
O O8 0.863923 0.229881 0.014050
O O9 0.584477 0.630498 0.650394
O O10 0.558405 0.906174 0.744781
O O11 0.884759 0.358419 0.441249
O O12 0.889905 0.338618 0.303700
O O13 0.167656 0.276700 0.181202
O O14 0.960240 0.890898 0.656287
#
# Coordination Sequence:
#
# PCOD9138345 Si02
#       7
#     4   4   4   4   4   4   4
#     4  10  23  42  71  98 135 178 225 275 339 400
#     4  11  26  45  72 102 138 179 233 279 340 406
#     4  11  25  46  71 100 136 185 227 280 342 407
#     4  11  26  45  72 102 138 179 233 279 340 406
#     4  11  25  46  71 100 136 185 227 280 342 407
#     4  10  23  42  71  98 135 178 225 275 339 400
#     4  10  26  44  68 104 138 176 226 286 340 396
#
# _framework density 24.414891000000001
#
# number of rings (size 3 to 8) (size 9 to 14) (size 15 to 20)
#    0.857    0.571    0.000    3.429   10.000    8.000 
#    0.000    0.000    0.000    0.000    0.000    0.000 
#    0.000    0.000    0.000    0.000    0.000    0.000 
#
# Total GULP energy -78459.050371 kJ/mol
# GULP energy per Si atom -5604.217884 kJ/mol
# Density = 2.435932 g / cm^3
# Si number density = 24.414891 Si / 1000 Ang^3
#
#
#
# Elastic Constant Matrix: (Units=GPa)
#
#
# Indices 1 2 3 4 5 6 
#
# 1 81.1512 22.7235 -4.0713 0.0000 -22.2036 0.0000
# 2 22.7235 118.4288 19.9666 -0.0003 -12.8660 0.0002
# 3 -4.0713 19.9666 62.1110 0.0000 -10.7415 0.0002
# 4 0.0000 -0.0003 0.0000 35.7031 0.0000 -17.4263
# 5 -22.2036 -12.8660 -10.7415 0.0000 40.6297 -0.0001
# 6 0.0000 0.0002 0.0002 -17.4263 -0.0001 21.8762
#
#
#
# Elastic Compliance Matrix: (Units=1/GPa)
#
#
# Indices 1 2 3 4 5 6 
#
# 1 0.015567 -0.002620 0.003343 0.000000 0.008561 0.000000
# 2 -0.002620 0.009555 -0.003110 0.000000 0.000771 0.000000
# 3 0.003343 -0.003110 0.018302 0.000000 0.005681 0.000000
# 4 0.000000 0.000000 0.000000 0.045826 0.000000 0.036505
# 5 0.008561 0.000771 0.005681 0.000000 0.031037 0.000000
# 6 0.000000 0.000000 0.000000 0.036505 0.000000 0.074791
#
#
# Mechanical properties :
#
#
# Convention : Reuss Voigt Hill
#
# Bulk Modulus (GPa) = 25.87405 37.65875 31.76640
# Shear Modulus (GPa) = 23.50351 34.51327 29.00839
#
# Velocity S-wave (km/s) = 3.10606 3.76389 3.45069
# Velocity P-wave (km/s) = 4.84604 5.86064 5.37732
#
# Compressibility (1/GPa) = 0.03864877
#
# Stress axis : x y z
#
# Youngs Moduli (GPa) = 64.24034 104.65931 54.64031
#
# Poissons Ratio (x) = 0.27425 -0.18268
# Poissons Ratio (y) = 0.16834 0.16993
# Poissons Ratio (z) = -0.21477 0.32548
#
# Static dielectric constant tensor:
#      x y z
#    x 1.858590 0.000000 0.001050 
#    y 0.000000 1.950940 0.000000 
#    z 0.001050 0.000000 1.963990 
# 
# From -- ./inp_files/33690.got.cif
#   From: 2010.05.17/outbox.cif.g08.bks.cpg/sg9_17_cif.got.tgz:33690.got - 2010.06.03 20:04:27.
