data_PCOD9138401
_publ_section_title
;
Structure prediction by ZEFSAII (Michael W. Deem and Ramdas Pophale) SiO2 
 PCOD9138401
Probable space group: C C
;
_chemical_formula_sum "Si O2"
_cell_formula_units_Z 32
_cell_length_a 9.392868
_cell_length_b 15.916005
_cell_length_c 10.864662
_cell_angle_alpha 90.000000
_cell_angle_beta 129.439464
_cell_angle_gamma 90.000000
_cell_volume 1254.389487
_symmetry_space_group_name_H-M "C C"
_symmetry_group_IT_number 9
_symmetry_cell_setting 'monoclinic'
loop_
_space_group_symop_operation_xyz
x,y,z
x,-y,1/2+z
1/2+x,1/2+y,z
1/2+x,1/2-y,1/2+z
loop_
_atom_site_type_symbol
_atom_site_label
_atom_site_fract_x
_atom_site_fract_y
_atom_site_fract_z
Si Si1 0.928410 0.804397 0.229970
Si Si2 0.160916 0.971140 0.791000
Si Si3 0.250548 0.485653 0.037196
Si Si4 0.002102 0.583745 0.057723
Si Si5 0.482960 0.701105 0.234219
Si Si6 0.248613 0.358980 0.369429
Si Si7 0.427896 0.120393 0.288043
Si Si8 0.338658 0.751627 0.410278
O O1 0.854577 0.866005 0.296219
O O2 0.864989 0.715884 0.258426
O O3 0.147634 0.795448 0.343064
O O4 0.881931 0.801579 0.057667
O O5 0.258962 0.941456 0.718745
O O6 0.971459 0.021199 0.663075
O O7 0.115255 0.880771 0.828383
O O8 0.322316 0.024543 0.942613
O O9 0.199695 0.547834 0.894241
O O10 0.186440 0.539915 0.117429
O O11 0.102514 0.409836 0.963111
O O12 0.973442 0.669166 0.967661
O O13 0.008594 0.612964 0.198603
O O14 0.584123 0.790821 0.269396
O O15 0.357515 0.707883 0.288567
O O16 0.379377 0.677813 0.050268
#
# Coordination Sequence:
#
# PCOD9138401 Si02
#       8
#     4   4   4   4   4   4   4   4
#     4  11  24  43  65  98 136 174 217 279 336 395
#     4  10  23  43  67  96 130 175 224 277 330 399
#     4  10  23  43  67  96 130 175 224 277 330 399
#     4  10  23  44  65  95 136 172 221 280 336 392
#     4  11  22  41  68  98 130 172 223 273 331 397
#     4  11  22  41  68  98 130 172 223 273 331 397
#     4  10  23  44  65  95 136 172 221 280 336 392
#     4  11  24  43  65  98 136 174 217 279 336 395
#
# _framework density 25.510417
#
# number of rings (size 3 to 8) (size 9 to 14) (size 15 to 20)
#    0.000    1.500    2.500    1.500   10.500    3.000 
#    9.000    0.000    0.000    0.000    0.000    0.000 
#    0.000    0.000    0.000    0.000    0.000    0.000 
#
# Total GULP energy -89377.590021 kJ/mol
# GULP energy per Si atom -5586.099376 kJ/mol
# Density = 2.545235 g / cm^3
# Si number density = 25.510417 Si / 1000 Ang^3
#
#
#
# Elastic Constant Matrix: (Units=GPa)
#
#
# Indices 1 2 3 4 5 6 
#
# 1 146.7506 9.1156 26.7184 0.0000 -12.9567 0.0000
# 2 9.1156 66.2577 8.8814 0.0000 -3.0853 0.0000
# 3 26.7184 8.8814 72.3438 0.0000 -0.4432 0.0000
# 4 0.0000 0.0000 0.0000 31.9837 0.0000 8.4899
# 5 -12.9567 -3.0853 -0.4432 0.0000 43.6237 0.0000
# 6 0.0000 0.0000 0.0000 8.4899 0.0000 48.0581
#
#
#
# Elastic Compliance Matrix: (Units=1/GPa)
#
#
# Indices 1 2 3 4 5 6 
#
# 1 0.007533 -0.000574 -0.002698 0.000000 0.002169 0.000000
# 2 -0.000574 0.015439 -0.001678 0.000000 0.000904 0.000000
# 3 -0.002698 -0.001678 0.015021 0.000000 -0.000768 0.000000
# 4 0.000000 0.000000 0.000000 0.032804 0.000000 -0.005795
# 5 0.002169 0.000904 -0.000768 0.000000 0.023624 0.000000
# 6 0.000000 0.000000 0.000000 -0.005795 0.000000 0.021832
#
#
# Mechanical properties :
#
#
# Convention : Reuss Voigt Hill
#
# Bulk Modulus (GPa) = 35.59703 41.64254 38.61979
# Shear Modulus (GPa) = 36.89606 40.77554 38.83580
#
# Velocity S-wave (km/s) = 3.80717 4.00232 3.90596
# Velocity P-wave (km/s) = 5.77150 6.14144 5.95934
#
# Compressibility (1/GPa) = 0.02809223
#
# Stress axis : x y z
#
# Youngs Moduli (GPa) = 132.75423 64.77293 66.57464
#
# Poissons Ratio (x) = 0.03716 0.17964
# Poissons Ratio (y) = 0.07615 0.11171
# Poissons Ratio (z) = 0.35821 0.10868
#
# Static dielectric constant tensor:
#      x y z
#    x 1.972980 0.000000 0.041740 
#    y 0.000000 2.238240 0.000000 
#    z 0.041740 0.000000 2.047400 
# 
# From -- ./inp_files/15182.got.cif
#   From: 2010.05.17/outbox.cif.g08.bks.cpg/sg9_8_cif.got.tgz:15182.got - 2010.06.03 20:04:27.
