data_PCOD9138265
_publ_section_title
;
Structure prediction by ZEFSAII (Michael W. Deem and Ramdas Pophale) SiO2 
 PCOD9138265
Probable space group: C C
;
_chemical_formula_sum "Si O2"
_cell_formula_units_Z 20
_cell_length_a 16.976244
_cell_length_b 7.408678
_cell_length_c 9.249581
_cell_angle_alpha 90.000000
_cell_angle_beta 137.642421
_cell_angle_gamma 90.000000
_cell_volume 783.802576
_symmetry_space_group_name_H-M "C C"
_symmetry_group_IT_number 9
_symmetry_cell_setting 'monoclinic'
loop_
_space_group_symop_operation_xyz
x,y,z
x,-y,1/2+z
1/2+x,1/2+y,z
1/2+x,1/2-y,1/2+z
loop_
_atom_site_type_symbol
_atom_site_label
_atom_site_fract_x
_atom_site_fract_y
_atom_site_fract_z
Si Si1 0.050220 0.429129 0.975850
Si Si2 0.255469 0.785751 0.830070
Si Si3 0.256391 0.330686 0.624605
Si Si4 0.716617 0.564172 0.987211
Si Si5 0.475415 0.237212 0.093913
O O1 0.969809 0.338113 0.748292
O O2 0.118612 0.270683 0.151309
O O3 0.153811 0.535234 0.030674
O O4 0.993621 0.571229 0.006912
O O5 0.276581 0.805013 0.687725
O O6 0.276677 0.981531 0.926812
O O7 0.304476 0.654738 0.023325
O O8 0.202000 0.128110 0.550676
O O9 0.364193 0.342354 0.880743
O O10 0.596387 0.650822 0.768995
#
# Coordination Sequence:
#
# PCOD9138265 Si02
#       5
#     4   4   4   4   4
#     4  11  22  44  60  99 131 159 218 266 301 391
#     4   9  20  40  63  88 132 160 200 273 304 355
#     4  10  23  42  64  93 126 168 205 265 314 369
#     4   9  20  39  59  93 122 158 210 255 300 379
#     4  11  23  39  70  91 127 173 209 255 331 364
#
# _framework density 25.516629999999999
#
# number of rings (size 3 to 8) (size 9 to 14) (size 15 to 20)
#    1.200    0.800    2.000    1.200    2.800    0.000 
#   10.800    4.000    0.000    0.000    0.000    0.000 
#    0.000    0.000    0.000    0.000    0.000    0.000 
#
# Total GULP energy -55740.247720 kJ/mol
# GULP energy per Si atom -5574.024772 kJ/mol
# Density = 2.545855 g / cm^3
# Si number density = 25.516630 Si / 1000 Ang^3
#
#
#
# Elastic Constant Matrix: (Units=GPa)
#
#
# Indices 1 2 3 4 5 6 
#
# 1 76.3614 14.5364 32.1700 0.0000 -18.1344 0.0000
# 2 14.5364 38.0717 9.5273 0.0000 -8.0942 0.0000
# 3 32.1700 9.5273 194.5547 0.0000 -17.0382 0.0000
# 4 0.0000 0.0000 0.0000 42.9703 0.0000 -20.6984
# 5 -18.1344 -8.0942 -17.0382 0.0000 43.3822 0.0000
# 6 0.0000 0.0000 0.0000 -20.6984 0.0000 12.3913
#
#
#
# Elastic Compliance Matrix: (Units=1/GPa)
#
#
# Indices 1 2 3 4 5 6 
#
# 1 0.015995 -0.004536 -0.001979 0.000000 0.005063 0.000000
# 2 -0.004536 0.028799 -0.000368 0.000000 0.003333 0.000000
# 3 -0.001979 -0.000368 0.005599 0.000000 0.001303 0.000000
# 4 0.000000 0.000000 0.000000 0.119108 0.000000 0.198957
# 5 0.005063 0.003333 0.001303 0.000000 0.026301 0.000000
# 6 0.000000 0.000000 0.000000 0.198957 0.000000 0.413039
#
#
# Mechanical properties :
#
#
# Convention : Reuss Voigt Hill
#
# Bulk Modulus (GPa) = 27.30264 46.82836 37.06550
# Shear Modulus (GPa) = 7.87630 36.59905 22.23767
#
# Velocity S-wave (km/s) = 1.75882 3.79135 2.95532
# Velocity P-wave (km/s) = 3.85328 6.12844 5.11886
#
# Compressibility (1/GPa) = 0.03662649
#
# Stress axis : x y z
#
# Youngs Moduli (GPa) = 62.51885 34.72380 178.59088
#
# Poissons Ratio (x) = 0.15749 0.35350
# Poissons Ratio (y) = 0.28356 0.06580
# Poissons Ratio (z) = 0.12375 0.01279
#
# Static dielectric constant tensor:
#      x y z
#    x 2.093050 0.000000 -0.003550 
#    y 0.000000 1.995010 0.000000 
#    z -0.003550 0.000000 2.079690 
# 
# From -- ./inp_files/6663.got.cif
#   From: 2010.05.17/outbox.cif.g08.bks.cpg/sg9_4_cif.got.tgz:6663.got - 2010.06.03 20:04:27.
