data_PCOD9138818
_publ_section_title
;
Structure prediction by ZEFSAII (Michael W. Deem and Ramdas Pophale) SiO2 
 PCOD9138818
Probable space group: C C
;
_chemical_formula_sum "Si O2"
_cell_formula_units_Z 32
_cell_length_a 8.118588
_cell_length_b 26.259220
_cell_length_c 6.183074
_cell_angle_alpha 90.000000
_cell_angle_beta 64.399755
_cell_angle_gamma 90.000000
_cell_volume 1188.753404
_symmetry_space_group_name_H-M "C C"
_symmetry_group_IT_number 9
_symmetry_cell_setting 'monoclinic'
loop_
_space_group_symop_operation_xyz
x,y,z
x,-y,1/2+z
1/2+x,1/2+y,z
1/2+x,1/2-y,1/2+z
loop_
_atom_site_type_symbol
_atom_site_label
_atom_site_fract_x
_atom_site_fract_y
_atom_site_fract_z
Si Si1 0.572760 0.013628 0.690000
Si Si2 0.300163 0.911165 0.505691
Si Si3 0.767379 0.762481 0.415669
Si Si4 0.650162 0.408790 0.007542
Si Si5 0.225803 0.654327 0.234778
Si Si6 0.498897 0.310705 0.907994
Si Si7 0.430018 0.450100 0.493473
Si Si8 0.863764 0.330234 0.179698
O O1 0.482088 0.067917 0.791468
O O2 0.517905 0.009134 0.463287
O O3 0.785377 0.996243 0.565739
O O4 0.305968 0.925821 0.755459
O O5 0.311381 0.850164 0.450170
O O6 0.114398 0.940591 0.532590
O O7 0.657438 0.810069 0.578409
O O8 0.659275 0.729787 0.300657
O O9 0.818799 0.722383 0.578887
O O10 0.916985 0.790567 0.183546
O O11 0.532836 0.370239 0.930579
O O12 0.524635 0.447406 0.203786
O O13 0.740510 0.371838 0.127734
O O14 0.388782 0.686445 0.249840
O O15 0.071071 0.657049 0.502751
O O16 0.302239 0.599942 0.113513
#
# Coordination Sequence:
#
# PCOD9138818 Si02
#       8
#     4   4   4   4   4   4   4   4
#     4  12  32  55  84 124 166 213 283 355 434 520
#     4  11  26  51  82 116 161 218 273 352 431 513
#     4  11  24  43  64 112 155 204 268 337 395 498
#     4  10  23  47  76 110 156 210 271 337 422 500
#     4  12  24  43  72 107 154 210 273 333 412 502
#     4  11  24  41  68 107 152 213 265 332 403 489
#     4  11  26  49  83 116 157 216 274 352 430 516
#     4  10  25  43  73 106 159 208 267 336 411 498
#
# _framework density 26.918956000000001
#
# number of rings (size 3 to 8) (size 9 to 14) (size 15 to 20)
#    0.000    1.000    3.750    0.750    8.750    5.000 
#    0.000    0.000    0.000    0.000    0.000    0.000 
#    0.000    0.000    0.000    0.000    0.000    0.000 
#
# Total GULP energy -89149.990236 kJ/mol
# GULP energy per Si atom -5571.874390 kJ/mol
# Density = 2.685769 g / cm^3
# Si number density = 26.918956 Si / 1000 Ang^3
#
#
#
# Elastic Constant Matrix: (Units=GPa)
#
#
# Indices 1 2 3 4 5 6 
#
# 1 57.8407 51.7768 -1.0292 0.0000 8.7513 0.0000
# 2 51.7768 67.8609 20.0587 0.0000 -4.9444 0.0000
# 3 -1.0292 20.0587 114.9116 0.0000 -0.0633 0.0000
# 4 0.0000 0.0000 0.0000 46.4875 0.0000 -4.0032
# 5 8.7513 -4.9444 -0.0633 0.0000 44.4868 0.0000
# 6 0.0000 0.0000 0.0000 -4.0032 0.0000 17.8271
#
#
#
# Elastic Compliance Matrix: (Units=1/GPa)
#
#
# Indices 1 2 3 4 5 6 
#
# 1 0.081887 -0.067918 0.012576 0.000000 -0.023639 0.000000
# 2 -0.067918 0.072003 -0.013165 0.000000 0.021344 0.000000
# 3 0.012576 -0.013165 0.011111 0.000000 -0.003921 0.000000
# 4 0.000000 0.000000 0.000000 0.021935 0.000000 0.004926
# 5 -0.023639 0.021344 -0.003921 0.000000 0.029495 0.000000
# 6 0.000000 0.000000 0.000000 0.004926 0.000000 0.057200
#
#
# Mechanical properties :
#
#
# Convention : Reuss Voigt Hill
#
# Bulk Modulus (GPa) = 35.73175 42.46953 39.10064
# Shear Modulus (GPa) = 11.90544 33.08076 22.49310
#
# Velocity S-wave (km/s) = 2.10530 3.50937 2.89379
# Velocity P-wave (km/s) = 4.38319 5.67732 5.07170
#
# Compressibility (1/GPa) = 0.02798631
#
# Stress axis : x y z
#
# Youngs Moduli (GPa) = 12.21194 13.88828 90.00166
#
# Poissons Ratio (x) = 0.94327 -1.13186
# Poissons Ratio (y) = 0.82941 1.18489
# Poissons Ratio (z) = -0.15358 0.18284
#
# Static dielectric constant tensor:
#      x y z
#    x 2.187480 0.000000 0.025410 
#    y 0.000000 2.162960 0.000000 
#    z 0.025410 0.000000 2.172080 
# 
# From -- ./inp_files/1361.got.cif
#   From: 2010.05.17/outbox.cif.g08.bks.cpg/sg9_1_cif.got.tgz:1361.got - 2010.06.03 20:04:27.
