data_PCOD9138792
_publ_section_title
;
Structure prediction by ZEFSAII (Michael W. Deem and Ramdas Pophale) SiO2 
 PCOD9138792
Probable space group: C C
;
_chemical_formula_sum "Si O2"
_cell_formula_units_Z 28
_cell_length_a 10.553938
_cell_length_b 9.273963
_cell_length_c 14.133075
_cell_angle_alpha 90.000000
_cell_angle_beta 63.641840
_cell_angle_gamma 90.000000
_cell_volume 1239.487421
_symmetry_space_group_name_H-M "C C"
_symmetry_group_IT_number 9
_symmetry_cell_setting 'monoclinic'
loop_
_space_group_symop_operation_xyz
x,y,z
x,-y,1/2+z
1/2+x,1/2+y,z
1/2+x,1/2-y,1/2+z
loop_
_atom_site_type_symbol
_atom_site_label
_atom_site_fract_x
_atom_site_fract_y
_atom_site_fract_z
Si Si1 0.013680 0.365620 0.147820
Si Si2 0.677450 0.799107 0.912773
Si Si3 0.512682 0.106377 0.279769
Si Si4 0.957278 0.802602 0.126048
Si Si5 0.705084 0.464948 0.955474
Si Si6 0.759692 0.541655 0.154654
Si Si7 0.454916 0.570196 0.252750
O O1 0.059077 0.448138 0.227845
O O2 0.863175 0.434618 0.173824
O O3 0.998524 0.197461 0.167753
O O4 0.107431 0.381414 0.024162
O O5 0.596749 0.840503 0.842982
O O6 0.835185 0.860948 0.855423
O O7 0.676982 0.626510 0.926693
O O8 0.536816 0.205466 0.179275
O O9 0.344033 0.102703 0.359632
O O10 0.833215 0.698966 0.130061
O O11 0.066042 0.863314 0.011168
O O12 0.904277 0.937032 0.206250
O O13 0.746161 0.488425 0.051988
O O14 0.604353 0.536169 0.251923
#
# Coordination Sequence:
#
# PCOD9138792 Si02
#       7
#     4   4   4   4   4   4   4
#     4  11  23  48  73 103 149 190 238 305 362 422
#     4  12  25  43  78 108 144 198 241 295 370 434
#     4  11  26  45  75 108 148 187 243 309 355 438
#     4  10  25  45  71 106 140 193 242 296 365 423
#     4  11  23  46  69 106 146 190 238 304 366 418
#     4  10  23  47  70 101 149 184 240 303 344 442
#     4  11  25  42  72 106 140 192 238 294 370 419
#
# _framework density 22.589983
#
# number of rings (size 3 to 8) (size 9 to 14) (size 15 to 20)
#    0.000    1.143    5.714    0.000    6.000    2.286 
#    7.714    0.000    0.000    0.000    0.000    0.000 
#    0.000    0.000    0.000    0.000    0.000    0.000 
#
# Total GULP energy -78271.794592 kJ/mol
# GULP energy per Si atom -5590.842471 kJ/mol
# Density = 2.253857 g / cm^3
# Si number density = 22.589983 Si / 1000 Ang^3
#
#
#
# Elastic Constant Matrix: (Units=GPa)
#
#
# Indices 1 2 3 4 5 6 
#
# 1 81.0920 -2.7915 28.3247 0.0000 -18.4469 0.0000
# 2 -2.7915 59.8921 -9.3052 0.0000 -0.9337 0.0000
# 3 28.3247 -9.3052 98.2168 0.0000 -22.3735 0.0000
# 4 0.0000 0.0000 0.0000 45.2422 0.0000 3.9571
# 5 -18.4469 -0.9337 -22.3735 0.0000 38.6631 0.0000
# 6 0.0000 0.0000 0.0000 3.9571 0.0000 36.6861
#
#
#
# Elastic Compliance Matrix: (Units=1/GPa)
#
#
# Indices 1 2 3 4 5 6 
#
# 1 0.014575 0.000298 -0.002982 0.000000 0.005235 0.000000
# 2 0.000298 0.017032 0.001905 0.000000 0.001656 0.000000
# 3 -0.002982 0.001905 0.012565 0.000000 0.005894 0.000000
# 4 0.000000 0.000000 0.000000 0.022314 0.000000 -0.002407
# 5 0.005235 0.001656 0.005894 0.000000 0.031813 0.000000
# 6 0.000000 0.000000 0.000000 -0.002407 0.000000 0.027518
#
#
# Mechanical properties :
#
#
# Convention : Reuss Voigt Hill
#
# Bulk Modulus (GPa) = 23.46757 30.18409 26.82583
# Shear Modulus (GPa) = 35.31573 38.98315 37.14944
#
# Velocity S-wave (km/s) = 3.95819 4.15864 4.05965
# Velocity P-wave (km/s) = 5.59471 6.03737 5.82025
#
# Compressibility (1/GPa) = 0.04261200
#
# Stress axis : x y z
#
# Youngs Moduli (GPa) = 68.61275 58.71178 79.58758
#
# Poissons Ratio (x) = -0.01747 0.23736
# Poissons Ratio (y) = -0.02042 -0.15162
# Poissons Ratio (z) = 0.20463 -0.11185
#
# Static dielectric constant tensor:
#      x y z
#    x 1.869880 0.000000 -0.017160 
#    y 0.000000 1.848170 0.000000 
#    z -0.017160 0.000000 1.886960 
# 
# From -- ./inp_files/24327.got.cif
#   From: 2010.05.17/outbox.cif.g08.bks.cpg/sg9_13_cif.got.tgz:24327.got - 2010.06.03 20:04:27.
