data_PCOD9138675
_publ_section_title
;
Structure prediction by ZEFSAII (Michael W. Deem and Ramdas Pophale) SiO2 
 PCOD9138675
Probable space group: C C
;
_chemical_formula_sum "Si O2"
_cell_formula_units_Z 32
_cell_length_a 9.412740
_cell_length_b 12.259188
_cell_length_c 10.655910
_cell_angle_alpha 90.000000
_cell_angle_beta 92.246046
_cell_angle_gamma 90.000000
_cell_volume 1228.667961
_symmetry_space_group_name_H-M "C C"
_symmetry_group_IT_number 9
_symmetry_cell_setting 'monoclinic'
loop_
_space_group_symop_operation_xyz
x,y,z
x,-y,1/2+z
1/2+x,1/2+y,z
1/2+x,1/2-y,1/2+z
loop_
_atom_site_type_symbol
_atom_site_label
_atom_site_fract_x
_atom_site_fract_y
_atom_site_fract_z
Si Si1 0.344160 0.494838 0.721240
Si Si2 0.920805 0.224440 0.600250
Si Si3 0.317907 0.921605 0.948095
Si Si4 0.878382 0.659391 0.702518
Si Si5 0.693891 0.662142 0.936007
Si Si6 0.019603 0.433971 0.755324
Si Si7 0.626277 0.746182 0.369448
Si Si8 0.384872 0.397218 0.457466
O O1 0.394589 0.613154 0.673135
O O2 0.177994 0.468719 0.729169
O O3 0.389000 0.419645 0.605956
O O4 0.399076 0.495208 0.867318
O O5 0.770541 0.259311 0.535688
O O6 0.979665 0.321339 0.688952
O O7 0.027945 0.221017 0.486237
O O8 0.321527 0.834532 0.060828
O O9 0.247307 0.038626 0.969258
O O10 0.477231 0.933363 0.900777
O O11 0.219828 0.859935 0.842683
O O12 0.917901 0.531232 0.705917
O O13 0.019549 0.718910 0.755511
O O14 0.757682 0.684664 0.800118
O O15 0.526224 0.670028 0.933397
O O16 0.737222 0.843074 0.406618
#
# Coordination Sequence:
#
# PCOD9138675 Si02
#       8
#     4   4   4   4   4   4   4   4
#     4  12  28  48  81 113 163 205 268 334 409 481
#     4  11  24  51  78 111 154 210 269 325 405 494
#     4  11  24  46  78 109 155 208 262 332 405 477
#     4  10  23  45  75 107 154 205 263 329 399 481
#     4  10  25  46  75 108 151 201 265 329 402 480
#     4  11  23  44  78 108 152 209 261 327 397 477
#     4  11  24  47  75 113 154 204 272 322 402 489
#     4  12  27  49  72 117 159 204 266 340 403 489
#
# _framework density 26.044466
#
# number of rings (size 3 to 8) (size 9 to 14) (size 15 to 20)
#    0.000    1.000    3.750    1.500    5.250    1.000 
#    9.000    0.000    0.000    0.000    0.000    0.000 
#    0.000    0.000    0.000    0.000    0.000    0.000 
#
# Total GULP energy -89661.947248 kJ/mol
# GULP energy per Si atom -5603.871703 kJ/mol
# Density = 2.598519 g / cm^3
# Si number density = 26.044466 Si / 1000 Ang^3
#
#
#
# Elastic Constant Matrix: (Units=GPa)
#
#
# Indices 1 2 3 4 5 6 
#
# 1 160.0217 25.8663 50.4989 0.0000 -10.3607 0.0000
# 2 25.8663 82.9863 12.3856 0.0000 3.2333 0.0000
# 3 50.4989 12.3856 98.5848 0.0000 -2.1523 0.0000
# 4 0.0000 0.0000 0.0000 38.4770 0.0000 3.8011
# 5 -10.3607 3.2333 -2.1523 0.0000 31.5140 0.0000
# 6 0.0000 0.0000 0.0000 3.8011 0.0000 39.8007
#
#
#
# Elastic Compliance Matrix: (Units=1/GPa)
#
#
# Indices 1 2 3 4 5 6 
#
# 1 0.007923 -0.002009 -0.003750 0.000000 0.002555 0.000000
# 2 -0.002009 0.012849 -0.000629 0.000000 -0.002022 0.000000
# 3 -0.003750 -0.000629 0.012136 0.000000 -0.000340 0.000000
# 4 0.000000 0.000000 0.000000 0.026237 0.000000 -0.002506
# 5 0.002555 -0.002022 -0.000340 0.000000 0.032756 0.000000
# 6 0.000000 0.000000 0.000000 -0.002506 0.000000 0.025365
#
#
# Mechanical properties :
#
#
# Convention : Reuss Voigt Hill
#
# Bulk Modulus (GPa) = 49.67508 57.67715 53.67612
# Shear Modulus (GPa) = 36.56216 38.81448 37.68832
#
# Velocity S-wave (km/s) = 3.75084 3.86465 3.80817
# Velocity P-wave (km/s) = 6.15411 6.48905 6.32380
#
# Compressibility (1/GPa) = 0.02013082
#
# Stress axis : x y z
#
# Youngs Moduli (GPa) = 126.21788 77.82612 82.39846
#
# Poissons Ratio (x) = 0.15638 0.30901
# Poissons Ratio (y) = 0.25361 0.05184
# Poissons Ratio (z) = 0.47334 0.04897
#
# Static dielectric constant tensor:
#      x y z
#    x 1.978050 0.000000 -0.027160 
#    y 0.000000 2.074540 0.000000 
#    z -0.027160 0.000000 2.212320 
# 
# From -- ./inp_files/14601.got.cif
#   From: 2010.05.17/outbox.cif.g08.bks.cpg/sg9_8_cif.got.tgz:14601.got - 2010.06.03 20:04:27.
