data_PCOD9138990
_publ_section_title
;
Structure prediction by ZEFSAII (Michael W. Deem and Ramdas Pophale) SiO2 
 PCOD9138990
Probable space group: C C
;
_chemical_formula_sum "Si O2"
_cell_formula_units_Z 32
_cell_length_a 14.661383
_cell_length_b 8.759559
_cell_length_c 12.625332
_cell_angle_alpha 90.000000
_cell_angle_beta 114.544951
_cell_angle_gamma 90.000000
_cell_volume 1474.916585
_symmetry_space_group_name_H-M "C C"
_symmetry_group_IT_number 9
_symmetry_cell_setting 'monoclinic'
loop_
_space_group_symop_operation_xyz
x,y,z
x,-y,1/2+z
1/2+x,1/2+y,z
1/2+x,1/2-y,1/2+z
loop_
_atom_site_type_symbol
_atom_site_label
_atom_site_fract_x
_atom_site_fract_y
_atom_site_fract_z
Si Si1 0.225570 0.647628 0.842630
Si Si2 0.042823 0.571016 0.630140
Si Si3 0.859631 0.430668 0.183358
Si Si4 0.891080 0.967049 0.032020
Si Si5 0.663371 0.619386 0.471786
Si Si6 0.051284 0.167196 0.981642
Si Si7 0.381620 0.281624 0.235799
Si Si8 0.466477 0.807013 0.441751
O O1 0.125509 0.557693 0.761538
O O2 0.289435 0.558299 0.961305
O O3 0.295861 0.664173 0.774692
O O4 0.201818 0.814877 0.878699
O O5 0.087868 0.693572 0.570102
O O6 0.940236 0.626660 0.635662
O O7 0.010911 0.423623 0.549031
O O8 0.751861 0.362867 0.100721
O O9 0.856707 0.615269 0.177194
O O10 0.904294 0.386379 0.318534
O O11 0.894432 0.814677 0.962843
O O12 0.900365 0.909042 0.155876
O O13 0.983282 0.066082 0.029926
O O14 0.631109 0.443549 0.465765
O O15 0.563321 0.716704 0.445100
O O16 0.979704 0.231979 0.856095
#
# Coordination Sequence:
#
# PCOD9138990 Si02
#       8
#     4   4   4   4   4   4   4   4
#     4  11  26  41  71 102 140 186 232 291 352 419
#     4  12  24  45  69 102 141 179 231 288 351 415
#     4  12  24  45  71 100 144 183 231 294 348 423
#     4  10  24  43  69 102 135 186 229 287 345 419
#     4  11  26  46  69 105 134 192 232 289 356 417
#     4  10  24  45  70 101 139 181 232 289 348 420
#     4  11  23  45  69 103 140 184 231 290 354 416
#     4  11  25  46  68 105 141 181 238 286 360 413
#
# _framework density 21.696141999999998
#
# number of rings (size 3 to 8) (size 9 to 14) (size 15 to 20)
#    0.000    1.000    3.750    2.250    5.250    3.000 
#    2.250    0.000    0.000    0.000    0.000    0.000 
#    0.000    0.000    0.000    0.000    0.000    0.000 
#
# Total GULP energy -89449.726016 kJ/mol
# GULP energy per Si atom -5590.607876 kJ/mol
# Density = 2.164676 g / cm^3
# Si number density = 21.696142 Si / 1000 Ang^3
#
#
#
# Elastic Constant Matrix: (Units=GPa)
#
#
# Indices 1 2 3 4 5 6 
#
# 1 39.9946 -7.1994 11.5212 0.0000 11.5042 0.0000
# 2 -7.1994 62.3979 -1.1293 0.0000 -4.2493 0.0000
# 3 11.5212 -1.1293 57.7798 0.0000 6.0182 0.0000
# 4 0.0000 0.0000 0.0000 39.7654 0.0000 2.5515
# 5 11.5042 -4.2493 6.0182 0.0000 43.0845 0.0000
# 6 0.0000 0.0000 0.0000 2.5515 0.0000 13.9101
#
#
#
# Elastic Compliance Matrix: (Units=1/GPa)
#
#
# Indices 1 2 3 4 5 6 
#
# 1 0.028884 0.002783 -0.005003 0.000000 -0.006739 0.000000
# 2 0.002783 0.016404 -0.000330 0.000000 0.000921 0.000000
# 3 -0.005003 -0.000330 0.018431 0.000000 -0.001271 0.000000
# 4 0.000000 0.000000 0.000000 0.025447 0.000000 -0.004668
# 5 -0.006739 0.000921 -0.001271 0.000000 0.025278 0.000000
# 6 0.000000 0.000000 0.000000 -0.004668 0.000000 0.072746
#
#
# Mechanical properties :
#
#
# Convention : Reuss Voigt Hill
#
# Bulk Modulus (GPa) = 17.05951 18.50635 17.78293
# Shear Modulus (GPa) = 23.60385 29.81734 26.71059
#
# Velocity S-wave (km/s) = 3.30195 3.71120 3.51254
# Velocity P-wave (km/s) = 4.73468 5.18771 4.96636
#
# Compressibility (1/GPa) = 0.05861834
#
# Stress axis : x y z
#
# Youngs Moduli (GPa) = 34.62115 60.96065 54.25753
#
# Poissons Ratio (x) = -0.16966 0.27146
# Poissons Ratio (y) = -0.09636 0.01792
# Poissons Ratio (z) = 0.17321 0.02013
#
# Static dielectric constant tensor:
#      x y z
#    x 1.789600 0.000000 -0.004660 
#    y 0.000000 1.782360 0.000000 
#    z -0.004660 0.000000 1.770480 
# 
# From -- ./inp_files/17758.got.cif
#   From: 2010.05.17/outbox.cif.g08.bks.cpg/sg9_9_cif.got.tgz:17758.got - 2010.06.03 20:04:27.
