data_PCOD9138660
_publ_section_title
;
Structure prediction by ZEFSAII (Michael W. Deem and Ramdas Pophale) SiO2 
 PCOD9138660
Probable space group: C C
;
_chemical_formula_sum "Si O2"
_cell_formula_units_Z 32
_cell_length_a 13.312640
_cell_length_b 14.108195
_cell_length_c 9.151273
_cell_angle_alpha 90.000000
_cell_angle_beta 52.471351
_cell_angle_gamma 90.000000
_cell_volume 1363.066650
_symmetry_space_group_name_H-M "C C"
_symmetry_group_IT_number 9
_symmetry_cell_setting 'monoclinic'
loop_
_space_group_symop_operation_xyz
x,y,z
x,-y,1/2+z
1/2+x,1/2+y,z
1/2+x,1/2-y,1/2+z
loop_
_atom_site_type_symbol
_atom_site_label
_atom_site_fract_x
_atom_site_fract_y
_atom_site_fract_z
Si Si1 0.468140 0.022643 0.921300
Si Si2 0.454646 0.592043 0.401732
Si Si3 0.350341 0.437499 0.316782
Si Si4 0.501349 0.213878 0.714657
Si Si5 0.694343 0.494459 0.534304
Si Si6 0.574811 0.319795 0.174641
Si Si7 0.725526 0.695305 0.833877
Si Si8 0.565389 0.111621 0.117012
O O1 0.510971 0.114716 0.790569
O O2 0.545863 0.932256 0.795123
O O3 0.324835 0.001846 0.004721
O O4 0.484300 0.049356 0.075401
O O5 0.358281 0.543174 0.372640
O O6 0.405926 0.568878 0.605228
O O7 0.470585 0.702579 0.356923
O O8 0.586090 0.542554 0.240331
O O9 0.443219 0.371652 0.332307
O O10 0.209754 0.400705 0.443663
O O11 0.631832 0.241842 0.518733
O O12 0.375489 0.212840 0.722742
O O13 0.652380 0.598802 0.519265
O O14 0.703410 0.413284 0.405007
O O15 0.668007 0.294485 0.224442
O O16 0.536220 0.222247 0.134087
#
# Coordination Sequence:
#
# PCOD9138660 Si02
#       8
#     4   4   4   4   4   4   4   4
#     4  11  27  48  71 108 146 193 234 310 363 437
#     4  10  23  45  73 102 138 190 233 307 352 448
#     4  11  26  44  70 103 144 183 244 298 365 431
#     4  10  24  44  72 102 142 186 241 296 374 431
#     4   9  24  46  76 103 145 184 251 292 372 431
#     4  11  27  44  74 103 142 194 245 296 358 444
#     4  10  24  43  74 107 137 191 237 306 359 442
#     4  12  29  46  72 106 150 195 239 307 371 428
#
# _framework density 23.476475000000001
#
# number of rings (size 3 to 8) (size 9 to 14) (size 15 to 20)
#    0.000    1.500    0.000    1.500   22.750    0.000 
#    4.500    0.000    0.000    0.000    0.000    0.000 
#    0.000    0.000    0.000    0.000    0.000    0.000 
#
# Total GULP energy -89551.476398 kJ/mol
# GULP energy per Si atom -5596.967275 kJ/mol
# Density = 2.342304 g / cm^3
# Si number density = 23.476475 Si / 1000 Ang^3
#
#
#
# Elastic Constant Matrix: (Units=GPa)
#
#
# Indices 1 2 3 4 5 6 
#
# 1 63.4841 9.0594 6.9400 0.0000 -1.7334 0.0000
# 2 9.0594 140.6662 21.4351 0.0000 -2.6799 0.0000
# 3 6.9400 21.4351 39.9378 0.0000 0.4251 0.0000
# 4 0.0000 0.0000 0.0000 25.7885 0.0000 1.4363
# 5 -1.7334 -2.6799 0.4251 0.0000 34.2207 0.0000
# 6 0.0000 0.0000 0.0000 1.4363 0.0000 30.2692
#
#
#
# Elastic Compliance Matrix: (Units=1/GPa)
#
#
# Indices 1 2 3 4 5 6 
#
# 1 0.016136 -0.000648 -0.002464 0.000000 0.000797 0.000000
# 2 -0.000648 0.007783 -0.004071 0.000000 0.000627 0.000000
# 3 -0.002464 -0.004071 0.027661 0.000000 -0.000787 0.000000
# 4 0.000000 0.000000 0.000000 0.038880 0.000000 -0.001845
# 5 0.000797 0.000627 -0.000787 0.000000 0.029321 0.000000
# 6 0.000000 0.000000 0.000000 -0.001845 0.000000 0.033124
#
#
# Mechanical properties :
#
#
# Convention : Reuss Voigt Hill
#
# Bulk Modulus (GPa) = 26.87358 35.43968 31.15663
# Shear Modulus (GPa) = 27.82771 31.83257 29.83014
#
# Velocity S-wave (km/s) = 3.44662 3.68630 3.56847
# Velocity P-wave (km/s) = 5.22597 5.76602 5.50262
#
# Compressibility (1/GPa) = 0.03721127
#
# Stress axis : x y z
#
# Youngs Moduli (GPa) = 61.97450 128.48279 36.15240
#
# Poissons Ratio (x) = 0.08332 0.08909
# Poissons Ratio (y) = 0.04019 0.14719
# Poissons Ratio (z) = 0.15272 0.52309
#
# Static dielectric constant tensor:
#      x y z
#    x 1.890020 0.000000 0.031800 
#    y 0.000000 1.883740 0.000000 
#    z 0.031800 0.000000 1.873830 
# 
# From -- ./inp_files/9680.got.cif
#   From: 2010.05.17/outbox.cif.g08.bks.cpg/sg9_5_cif.got.tgz:9680.got - 2010.06.03 20:04:27.
