data_PCOD9138372
_publ_section_title
;
Structure prediction by ZEFSAII (Michael W. Deem and Ramdas Pophale) SiO2 
 PCOD9138372
Probable space group: C C
;
_chemical_formula_sum "Si O2"
_cell_formula_units_Z 32
_cell_length_a 16.602741
_cell_length_b 10.846904
_cell_length_c 9.158050
_cell_angle_alpha 90.000000
_cell_angle_beta 65.191500
_cell_angle_gamma 90.000000
_cell_volume 1497.056625
_symmetry_space_group_name_H-M "C C"
_symmetry_group_IT_number 9
_symmetry_cell_setting 'monoclinic'
loop_
_space_group_symop_operation_xyz
x,y,z
x,-y,1/2+z
1/2+x,1/2+y,z
1/2+x,1/2-y,1/2+z
loop_
_atom_site_type_symbol
_atom_site_label
_atom_site_fract_x
_atom_site_fract_y
_atom_site_fract_z
Si Si1 0.290310 0.880841 0.369050
Si Si2 0.807848 0.634219 0.189054
Si Si3 0.574313 0.371747 0.075932
Si Si4 0.418136 0.661609 0.514400
Si Si5 0.772642 0.026706 0.160453
Si Si6 0.195539 0.654905 0.935676
Si Si7 0.432762 0.677698 0.190090
Si Si8 0.109083 0.119000 0.889098
O O1 0.267662 0.890636 0.558613
O O2 0.377839 0.801120 0.269083
O O3 0.202955 0.820890 0.360920
O O4 0.310370 0.012134 0.281243
O O5 0.899839 0.697806 0.071186
O O6 0.761549 0.740721 0.320422
O O7 0.471909 0.388840 0.110997
O O8 0.597277 0.386631 0.226015
O O9 0.605711 0.234365 0.008592
O O10 0.618004 0.481268 0.949381
O O11 0.325493 0.591823 0.554698
O O12 0.468057 0.639121 0.324502
O O13 0.703507 0.964049 0.324811
O O14 0.853927 0.097286 0.177453
O O15 0.727984 0.107981 0.068971
O O16 0.519897 0.679561 0.023240
#
# Coordination Sequence:
#
# PCOD9138372 Si02
#       8
#     4   4   4   4   4   4   4   4
#     4  11  24  45  65 104 140 181 231 288 356 420
#     4  10  24  41  69  97 138 185 228 283 352 423
#     4  12  25  42  67 106 139 181 233 300 345 414
#     4  10  23  43  65 100 135 180 235 287 344 415
#     4  11  22  43  68 100 133 185 237 280 353 418
#     4  11  25  43  69 101 141 183 234 293 346 423
#     4  11  24  41  71  99 139 184 231 292 348 423
#     4  12  25  40  68 105 139 181 237 287 350 422
#
# _framework density 21.375278000000002
#
# number of rings (size 3 to 8) (size 9 to 14) (size 15 to 20)
#    0.000    1.000    3.750    2.250    7.000    0.000 
#    0.000    5.000    0.000    0.000    0.000    0.000 
#    0.000    0.000    0.000    0.000    0.000    0.000 
#
# Total GULP energy -89223.174373 kJ/mol
# GULP energy per Si atom -5576.448398 kJ/mol
# Density = 2.132663 g / cm^3
# Si number density = 21.375278 Si / 1000 Ang^3
#
#
#
# Elastic Constant Matrix: (Units=GPa)
#
#
# Indices 1 2 3 4 5 6 
#
# 1 82.6584 26.7184 31.8527 0.0000 12.8621 0.0000
# 2 26.7184 89.7621 45.2194 0.0000 2.6830 0.0000
# 3 31.8527 45.2194 97.5121 0.0000 27.3222 0.0000
# 4 0.0000 0.0000 0.0000 45.2146 0.0000 -0.6474
# 5 12.8621 2.6830 27.3222 0.0000 37.4404 0.0000
# 6 0.0000 0.0000 0.0000 -0.6474 0.0000 35.0238
#
#
#
# Elastic Compliance Matrix: (Units=1/GPa)
#
#
# Indices 1 2 3 4 5 6 
#
# 1 0.014484 -0.002936 -0.002557 0.000000 -0.002899 0.000000
# 2 -0.002936 0.015876 -0.008003 0.000000 0.005711 0.000000
# 3 -0.002557 -0.008003 0.018095 0.000000 -0.011753 0.000000
# 4 0.000000 0.000000 0.000000 0.022123 0.000000 0.000409
# 5 -0.002899 0.005711 -0.011753 0.000000 0.035872 0.000000
# 6 0.000000 0.000000 0.000000 0.000409 0.000000 0.028560
#
#
# Mechanical properties :
#
#
# Convention : Reuss Voigt Hill
#
# Bulk Modulus (GPa) = 46.59657 53.05705 49.82681
# Shear Modulus (GPa) = 29.55864 34.61191 32.08528
#
# Velocity S-wave (km/s) = 3.72269 4.02836 3.87854
# Velocity P-wave (km/s) = 6.35016 6.82000 6.58927
#
# Compressibility (1/GPa) = 0.02146081
#
# Stress axis : x y z
#
# Youngs Moduli (GPa) = 69.04340 62.98977 55.26461
#
# Poissons Ratio (x) = 0.18496 0.14132
# Poissons Ratio (y) = 0.20273 0.44229
# Poissons Ratio (z) = 0.17656 0.50412
#
# Static dielectric constant tensor:
#      x y z
#    x 1.796010 0.000000 -0.021920 
#    y 0.000000 1.843690 0.000000 
#    z -0.021920 0.000000 1.812260 
# 
# From -- ./inp_files/10727.got.cif
#   From: 2010.05.17/outbox.cif.g08.bks.cpg/sg9_6_cif.got.tgz:10727.got - 2010.06.03 20:04:27.
