data_PCOD9138338
_publ_section_title
;
Structure prediction by ZEFSAII (Michael W. Deem and Ramdas Pophale) SiO2 
 PCOD9138338
Probable space group: C C
;
_chemical_formula_sum "Si O2"
_cell_formula_units_Z 28
_cell_length_a 5.198045
_cell_length_b 14.304229
_cell_length_c 14.754636
_cell_angle_alpha 90.000000
_cell_angle_beta 105.162949
_cell_angle_gamma 90.000000
_cell_volume 1058.873138
_symmetry_space_group_name_H-M "C C"
_symmetry_group_IT_number 9
_symmetry_cell_setting 'monoclinic'
loop_
_space_group_symop_operation_xyz
x,y,z
x,-y,1/2+z
1/2+x,1/2+y,z
1/2+x,1/2-y,1/2+z
loop_
_atom_site_type_symbol
_atom_site_label
_atom_site_fract_x
_atom_site_fract_y
_atom_site_fract_z
Si Si1 0.445670 0.892889 0.376930
Si Si2 0.811850 0.263249 0.857329
Si Si3 0.970008 0.846337 0.666363
Si Si4 0.665177 0.072828 0.351660
Si Si5 0.646530 0.385115 0.001028
Si Si6 0.885517 0.285074 0.554105
Si Si7 0.793420 0.527183 0.691680
O O1 0.720369 0.842633 0.368302
O O2 0.657373 0.695270 0.104633
O O3 0.338968 0.838497 0.454091
O O4 0.264288 0.896545 0.269532
O O5 0.578275 0.301912 0.769633
O O6 0.067385 0.319683 0.842181
O O7 0.796380 0.309568 0.954815
O O8 0.558269 0.971859 0.748853
O O9 0.667338 0.823126 0.617199
O O10 0.051472 0.954783 0.674231
O O11 0.964338 0.060847 0.411862
O O12 0.504956 0.001752 0.404062
O O13 0.432767 0.324039 0.039284
O O14 0.812963 0.436966 0.092057
#
# Coordination Sequence:
#
# PCOD9138338 Si02
#       7
#     4   4   4   4   4   4   4
#     4   9  21  46  67 104 145 197 250 313 386 449
#     4  10  23  42  70  99 152 190 256 309 381 458
#     4  11  25  45  71 108 144 194 251 314 377 462
#     4   9  22  43  67 106 139 197 253 319 378 467
#     4  11  23  44  73  99 150 195 252 308 389 459
#     4  11  26  44  75 106 149 196 250 312 385 458
#     4   9  22  44  69 106 143 201 248 317 384 463
#
# _framework density 26.443207000000001
#
# number of rings (size 3 to 8) (size 9 to 14) (size 15 to 20)
#    0.857    1.143    0.000    1.714   10.000    0.000 
#    0.000    4.286    0.000    0.000    0.000    0.000 
#    0.000    0.000    0.000    0.000    0.000    0.000 
#
# Total GULP energy -78261.958563 kJ/mol
# GULP energy per Si atom -5590.139897 kJ/mol
# Density = 2.638302 g / cm^3
# Si number density = 26.443207 Si / 1000 Ang^3
#
#
#
# Elastic Constant Matrix: (Units=GPa)
#
#
# Indices 1 2 3 4 5 6 
#
# 1 100.0844 20.6773 66.3062 0.0000 -5.4784 0.0000
# 2 20.6773 90.6407 31.7030 0.0000 4.5665 0.0000
# 3 66.3062 31.7030 197.0463 0.0000 22.0367 0.0000
# 4 0.0000 0.0000 0.0000 57.0190 0.0000 2.9790
# 5 -5.4784 4.5665 22.0367 0.0000 44.2887 0.0000
# 6 0.0000 0.0000 0.0000 2.9790 0.0000 21.6880
#
#
#
# Elastic Compliance Matrix: (Units=1/GPa)
#
#
# Indices 1 2 3 4 5 6 
#
# 1 0.013783 -0.001664 -0.004850 0.000000 0.004290 0.000000
# 2 -0.001664 0.011895 -0.001264 0.000000 -0.000803 0.000000
# 3 -0.004850 -0.001264 0.007373 0.000000 -0.004138 0.000000
# 4 0.000000 0.000000 0.000000 0.017665 0.000000 -0.002426
# 5 0.004290 -0.000803 -0.004138 0.000000 0.025252 0.000000
# 6 0.000000 0.000000 0.000000 -0.002426 0.000000 0.046442
#
#
# Mechanical properties :
#
#
# Convention : Reuss Voigt Hill
#
# Bulk Modulus (GPa) = 57.15902 69.46049 63.30975
# Shear Modulus (GPa) = 34.77115 42.53816 38.65465
#
# Velocity S-wave (km/s) = 3.63014 4.01516 3.82750
# Velocity P-wave (km/s) = 6.26364 6.91522 6.59748
#
# Compressibility (1/GPa) = 0.01749505
#
# Stress axis : x y z
#
# Youngs Moduli (GPa) = 72.55097 84.07081 135.62640
#
# Poissons Ratio (x) = 0.13990 0.65781
# Poissons Ratio (y) = 0.12073 0.17143
# Poissons Ratio (z) = 0.35188 0.10626
#
# Static dielectric constant tensor:
#      x y z
#    x 2.144930 0.000000 -0.022620 
#    y 0.000000 2.106330 0.000000 
#    z -0.022620 0.000000 2.061690 
# 
# From -- ./inp_files/21984.got.cif
#   From: 2010.05.17/outbox.cif.g08.bks.cpg/sg9_11_cif.got.tgz:21984.got - 2010.06.03 20:04:27.
