data_PCOD9138302
_publ_section_title
;
Structure prediction by ZEFSAII (Michael W. Deem and Ramdas Pophale) SiO2 
 PCOD9138302
Probable space group: C C
;
_chemical_formula_sum "Si O2"
_cell_formula_units_Z 32
_cell_length_a 11.195281
_cell_length_b 7.884984
_cell_length_c 18.673303
_cell_angle_alpha 90.000000
_cell_angle_beta 63.830902
_cell_angle_gamma 90.000000
_cell_volume 1479.413768
_symmetry_space_group_name_H-M "C C"
_symmetry_group_IT_number 9
_symmetry_cell_setting 'monoclinic'
loop_
_space_group_symop_operation_xyz
x,y,z
x,-y,1/2+z
1/2+x,1/2+y,z
1/2+x,1/2-y,1/2+z
loop_
_atom_site_type_symbol
_atom_site_label
_atom_site_fract_x
_atom_site_fract_y
_atom_site_fract_z
Si Si1 0.766780 0.870863 0.144800
Si Si2 0.503671 0.450269 0.666296
Si Si3 0.455568 0.681132 0.461271
Si Si4 0.129518 0.103348 0.886529
Si Si5 0.036051 0.594298 0.608812
Si Si6 0.224061 0.996321 0.204458
Si Si7 0.842519 0.860724 0.845035
Si Si8 0.070651 0.535686 0.435288
O O1 0.634446 0.961878 0.147657
O O2 0.727547 0.700388 0.196892
O O3 0.876449 0.966896 0.162756
O O4 0.850205 0.821323 0.052059
O O5 0.554164 0.297919 0.603456
O O6 0.628933 0.558326 0.662696
O O7 0.444423 0.365907 0.754131
O O8 0.582613 0.561169 0.442468
O O9 0.402087 0.590041 0.404678
O O10 0.488294 0.874129 0.434078
O O11 0.270817 0.179898 0.874380
O O12 0.034813 0.269705 0.923872
O O13 0.157514 0.064535 0.795642
O O14 0.878466 0.560107 0.660260
O O15 0.076660 0.526204 0.520265
O O16 0.717355 0.981740 0.862603
#
# Coordination Sequence:
#
# PCOD9138302 Si02
#       8
#     4   4   4   4   4   4   4   4
#     4  11  25  40  71  99 131 186 227 284 353 405
#     4  11  24  42  70  97 138 178 227 287 343 409
#     4  12  22  46  69  95 140 180 232 289 345 408
#     4  10  23  44  64  99 135 179 228 283 341 411
#     4  11  21  45  65  95 142 172 222 291 338 406
#     4  11  23  43  65  99 139 173 229 286 340 412
#     4  10  23  44  63  97 138 176 228 289 337 406
#     4  10  23  42  67  99 135 178 229 281 345 407
#
# _framework density 21.630191
#
# number of rings (size 3 to 8) (size 9 to 14) (size 15 to 20)
#    0.750    0.500    5.000    0.750    1.750    1.000 
#    4.500    0.000    0.000    0.000    0.000    0.000 
#    0.000    0.000    0.000    0.000    0.000    0.000 
#
# Total GULP energy -89125.159551 kJ/mol
# GULP energy per Si atom -5570.322472 kJ/mol
# Density = 2.158096 g / cm^3
# Si number density = 21.630191 Si / 1000 Ang^3
#
#
#
# Elastic Constant Matrix: (Units=GPa)
#
#
# Indices 1 2 3 4 5 6 
#
# 1 143.5109 28.4667 16.0603 0.0000 -10.2176 0.0000
# 2 28.4667 62.5875 14.0982 0.0000 -6.7130 0.0000
# 3 16.0603 14.0982 43.8147 0.0000 -22.2105 0.0000
# 4 0.0000 0.0000 0.0000 26.0290 0.0000 -9.6708
# 5 -10.2176 -6.7130 -22.2105 0.0000 20.1610 0.0000
# 6 0.0000 0.0000 0.0000 -9.6708 0.0000 31.6540
#
#
#
# Elastic Compliance Matrix: (Units=1/GPa)
#
#
# Indices 1 2 3 4 5 6 
#
# 1 0.007831 -0.003158 -0.000850 0.000000 0.001980 0.000000
# 2 -0.003158 0.018506 -0.005627 0.000000 -0.001638 0.000000
# 3 -0.000850 -0.005627 0.053850 0.000000 0.057020 0.000000
# 4 0.000000 0.000000 0.000000 0.043338 0.000000 0.013241
# 5 0.001980 -0.001638 0.057020 0.000000 0.112875 0.000000
# 6 0.000000 0.000000 0.000000 0.013241 0.000000 0.035637
#
#
# Mechanical properties :
#
#
# Convention : Reuss Voigt Hill
#
# Bulk Modulus (GPa) = 16.41613 40.79593 28.60603
# Shear Modulus (GPa) = 16.04553 28.32133 22.18343
#
# Velocity S-wave (km/s) = 2.72658 3.62241 3.20594
# Velocity P-wave (km/s) = 4.18548 6.03302 5.19209
#
# Compressibility (1/GPa) = 0.06091569
#
# Stress axis : x y z
#
# Youngs Moduli (GPa) = 127.70382 54.03724 18.56999
#
# Poissons Ratio (x) = 0.17063 0.01579
# Poissons Ratio (y) = 0.40324 0.10450
# Poissons Ratio (z) = 0.10861 0.30409
#
# Static dielectric constant tensor:
#      x y z
#    x 1.875350 0.000000 -0.006640 
#    y 0.000000 1.826480 0.000000 
#    z -0.006640 0.000000 1.737780 
# 
# From -- ./inp_files/33138.got.cif
#   From: 2010.05.17/outbox.cif.g08.bks.cpg/sg9_17_cif.got.tgz:33138.got - 2010.06.03 20:04:27.
