data_PCOD9138086
_publ_section_title
;
Structure prediction by ZEFSAII (Michael W. Deem and Ramdas Pophale) SiO2 
 PCOD9138086
Probable space group: C C
;
_chemical_formula_sum "Si O2"
_cell_formula_units_Z 28
_cell_length_a 25.096069
_cell_length_b 7.399525
_cell_length_c 17.015800
_cell_angle_alpha 90.000000
_cell_angle_beta 158.250341
_cell_angle_gamma 90.000000
_cell_volume 1170.876177
_symmetry_space_group_name_H-M "C C"
_symmetry_group_IT_number 9
_symmetry_cell_setting 'monoclinic'
loop_
_space_group_symop_operation_xyz
x,y,z
x,-y,1/2+z
1/2+x,1/2+y,z
1/2+x,1/2-y,1/2+z
loop_
_atom_site_type_symbol
_atom_site_label
_atom_site_fract_x
_atom_site_fract_y
_atom_site_fract_z
Si Si1 0.478560 0.414452 0.420670
Si Si2 0.214531 0.452959 0.808134
Si Si3 0.175936 0.494569 0.940763
Si Si4 0.405829 0.044927 0.385586
Si Si5 0.595168 0.620930 0.911773
Si Si6 0.925573 0.774628 0.618838
Si Si7 0.776397 0.447177 0.376407
O O1 0.449483 0.254094 0.441001
O O2 0.542021 0.329385 0.426777
O O3 0.606830 0.532111 0.630129
O O4 0.328677 0.510922 0.194527
O O5 0.198515 0.486452 0.878915
O O6 0.295447 0.263874 0.914454
O O7 0.049705 0.446501 0.552072
O O8 0.307677 0.619942 0.902296
O O9 0.107986 0.304526 0.878478
O O10 0.071934 0.663484 0.808047
O O11 0.363447 0.992397 0.415991
O O12 0.256660 0.037735 0.134205
O O13 0.490454 0.455482 0.747194
O O14 0.826956 0.599048 0.508251
#
# Coordination Sequence:
#
# PCOD9138086 Si02
#       7
#     4   4   4   4   4   4   4
#     4  10  22  48  69 100 142 181 226 287 346 408
#     4  12  25  45  70 103 140 182 232 288 350 406
#     4  11  25  45  71  99 141 184 229 286 354 402
#     4  10  23  47  67 100 140 182 225 286 349 401
#     4  10  24  46  70 102 141 176 236 285 338 427
#     4  12  24  44  69 104 134 181 231 294 328 429
#     4  11  25  45  70 104 140 178 239 284 339 425
#
# _framework density 23.913715
#
# number of rings (size 3 to 8) (size 9 to 14) (size 15 to 20)
#    0.000    1.143    4.286    0.857    2.000    2.286 
#    7.714    0.000    0.000    0.000    0.000    0.000 
#    0.000    0.000    0.000    0.000    0.000    0.000 
#
# Total GULP energy -78033.785725 kJ/mol
# GULP energy per Si atom -5573.841837 kJ/mol
# Density = 2.385929 g / cm^3
# Si number density = 23.913715 Si / 1000 Ang^3
#
#
#
# Elastic Constant Matrix: (Units=GPa)
#
#
# Indices 1 2 3 4 5 6 
#
# 1 51.4787 55.4609 26.5849 0.0000 10.3848 0.0000
# 2 55.4609 173.4642 66.2226 0.0000 15.8835 0.0000
# 3 26.5849 66.2226 162.9630 0.0000 43.0318 0.0000
# 4 0.0000 0.0000 0.0000 49.3673 0.0000 11.2188
# 5 10.3848 15.8835 43.0318 0.0000 21.5118 0.0000
# 6 0.0000 0.0000 0.0000 11.2188 0.0000 16.9591
#
#
#
# Elastic Compliance Matrix: (Units=1/GPa)
#
#
# Indices 1 2 3 4 5 6 
#
# 1 0.031184 -0.009632 0.001959 0.000000 -0.011860 0.000000
# 2 -0.009632 0.009810 -0.003668 0.000000 0.004743 0.000000
# 3 0.001959 -0.003668 0.014502 0.000000 -0.027247 0.000000
# 4 0.000000 0.000000 0.000000 0.023840 0.000000 -0.015771
# 5 -0.011860 0.004743 -0.027247 0.000000 0.103215 0.000000
# 6 0.000000 0.000000 0.000000 -0.015771 0.000000 0.069398
#
#
# Mechanical properties :
#
#
# Convention : Reuss Voigt Hill
#
# Bulk Modulus (GPa) = 30.47456 76.04920 53.26188
# Shear Modulus (GPa) = 17.50888 33.54347 25.52617
#
# Velocity S-wave (km/s) = 2.70880 3.74931 3.27070
# Velocity P-wave (km/s) = 4.74917 7.11433 6.04848
#
# Compressibility (1/GPa) = 0.03281426
#
# Stress axis : x y z
#
# Youngs Moduli (GPa) = 32.06815 101.93280 68.95510
#
# Poissons Ratio (x) = 0.98182 -0.13507
# Poissons Ratio (y) = 0.30888 0.25291
# Poissons Ratio (z) = -0.06282 0.37387
#
# Static dielectric constant tensor:
#      x y z
#    x 1.909250 0.000000 -0.007270 
#    y 0.000000 1.893900 0.000000 
#    z -0.007270 0.000000 2.013620 
# 
# From -- ./inp_files/18834.got.cif
#   From: 2010.05.17/outbox.cif.g08.bks.cpg/sg9_10_cif.got.tgz:18834.got - 2010.06.03 20:04:27.
