data_PCOD9138756
_publ_section_title
;
Structure prediction by ZEFSAII (Michael W. Deem and Ramdas Pophale) SiO2 
 PCOD9138756
Probable space group: C C
;
_chemical_formula_sum "Si O2"
_cell_formula_units_Z 32
_cell_length_a 5.330127
_cell_length_b 26.760907
_cell_length_c 9.012902
_cell_angle_alpha 90.000000
_cell_angle_beta 95.769544
_cell_angle_gamma 90.000000
_cell_volume 1279.079185
_symmetry_space_group_name_H-M "C C"
_symmetry_group_IT_number 9
_symmetry_cell_setting 'monoclinic'
loop_
_space_group_symop_operation_xyz
x,y,z
x,-y,1/2+z
1/2+x,1/2+y,z
1/2+x,1/2-y,1/2+z
loop_
_atom_site_type_symbol
_atom_site_label
_atom_site_fract_x
_atom_site_fract_y
_atom_site_fract_z
Si Si1 0.450400 0.538342 0.905080
Si Si2 0.201792 0.061546 0.338224
Si Si3 0.851663 0.142742 0.152191
Si Si4 0.068184 0.141156 0.843669
Si Si5 0.981848 0.217508 0.383452
Si Si6 0.995372 0.440737 0.582223
Si Si7 0.855005 0.360120 0.079398
Si Si8 0.269151 0.281591 0.156737
O O1 0.517998 0.485423 0.842032
O O2 0.406250 0.589238 0.808859
O O3 0.221940 0.533127 0.007695
O O4 0.724429 0.552665 0.991156
O O5 0.433597 0.045112 0.247324
O O6 0.315346 0.087465 0.491747
O O7 0.029984 0.103297 0.248476
O O8 0.798429 0.186422 0.264748
O O9 0.591901 0.116195 0.093428
O O10 0.007266 0.153147 0.011739
O O11 0.988448 0.192254 0.759992
O O12 0.309046 0.130822 0.752505
O O13 0.857927 0.246403 0.513681
O O14 0.163703 0.177945 0.480257
O O15 0.122125 0.250766 0.270902
O O16 0.112174 0.329224 0.085471
#
# Coordination Sequence:
#
# PCOD9138756 Si02
#       8
#     4   4   4   4   4   4   4   4
#     4  11  27  44  73 112 147 201 250 307 378 452
#     4  11  24  48  72 108 150 197 254 315 375 455
#     4  10  23  46  73 106 147 196 249 313 377 450
#     4  10  24  44  68 107 146 189 248 305 373 448
#     4  10  25  46  71 106 144 194 249 307 385 453
#     4  11  23  47  70 109 144 191 256 300 380 439
#     4  10  25  45  71 106 148 191 248 317 377 445
#     4  11  25  46  72 108 146 195 248 316 379 454
#
# _framework density 25.017996
#
# number of rings (size 3 to 8) (size 9 to 14) (size 15 to 20)
#    0.000    1.500    2.500    0.750   10.500    1.000 
#    9.000    0.000    0.000    0.000    0.000    0.000 
#    0.000    0.000    0.000    0.000    0.000    0.000 
#
# Total GULP energy -89257.256377 kJ/mol
# GULP energy per Si atom -5578.578524 kJ/mol
# Density = 2.496105 g / cm^3
# Si number density = 25.017996 Si / 1000 Ang^3
#
#
#
# Elastic Constant Matrix: (Units=GPa)
#
#
# Indices 1 2 3 4 5 6 
#
# 1 103.6255 8.3390 46.7341 0.0000 -30.8195 0.0000
# 2 8.3390 71.7889 52.5166 0.0000 -26.8160 0.0000
# 3 46.7341 52.5166 161.3634 0.0000 -39.5384 0.0000
# 4 0.0000 0.0000 0.0000 34.3907 0.0000 2.3338
# 5 -30.8195 -26.8160 -39.5384 0.0000 52.4481 0.0000
# 6 0.0000 0.0000 0.0000 2.3338 0.0000 29.7788
#
#
#
# Elastic Compliance Matrix: (Units=1/GPa)
#
#
# Indices 1 2 3 4 5 6 
#
# 1 0.012845 0.003378 -0.003124 0.000000 0.006920 0.000000
# 2 0.003378 0.020830 -0.005718 0.000000 0.008325 0.000000
# 3 -0.003124 -0.005718 0.009563 0.000000 0.002450 0.000000
# 4 0.000000 0.000000 0.000000 0.029233 0.000000 -0.002291
# 5 0.006920 0.008325 0.002450 0.000000 0.029236 0.000000
# 6 0.000000 0.000000 0.000000 -0.002291 0.000000 0.033760
#
#
# Mechanical properties :
#
#
# Convention : Reuss Voigt Hill
#
# Bulk Modulus (GPa) = 30.94899 61.32858 46.13879
# Shear Modulus (GPa) = 31.81352 38.60273 35.20813
#
# Velocity S-wave (km/s) = 3.56985 3.93236 3.75549
# Velocity P-wave (km/s) = 5.42120 6.72198 6.10632
#
# Compressibility (1/GPa) = 0.03231123
#
# Stress axis : x y z
#
# Youngs Moduli (GPa) = 77.84869 48.00830 104.56729
#
# Poissons Ratio (x) = -0.16219 0.32668
# Poissons Ratio (y) = -0.26300 0.59790
# Poissons Ratio (z) = 0.24321 0.27450
#
# Static dielectric constant tensor:
#      x y z
#    x 2.058830 0.000000 0.014270 
#    y 0.000000 2.136800 0.000000 
#    z 0.014270 0.000000 2.041700 
# 
# From -- ./inp_files/4503.got.cif
#   From: 2010.05.17/outbox.cif.g08.bks.cpg/sg9_3_cif.got.tgz:4503.got - 2010.06.03 20:04:27.
