data_PCOD9138103
_publ_section_title
;
Structure prediction by ZEFSAII (Michael W. Deem and Ramdas Pophale) SiO2 
 PCOD9138103
Probable space group: C C
;
_chemical_formula_sum "Si O2"
_cell_formula_units_Z 28
_cell_length_a 7.689586
_cell_length_b 12.295722
_cell_length_c 14.001372
_cell_angle_alpha 90.000000
_cell_angle_beta 69.884473
_cell_angle_gamma 90.000000
_cell_volume 1243.064555
_symmetry_space_group_name_H-M "C C"
_symmetry_group_IT_number 9
_symmetry_cell_setting 'monoclinic'
loop_
_space_group_symop_operation_xyz
x,y,z
x,-y,1/2+z
1/2+x,1/2+y,z
1/2+x,1/2-y,1/2+z
loop_
_atom_site_type_symbol
_atom_site_label
_atom_site_fract_x
_atom_site_fract_y
_atom_site_fract_z
Si Si1 0.960640 0.371050 0.736680
Si Si2 0.706060 0.803622 0.531915
Si Si3 0.872385 0.772645 0.964090
Si Si4 0.040078 0.097947 0.255774
Si Si5 0.476726 0.909252 0.314138
Si Si6 0.974972 0.287640 0.125340
Si Si7 0.883511 0.866094 0.308961
O O1 0.757038 0.382712 0.730920
O O2 0.980619 0.248322 0.770127
O O3 0.111263 0.384401 0.625437
O O4 0.976528 0.461114 0.815676
O O5 0.538655 0.743091 0.508302
O O6 0.828367 0.865670 0.430673
O O7 0.833760 0.719964 0.565117
O O8 0.936376 0.853936 0.868630
O O9 0.854505 0.654904 0.914334
O O10 0.682034 0.806617 0.048259
O O11 0.976587 0.170450 0.178521
O O12 0.993749 0.971725 0.257088
O O13 0.423156 0.872367 0.217835
O O14 0.685597 0.867975 0.292473
#
# Coordination Sequence:
#
# PCOD9138103 Si02
#       7
#     4   4   4   4   4   4   4
#     4  12  24  47  70 103 143 182 239 284 354 418
#     4  11  24  43  71 105 139 184 240 285 348 420
#     4  10  22  49  68 102 148 179 238 295 345 423
#     4  11  24  46  74  98 148 189 224 300 354 408
#     4  10  24  45  69 101 143 184 232 294 348 419
#     4  11  23  45  72 108 137 189 235 289 357 418
#     4  11  25  49  68 103 142 185 234 293 348 420
#
# _framework density 22.524975000000001
#
# number of rings (size 3 to 8) (size 9 to 14) (size 15 to 20)
#    0.000    1.143    5.714    0.857    6.000    2.286 
#    7.714    0.000    0.000    0.000    0.000    0.000 
#    0.000    0.000    0.000    0.000    0.000    0.000 
#
# Total GULP energy -78364.847869 kJ/mol
# GULP energy per Si atom -5597.489134 kJ/mol
# Density = 2.247371 g / cm^3
# Si number density = 22.524975 Si / 1000 Ang^3
#
#
#
# Elastic Constant Matrix: (Units=GPa)
#
#
# Indices 1 2 3 4 5 6 
#
# 1 76.7046 -1.6190 23.4675 0.0000 7.3749 0.0000
# 2 -1.6190 112.6097 -2.6683 0.0000 1.7102 0.0000
# 3 23.4675 -2.6683 62.8801 0.0000 2.0776 0.0000
# 4 0.0000 0.0000 0.0000 15.1815 0.0000 1.4683
# 5 7.3749 1.7102 2.0776 0.0000 24.4685 0.0000
# 6 0.0000 0.0000 0.0000 1.4683 0.0000 22.5718
#
#
#
# Elastic Compliance Matrix: (Units=1/GPa)
#
#
# Indices 1 2 3 4 5 6 
#
# 1 0.015117 0.000149 -0.005500 0.000000 -0.004100 0.000000
# 2 0.000149 0.008901 0.000345 0.000000 -0.000696 0.000000
# 3 -0.005500 0.000345 0.017967 0.000000 0.000108 0.000000
# 4 0.000000 0.000000 0.000000 0.066287 0.000000 -0.004312
# 5 -0.004100 -0.000696 0.000108 0.000000 0.042144 0.000000
# 6 0.000000 0.000000 0.000000 -0.004312 0.000000 0.044583
#
#
# Mechanical properties :
#
#
# Convention : Reuss Voigt Hill
#
# Bulk Modulus (GPa) = 31.27569 32.28386 31.77978
# Shear Modulus (GPa) = 23.18369 27.97865 25.58117
#
# Velocity S-wave (km/s) = 3.21166 3.52819 3.37364
# Velocity P-wave (km/s) = 5.26005 5.56427 5.41430
#
# Compressibility (1/GPa) = 0.03197371
#
# Stress axis : x y z
#
# Youngs Moduli (GPa) = 66.15040 112.34534 55.65755
#
# Poissons Ratio (x) = -0.01677 0.30612
# Poissons Ratio (y) = -0.00987 -0.01920
# Poissons Ratio (z) = 0.36383 -0.03876
#
# Static dielectric constant tensor:
#      x y z
#    x 1.832580 0.000000 0.011130 
#    y 0.000000 1.839440 0.000000 
#    z 0.011130 0.000000 1.828140 
# 
# From -- ./inp_files/22545.got.cif
#   From: 2010.05.17/outbox.cif.g08.bks.cpg/sg9_12_cif.got.tgz:22545.got - 2010.06.03 20:04:27.
