data_PCOD9138629
_publ_section_title
;
Structure prediction by ZEFSAII (Michael W. Deem and Ramdas Pophale) SiO2 
 PCOD9138629
Probable space group: C C
;
_chemical_formula_sum "Si O2"
_cell_formula_units_Z 32
_cell_length_a 23.684840
_cell_length_b 13.524706
_cell_length_c 10.819199
_cell_angle_alpha 90.000000
_cell_angle_beta 24.055032
_cell_angle_gamma 90.000000
_cell_volume 1412.675423
_symmetry_space_group_name_H-M "C C"
_symmetry_group_IT_number 9
_symmetry_cell_setting 'monoclinic'
loop_
_space_group_symop_operation_xyz
x,y,z
x,-y,1/2+z
1/2+x,1/2+y,z
1/2+x,1/2-y,1/2+z
loop_
_atom_site_type_symbol
_atom_site_label
_atom_site_fract_x
_atom_site_fract_y
_atom_site_fract_z
Si Si1 0.187190 0.249431 0.862310
Si Si2 0.346525 0.222443 0.296336
Si Si3 0.067089 0.125064 0.758926
Si Si4 0.048795 0.457533 0.356573
Si Si5 0.526065 0.606783 0.343815
Si Si6 0.175055 0.171275 0.297162
Si Si7 0.792540 0.838312 0.908969
Si Si8 0.967667 0.422437 0.255538
O O1 0.298949 0.240945 0.531100
O O2 0.255464 0.285791 0.853466
O O3 0.107934 0.150694 0.062679
O O4 0.071522 0.329702 0.055817
O O5 0.217875 0.158960 0.502240
O O6 0.478601 0.150689 0.017294
O O7 0.389507 0.324139 0.140131
O O8 0.064018 0.171290 0.628209
O O9 0.026213 0.010348 0.826900
O O10 0.956827 0.161595 0.079555
O O11 0.008711 0.485104 0.296295
O O12 0.990235 0.526095 0.579658
O O13 0.211768 0.441821 0.056523
O O14 0.611184 0.625500 0.300728
O O15 0.232922 0.278013 0.142881
O O16 0.307959 0.109277 0.076770
#
# Coordination Sequence:
#
# PCOD9138629 Si02
#       8
#     4   4   4   4   4   4   4   4
#     4  10  23  45  69  96 141 189 229 309 381 430
#     4  12  23  46  70 100 142 192 241 309 379 450
#     4  12  26  42  74 108 137 198 251 301 389 458
#     4  11  24  46  68 101 146 187 250 311 377 460
#     4  11  25  45  70 103 149 185 247 320 367 458
#     4  11  22  45  68 100 142 185 249 305 373 461
#     4  10  24  47  66 102 144 182 241 312 375 455
#     4  11  23  44  71 104 141 194 252 309 381 468
#
# _framework density 22.652054
#
# number of rings (size 3 to 8) (size 9 to 14) (size 15 to 20)
#    0.000    1.000    5.000    2.250    5.250    1.000 
#    2.250    0.000    0.000    0.000    0.000    0.000 
#    0.000    0.000    0.000    0.000    0.000    0.000 
#
# Total GULP energy -89372.099423 kJ/mol
# GULP energy per Si atom -5585.756214 kJ/mol
# Density = 2.260050 g / cm^3
# Si number density = 22.652054 Si / 1000 Ang^3
#
#
#
# Elastic Constant Matrix: (Units=GPa)
#
#
# Indices 1 2 3 4 5 6 
#
# 1 -327.3084 -323.6878 -628.3362 0.0001 -546.3393 0.0000
# 2 -323.6878 -207.1559 -517.0956 0.0001 -460.9403 0.0000
# 3 -628.3362 -517.0956 -924.5346 0.0001 -897.9636 0.0000
# 4 0.0001 0.0001 0.0001 30.7959 0.0001 13.6463
# 5 -546.3393 -460.9403 -897.9636 0.0001 -740.7203 0.0000
# 6 0.0000 0.0000 0.0000 13.6463 0.0000 20.0905
#
#
#
# Elastic Compliance Matrix: (Units=1/GPa)
#
#
# Indices 1 2 3 4 5 6 
#
# 1 0.014755 -0.001635 -0.002641 0.000000 -0.006664 0.000000
# 2 -0.001635 0.014656 -0.003386 0.000000 -0.003809 0.000000
# 3 -0.002641 -0.003386 0.007503 0.000000 -0.005041 0.000000
# 4 0.000000 0.000000 0.000000 0.046454 0.000000 -0.031553
# 5 -0.006664 -0.003809 -0.005041 0.000000 0.012047 0.000000
# 6 0.000000 0.000000 0.000000 -0.031553 0.000000 0.071207
#
#
# Mechanical properties :
#
#
# Convention : Reuss Voigt Hill
#
# Bulk Modulus (GPa) = 46.31669 -488.58200 -221.13266
# Shear Modulus (GPa) = 26.43491 -137.29207 -55.42858
#
# Velocity S-wave (km/s) = 3.41984 -7.79363 -4.95204
# Velocity P-wave (km/s) = 6.00709 17.23792 11.42499
#
# Compressibility (1/GPa) = 0.02159049
#
# Stress axis : x y z
#
# Youngs Moduli (GPa) = 67.77224 68.23003 133.27453
#
# Poissons Ratio (x) = 0.11156 0.35197
# Poissons Ratio (y) = 0.11081 0.45131
# Poissons Ratio (z) = 0.17898 0.23105
#
# Static dielectric constant tensor:
#      x y z
#    x 1.896890 0.000000 -0.101670 
#    y 0.000000 1.915290 0.000000 
#    z -0.101670 0.000000 2.075220 
# 
# From -- ./inp_files/21300.got.cif
#   From: 2010.05.17/outbox.cif.g08.bks.cpg/sg9_11_cif.got.tgz:21300.got - 2010.06.03 20:04:27.
