data_PCOD9138223
_publ_section_title
;
Structure prediction by ZEFSAII (Michael W. Deem and Ramdas Pophale) SiO2 
 PCOD9138223
Probable space group: C C
;
_chemical_formula_sum "Si O2"
_cell_formula_units_Z 32
_cell_length_a 15.142219
_cell_length_b 8.258026
_cell_length_c 29.204990
_cell_angle_alpha 90.000000
_cell_angle_beta 154.906139
_cell_angle_gamma 90.000000
_cell_volume 1548.793628
_symmetry_space_group_name_H-M "C C"
_symmetry_group_IT_number 9
_symmetry_cell_setting 'monoclinic'
loop_
_space_group_symop_operation_xyz
x,y,z
x,-y,1/2+z
1/2+x,1/2+y,z
1/2+x,1/2-y,1/2+z
loop_
_atom_site_type_symbol
_atom_site_label
_atom_site_fract_x
_atom_site_fract_y
_atom_site_fract_z
Si Si1 0.474130 0.046645 0.463730
Si Si2 0.830056 0.304732 0.320521
Si Si3 0.691131 0.017494 0.729734
Si Si4 0.978169 0.773463 0.299246
Si Si5 0.066985 0.254368 0.251879
Si Si6 0.330032 0.084116 0.721609
Si Si7 0.422045 0.590922 0.673046
Si Si8 0.447659 0.821198 0.540605
O O1 0.281525 0.168353 0.367703
O O2 0.686738 0.144381 0.555772
O O3 0.452919 0.908722 0.415014
O O4 0.469579 0.953292 0.509974
O O5 0.814531 0.112847 0.318834
O O6 0.906477 0.338488 0.305294
O O7 0.591834 0.368576 0.214665
O O8 0.521810 0.917177 0.620828
O O9 0.596255 0.150875 0.718482
O O10 0.848445 0.097470 0.767588
O O11 0.210042 0.759748 0.428775
O O12 0.846998 0.607619 0.236720
O O13 0.001683 0.835091 0.258197
O O14 0.978779 0.369141 0.249673
O O15 0.913560 0.102488 0.174043
O O16 0.107602 0.171353 0.608740
#
# Coordination Sequence:
#
# PCOD9138223 Si02
#       8
#     4   4   4   4   4   4   4   4
#     4  11  22  43  70  99 133 186 221 279 353 402
#     4  10  23  41  66  94 136 173 228 282 335 401
#     4  11  25  45  66 104 135 180 229 286 337 412
#     4  12  23  44  71  98 141 180 228 283 343 409
#     4  11  23  42  66  97 141 175 228 282 341 404
#     4  11  25  45  66 103 138 178 229 287 331 410
#     4  11  21  42  67  98 137 175 224 285 335 409
#     4  11  24  46  72  99 139 185 225 284 351 399
#
# _framework density 20.661239999999999
#
# number of rings (size 3 to 8) (size 9 to 14) (size 15 to 20)
#    0.000    1.000    5.000    3.000    0.000    6.000 
#    0.000    0.000    0.000    0.000    0.000    0.000 
#    0.000    0.000    0.000    0.000    0.000    0.000 
#
# Total GULP energy -89386.899239 kJ/mol
# GULP energy per Si atom -5586.681202 kJ/mol
# Density = 2.061421 g / cm^3
# Si number density = 20.661240 Si / 1000 Ang^3
#
#
#
# Elastic Constant Matrix: (Units=GPa)
#
#
# Indices 1 2 3 4 5 6 
#
# 1 58.2913 -0.9232 28.4296 -0.0001 -6.7935 0.0000
# 2 -0.9232 85.0953 26.4277 -0.0002 0.1927 0.0000
# 3 28.4296 26.4277 118.8192 -0.0001 10.0346 -0.0001
# 4 -0.0001 -0.0002 -0.0001 20.0031 -0.0001 -3.8431
# 5 -6.7935 0.1927 10.0346 -0.0001 28.2385 0.0000
# 6 0.0000 0.0000 -0.0001 -3.8431 0.0000 39.6958
#
#
#
# Elastic Compliance Matrix: (Units=1/GPa)
#
#
# Indices 1 2 3 4 5 6 
#
# 1 0.021005 0.002107 -0.006103 0.000000 0.007208 0.000000
# 2 0.002107 0.012859 -0.003505 0.000000 0.001665 0.000000
# 3 -0.006103 -0.003505 0.011111 0.000000 -0.005393 0.000000
# 4 0.000000 0.000000 0.000000 0.050940 0.000000 0.004932
# 5 0.007208 0.001665 -0.005393 0.000000 0.039052 0.000000
# 6 0.000000 0.000000 0.000000 0.004932 0.000000 0.025669
#
#
# Mechanical properties :
#
#
# Convention : Reuss Voigt Hill
#
# Bulk Modulus (GPa) = 33.36256 41.11930 37.24093
# Shear Modulus (GPa) = 26.93537 31.47227 29.20382
#
# Velocity S-wave (km/s) = 3.61455 3.90712 3.76368
# Velocity P-wave (km/s) = 5.79676 6.34815 6.07871
#
# Compressibility (1/GPa) = 0.02997372
#
# Stress axis : x y z
#
# Youngs Moduli (GPa) = 47.60717 77.76588 89.99740
#
# Poissons Ratio (x) = -0.16386 0.54927
# Poissons Ratio (y) = -0.10031 0.31543
# Poissons Ratio (z) = 0.29056 0.27256
#
# Static dielectric constant tensor:
#      x y z
#    x 1.736780 0.000000 0.026510 
#    y 0.000000 1.743810 0.000000 
#    z 0.026510 0.000000 1.779700 
# 
# From -- ./inp_files/36718.got.cif
#   From: 2010.05.17/outbox.cif.g08.bks.cpg/sg9_19_cif.got.tgz:36718.got - 2010.06.03 20:04:27.
