data_PCOD9138426
_publ_section_title
;
Structure prediction by ZEFSAII (Michael W. Deem and Ramdas Pophale) SiO2 
 PCOD9138426
Probable space group: C C
;
_chemical_formula_sum "Si O2"
_cell_formula_units_Z 32
_cell_length_a 9.495486
_cell_length_b 12.335873
_cell_length_c 13.220583
_cell_angle_alpha 90.000000
_cell_angle_beta 56.246553
_cell_angle_gamma 90.000000
_cell_volume 1287.557453
_symmetry_space_group_name_H-M "C C"
_symmetry_group_IT_number 9
_symmetry_cell_setting 'monoclinic'
loop_
_space_group_symop_operation_xyz
x,y,z
x,-y,1/2+z
1/2+x,1/2+y,z
1/2+x,1/2-y,1/2+z
loop_
_atom_site_type_symbol
_atom_site_label
_atom_site_fract_x
_atom_site_fract_y
_atom_site_fract_z
Si Si1 0.927440 0.834482 0.713700
Si Si2 0.953405 0.447453 0.454048
Si Si3 0.910068 0.571787 0.273883
Si Si4 0.605356 0.738203 0.757918
Si Si5 0.580708 0.467750 0.394887
Si Si6 0.280665 0.262890 0.990222
Si Si7 0.101168 0.954952 0.117385
Si Si8 0.703377 0.996686 0.513222
O O1 0.770932 0.814262 0.700500
O O2 0.977376 0.958275 0.717985
O O3 0.096479 0.791572 0.587426
O O4 0.866978 0.785035 0.845547
O O5 0.939860 0.472785 0.340220
O O6 0.912381 0.321035 0.488255
O O7 0.796166 0.515341 0.560712
O O8 0.122401 0.494800 0.434025
O O9 0.725186 0.552877 0.299534
O O10 0.944368 0.681141 0.324193
O O11 0.057539 0.563706 0.133389
O O12 0.642754 0.649838 0.831407
O O13 0.739475 0.883874 0.042612
O O14 0.579956 0.334972 0.168083
O O15 0.573603 0.514609 0.511586
O O16 0.387224 0.448264 0.442766
#
# Coordination Sequence:
#
# PCOD9138426 Si02
#       8
#     4   4   4   4   4   4   4   4
#     4  11  22  42  71 106 144 199 251 308 385 459
#     4  10  23  43  69 103 143 189 244 304 370 452
#     4  11  26  46  72 107 143 191 256 308 372 462
#     4  12  24  45  76 102 148 202 244 314 388 440
#     4  11  26  46  67 104 149 188 247 313 374 457
#     4  11  23  41  71 104 150 197 246 313 383 447
#     4  10  23  43  69 105 142 188 252 305 368 458
#     4  12  25  44  71 105 145 192 246 307 374 449
#
# _framework density 24.853259999999999
#
# number of rings (size 3 to 8) (size 9 to 14) (size 15 to 20)
#    0.000    1.000    0.000    7.500    0.000    9.000 
#    0.000    0.000    0.000    0.000    0.000    0.000 
#    0.000    0.000    0.000    0.000    0.000    0.000 
#
# Total GULP energy -89200.924492 kJ/mol
# GULP energy per Si atom -5575.057781 kJ/mol
# Density = 2.479669 g / cm^3
# Si number density = 24.853260 Si / 1000 Ang^3
#
#
#
# Elastic Constant Matrix: (Units=GPa)
#
#
# Indices 1 2 3 4 5 6 
#
# 1 134.6185 28.4875 30.1965 0.0000 -28.7570 0.0000
# 2 28.4875 96.8082 5.0778 0.0000 -17.3488 0.0000
# 3 30.1965 5.0778 132.0783 0.0000 -7.4224 0.0000
# 4 0.0000 0.0000 0.0000 22.3234 0.0000 -10.1200
# 5 -28.7570 -17.3488 -7.4224 0.0000 40.2826 0.0000
# 6 0.0000 0.0000 0.0000 -10.1200 0.0000 33.9311
#
#
#
# Elastic Compliance Matrix: (Units=1/GPa)
#
#
# Indices 1 2 3 4 5 6 
#
# 1 0.009383 -0.001654 -0.001764 0.000000 0.005661 0.000000
# 2 -0.001654 0.011489 0.000150 0.000000 0.003795 0.000000
# 3 -0.001764 0.000150 0.007984 0.000000 0.000277 0.000000
# 4 0.000000 0.000000 0.000000 0.051800 0.000000 0.015449
# 5 0.005661 0.003795 0.000277 0.000000 0.030551 0.000000
# 6 0.000000 0.000000 0.000000 0.015449 0.000000 0.034079
#
#
# Mechanical properties :
#
#
# Convention : Reuss Voigt Hill
#
# Bulk Modulus (GPa) = 44.80223 54.55874 49.68048
# Shear Modulus (GPa) = 31.39463 39.29029 35.34246
#
# Velocity S-wave (km/s) = 3.55801 3.98036 3.77509
# Velocity P-wave (km/s) = 5.91143 6.56691 6.24777
#
# Compressibility (1/GPa) = 0.02232032
#
# Stress axis : x y z
#
# Youngs Moduli (GPa) = 106.57143 87.04246 125.24665
#
# Poissons Ratio (x) = 0.14398 0.22088
# Poissons Ratio (y) = 0.17629 -0.01875
# Poissons Ratio (z) = 0.18794 -0.01303
#
# Static dielectric constant tensor:
#      x y z
#    x 1.980710 0.000000 0.046200 
#    y 0.000000 2.024020 0.000000 
#    z 0.046200 0.000000 2.044380 
# 
# From -- ./inp_files/15423.got.cif
#   From: 2010.05.17/outbox.cif.g08.bks.cpg/sg9_8_cif.got.tgz:15423.got - 2010.06.03 20:04:27.
