data_PCOD9138277
_publ_section_title
;
Structure prediction by ZEFSAII (Michael W. Deem and Ramdas Pophale) SiO2 
 PCOD9138277
Probable space group: C C
;
_chemical_formula_sum "Si O2"
_cell_formula_units_Z 28
_cell_length_a 10.865889
_cell_length_b 13.533656
_cell_length_c 8.468387
_cell_angle_alpha 90.000000
_cell_angle_beta 104.982054
_cell_angle_gamma 90.000000
_cell_volume 1202.988009
_symmetry_space_group_name_H-M "C C"
_symmetry_group_IT_number 9
_symmetry_cell_setting 'monoclinic'
loop_
_space_group_symop_operation_xyz
x,y,z
x,-y,1/2+z
1/2+x,1/2+y,z
1/2+x,1/2-y,1/2+z
loop_
_atom_site_type_symbol
_atom_site_label
_atom_site_fract_x
_atom_site_fract_y
_atom_site_fract_z
Si Si1 0.552730 0.720771 0.165580
Si Si2 0.501224 0.635860 0.824727
Si Si3 0.450882 0.831820 0.396322
Si Si4 0.349598 0.008158 0.202491
Si Si5 0.168283 0.061228 0.376212
Si Si6 0.277405 0.321437 0.035984
Si Si7 0.089515 0.649792 0.223408
O O1 0.467834 0.804118 0.219344
O O2 0.574341 0.653251 0.330203
O O3 0.483890 0.659073 0.004623
O O4 0.671152 0.775009 0.118230
O O5 0.592857 0.541725 0.840231
O O6 0.375431 0.620027 0.679062
O O7 0.559481 0.738789 0.775713
O O8 0.384100 0.937393 0.359724
O O9 0.358600 0.762095 0.468612
O O10 0.585667 0.841286 0.532911
O O11 0.245234 0.081488 0.240337
O O12 0.474194 0.072478 0.210273
O O13 0.266537 0.945469 0.051152
O O14 0.206921 0.380723 0.872076
#
# Coordination Sequence:
#
# PCOD9138277 Si02
#       7
#     4   4   4   4   4   4   4
#     4  11  25  42  70 103 135 183 226 278 349 407
#     4  10  23  42  65  98 137 179 221 282 346 392
#     4  11  25  42  70 103 135 183 226 278 349 407
#     4  12  24  42  71 100 134 176 238 283 332 409
#     4  12  24  42  71 100 134 176 238 283 332 409
#     4  10  24  46  68  98 148 174 224 290 340 414
#     4  10  23  42  65  98 137 179 221 282 346 392
#
# _framework density 23.275375
#
# number of rings (size 3 to 8) (size 9 to 14) (size 15 to 20)
#    0.000    1.143    2.857    3.429   14.000    0.000 
#    0.000    5.714    0.000    0.000    0.000    0.000 
#    0.000    0.000    0.000    0.000    0.000    0.000 
#
# Total GULP energy -78047.942281 kJ/mol
# GULP energy per Si atom -5574.853020 kJ/mol
# Density = 2.322240 g / cm^3
# Si number density = 23.275375 Si / 1000 Ang^3
#
#
#
# Elastic Constant Matrix: (Units=GPa)
#
#
# Indices 1 2 3 4 5 6 
#
# 1 64.6673 16.5155 41.5941 0.0000 11.9766 0.0000
# 2 16.5155 22.1981 35.4818 0.0000 19.9446 0.0000
# 3 41.5941 35.4818 145.8086 0.0000 48.8335 0.0000
# 4 0.0000 0.0000 0.0000 30.8892 0.0000 4.9426
# 5 11.9766 19.9446 48.8335 0.0000 55.3540 0.0000
# 6 0.0000 0.0000 0.0000 4.9426 0.0000 27.0246
#
#
#
# Elastic Compliance Matrix: (Units=1/GPa)
#
#
# Indices 1 2 3 4 5 6 
#
# 1 0.020483 -0.011703 -0.004149 0.000000 0.003445 0.000000
# 2 -0.011703 0.090738 -0.012264 0.000000 -0.019342 0.000000
# 3 -0.004149 -0.012264 0.013123 0.000000 -0.006261 0.000000
# 4 0.000000 0.000000 0.000000 0.033350 0.000000 -0.006099
# 5 0.003445 -0.019342 -0.006261 0.000000 0.029812 0.000000
# 6 0.000000 0.000000 0.000000 -0.006099 0.000000 0.038119
#
#
# Mechanical properties :
#
#
# Convention : Reuss Voigt Hill
#
# Bulk Modulus (GPa) = 14.68183 46.65076 30.66630
# Shear Modulus (GPa) = 16.41701 31.92572 24.17136
#
# Velocity S-wave (km/s) = 2.65870 3.70760 3.22607
# Velocity P-wave (km/s) = 3.96819 6.19797 5.20391
#
# Compressibility (1/GPa) = 0.06811140
#
# Stress axis : x y z
#
# Youngs Moduli (GPa) = 48.82024 11.02075 76.20117
#
# Poissons Ratio (x) = 0.12898 0.31617
# Poissons Ratio (y) = 0.57135 0.93455
# Poissons Ratio (z) = 0.20256 0.13516
#
# Static dielectric constant tensor:
#      x y z
#    x 1.886870 0.000000 0.014170 
#    y 0.000000 1.843190 0.000000 
#    z 0.014170 0.000000 1.922210 
# 
# From -- ./inp_files/7300.got.cif
#   From: 2010.05.17/outbox.cif.g08.bks.cpg/sg9_4_cif.got.tgz:7300.got - 2010.06.03 20:04:27.
