data_PCOD9138713
_publ_section_title
;
Structure prediction by ZEFSAII (Michael W. Deem and Ramdas Pophale) SiO2 
 PCOD9138713
Probable space group: C C
;
_chemical_formula_sum "Si O2"
_cell_formula_units_Z 20
_cell_length_a 12.890776
_cell_length_b 6.953272
_cell_length_c 9.268776
_cell_angle_alpha 90.000000
_cell_angle_beta 89.105884
_cell_angle_gamma 90.000000
_cell_volume 830.687708
_symmetry_space_group_name_H-M "C C"
_symmetry_group_IT_number 9
_symmetry_cell_setting 'monoclinic'
loop_
_space_group_symop_operation_xyz
x,y,z
x,-y,1/2+z
1/2+x,1/2+y,z
1/2+x,1/2-y,1/2+z
loop_
_atom_site_type_symbol
_atom_site_label
_atom_site_fract_x
_atom_site_fract_y
_atom_site_fract_z
Si Si1 0.439870 0.686120 0.217500
Si Si2 0.546337 0.404573 0.021317
Si Si3 0.257259 0.591679 0.610441
Si Si4 0.230144 0.720990 0.888942
Si Si5 0.408346 0.136532 0.196920
O O1 0.420318 0.911313 0.203648
O O2 0.484620 0.632508 0.373610
O O3 0.335008 0.563119 0.186998
O O4 0.514930 0.605251 0.090828
O O5 0.665327 0.377129 0.976402
O O6 0.511756 0.248545 0.144995
O O7 0.219789 0.475162 0.477194
O O8 0.327568 0.778812 0.579305
O O9 0.180825 0.667249 0.734830
O O10 0.346150 0.789798 0.842166
#
# Coordination Sequence:
#
# PCOD9138713 Si02
#       5
#     4   4   4   4   4
#     4  11  24  47  69  99 150 188 249 290 358 430
#     4  11  26  44  69 108 142 192 242 303 352 435
#     4   9  21  44  69  99 143 183 243 294 354 433
#     4  10  23  46  68 107 142 187 240 295 364 419
#     4   9  24  41  75  93 141 190 236 296 364 409
#
# _framework density 24.076436999999999
#
# number of rings (size 3 to 8) (size 9 to 14) (size 15 to 20)
#    1.200    0.800    0.000    2.400    5.600    1.600 
#    3.600    0.000    0.000    0.000    0.000    0.000 
#    0.000    0.000    0.000    0.000    0.000    0.000 
#
# Total GULP energy -55757.700747 kJ/mol
# GULP energy per Si atom -5575.770075 kJ/mol
# Density = 2.402164 g / cm^3
# Si number density = 24.076437 Si / 1000 Ang^3
#
#
#
# Elastic Constant Matrix: (Units=GPa)
#
#
# Indices 1 2 3 4 5 6 
#
# 1 63.7584 26.9759 46.2519 0.0000 -32.8121 0.0000
# 2 26.9759 173.0637 43.8913 0.0000 -9.7743 0.0000
# 3 46.2519 43.8913 102.0313 0.0000 -34.4397 0.0000
# 4 0.0000 0.0000 0.0000 33.8232 0.0000 1.5816
# 5 -32.8121 -9.7743 -34.4397 0.0000 47.5518 0.0000
# 6 0.0000 0.0000 0.0000 1.5816 0.0000 31.7593
#
#
#
# Elastic Compliance Matrix: (Units=1/GPa)
#
#
# Indices 1 2 3 4 5 6 
#
# 1 0.029438 -0.001821 -0.007718 0.000000 0.014349 0.000000
# 2 -0.001821 0.006628 -0.002634 0.000000 -0.001802 0.000000
# 3 -0.007718 -0.002634 0.016481 0.000000 0.006070 0.000000
# 4 0.000000 0.000000 0.000000 0.029635 0.000000 -0.001476
# 5 0.014349 -0.001802 0.006070 0.000000 0.034957 0.000000
# 6 0.000000 0.000000 0.000000 -0.001476 0.000000 0.031560
#
#
# Mechanical properties :
#
#
# Convention : Reuss Voigt Hill
#
# Bulk Modulus (GPa) = 35.45853 63.67686 49.56770
# Shear Modulus (GPa) = 27.40552 37.40914 32.40733
#
# Velocity S-wave (km/s) = 3.37749 3.94606 3.67279
# Velocity P-wave (km/s) = 5.47443 6.87510 6.21435
#
# Compressibility (1/GPa) = 0.02820196
#
# Stress axis : x y z
#
# Youngs Moduli (GPa) = 33.97007 150.86786 60.67435
#
# Poissons Ratio (x) = 0.27470 0.46828
# Poissons Ratio (y) = 0.06185 0.15982
# Poissons Ratio (z) = 0.26218 0.39740
#
# Static dielectric constant tensor:
#      x y z
#    x 2.029430 0.000000 -0.001170 
#    y 0.000000 1.888510 0.000000 
#    z -0.001170 0.000000 1.962680 
# 
# From -- ./inp_files/6805.got.cif
#   From: 2010.05.17/outbox.cif.g08.bks.cpg/sg9_4_cif.got.tgz:6805.got - 2010.06.03 20:04:27.
