data_PCOD9138775
_publ_section_title
;
Structure prediction by ZEFSAII (Michael W. Deem and Ramdas Pophale) SiO2 
 PCOD9138775
Probable space group: C C
;
_chemical_formula_sum "Si O2"
_cell_formula_units_Z 32
_cell_length_a 9.366585
_cell_length_b 10.486582
_cell_length_c 15.079015
_cell_angle_alpha 90.000000
_cell_angle_beta 52.971365
_cell_angle_gamma 90.000000
_cell_volume 1182.423852
_symmetry_space_group_name_H-M "C C"
_symmetry_group_IT_number 9
_symmetry_cell_setting 'monoclinic'
loop_
_space_group_symop_operation_xyz
x,y,z
x,-y,1/2+z
1/2+x,1/2+y,z
1/2+x,1/2-y,1/2+z
loop_
_atom_site_type_symbol
_atom_site_label
_atom_site_fract_x
_atom_site_fract_y
_atom_site_fract_z
Si Si1 0.610740 0.338185 0.902520
Si Si2 0.718203 0.500508 0.701257
Si Si3 0.399527 0.351546 0.322709
Si Si4 0.112904 0.485236 0.133113
Si Si5 0.689929 0.894127 0.917110
Si Si6 0.642618 0.470618 0.530992
Si Si7 0.438228 0.833667 0.338949
Si Si8 0.871848 0.790136 0.538998
O O1 0.604038 0.434798 0.822064
O O2 0.805065 0.273333 0.822345
O O3 0.489770 0.221732 0.915099
O O4 0.570471 0.396619 0.014751
O O5 0.609899 0.631782 0.723915
O O6 0.914129 0.503748 0.666665
O O7 0.693362 0.445676 0.612921
O O8 0.278723 0.477302 0.341681
O O9 0.387012 0.332391 0.431861
O O10 0.097112 0.384397 0.218999
O O11 0.215869 0.420487 0.012475
O O12 0.194289 0.622441 0.127264
O O13 0.478610 0.849574 0.989287
O O14 0.811947 0.774217 0.841690
O O15 0.814407 0.453851 0.404298
O O16 0.508279 0.360133 0.553665
#
# Coordination Sequence:
#
# PCOD9138775 Si02
#       8
#     4   4   4   4   4   4   4   4
#     4  12  26  47  76 111 157 200 261 335 391 473
#     4  12  26  50  73 115 158 204 268 328 398 483
#     4  11  25  47  75 111 156 206 263 321 400 473
#     4  11  25  46  72 116 154 203 270 327 398 479
#     4  10  23  46  76 108 151 209 258 322 397 474
#     4  11  26  49  75 111 155 208 263 325 401 477
#     4  11  24  46  76 104 161 202 259 333 398 467
#     4  10  23  47  77 108 152 200 264 323 391 474
#
# _framework density 27.063054999999999
#
# number of rings (size 3 to 8) (size 9 to 14) (size 15 to 20)
#    0.000    1.000    3.750    1.500   10.500    2.000 
#    0.000    0.000    0.000    0.000    0.000    0.000 
#    0.000    0.000    0.000    0.000    0.000    0.000 
#
# Total GULP energy -89226.218580 kJ/mol
# GULP energy per Si atom -5576.638661 kJ/mol
# Density = 2.700146 g / cm^3
# Si number density = 27.063055 Si / 1000 Ang^3
#
#
#
# Elastic Constant Matrix: (Units=GPa)
#
#
# Indices 1 2 3 4 5 6 
#
# 1 108.5018 48.3615 14.3920 0.0000 0.0154 0.0000
# 2 48.3615 128.0705 16.2275 0.0000 6.3145 0.0000
# 3 14.3920 16.2275 54.7941 0.0000 11.4732 0.0000
# 4 0.0000 0.0000 0.0000 -96.6175 0.0000 -28.3120
# 5 0.0154 6.3145 11.4732 0.0000 37.5238 0.0000
# 6 0.0000 0.0000 0.0000 -28.3120 0.0000 52.8604
#
#
#
# Elastic Compliance Matrix: (Units=1/GPa)
#
#
# Indices 1 2 3 4 5 6 
#
# 1 0.011302 -0.004074 -0.002035 0.000000 0.001303 0.000000
# 2 -0.004074 0.009597 -0.001532 0.000000 -0.001145 0.000000
# 3 -0.002035 -0.001532 0.020497 0.000000 -0.006008 0.000000
# 4 0.000000 0.000000 0.000000 -0.008946 0.000000 -0.004791
# 5 0.001303 -0.001145 -0.006008 0.000000 0.028679 0.000000
# 6 0.000000 0.000000 0.000000 -0.004791 0.000000 0.016351
#
#
# Mechanical properties :
#
#
# Convention : Reuss Voigt Hill
#
# Bulk Modulus (GPa) = 38.29530 49.92537 44.11033
# Shear Modulus (GPa) = 49.27671 12.91234 31.09453
#
# Velocity S-wave (km/s) = 4.27173 2.18668 3.39332
# Velocity P-wave (km/s) = 6.20575 4.98631 5.62915
#
# Compressibility (1/GPa) = 0.02611287
#
# Stress axis : x y z
#
# Youngs Moduli (GPa) = 88.47870 104.19552 48.78882
#
# Poissons Ratio (x) = 0.42452 0.09928
# Poissons Ratio (y) = 0.36049 0.07477
# Poissons Ratio (z) = 0.18004 0.15967
#
# Static dielectric constant tensor:
#      x y z
#    x 2.183960 0.000000 -0.082580 
#    y 0.000000 2.296530 0.000000 
#    z -0.082580 0.000000 2.079030 
# 
# From -- ./inp_files/22847.got.cif
#   From: 2010.05.17/outbox.cif.g08.bks.cpg/sg9_12_cif.got.tgz:22847.got - 2010.06.03 20:04:27.
