data_PCOD9138569
_publ_section_title
;
Structure prediction by ZEFSAII (Michael W. Deem and Ramdas Pophale) SiO2 
 PCOD9138569
Probable space group: C C
;
_chemical_formula_sum "Si O2"
_cell_formula_units_Z 28
_cell_length_a 5.098167
_cell_length_b 19.683794
_cell_length_c 11.282517
_cell_angle_alpha 90.000000
_cell_angle_beta 109.647319
_cell_angle_gamma 90.000000
_cell_volume 1066.297451
_symmetry_space_group_name_H-M "C C"
_symmetry_group_IT_number 9
_symmetry_cell_setting 'monoclinic'
loop_
_space_group_symop_operation_xyz
x,y,z
x,-y,1/2+z
1/2+x,1/2+y,z
1/2+x,1/2-y,1/2+z
loop_
_atom_site_type_symbol
_atom_site_label
_atom_site_fract_x
_atom_site_fract_y
_atom_site_fract_z
Si Si1 0.275070 0.313097 0.946060
Si Si2 0.837038 0.473868 0.544686
Si Si3 0.107181 0.024905 0.271257
Si Si4 0.624762 0.331363 0.424911
Si Si5 0.229545 0.424661 0.128348
Si Si6 0.641820 0.676637 0.283372
Si Si7 0.994573 0.680269 0.755563
O O1 0.236540 0.239090 0.997145
O O2 0.537556 0.309804 0.900681
O O3 0.978466 0.326332 0.832927
O O4 0.320870 0.375227 0.040134
O O5 0.706008 0.523990 0.424497
O O6 0.792166 0.485531 0.679060
O O7 0.757992 0.397021 0.505577
O O8 0.150895 0.499787 0.569454
O O9 0.014707 0.102954 0.236480
O O10 0.948507 0.952855 0.254102
O O11 0.289937 0.329861 0.369950
O O12 0.741845 0.324877 0.308028
O O13 0.000998 0.379579 0.160943
O O14 0.518030 0.744215 0.204412
#
# Coordination Sequence:
#
# PCOD9138569 Si02
#       7
#     4   4   4   4   4   4   4
#     4  10  23  44  73 103 146 195 251 313 374 445
#     4  12  27  46  73 109 153 199 255 311 383 449
#     4  12  27  46  73 109 153 199 255 311 383 449
#     4  10  23  46  70 104 145 196 255 308 372 453
#     4  12  26  42  76 106 156 196 250 316 386 444
#     4  10  23  46  70 104 145 196 255 308 372 453
#     4  10  23  44  73 103 146 195 251 313 374 445
#
# _framework density 26.25909
#
# number of rings (size 3 to 8) (size 9 to 14) (size 15 to 20)
#    0.000    1.143    2.857    1.714    6.000    2.286 
#    0.000    0.000    0.000    0.000    0.000    0.000 
#    0.000    0.000    0.000    0.000    0.000    0.000 
#
# Total GULP energy -78086.369692 kJ/mol
# GULP energy per Si atom -5577.597835 kJ/mol
# Density = 2.619932 g / cm^3
# Si number density = 26.259090 Si / 1000 Ang^3
#
#
#
# Elastic Constant Matrix: (Units=GPa)
#
#
# Indices 1 2 3 4 5 6 
#
# 1 70.0139 17.8643 15.3456 0.0000 -6.3445 0.0000
# 2 17.8643 239.2140 29.3488 0.0000 10.3693 0.0000
# 3 15.3456 29.3488 64.7963 0.0000 -23.0326 0.0000
# 4 0.0000 0.0000 0.0000 27.4886 0.0000 -0.8690
# 5 -6.3445 10.3693 -23.0326 0.0000 30.8305 0.0000
# 6 0.0000 0.0000 0.0000 -0.8690 0.0000 45.4594
#
#
#
# Elastic Compliance Matrix: (Units=1/GPa)
#
#
# Indices 1 2 3 4 5 6 
#
# 1 0.015226 -0.000864 -0.002720 0.000000 0.001392 0.000000
# 2 -0.000864 0.004884 -0.003615 0.000000 -0.004521 0.000000
# 3 -0.002720 -0.003615 0.024437 0.000000 0.018912 0.000000
# 4 0.000000 0.000000 0.000000 0.036401 0.000000 0.000696
# 5 0.001392 -0.004521 0.018912 0.000000 0.048371 0.000000
# 6 0.000000 0.000000 0.000000 0.000696 0.000000 0.022011
#
#
# Mechanical properties :
#
#
# Convention : Reuss Voigt Hill
#
# Bulk Modulus (GPa) = 33.16752 55.46017 44.31384
# Shear Modulus (GPa) = 28.44520 41.52007 34.98264
#
# Velocity S-wave (km/s) = 3.29485 3.98071 3.65391
# Velocity P-wave (km/s) = 5.20893 6.50340 5.89183
#
# Compressibility (1/GPa) = 0.03014998
#
# Stress axis : x y z
#
# Youngs Moduli (GPa) = 65.67919 204.73673 40.92147
#
# Poissons Ratio (x) = 0.17682 0.11131
# Poissons Ratio (y) = 0.05672 0.14792
# Poissons Ratio (z) = 0.17865 0.74008
#
# Static dielectric constant tensor:
#      x y z
#    x 2.142680 0.000000 0.151020 
#    y 0.000000 2.056640 0.000000 
#    z 0.151020 0.000000 2.256650 
# 
# From -- ./inp_files/13390.got.cif
#   From: 2010.05.17/outbox.cif.g08.bks.cpg/sg9_7_cif.got.tgz:13390.got - 2010.06.03 20:04:27.
