data_PCOD9138061
_publ_section_title
;
Structure prediction by ZEFSAII (Michael W. Deem and Ramdas Pophale) SiO2 
 PCOD9138061
Probable space group: C C
;
_chemical_formula_sum "Si O2"
_cell_formula_units_Z 28
_cell_length_a 18.117071
_cell_length_b 5.081740
_cell_length_c 13.195145
_cell_angle_alpha 90.000000
_cell_angle_beta 66.272280
_cell_angle_gamma 90.000000
_cell_volume 1112.135677
_symmetry_space_group_name_H-M "C C"
_symmetry_group_IT_number 9
_symmetry_cell_setting 'monoclinic'
loop_
_space_group_symop_operation_xyz
x,y,z
x,-y,1/2+z
1/2+x,1/2+y,z
1/2+x,1/2-y,1/2+z
loop_
_atom_site_type_symbol
_atom_site_label
_atom_site_fract_x
_atom_site_fract_y
_atom_site_fract_z
Si Si1 0.748800 0.202998 0.658580
Si Si2 0.429641 0.324077 0.973699
Si Si3 0.536587 0.825106 0.921617
Si Si4 0.769096 0.300305 0.273395
Si Si5 0.446435 0.712419 0.225541
Si Si6 0.165848 0.126161 0.011241
Si Si7 0.053333 0.287537 0.672604
O O1 0.841426 0.199508 0.569881
O O2 0.734699 0.481168 0.718316
O O3 0.689160 0.195573 0.595404
O O4 0.738839 0.980365 0.749049
O O5 0.497298 0.108151 0.964839
O O6 0.423524 0.284865 0.856470
O O7 0.563748 0.795567 0.789171
O O8 0.607205 0.749012 0.958959
O O9 0.516114 0.926968 0.169797
O O10 0.466342 0.610099 0.973081
O O11 0.865576 0.286025 0.212717
O O12 0.746326 0.391703 0.399138
O O13 0.481591 0.422675 0.188189
O O14 0.127731 0.853733 0.073891
#
# Coordination Sequence:
#
# PCOD9138061 Si02
#       7
#     4   4   4   4   4   4   4
#     4  12  28  47  76 108 153 198 258 304 384 455
#     4  10  22  47  72 108 142 193 249 309 362 455
#     4  10  24  43  75 106 147 188 250 304 374 448
#     4  12  28  47  76 110 154 202 252 314 375 463
#     4  10  22  47  72 109 143 195 251 308 366 454
#     4  12  28  50  74 115 157 199 243 327 387 438
#     4  10  24  43  75 106 148 191 253 306 372 453
#
# _framework density 25.176784999999999
#
# number of rings (size 3 to 8) (size 9 to 14) (size 15 to 20)
#    0.000    1.143    1.429    2.571    6.000    9.143 
#    0.000    0.000    0.000    0.000    0.000    0.000 
#    0.000    0.000    0.000    0.000    0.000    0.000 
#
# Total GULP energy -78475.800112 kJ/mol
# GULP energy per Si atom -5605.414294 kJ/mol
# Density = 2.511948 g / cm^3
# Si number density = 25.176785 Si / 1000 Ang^3
#
#
#
# Elastic Constant Matrix: (Units=GPa)
#
#
# Indices 1 2 3 4 5 6 
#
# 1 121.6737 17.1611 19.7153 0.0000 6.2632 0.0000
# 2 17.1611 101.9971 10.5300 -0.0002 -10.5075 -0.0001
# 3 19.7153 10.5300 132.5193 0.0000 -7.5271 -0.0001
# 4 0.0000 -0.0002 0.0000 43.0366 0.0000 2.0358
# 5 6.2632 -10.5075 -7.5271 0.0000 48.4660 0.0000
# 6 0.0000 -0.0001 -0.0001 2.0358 0.0000 23.6735
#
#
#
# Elastic Compliance Matrix: (Units=1/GPa)
#
#
# Indices 1 2 3 4 5 6 
#
# 1 0.008722 -0.001506 -0.001272 0.000000 -0.001651 0.000000
# 2 -0.001506 0.010349 -0.000464 0.000000 0.002366 0.000000
# 3 -0.001272 -0.000464 0.007845 0.000000 0.001282 0.000000
# 4 0.000000 0.000000 0.000000 0.023331 0.000000 -0.002006
# 5 -0.001651 0.002366 0.001282 0.000000 0.021559 0.000000
# 6 0.000000 0.000000 0.000000 -0.002006 0.000000 0.042414
#
#
# Mechanical properties :
#
#
# Convention : Reuss Voigt Hill
#
# Bulk Modulus (GPa) = 48.94125 50.11142 49.52634
# Shear Modulus (GPa) = 39.21120 43.62080 41.41600
#
# Velocity S-wave (km/s) = 3.95072 4.16694 4.06027
# Velocity P-wave (km/s) = 6.34761 6.56493 6.45718
#
# Compressibility (1/GPa) = 0.02043266
#
# Stress axis : x y z
#
# Youngs Moduli (GPa) = 114.64971 96.62479 127.47054
#
# Poissons Ratio (x) = 0.14555 0.16211
# Poissons Ratio (y) = 0.17270 0.05913
# Poissons Ratio (z) = 0.14580 0.04482
#
# Static dielectric constant tensor:
#      x y z
#    x 1.972960 0.000000 -0.008050 
#    y 0.000000 1.911800 0.000000 
#    z -0.008050 0.000000 2.040380 
# 
# From -- ./inp_files/19650.got.cif
#   From: 2010.05.17/outbox.cif.g08.bks.cpg/sg9_10_cif.got.tgz:19650.got - 2010.06.03 20:04:27.
