data_PCOD9138505
_publ_section_title
;
Structure prediction by ZEFSAII (Michael W. Deem and Ramdas Pophale) SiO2 
 PCOD9138505
Probable space group: C C
;
_chemical_formula_sum "Si O2"
_cell_formula_units_Z 28
_cell_length_a 13.596795
_cell_length_b 20.134813
_cell_length_c 9.118854
_cell_angle_alpha 90.000000
_cell_angle_beta 29.754936
_cell_angle_gamma 90.000000
_cell_volume 1238.970802
_symmetry_space_group_name_H-M "C C"
_symmetry_group_IT_number 9
_symmetry_cell_setting 'monoclinic'
loop_
_space_group_symop_operation_xyz
x,y,z
x,-y,1/2+z
1/2+x,1/2+y,z
1/2+x,1/2-y,1/2+z
loop_
_atom_site_type_symbol
_atom_site_label
_atom_site_fract_x
_atom_site_fract_y
_atom_site_fract_z
Si Si1 0.184220 0.046076 0.780020
Si Si2 0.179245 0.694244 0.093002
Si Si3 0.622175 0.654608 0.608980
Si Si4 0.240536 0.457703 0.961190
Si Si5 0.175871 0.896484 0.728054
Si Si6 0.965459 0.624816 0.615529
Si Si7 0.708861 0.090394 0.825612
O O1 0.152369 0.102088 0.698793
O O2 0.361572 0.067648 0.654479
O O3 0.222070 0.974829 0.658638
O O4 0.979876 0.041835 0.138092
O O5 0.198691 0.772016 0.043593
O O6 0.027212 0.680634 0.421225
O O7 0.388207 0.663383 0.875433
O O8 0.117302 0.654442 0.025305
O O9 0.719817 0.626526 0.335314
O O10 0.182372 0.530361 0.976061
O O11 0.164003 0.437522 0.221428
O O12 0.150752 0.404889 0.963504
O O13 0.302297 0.856126 0.447226
O O14 0.941400 0.891004 0.008841
#
# Coordination Sequence:
#
# PCOD9138505 Si02
#       7
#     4   4   4   4   4   4   4
#     4  11  23  44  70 102 141 180 226 304 346 419
#     4  11  25  45  69 101 142 195 232 287 357 426
#     4  11  24  49  69  99 148 189 236 287 357 423
#     4  11  23  41  69 103 141 176 234 301 343 414
#     4  10  24  42  72 102 139 182 237 294 356 410
#     4  12  24  41  68 108 133 184 240 279 359 419
#     4  10  23  44  67  99 144 186 231 296 354 409
#
# _framework density 22.599401
#
# number of rings (size 3 to 8) (size 9 to 14) (size 15 to 20)
#    0.000    1.143    2.857    2.571   12.000    2.286 
#    2.571    1.429    0.000    0.000    0.000    0.000 
#    0.000    0.000    0.000    0.000    0.000    0.000 
#
# Total GULP energy -78376.424464 kJ/mol
# GULP energy per Si atom -5598.316033 kJ/mol
# Density = 2.254796 g / cm^3
# Si number density = 22.599401 Si / 1000 Ang^3
#
#
#
# Elastic Constant Matrix: (Units=GPa)
#
#
# Indices 1 2 3 4 5 6 
#
# 1 109.9681 42.5028 41.2594 -0.0020 24.5620 0.0028
# 2 42.5028 138.9056 48.7944 -0.0016 37.3849 0.0007
# 3 41.2594 48.7944 119.0642 -0.0046 33.3559 0.0024
# 4 -0.0020 -0.0016 -0.0046 23.6242 0.0018 2.7272
# 5 24.5620 37.3849 33.3559 0.0018 41.9665 -0.0018
# 6 0.0028 0.0007 0.0024 2.7272 -0.0018 28.3323
#
#
#
# Elastic Compliance Matrix: (Units=1/GPa)
#
#
# Indices 1 2 3 4 5 6 
#
# 1 0.011373 -0.001806 -0.002299 0.000001 -0.003221 -0.000001
# 2 -0.001806 0.010123 -0.001663 0.000001 -0.006639 0.000000
# 3 -0.002299 -0.001663 0.011687 0.000003 -0.006463 -0.000001
# 4 0.000001 0.000001 0.000003 0.042805 -0.000005 -0.004120
# 5 -0.003221 -0.006639 -0.006463 -0.000005 0.036764 0.000004
# 6 -0.000001 0.000000 -0.000001 -0.004120 0.000004 0.035692
#
#
# Mechanical properties :
#
#
# Convention : Reuss Voigt Hill
#
# Bulk Modulus (GPa) = 46.19218 70.33902 58.26560
# Shear Modulus (GPa) = 29.90507 34.47671 32.19089
#
# Velocity S-wave (km/s) = 3.64162 3.91008 3.77823
# Velocity P-wave (km/s) = 6.17785 7.18170 6.69860
#
# Compressibility (1/GPa) = 0.02164868
#
# Stress axis : x y z
#
# Youngs Moduli (GPa) = 87.92482 98.78948 85.56208
#
# Poissons Ratio (x) = 0.17838 0.19670
# Poissons Ratio (y) = 0.15876 0.14227
# Poissons Ratio (z) = 0.20213 0.16426
#
# Static dielectric constant tensor:
#      x y z
#    x 1.880580 0.000000 -0.042140 
#    y 0.000000 1.769020 0.000000 
#    z -0.042140 0.000000 1.878440 
# 
# From -- ./inp_files/5561.got.cif
#   From: 2010.05.17/outbox.cif.g08.bks.cpg/sg9_3_cif.got.tgz:5561.got - 2010.06.03 20:04:27.
