data_PCOD9138748
_publ_section_title
;
Structure prediction by ZEFSAII (Michael W. Deem and Ramdas Pophale) SiO2 
 PCOD9138748
Probable space group: C C
;
_chemical_formula_sum "Si O2"
_cell_formula_units_Z 28
_cell_length_a 7.228105
_cell_length_b 11.469842
_cell_length_c 14.182191
_cell_angle_alpha 90.000000
_cell_angle_beta 91.254882
_cell_angle_gamma 90.000000
_cell_volume 1175.495705
_symmetry_space_group_name_H-M "C C"
_symmetry_group_IT_number 9
_symmetry_cell_setting 'monoclinic'
loop_
_space_group_symop_operation_xyz
x,y,z
x,-y,1/2+z
1/2+x,1/2+y,z
1/2+x,1/2-y,1/2+z
loop_
_atom_site_type_symbol
_atom_site_label
_atom_site_fract_x
_atom_site_fract_y
_atom_site_fract_z
Si Si1 0.949260 0.810247 0.171470
Si Si2 0.899330 0.391600 0.553489
Si Si3 0.337559 0.736071 0.232688
Si Si4 0.204165 0.570310 0.913833
Si Si5 0.700834 0.697322 0.315255
Si Si6 0.473093 0.556600 0.082357
Si Si7 0.970566 0.501138 0.253955
O O1 0.764049 0.767930 0.221120
O O2 0.942750 0.744181 0.071567
O O3 0.973300 0.945848 0.152620
O O4 0.984389 0.546913 0.147435
O O5 0.384716 0.333206 0.636640
O O6 0.006645 0.433599 0.464010
O O7 0.116607 0.246108 0.734780
O O8 0.480903 0.677705 0.308143
O O9 0.182293 0.083717 0.053968
O O10 0.400453 0.870129 0.241229
O O11 0.248653 0.706730 0.893985
O O12 0.160280 0.503872 0.815957
O O13 0.354260 0.526470 0.988842
O O14 0.819196 0.580558 0.306628
#
# Coordination Sequence:
#
# PCOD9138748 Si02
#       7
#     4   4   4   4   4   4   4
#     4  11  23  41  74  99 135 192 237 292 367 428
#     4  11  24  47  69 105 143 191 244 297 361 433
#     4  11  20  41  74  99 134 189 236 296 361 425
#     4  11  27  41  72 109 148 192 243 305 364 422
#     4  10  24  45  67 107 143 186 247 298 354 439
#     4  12  25  43  72 110 140 190 246 297 361 438
#     4  10  23  46  72 105 147 190 241 303 350 437
#
# _framework density 23.819738999999998
#
# number of rings (size 3 to 8) (size 9 to 14) (size 15 to 20)
#    0.000    1.143    5.714    0.000    4.000    5.714 
#    0.000    8.571    0.000    0.000    0.000    0.000 
#    0.000    0.000    0.000    0.000    0.000    0.000 
#
# Total GULP energy -78192.188956 kJ/mol
# GULP energy per Si atom -5585.156354 kJ/mol
# Density = 2.376552 g / cm^3
# Si number density = 23.819739 Si / 1000 Ang^3
#
#
#
# Elastic Constant Matrix: (Units=GPa)
#
#
# Indices 1 2 3 4 5 6 
#
# 1 119.0182 44.1345 20.1955 0.0000 12.1795 0.0000
# 2 44.1345 116.6424 20.4100 0.0000 13.3261 0.0000
# 3 20.1955 20.4100 67.2042 0.0000 10.4639 0.0000
# 4 0.0000 0.0000 0.0000 28.4761 0.0000 14.2441
# 5 12.1795 13.3261 10.4639 0.0000 31.8368 0.0000
# 6 0.0000 0.0000 0.0000 14.2441 0.0000 25.5422
#
#
#
# Elastic Compliance Matrix: (Units=1/GPa)
#
#
# Indices 1 2 3 4 5 6 
#
# 1 0.010119 -0.003306 -0.001739 0.000000 -0.001916 0.000000
# 2 -0.003306 0.010423 -0.001781 0.000000 -0.002513 0.000000
# 3 -0.001739 -0.001781 0.016572 0.000000 -0.004036 0.000000
# 4 0.000000 0.000000 0.000000 0.048703 0.000000 -0.027160
# 5 -0.001916 -0.002513 -0.004036 0.000000 0.034522 0.000000
# 6 0.000000 0.000000 0.000000 -0.027160 0.000000 0.054297
#
#
# Mechanical properties :
#
#
# Convention : Reuss Voigt Hill
#
# Bulk Modulus (GPa) = 42.61957 52.48276 47.55117
# Shear Modulus (GPa) = 25.49638 31.71269 28.60453
#
# Velocity S-wave (km/s) = 3.27523 3.65274 3.46912
# Velocity P-wave (km/s) = 5.67752 6.31436 6.00439
#
# Compressibility (1/GPa) = 0.02346340
#
# Stress axis : x y z
#
# Youngs Moduli (GPa) = 98.82442 95.94488 60.34369
#
# Poissons Ratio (x) = 0.31716 0.10491
# Poissons Ratio (y) = 0.32668 0.10746
# Poissons Ratio (z) = 0.17181 0.17086
#
# Static dielectric constant tensor:
#      x y z
#    x 1.911570 0.000000 0.019520 
#    y 0.000000 1.951180 0.000000 
#    z 0.019520 0.000000 1.917040 
# 
# From -- ./inp_files/29102.got.cif
#   From: 2010.05.17/outbox.cif.g08.bks.cpg/sg9_15_cif.got.tgz:29102.got - 2010.06.03 20:04:27.
