data_PCOD9138496
_publ_section_title
;
Structure prediction by ZEFSAII (Michael W. Deem and Ramdas Pophale) SiO2 
 PCOD9138496
Probable space group: C C
;
_chemical_formula_sum "Si O2"
_cell_formula_units_Z 32
_cell_length_a 22.184717
_cell_length_b 10.708502
_cell_length_c 7.693601
_cell_angle_alpha 90.000000
_cell_angle_beta 137.759400
_cell_angle_gamma 90.000000
_cell_volume 1228.683670
_symmetry_space_group_name_H-M "C C"
_symmetry_group_IT_number 9
_symmetry_cell_setting 'monoclinic'
loop_
_space_group_symop_operation_xyz
x,y,z
x,-y,1/2+z
1/2+x,1/2+y,z
1/2+x,1/2-y,1/2+z
loop_
_atom_site_type_symbol
_atom_site_label
_atom_site_fract_x
_atom_site_fract_y
_atom_site_fract_z
Si Si1 0.601030 0.358170 0.094200
Si Si2 0.179717 0.682683 0.020606
Si Si3 0.859467 0.887954 0.757398
Si Si4 0.915533 0.850236 0.493521
Si Si5 0.710070 0.402864 0.816038
Si Si6 0.834033 0.397329 0.768833
Si Si7 0.008595 0.704040 0.158001
Si Si8 0.519609 0.970289 0.342510
O O1 0.681815 0.272906 0.194533
O O2 0.628239 0.500534 0.137302
O O3 0.572287 0.313495 0.223273
O O4 0.516032 0.332227 0.784623
O O5 0.265653 0.601418 0.154730
O O6 0.181868 0.786057 0.872190
O O7 0.098366 0.591308 0.896004
O O8 0.857950 0.859207 0.549327
O O9 0.913237 0.772231 0.956970
O O10 0.910222 0.018981 0.884974
O O11 0.876304 0.735228 0.299462
O O12 0.753219 0.365697 0.726910
O O13 0.790227 0.490678 0.066014
O O14 0.921144 0.452646 0.052011
O O15 0.033245 0.619927 0.374820
O O16 0.016388 0.604463 0.015886
#
# Coordination Sequence:
#
# PCOD9138496 Si02
#       8
#     4   4   4   4   4   4   4   4
#     4  10  24  45  66 100 135 176 231 287 331 415
#     4  11  22  42  65  96 136 173 223 287 333 396
#     4  11  24  46  67  96 140 177 226 286 343 412
#     4  11  25  46  69  98 140 180 229 281 350 410
#     4  12  25  42  75  97 139 181 235 282 346 404
#     4  12  23  44  70 104 133 183 232 282 340 420
#     4  10  23  44  66  95 136 176 225 279 345 404
#     4  11  22  43  68  94 139 174 221 284 340 401
#
# _framework density 26.044132000000001
#
# number of rings (size 3 to 8) (size 9 to 14) (size 15 to 20)
#    0.000    1.000    6.250    1.500    3.500    4.000 
#    6.750    0.000    0.000    0.000    0.000    0.000 
#    0.000    0.000    0.000    0.000    0.000    0.000 
#
# Total GULP energy -89526.705166 kJ/mol
# GULP energy per Si atom -5595.419073 kJ/mol
# Density = 2.598485 g / cm^3
# Si number density = 26.044132 Si / 1000 Ang^3
#
#
#
# Elastic Constant Matrix: (Units=GPa)
#
#
# Indices 1 2 3 4 5 6 
#
# 1 128.8302 7.8564 20.4247 0.0000 23.4216 0.0000
# 2 7.8564 144.1398 35.0148 0.0000 5.4718 0.0000
# 3 20.4247 35.0148 79.2736 0.0000 21.4823 0.0000
# 4 0.0000 0.0000 0.0000 49.2360 0.0000 0.5548
# 5 23.4216 5.4718 21.4823 0.0000 34.5528 0.0000
# 6 0.0000 0.0000 0.0000 0.5548 0.0000 33.6214
#
#
#
# Elastic Compliance Matrix: (Units=1/GPa)
#
#
# Indices 1 2 3 4 5 6 
#
# 1 0.008895 -0.000093 -0.000747 0.000000 -0.005551 0.000000
# 2 -0.000093 0.007807 -0.003736 0.000000 0.001149 0.000000
# 3 -0.000747 -0.003736 0.017028 0.000000 -0.009489 0.000000
# 4 0.000000 0.000000 0.000000 0.020314 0.000000 -0.000335
# 5 -0.005551 0.001149 -0.009489 0.000000 0.038422 0.000000
# 6 0.000000 0.000000 0.000000 -0.000335 0.000000 0.029749
#
#
# Mechanical properties :
#
#
# Convention : Reuss Voigt Hill
#
# Bulk Modulus (GPa) = 40.68321 53.20395 46.94358
# Shear Modulus (GPa) = 35.82735 42.74520 39.28627
#
# Velocity S-wave (km/s) = 3.71299 4.05564 3.88809
# Velocity P-wave (km/s) = 5.83408 6.51181 6.18224
#
# Compressibility (1/GPa) = 0.02458016
#
# Stress axis : x y z
#
# Youngs Moduli (GPa) = 112.41851 128.09642 58.72530
#
# Poissons Ratio (x) = 0.01188 0.04385
# Poissons Ratio (y) = 0.01042 0.21938
# Poissons Ratio (z) = 0.08394 0.47853
#
# Static dielectric constant tensor:
#      x y z
#    x 2.034610 0.000000 -0.042250 
#    y 0.000000 2.029310 0.000000 
#    z -0.042250 0.000000 2.114630 
# 
# From -- ./inp_files/12202.got.cif
#   From: 2010.05.17/outbox.cif.g08.bks.cpg/sg9_7_cif.got.tgz:12202.got - 2010.06.03 20:04:27.
