data_PCOD9138135
_publ_section_title
;
Structure prediction by ZEFSAII (Michael W. Deem and Ramdas Pophale) SiO2 
 PCOD9138135
Probable space group: C C
;
_chemical_formula_sum "Si O2"
_cell_formula_units_Z 28
_cell_length_a 4.874565
_cell_length_b 19.074309
_cell_length_c 12.035972
_cell_angle_alpha 90.000000
_cell_angle_beta 86.992185
_cell_angle_gamma 90.000000
_cell_volume 1117.550472
_symmetry_space_group_name_H-M "C C"
_symmetry_group_IT_number 9
_symmetry_cell_setting 'monoclinic'
loop_
_space_group_symop_operation_xyz
x,y,z
x,-y,1/2+z
1/2+x,1/2+y,z
1/2+x,1/2-y,1/2+z
loop_
_atom_site_type_symbol
_atom_site_label
_atom_site_fract_x
_atom_site_fract_y
_atom_site_fract_z
Si Si1 0.323100 0.930570 0.607300
Si Si2 0.385000 0.710751 0.978615
Si Si3 0.370015 0.706211 0.431102
Si Si4 0.810335 0.006442 0.705371
Si Si5 0.540122 0.908777 0.376204
Si Si6 0.114440 0.702141 0.208409
Si Si7 0.282518 0.657091 0.674479
O O1 0.556361 0.987733 0.631393
O O2 0.313452 0.925573 0.473535
O O3 0.428891 0.858858 0.660741
O O4 0.043432 0.951475 0.673020
O O5 0.699075 0.721115 0.941893
O O6 0.258817 0.638913 0.937944
O O7 0.188142 0.773491 0.935971
O O8 0.346081 0.715765 0.111001
O O9 0.260334 0.667577 0.543068
O O10 0.263845 0.677929 0.317144
O O11 0.674260 0.018610 0.829014
O O12 0.940687 0.083217 0.681848
O O13 0.524418 0.863054 0.260683
O O14 0.937312 0.774093 0.216900
#
# Coordination Sequence:
#
# PCOD9138135 Si02
#       7
#     4   4   4   4   4   4   4
#     4  11  25  46  71 104 140 189 232 301 361 422
#     4  10  23  38  66 104 140 183 224 289 363 409
#     4  11  22  39  66 105 142 174 237 297 338 412
#     4  10  25  45  70 101 140 191 237 284 360 432
#     4   9  22  46  72  98 145 187 235 285 369 428
#     4  10  23  42  73 105 142 180 239 296 349 422
#     4   9  22  46  72 103 139 194 232 290 358 429
#
# _framework density 25.054796
#
# number of rings (size 3 to 8) (size 9 to 14) (size 15 to 20)
#    0.857    1.143    1.429    0.000    2.000   14.857 
#    0.000    1.429    0.000    0.000    0.000    0.000 
#    0.000    0.000    0.000    0.000    0.000    0.000 
#
# Total GULP energy -78169.233037 kJ/mol
# GULP energy per Si atom -5583.516645 kJ/mol
# Density = 2.499777 g / cm^3
# Si number density = 25.054796 Si / 1000 Ang^3
#
#
#
# Elastic Constant Matrix: (Units=GPa)
#
#
# Indices 1 2 3 4 5 6 
#
# 1 87.3446 21.0965 45.1162 0.0000 -0.4099 0.0000
# 2 21.0965 87.4786 44.4062 0.0000 -14.7107 0.0000
# 3 45.1162 44.4062 183.7285 0.0000 -4.4149 0.0000
# 4 0.0000 0.0000 0.0000 46.2461 0.0000 -5.9319
# 5 -0.4099 -14.7107 -4.4149 0.0000 24.5631 0.0000
# 6 0.0000 0.0000 0.0000 -5.9319 0.0000 24.5670
#
#
#
# Elastic Compliance Matrix: (Units=1/GPa)
#
#
# Indices 1 2 3 4 5 6 
#
# 1 0.013399 -0.002048 -0.002832 0.000000 -0.001512 0.000000
# 2 -0.002048 0.014778 -0.002869 0.000000 0.008300 0.000000
# 3 -0.002832 -0.002869 0.006819 0.000000 -0.000540 0.000000
# 4 0.000000 0.000000 0.000000 0.022315 0.000000 0.005388
# 5 -0.001512 0.008300 -0.000540 0.000000 0.045560 0.000000
# 6 0.000000 0.000000 0.000000 0.005388 0.000000 0.042006
#
#
# Mechanical properties :
#
#
# Convention : Reuss Voigt Hill
#
# Bulk Modulus (GPa) = 51.28930 64.42106 57.85518
# Shear Modulus (GPa) = 29.96285 35.60410 32.78348
#
# Velocity S-wave (km/s) = 3.46192 3.77377 3.62120
# Velocity P-wave (km/s) = 6.04112 6.69002 6.37383
#
# Compressibility (1/GPa) = 0.01949725
#
# Stress axis : x y z
#
# Youngs Moduli (GPa) = 74.63182 67.66986 146.65696
#
# Poissons Ratio (x) = 0.13861 0.41527
# Poissons Ratio (y) = 0.15286 0.42080
# Poissons Ratio (z) = 0.21132 0.19416
#
# Static dielectric constant tensor:
#      x y z
#    x 1.957150 0.000000 -0.007780 
#    y 0.000000 2.020750 0.000000 
#    z -0.007780 0.000000 2.051110 
# 
# From -- ./inp_files/13335.got.cif
#   From: 2010.05.17/outbox.cif.g08.bks.cpg/sg9_7_cif.got.tgz:13335.got - 2010.06.03 20:04:27.
