data_PCOD9138580
_publ_section_title
;
Structure prediction by ZEFSAII (Michael W. Deem and Ramdas Pophale) SiO2 
 PCOD9138580
Probable space group: C C
;
_chemical_formula_sum "Si O2"
_cell_formula_units_Z 28
_cell_length_a 20.728802
_cell_length_b 5.199932
_cell_length_c 22.435833
_cell_angle_alpha 90.000000
_cell_angle_beta 154.665825
_cell_angle_gamma 90.000000
_cell_volume 1034.792686
_symmetry_space_group_name_H-M "C C"
_symmetry_group_IT_number 9
_symmetry_cell_setting 'monoclinic'
loop_
_space_group_symop_operation_xyz
x,y,z
x,-y,1/2+z
1/2+x,1/2+y,z
1/2+x,1/2-y,1/2+z
loop_
_atom_site_type_symbol
_atom_site_label
_atom_site_fract_x
_atom_site_fract_y
_atom_site_fract_z
Si Si1 0.620940 0.086935 0.091130
Si Si2 0.408385 0.165278 0.131421
Si Si3 0.976763 0.638335 0.365138
Si Si4 0.661638 0.043580 0.912391
Si Si5 0.795699 0.616978 0.429904
Si Si6 0.593821 0.594884 0.146788
Si Si7 0.224185 0.952032 0.082778
O O1 0.589895 0.343370 0.102564
O O2 0.727424 0.202215 0.127414
O O3 0.656064 0.852498 0.164957
O O4 0.481220 0.984395 0.934140
O O5 0.571160 0.166111 0.296758
O O6 0.312012 0.967066 0.093344
O O7 0.322235 0.431038 0.064100
O O8 0.394751 0.081758 0.051677
O O9 0.067123 0.448727 0.394347
O O10 0.064190 0.907780 0.440822
O O11 0.817430 0.655398 0.201022
O O12 0.677560 0.268494 0.878766
O O13 0.698852 0.540878 0.291765
O O14 0.921547 0.829112 0.518408
#
# Coordination Sequence:
#
# PCOD9138580 Si02
#       7
#     4   4   4   4   4   4   4
#     4  12  27  50  70 114 142 202 241 312 356 448
#     4  10  23  44  75 109 144 192 243 314 376 440
#     4  10  23  46  78 112 148 194 246 316 378 442
#     4  10  23  44  75 109 146 188 247 311 379 437
#     4  12  27  48  66 110 142 204 243 313 354 454
#     4  12  32  44  80 100 156 196 260 289 373 431
#     4  10  23  46  78 112 150 190 250 313 380 440
#
# _framework density 27.058561000000001
#
# number of rings (size 3 to 8) (size 9 to 14) (size 15 to 20)
#    0.000    1.143    2.857    0.857   10.000    1.143 
#    0.000    0.000    0.000    0.000    0.000    0.000 
#    0.000    0.000    0.000    0.000    0.000    0.000 
#
# Total GULP energy -78367.895805 kJ/mol
# GULP energy per Si atom -5597.706843 kJ/mol
# Density = 2.699697 g / cm^3
# Si number density = 27.058561 Si / 1000 Ang^3
#
#
#
# Elastic Constant Matrix: (Units=GPa)
#
#
# Indices 1 2 3 4 5 6 
#
# 1 98.8466 59.5374 30.9087 0.0000 -35.9283 0.0003
# 2 59.5374 155.4965 18.8056 -0.0001 -21.8871 0.0047
# 3 30.9087 18.8056 152.1168 0.0004 -37.4265 0.0004
# 4 0.0000 -0.0001 0.0004 31.9465 -0.0001 -16.1914
# 5 -35.9283 -21.8871 -37.4265 -0.0001 50.5255 -0.0001
# 6 0.0003 0.0047 0.0004 -16.1914 -0.0001 39.3144
#
#
#
# Elastic Compliance Matrix: (Units=1/GPa)
#
#
# Indices 1 2 3 4 5 6 
#
# 1 0.016679 -0.005015 -0.000471 0.000000 0.009339 0.000001
# 2 -0.005015 0.008359 -0.000001 -0.000001 0.000054 -0.000001
# 3 -0.000471 -0.000001 0.008055 0.000000 0.005631 0.000000
# 4 0.000000 -0.000001 0.000000 0.039560 0.000000 0.016293
# 5 0.009339 0.000054 0.005631 0.000000 0.030628 0.000000
# 6 0.000001 -0.000001 0.000000 0.016293 0.000000 0.032146
#
#
# Mechanical properties :
#
#
# Convention : Reuss Voigt Hill
#
# Bulk Modulus (GPa) = 45.21017 69.44037 57.32527
# Shear Modulus (GPa) = 32.51532 44.17116 38.34324
#
# Velocity S-wave (km/s) = 3.47026 4.04472 3.76845
# Velocity P-wave (km/s) = 5.72726 6.89432 6.33771
#
# Compressibility (1/GPa) = 0.02211892
#
# Stress axis : x y z
#
# Youngs Moduli (GPa) = 59.95587 119.63419 124.14167
#
# Poissons Ratio (x) = 0.59992 0.05852
# Poissons Ratio (y) = 0.30066 0.00013
# Poissons Ratio (z) = 0.02826 0.00013
#
# Static dielectric constant tensor:
#      x y z
#    x 2.163150 0.000000 0.058350 
#    y 0.000000 2.173060 0.000000 
#    z 0.058350 0.000000 2.091970 
# 
# From -- ./inp_files/19561.got.cif
#   From: 2010.05.17/outbox.cif.g08.bks.cpg/sg9_10_cif.got.tgz:19561.got - 2010.06.03 20:04:27.
