data_PCOD9138293
_publ_section_title
;
Structure prediction by ZEFSAII (Michael W. Deem and Ramdas Pophale) SiO2 
 PCOD9138293
Probable space group: C C
;
_chemical_formula_sum "Si O2"
_cell_formula_units_Z 32
_cell_length_a 23.656368
_cell_length_b 6.017230
_cell_length_c 19.087000
_cell_angle_alpha 90.000000
_cell_angle_beta 30.764318
_cell_angle_gamma 90.000000
_cell_volume 1389.743468
_symmetry_space_group_name_H-M "C C"
_symmetry_group_IT_number 9
_symmetry_cell_setting 'monoclinic'
loop_
_space_group_symop_operation_xyz
x,y,z
x,-y,1/2+z
1/2+x,1/2+y,z
1/2+x,1/2-y,1/2+z
loop_
_atom_site_type_symbol
_atom_site_label
_atom_site_fract_x
_atom_site_fract_y
_atom_site_fract_z
Si Si1 0.472070 0.857554 0.540010
Si Si2 0.234941 0.472295 0.977679
Si Si3 0.813691 0.023722 0.158051
Si Si4 0.610391 0.697112 0.518837
Si Si5 0.437396 0.104214 0.441986
Si Si6 0.289694 0.730176 0.550505
Si Si7 0.796340 0.338705 0.293859
Si Si8 0.942867 0.101258 0.813461
O O1 0.381206 0.663084 0.627635
O O2 0.566045 0.764435 0.489943
O O3 0.496179 0.943420 0.435479
O O4 0.410995 0.055956 0.646575
O O5 0.143810 0.584579 0.027218
O O6 0.206475 0.321780 0.075657
O O7 0.305230 0.312878 0.852328
O O8 0.319867 0.661610 0.915197
O O9 0.751550 0.181743 0.278590
O O10 0.899194 0.185690 0.028023
O O11 0.753642 0.900477 0.158375
O O12 0.712856 0.535683 0.398937
O O13 0.521634 0.576812 0.663510
O O14 0.327124 0.973251 0.533607
O O15 0.489311 0.214092 0.317590
O O16 0.404449 0.617710 0.397794
#
# Coordination Sequence:
#
# PCOD9138293 Si02
#       8
#     4   4   4   4   4   4   4   4
#     4  10  23  42  67  92 125 166 215 260 320 383
#     4  10  24  39  62  93 126 164 210 256 321 380
#     4   9  18  40  64  90 116 166 212 257 308 372
#     4  12  24  38  59  99 133 164 209 264 319 387
#     4   9  18  39  72  85 116 172 209 263 314 363
#     4   8  19  37  63  89 118 164 213 251 309 375
#     4  11  23  38  63  92 129 170 206 261 327 373
#     4   9  21  39  64  90 129 164 214 258 316 383
#
# _framework density 23.025831
#
# number of rings (size 3 to 8) (size 9 to 14) (size 15 to 20)
#    0.750    1.500    0.000    2.250    3.500    4.000 
#    0.000    8.750    0.000    0.000    0.000    0.000 
#    0.000    0.000    0.000    0.000    0.000    0.000 
#
# Total GULP energy -89201.039497 kJ/mol
# GULP energy per Si atom -5575.064969 kJ/mol
# Density = 2.297342 g / cm^3
# Si number density = 23.025831 Si / 1000 Ang^3
#
#
#
# Elastic Constant Matrix: (Units=GPa)
#
#
# Indices 1 2 3 4 5 6 
#
# 1 131.4818 25.1551 15.0463 -0.2313 23.0618 0.0575
# 2 25.1551 63.1187 -0.1328 -0.3987 8.9958 0.1141
# 3 15.0463 -0.1328 26.9838 -0.1247 3.8913 0.0473
# 4 -0.2313 -0.3987 -0.1247 -11.1720 0.1661 18.0959
# 5 23.0618 8.9958 3.8913 0.1661 23.1026 -0.0463
# 6 0.0575 0.1141 0.0473 18.0959 -0.0463 33.0276
#
#
#
# Elastic Compliance Matrix: (Units=1/GPa)
#
#
# Indices 1 2 3 4 5 6 
#
# 1 0.010106 -0.002866 -0.004465 -0.000106 -0.008220 0.000045
# 2 -0.002866 0.017612 0.002315 -0.000406 -0.004383 0.000157
# 3 -0.004465 0.002315 0.040018 -0.000310 -0.003183 0.000108
# 4 -0.000106 -0.000406 -0.000310 -0.047404 0.000709 0.025976
# 5 -0.008220 -0.004383 -0.003183 0.000709 0.053727 -0.000279
# 6 0.000045 0.000157 0.000108 0.025976 -0.000279 0.016044
#
#
# Mechanical properties :
#
#
# Convention : Reuss Voigt Hill
#
# Bulk Modulus (GPa) = 17.32989 33.52461 25.42725
# Shear Modulus (GPa) = 41.88635 21.09270 31.48953
#
# Velocity S-wave (km/s) = 4.26972 3.02991 3.70208
# Velocity P-wave (km/s) = 5.64358 5.17993 5.41671
#
# Compressibility (1/GPa) = 0.05770378
#
# Stress axis : x y z
#
# Youngs Moduli (GPa) = 98.94667 56.77857 24.98906
#
# Poissons Ratio (x) = 0.16275 0.11157
# Poissons Ratio (y) = 0.28363 -0.05785
# Poissons Ratio (z) = 0.44177 -0.13144
#
# Static dielectric constant tensor:
#      x y z
#    x 1.898370 -0.000020 0.009160 
#    y -0.000020 1.840060 0.000040 
#    z 0.009160 0.000040 1.844300 
# 
# From -- ./inp_files/34474.got.cif
#   From: 2010.05.17/outbox.cif.g08.bks.cpg/sg9_18_cif.got.tgz:34474.got - 2010.06.03 20:04:27.
