data_PCOD9138557
_publ_section_title
;
Structure prediction by ZEFSAII (Michael W. Deem and Ramdas Pophale) SiO2 
 PCOD9138557
Probable space group: C C
;
_chemical_formula_sum "Si O2"
_cell_formula_units_Z 32
_cell_length_a 5.255454
_cell_length_b 13.410537
_cell_length_c 18.311144
_cell_angle_alpha 90.000000
_cell_angle_beta 69.884146
_cell_angle_gamma 90.000000
_cell_volume 1211.817090
_symmetry_space_group_name_H-M "C C"
_symmetry_group_IT_number 9
_symmetry_cell_setting 'monoclinic'
loop_
_space_group_symop_operation_xyz
x,y,z
x,-y,1/2+z
1/2+x,1/2+y,z
1/2+x,1/2-y,1/2+z
loop_
_atom_site_type_symbol
_atom_site_label
_atom_site_fract_x
_atom_site_fract_y
_atom_site_fract_z
Si Si1 0.627790 0.500151 0.868000
Si Si2 0.628875 0.854012 0.943456
Si Si3 0.611430 0.919814 0.791313
Si Si4 0.977804 0.425772 0.114766
Si Si5 0.789868 0.862004 0.334734
Si Si6 0.928171 0.817478 0.170025
Si Si7 0.285819 0.371170 0.625280
Si Si8 0.284338 0.863881 0.476998
O O1 0.395939 0.421638 0.907778
O O2 0.576417 0.609722 0.839664
O O3 0.729200 0.535257 0.937144
O O4 0.818243 0.448717 0.789635
O O5 0.525715 0.857215 0.870551
O O6 0.673421 0.740517 0.958430
O O7 0.488176 0.902148 0.027329
O O8 0.791646 0.872133 0.712652
O O9 0.710844 0.028893 0.807814
O O10 0.189016 0.354513 0.139750
O O11 0.114207 0.533538 0.114464
O O12 0.662792 0.401139 0.162725
O O13 0.801010 0.793049 0.262884
O O14 0.601872 0.847983 0.424895
O O15 0.107223 0.725752 0.121959
O O16 0.593631 0.375573 0.566429
#
# Coordination Sequence:
#
# PCOD9138557 Si02
#       8
#     4   4   4   4   4   4   4   4
#     4  10  23  44  72 103 147 206 255 321 396 466
#     4  11  25  45  73 110 154 206 258 326 391 481
#     4  10  24  48  75 107 153 206 260 325 399 468
#     4  12  28  53  79 117 169 201 269 336 391 481
#     4  10  24  47  74 111 157 204 261 326 392 482
#     4  12  29  50  82 118 160 212 264 332 402 472
#     4  12  26  51  80 120 161 210 267 337 403 466
#     4  11  25  46  71 110 151 207 262 321 396 478
#
# _framework density 26.406625999999999
#
# number of rings (size 3 to 8) (size 9 to 14) (size 15 to 20)
#    0.000    1.000    3.750    0.750    7.000    3.000 
#    4.500    0.000    0.000    0.000    0.000    0.000 
#    0.000    0.000    0.000    0.000    0.000    0.000 
#
# Total GULP energy -89250.074082 kJ/mol
# GULP energy per Si atom -5578.129630 kJ/mol
# Density = 2.634652 g / cm^3
# Si number density = 26.406626 Si / 1000 Ang^3
#
#
#
# Elastic Constant Matrix: (Units=GPa)
#
#
# Indices 1 2 3 4 5 6 
#
# 1 68.1031 3.7035 46.2491 0.0000 2.4724 0.0000
# 2 3.7035 88.9452 22.7604 0.0000 5.2116 0.0000
# 3 46.2491 22.7604 194.4261 0.0000 -17.2532 0.0000
# 4 0.0000 0.0000 0.0000 38.8220 0.0000 -4.1719
# 5 2.4724 5.2116 -17.2532 0.0000 36.6305 0.0000
# 6 0.0000 0.0000 0.0000 -4.1719 0.0000 23.5151
#
#
#
# Elastic Compliance Matrix: (Units=1/GPa)
#
#
# Indices 1 2 3 4 5 6 
#
# 1 0.017934 0.000648 -0.004652 0.000000 -0.003494 0.000000
# 2 0.000648 0.011817 -0.001764 0.000000 -0.002556 0.000000
# 3 -0.004652 -0.001764 0.006790 0.000000 0.003763 0.000000
# 4 0.000000 0.000000 0.000000 0.026259 0.000000 0.004659
# 5 -0.003494 -0.002556 0.003763 0.000000 0.029672 0.000000
# 6 0.000000 0.000000 0.000000 0.004659 0.000000 0.043352
#
#
# Mechanical properties :
#
#
# Convention : Reuss Voigt Hill
#
# Bulk Modulus (GPa) = 39.99070 55.21113 47.60092
# Shear Modulus (GPa) = 32.11369 38.37763 35.24566
#
# Velocity S-wave (km/s) = 3.49108 3.81640 3.65736
# Velocity P-wave (km/s) = 5.60600 6.35400 5.99168
#
# Compressibility (1/GPa) = 0.02500582
#
# Stress axis : x y z
#
# Youngs Moduli (GPa) = 55.75860 84.62280 147.26522
#
# Poissons Ratio (x) = -0.05487 0.68509
# Poissons Ratio (y) = -0.03615 0.25984
# Poissons Ratio (z) = 0.25939 0.14931
#
# Static dielectric constant tensor:
#      x y z
#    x 2.431180 0.000000 0.028340 
#    y 0.000000 2.117450 0.000000 
#    z 0.028340 0.000000 2.200600 
# 
# From -- ./inp_files/28683.got.cif
#   From: 2010.05.17/outbox.cif.g08.bks.cpg/sg9_15_cif.got.tgz:28683.got - 2010.06.03 20:04:27.
