data_PCOD9138454
_publ_section_title
;
Structure prediction by ZEFSAII (Michael W. Deem and Ramdas Pophale) SiO2 
 PCOD9138454
Probable space group: C C
;
_chemical_formula_sum "Si O2"
_cell_formula_units_Z 32
_cell_length_a 14.463087
_cell_length_b 9.019163
_cell_length_c 9.779852
_cell_angle_alpha 90.000000
_cell_angle_beta 70.798342
_cell_angle_gamma 90.000000
_cell_volume 1204.759202
_symmetry_space_group_name_H-M "C C"
_symmetry_group_IT_number 9
_symmetry_cell_setting 'monoclinic'
loop_
_space_group_symop_operation_xyz
x,y,z
x,-y,1/2+z
1/2+x,1/2+y,z
1/2+x,1/2-y,1/2+z
loop_
_atom_site_type_symbol
_atom_site_label
_atom_site_fract_x
_atom_site_fract_y
_atom_site_fract_z
Si Si1 0.949670 0.297387 0.449160
Si Si2 0.965427 0.981444 0.748842
Si Si3 0.985148 0.773920 0.513980
Si Si4 0.693655 0.939259 0.759245
Si Si5 0.656341 0.626433 0.724761
Si Si6 0.314054 0.705799 0.762715
Si Si7 0.084079 0.494773 0.060906
Si Si8 0.323059 0.058614 0.467592
O O1 0.889464 0.265440 0.616165
O O2 0.876796 0.406566 0.399686
O O3 0.976048 0.146969 0.357157
O O4 0.038441 0.390807 0.473420
O O5 0.935255 0.903736 0.622246
O O6 0.066159 0.070250 0.673527
O O7 0.878759 0.094035 0.825952
O O8 0.081242 0.841012 0.389649
O O9 0.026265 0.656596 0.603972
O O10 0.913038 0.664473 0.468700
O O11 0.724573 0.774852 0.701485
O O12 0.600675 0.939060 0.700517
O O13 0.742738 0.097764 0.713852
O O14 0.679012 0.944640 0.929267
O O15 0.743700 0.522723 0.623964
O O16 0.272336 0.840238 0.874601
#
# Coordination Sequence:
#
# PCOD9138454 Si02
#       8
#     4   4   4   4   4   4   4   4
#     4  11  28  45  79 111 160 214 272 332 413 484
#     4  12  25  46  77 112 158 211 271 332 410 478
#     4  10  23  45  75 107 154 203 264 339 394 471
#     4  11  24  43  73 108 152 200 267 336 399 482
#     4  11  24  45  74 111 152 203 270 332 405 479
#     4  12  27  46  76 111 161 212 269 330 415 480
#     4  10  23  43  72 103 148 203 261 324 408 467
#     4  11  26  49  76 117 159 212 272 337 408 483
#
# _framework density 26.561323999999999
#
# number of rings (size 3 to 8) (size 9 to 14) (size 15 to 20)
#    0.000    1.000    1.250    3.750   10.500    3.000 
#    2.250    0.000    0.000    0.000    0.000    0.000 
#    0.000    0.000    0.000    0.000    0.000    0.000 
#
# Total GULP energy -89108.200485 kJ/mol
# GULP energy per Si atom -5569.262530 kJ/mol
# Density = 2.650087 g / cm^3
# Si number density = 26.561324 Si / 1000 Ang^3
#
#
#
# Elastic Constant Matrix: (Units=GPa)
#
#
# Indices 1 2 3 4 5 6 
#
# 1 68.4996 31.2364 22.6347 0.0000 -6.4860 0.0000
# 2 31.2364 81.9635 10.0845 0.0000 6.9270 0.0000
# 3 22.6347 10.0845 79.7875 0.0000 -0.1679 0.0000
# 4 0.0000 0.0000 0.0000 48.3140 0.0000 6.5592
# 5 -6.4860 6.9270 -0.1679 0.0000 33.1146 0.0000
# 6 0.0000 0.0000 0.0000 6.5592 0.0000 48.8626
#
#
#
# Elastic Compliance Matrix: (Units=1/GPa)
#
#
# Indices 1 2 3 4 5 6 
#
# 1 0.020131 -0.007553 -0.004745 0.000000 0.005499 0.000000
# 2 -0.007553 0.015455 0.000179 0.000000 -0.004711 0.000000
# 3 -0.004745 0.000179 0.013855 0.000000 -0.000897 0.000000
# 4 0.000000 0.000000 0.000000 0.021082 0.000000 -0.002830
# 5 0.005499 -0.004711 -0.000897 0.000000 0.032256 0.000000
# 6 0.000000 0.000000 0.000000 -0.002830 0.000000 0.020845
#
#
# Mechanical properties :
#
#
# Convention : Reuss Voigt Hill
#
# Bulk Modulus (GPa) = 39.67567 39.79576 39.73571
# Shear Modulus (GPa) = 31.99723 37.14457 34.57090
#
# Velocity S-wave (km/s) = 3.47458 3.74364 3.61161
# Velocity P-wave (km/s) = 5.57376 5.80530 5.69071
#
# Compressibility (1/GPa) = 0.02520436
#
# Stress axis : x y z
#
# Youngs Moduli (GPa) = 49.67366 64.70342 72.17733
#
# Poissons Ratio (x) = 0.48871 0.34247
# Poissons Ratio (y) = 0.37519 -0.01295
# Poissons Ratio (z) = 0.23569 -0.01161
#
# Static dielectric constant tensor:
#      x y z
#    x 2.205980 0.000000 -0.012100 
#    y 0.000000 2.158380 0.000000 
#    z -0.012100 0.000000 2.024880 
# 
# From -- ./inp_files/17906.got.cif
#   From: 2010.05.17/outbox.cif.g08.bks.cpg/sg9_9_cif.got.tgz:17906.got - 2010.06.03 20:04:27.
