data_PCOD9138323
_publ_section_title
;
Structure prediction by ZEFSAII (Michael W. Deem and Ramdas Pophale) SiO2 
 PCOD9138323
Probable space group: C C
;
_chemical_formula_sum "Si O2"
_cell_formula_units_Z 28
_cell_length_a 27.571806
_cell_length_b 5.180685
_cell_length_c 19.540167
_cell_angle_alpha 90.000000
_cell_angle_beta 155.849312
_cell_angle_gamma 90.000000
_cell_volume 1141.958551
_symmetry_space_group_name_H-M "C C"
_symmetry_group_IT_number 9
_symmetry_cell_setting 'monoclinic'
loop_
_space_group_symop_operation_xyz
x,y,z
x,-y,1/2+z
1/2+x,1/2+y,z
1/2+x,1/2-y,1/2+z
loop_
_atom_site_type_symbol
_atom_site_label
_atom_site_fract_x
_atom_site_fract_y
_atom_site_fract_z
Si Si1 0.877470 0.829345 0.065060
Si Si2 0.201895 0.986052 0.917751
Si Si3 0.644121 0.236777 0.065111
Si Si4 0.462198 0.644334 0.052694
Si Si5 0.374337 0.147979 0.926280
Si Si6 0.202969 0.238604 0.054412
Si Si7 0.391865 0.574441 0.223192
O O1 0.758698 0.691399 0.939193
O O2 0.920827 0.621531 0.064745
O O3 0.932423 0.919347 0.207207
O O4 0.885085 0.070565 0.021996
O O5 0.300699 0.793524 0.077175
O O6 0.148475 0.157853 0.910592
O O7 0.097368 0.824918 0.748567
O O8 0.698306 0.466208 0.087391
O O9 0.738890 0.257916 0.248317
O O10 0.647850 0.964060 0.030329
O O11 0.508635 0.301908 0.905213
O O12 0.450268 0.380518 0.994408
O O13 0.403225 0.871391 0.934945
O O14 0.324771 0.374217 0.185653
#
# Coordination Sequence:
#
# PCOD9138323 Si02
#       7
#     4   4   4   4   4   4   4
#     4   9  23  40  67 100 131 173 231 283 345 400
#     4  11  23  42  70 106 133 175 242 291 349 404
#     4  12  26  47  70  99 151 185 229 291 351 429
#     4  10  23  42  69  96 134 176 228 284 342 410
#     4  10  24  47  65  98 137 190 222 277 362 413
#     4  11  26  43  70 104 135 186 233 287 352 413
#     4  11  25  43  73 107 135 183 237 293 349 411
#
# _framework density 24.519279000000001
#
# number of rings (size 3 to 8) (size 9 to 14) (size 15 to 20)
#    0.857    0.571    1.429    2.571   10.000    0.000 
#    5.143    0.000    0.000    0.000    0.000    0.000 
#    0.000    0.000    0.000    0.000    0.000    0.000 
#
# Total GULP energy -78005.496787 kJ/mol
# GULP energy per Si atom -5571.821199 kJ/mol
# Density = 2.446347 g / cm^3
# Si number density = 24.519279 Si / 1000 Ang^3
#
#
#
# Elastic Constant Matrix: (Units=GPa)
#
#
# Indices 1 2 3 4 5 6 
#
# 1 64.3486 6.8517 1.1758 0.0000 -3.5214 -0.0002
# 2 6.8517 124.8979 11.9696 0.0026 -3.5662 0.0001
# 3 1.1758 11.9696 138.9425 0.0009 6.2636 0.0000
# 4 0.0000 0.0026 0.0009 34.0272 0.0000 2.9359
# 5 -3.5214 -3.5662 6.2636 0.0000 23.7726 -0.0001
# 6 -0.0002 0.0001 0.0000 2.9359 -0.0001 27.6355
#
#
#
# Elastic Compliance Matrix: (Units=1/GPa)
#
#
# Indices 1 2 3 4 5 6 
#
# 1 0.015751 -0.000783 -0.000168 0.000000 0.002260 0.000000
# 2 -0.000783 0.008159 -0.000755 -0.000001 0.001307 0.000000
# 3 -0.000168 -0.000755 0.007357 0.000000 -0.002077 0.000000
# 4 0.000000 -0.000001 0.000000 0.029660 0.000000 -0.003151
# 5 0.002260 0.001307 -0.002077 0.000000 0.043143 0.000000
# 6 0.000000 0.000000 0.000000 -0.003151 0.000000 0.036520
#
#
# Mechanical properties :
#
#
# Convention : Reuss Voigt Hill
#
# Bulk Modulus (GPa) = 35.90096 40.90925 38.40510
# Shear Modulus (GPa) = 32.61840 37.63319 35.12580
#
# Velocity S-wave (km/s) = 3.65131 3.92195 3.78905
# Velocity P-wave (km/s) = 5.69647 6.10162 5.90252
#
# Compressibility (1/GPa) = 0.02785441
#
# Stress axis : x y z
#
# Youngs Moduli (GPa) = 63.49001 122.56087 135.91915
#
# Poissons Ratio (x) = 0.09602 0.02279
# Poissons Ratio (y) = 0.04974 0.10264
# Poissons Ratio (z) = 0.01064 0.09256
#
# Static dielectric constant tensor:
#      x y z
#    x 1.954150 0.000000 -0.024240 
#    y 0.000000 2.028040 0.000000 
#    z -0.024240 0.000000 2.003310 
# 
# From -- ./inp_files/34666.got.cif
#   From: 2010.05.17/outbox.cif.g08.bks.cpg/sg9_18_cif.got.tgz:34666.got - 2010.06.03 20:04:27.
