data_PCOD9138738
_publ_section_title
;
Structure prediction by ZEFSAII (Michael W. Deem and Ramdas Pophale) SiO2 
 PCOD9138738
Probable space group: C C
;
_chemical_formula_sum "Si O2"
_cell_formula_units_Z 28
_cell_length_a 16.600009
_cell_length_b 10.273680
_cell_length_c 9.352652
_cell_angle_alpha 90.000000
_cell_angle_beta 51.290192
_cell_angle_gamma 90.000000
_cell_volume 1244.639972
_symmetry_space_group_name_H-M "C C"
_symmetry_group_IT_number 9
_symmetry_cell_setting 'monoclinic'
loop_
_space_group_symop_operation_xyz
x,y,z
x,-y,1/2+z
1/2+x,1/2+y,z
1/2+x,1/2-y,1/2+z
loop_
_atom_site_type_symbol
_atom_site_label
_atom_site_fract_x
_atom_site_fract_y
_atom_site_fract_z
Si Si1 0.093590 0.419905 0.433030
Si Si2 0.622125 0.458985 0.353565
Si Si3 0.984770 0.628147 0.753447
Si Si4 0.433180 0.583605 0.225607
Si Si5 0.752761 0.464048 0.465594
Si Si6 0.161165 0.763824 0.093900
Si Si7 0.794654 0.051386 0.113810
O O1 0.096523 0.301691 0.541081
O O2 0.211442 0.445044 0.256431
O O3 0.051886 0.545359 0.565912
O O4 0.027965 0.396056 0.363971
O O5 0.525456 0.501166 0.554062
O O6 0.708549 0.407601 0.367960
O O7 0.590548 0.338358 0.288036
O O8 0.676138 0.559919 0.185366
O O9 0.981843 0.780265 0.720182
O O10 0.867394 0.577094 0.872276
O O11 0.349702 0.606119 0.193590
O O12 0.378649 0.513081 0.417206
O O13 0.737685 0.619921 0.460363
O O14 0.229176 0.655921 0.097522
#
# Coordination Sequence:
#
# PCOD9138738 Si02
#       7
#     4   4   4   4   4   4   4
#     4  12  25  48  74 110 144 190 246 291 363 432
#     4  10  23  46  71 104 148 188 236 297 360 423
#     4  12  27  46  77 109 143 194 245 294 365 429
#     4  12  27  45  78 106 147 189 245 298 362 431
#     4  10  24  46  73 107 144 186 244 296 360 418
#     4  10  24  45  76  98 155 185 238 300 358 426
#     4  12  24  48  71 112 143 192 238 302 362 425
#
# _framework density 22.496465000000001
#
# number of rings (size 3 to 8) (size 9 to 14) (size 15 to 20)
#    0.857    0.000    2.857    3.429    2.000    5.714 
#    0.000    0.000    0.000    0.000    0.000    0.000 
#    0.000    0.000    0.000    0.000    0.000    0.000 
#
# Total GULP energy -78314.068159 kJ/mol
# GULP energy per Si atom -5593.862011 kJ/mol
# Density = 2.244526 g / cm^3
# Si number density = 22.496465 Si / 1000 Ang^3
#
#
#
# Elastic Constant Matrix: (Units=GPa)
#
#
# Indices 1 2 3 4 5 6 
#
# 1 135.4515 6.4091 31.1214 0.0000 39.3747 0.0000
# 2 6.4091 58.0353 32.2275 0.0000 12.8856 0.0000
# 3 31.1214 32.2275 129.4934 0.0000 11.3731 0.0000
# 4 0.0000 0.0000 0.0000 29.0480 0.0000 2.5680
# 5 39.3747 12.8856 11.3731 0.0000 47.8002 0.0000
# 6 0.0000 0.0000 0.0000 2.5680 0.0000 40.9491
#
#
#
# Elastic Compliance Matrix: (Units=1/GPa)
#
#
# Indices 1 2 3 4 5 6 
#
# 1 0.010255 0.001973 -0.002213 0.000000 -0.008453 0.000000
# 2 0.001973 0.021276 -0.005232 0.000000 -0.006116 0.000000
# 3 -0.002213 -0.005232 0.009470 0.000000 0.000980 0.000000
# 4 0.000000 0.000000 0.000000 0.034618 0.000000 -0.002171
# 5 -0.008453 -0.006116 0.000980 0.000000 0.029299 0.000000
# 6 0.000000 0.000000 0.000000 -0.002171 0.000000 0.024557
#
#
# Mechanical properties :
#
#
# Convention : Reuss Voigt Hill
#
# Bulk Modulus (GPa) = 33.26963 51.38846 42.32904
# Shear Modulus (GPa) = 33.23615 40.44095 36.83855
#
# Velocity S-wave (km/s) = 3.84786 4.24448 4.05103
# Velocity P-wave (km/s) = 5.87897 6.84933 6.38262
#
# Compressibility (1/GPa) = 0.03005745
#
# Stress axis : x y z
#
# Youngs Moduli (GPa) = 97.51298 47.00033 105.59221
#
# Poissons Ratio (x) = -0.09275 0.23371
# Poissons Ratio (y) = -0.19243 0.55248
# Poissons Ratio (z) = 0.21583 0.24592
#
# Static dielectric constant tensor:
#      x y z
#    x 1.817070 0.000000 0.016060 
#    y 0.000000 1.834460 0.000000 
#    z 0.016060 0.000000 1.850210 
# 
# From -- ./inp_files/9031.got.cif
#   From: 2010.05.17/outbox.cif.g08.bks.cpg/sg9_5_cif.got.tgz:9031.got - 2010.06.03 20:04:27.
