data_PCOD9138727
_publ_section_title
;
Structure prediction by ZEFSAII (Michael W. Deem and Ramdas Pophale) SiO2 
 PCOD9138727
Probable space group: C C
;
_chemical_formula_sum "Si O2"
_cell_formula_units_Z 32
_cell_length_a 6.254751
_cell_length_b 21.147293
_cell_length_c 11.090138
_cell_angle_alpha 90.000000
_cell_angle_beta 108.797080
_cell_angle_gamma 90.000000
_cell_volume 1388.667885
_symmetry_space_group_name_H-M "C C"
_symmetry_group_IT_number 9
_symmetry_cell_setting 'monoclinic'
loop_
_space_group_symop_operation_xyz
x,y,z
x,-y,1/2+z
1/2+x,1/2+y,z
1/2+x,1/2-y,1/2+z
loop_
_atom_site_type_symbol
_atom_site_label
_atom_site_fract_x
_atom_site_fract_y
_atom_site_fract_z
Si Si1 0.332110 0.270998 0.048660
Si Si2 0.467405 0.531475 0.804795
Si Si3 0.866080 0.285379 0.824317
Si Si4 0.762263 0.925717 0.498600
Si Si5 0.969300 0.490112 0.105872
Si Si6 0.184153 0.080684 0.226598
Si Si7 0.675509 0.375741 0.144320
Si Si8 0.010537 0.304719 0.367079
O O1 0.372645 0.251203 0.195656
O O2 0.470372 0.336066 0.049643
O O3 0.413197 0.213278 0.979293
O O4 0.078526 0.279700 0.952755
O O5 0.211400 0.524510 0.711463
O O6 0.620384 0.470264 0.815346
O O7 0.578988 0.585097 0.741669
O O8 0.435981 0.542134 0.939024
O O9 0.816781 0.358065 0.789712
O O10 0.656587 0.254125 0.853044
O O11 0.659446 0.866724 0.411414
O O12 0.932131 0.901898 0.632940
O O13 0.565048 0.973722 0.504110
O O14 0.836557 0.542771 0.158502
O O15 0.820472 0.425666 0.091048
O O16 0.835699 0.322463 0.231236
#
# Coordination Sequence:
#
# PCOD9138727 Si02
#       8
#     4   4   4   4   4   4   4   4
#     4  12  28  48  76 114 153 201 260 313 385 453
#     4  10  23  46  70 107 143 198 245 314 389 447
#     4  12  28  50  76 114 153 203 258 318 375 459
#     4  11  23  43  79 101 143 196 248 309 385 457
#     4  10  23  46  71 107 145 193 248 316 384 450
#     4  10  25  46  68 108 148 185 253 309 376 447
#     4  11  25  48  73 111 149 195 255 316 383 458
#     4  12  27  47  79 104 152 203 251 313 389 451
#
# _framework density 23.043668
#
# number of rings (size 3 to 8) (size 9 to 14) (size 15 to 20)
#    0.000    1.000    2.500    2.250    7.000    2.000 
#   18.000    0.000    0.000    0.000    0.000    0.000 
#    0.000    0.000    0.000    0.000    0.000    0.000 
#
# Total GULP energy -89445.806987 kJ/mol
# GULP energy per Si atom -5590.362937 kJ/mol
# Density = 2.299122 g / cm^3
# Si number density = 23.043668 Si / 1000 Ang^3
#
#
#
# Elastic Constant Matrix: (Units=GPa)
#
#
# Indices 1 2 3 4 5 6 
#
# 1 88.2236 28.7944 11.9252 0.0000 4.7761 0.0000
# 2 28.7944 88.8693 11.9601 0.0000 1.0341 0.0000
# 3 11.9252 11.9601 51.6171 0.0000 9.0088 0.0000
# 4 0.0000 0.0000 0.0000 21.6883 0.0000 0.8982
# 5 4.7761 1.0341 9.0088 0.0000 44.9492 0.0000
# 6 0.0000 0.0000 0.0000 0.8982 0.0000 37.4685
#
#
#
# Elastic Compliance Matrix: (Units=1/GPa)
#
#
# Indices 1 2 3 4 5 6 
#
# 1 0.012922 -0.003918 -0.001921 0.000000 -0.000898 0.000000
# 2 -0.003918 0.012806 -0.002159 0.000000 0.000554 0.000000
# 3 -0.001921 -0.002159 0.021008 0.000000 -0.003957 0.000000
# 4 0.000000 0.000000 0.000000 0.046154 0.000000 -0.001106
# 5 -0.000898 0.000554 -0.003957 0.000000 0.023123 0.000000
# 6 0.000000 0.000000 0.000000 -0.001106 0.000000 0.026716
#
#
# Mechanical properties :
#
#
# Convention : Reuss Voigt Hill
#
# Bulk Modulus (GPa) = 32.53014 37.11882 34.82448
# Shear Modulus (GPa) = 29.59107 32.55656 31.07382
#
# Velocity S-wave (km/s) = 3.58736 3.76283 3.67614
# Velocity P-wave (km/s) = 5.59520 5.91790 5.75881
#
# Compressibility (1/GPa) = 0.03074072
#
# Stress axis : x y z
#
# Youngs Moduli (GPa) = 77.38871 78.08862 47.60092
#
# Poissons Ratio (x) = 0.30594 0.09143
# Poissons Ratio (y) = 0.30319 0.10276
# Poissons Ratio (z) = 0.14865 0.16858
#
# Static dielectric constant tensor:
#      x y z
#    x 1.858430 0.000000 -0.016410 
#    y 0.000000 1.820070 0.000000 
#    z -0.016410 0.000000 1.954590 
# 
# From -- ./inp_files/13554.got.cif
#   From: 2010.05.17/outbox.cif.g08.bks.cpg/sg9_7_cif.got.tgz:13554.got - 2010.06.03 20:04:27.
