data_PCOD9138931
_publ_section_title
;
Structure prediction by ZEFSAII (Michael W. Deem and Ramdas Pophale) SiO2 
 PCOD9138931
Probable space group: C C
;
_chemical_formula_sum "Si O2"
_cell_formula_units_Z 28
_cell_length_a 12.317993
_cell_length_b 11.170233
_cell_length_c 18.061386
_cell_angle_alpha 90.000000
_cell_angle_beta 148.755924
_cell_angle_gamma 90.000000
_cell_volume 1289.011623
_symmetry_space_group_name_H-M "C C"
_symmetry_group_IT_number 9
_symmetry_cell_setting 'monoclinic'
loop_
_space_group_symop_operation_xyz
x,y,z
x,-y,1/2+z
1/2+x,1/2+y,z
1/2+x,1/2-y,1/2+z
loop_
_atom_site_type_symbol
_atom_site_label
_atom_site_fract_x
_atom_site_fract_y
_atom_site_fract_z
Si Si1 0.159960 0.360789 0.671980
Si Si2 0.519848 0.392134 0.212728
Si Si3 0.171099 0.344403 0.388248
Si Si4 0.459143 0.460764 0.431291
Si Si5 0.732162 0.694674 0.977987
Si Si6 0.862575 0.142201 0.151471
Si Si7 0.269597 0.086122 0.727283
O O1 0.328474 0.452093 0.801797
O O2 0.152459 0.352117 0.578590
O O3 0.235858 0.225342 0.730911
O O4 0.938521 0.384454 0.580619
O O5 0.612930 0.304511 0.329712
O O6 0.420758 0.505043 0.194788
O O7 0.685011 0.462755 0.255599
O O8 0.336328 0.320827 0.062262
O O9 0.297294 0.397513 0.393256
O O10 0.325469 0.319079 0.546077
O O11 0.037330 0.229066 0.286987
O O12 0.998093 0.431122 0.326136
O O13 0.590744 0.365593 0.458947
O O14 0.612885 0.540357 0.572184
#
# Coordination Sequence:
#
# PCOD9138931 Si02
#       7
#     4   4   4   4   4   4   4
#     4  10  24  41  72  96 137 180 233 277 344 407
#     4  11  24  47  69 103 137 179 232 281 347 411
#     4  11  26  43  72 100 141 182 229 285 345 411
#     4  12  24  46  66 106 140 178 232 294 348 398
#     4  11  26  43  72 100 141 182 229 285 345 411
#     4  11  24  47  69 103 137 179 232 281 347 411
#     4  10  24  41  72  96 137 180 233 277 344 407
#
# _framework density 21.722069999999999
#
# number of rings (size 3 to 8) (size 9 to 14) (size 15 to 20)
#    0.000    1.143    2.857    1.714   16.000    3.429 
#    5.143    0.000    0.000    0.000    0.000    0.000 
#    0.000    0.000    0.000    0.000    0.000    0.000 
#
# Total GULP energy -78063.002190 kJ/mol
# GULP energy per Si atom -5575.928728 kJ/mol
# Density = 2.167263 g / cm^3
# Si number density = 21.722070 Si / 1000 Ang^3
#
#
#
# Elastic Constant Matrix: (Units=GPa)
#
#
# Indices 1 2 3 4 5 6 
#
# 1 148.8710 14.9082 23.7608 0.0001 6.3204 0.0000
# 2 14.9082 42.7583 28.0066 0.0010 -0.8505 0.0001
# 3 23.7608 28.0066 84.4573 0.0030 -14.1495 0.0004
# 4 0.0001 0.0010 0.0030 30.1464 0.0004 -3.3520
# 5 6.3204 -0.8505 -14.1495 0.0004 43.9672 -0.0001
# 6 0.0000 0.0001 0.0004 -3.3520 -0.0001 23.9603
#
#
#
# Elastic Compliance Matrix: (Units=1/GPa)
#
#
# Indices 1 2 3 4 5 6 
#
# 1 0.007219 -0.001325 -0.001871 0.000000 -0.001665 0.000000
# 2 -0.001325 0.030440 -0.010137 0.000000 -0.002483 0.000000
# 3 -0.001871 -0.010137 0.016637 -0.000001 0.005427 0.000000
# 4 0.000000 0.000000 -0.000001 0.033696 -0.000001 0.004714
# 5 -0.001665 -0.002483 0.005427 -0.000001 0.024682 0.000000
# 6 0.000000 0.000000 0.000000 0.004714 0.000000 0.042395
#
#
# Mechanical properties :
#
#
# Convention : Reuss Voigt Hill
#
# Bulk Modulus (GPa) = 36.19176 45.49309 40.84243
# Shear Modulus (GPa) = 26.18554 33.57551 29.88053
#
# Velocity S-wave (km/s) = 3.47577 3.93579 3.71291
# Velocity P-wave (km/s) = 5.72760 6.45311 6.10115
#
# Compressibility (1/GPa) = 0.02763060
#
# Stress axis : x y z
#
# Youngs Moduli (GPa) = 138.51982 32.85184 60.10562
#
# Poissons Ratio (x) = 0.04353 0.11244
# Poissons Ratio (y) = 0.18352 0.60931
# Poissons Ratio (z) = 0.25913 0.33303
#
# Static dielectric constant tensor:
#      x y z
#    x 1.916220 0.000000 0.021670 
#    y 0.000000 1.800570 0.000000 
#    z 0.021670 0.000000 1.806440 
# 
# From -- ./inp_files/7028.got.cif
#   From: 2010.05.17/outbox.cif.g08.bks.cpg/sg9_4_cif.got.tgz:7028.got - 2010.06.03 20:04:27.
