data_PCOD9138612
_publ_section_title
;
Structure prediction by ZEFSAII (Michael W. Deem and Ramdas Pophale) SiO2 
 PCOD9138612
Probable space group: C C
;
_chemical_formula_sum "Si O2"
_cell_formula_units_Z 28
_cell_length_a 7.674048
_cell_length_b 14.022266
_cell_length_c 12.456721
_cell_angle_alpha 90.000000
_cell_angle_beta 123.191890
_cell_angle_gamma 90.000000
_cell_volume 1121.733837
_symmetry_space_group_name_H-M "C C"
_symmetry_group_IT_number 9
_symmetry_cell_setting 'monoclinic'
loop_
_space_group_symop_operation_xyz
x,y,z
x,-y,1/2+z
1/2+x,1/2+y,z
1/2+x,1/2-y,1/2+z
loop_
_atom_site_type_symbol
_atom_site_label
_atom_site_fract_x
_atom_site_fract_y
_atom_site_fract_z
Si Si1 0.000000 0.073491 0.719830
Si Si2 0.791583 0.351794 0.051190
Si Si3 0.217895 0.535115 0.970270
Si Si4 0.715933 0.175333 0.778013
Si Si5 0.356455 0.948008 0.517045
Si Si6 0.446978 0.738367 0.560992
Si Si7 0.992795 0.649789 0.381093
O O1 0.173157 0.048193 0.865114
O O2 0.066441 0.172568 0.687109
O O3 0.793544 0.096325 0.719238
O O4 0.926735 0.004707 0.598504
O O5 0.582877 0.291093 0.001095
O O6 0.973516 0.305530 0.182872
O O7 0.797427 0.465662 0.076171
O O8 0.877921 0.358228 0.958518
O O9 0.259302 0.624459 0.906887
O O10 0.074818 0.452422 0.864207
O O11 0.067918 0.553282 0.019403
O O12 0.840271 0.269408 0.785034
O O13 0.393526 0.844559 0.580274
O O14 0.216861 0.697427 0.470498
#
# Coordination Sequence:
#
# PCOD9138612 Si02
#       7
#     4   4   4   4   4   4   4
#     4  11  24  44  67 108 141 183 250 293 363 455
#     4  11  25  47  70 109 143 193 245 300 375 447
#     4  10  24  46  67 108 142 189 247 295 373 444
#     4  12  22  47  75  99 156 190 236 314 367 435
#     4  11  23  47  69 105 146 188 246 305 365 444
#     4  11  23  42  71 102 142 184 247 295 363 435
#     4  10  23  45  67 103 142 183 245 292 362 442
#
# _framework density 24.961359999999999
#
# number of rings (size 3 to 8) (size 9 to 14) (size 15 to 20)
#    0.000    1.143    5.714    1.714    4.000    1.143 
#   12.857    0.000    0.000    0.000    0.000    0.000 
#    0.000    0.000    0.000    0.000    0.000    0.000 
#
# Total GULP energy -78000.419114 kJ/mol
# GULP energy per Si atom -5571.458508 kJ/mol
# Density = 2.490455 g / cm^3
# Si number density = 24.961360 Si / 1000 Ang^3
#
#
#
# Elastic Constant Matrix: (Units=GPa)
#
#
# Indices 1 2 3 4 5 6 
#
# 1 134.1342 17.6325 12.7757 0.0000 10.3479 0.0000
# 2 17.6325 103.4108 29.8833 0.0000 6.9602 0.0000
# 3 12.7757 29.8833 79.2953 0.0000 5.8410 0.0000
# 4 0.0000 0.0000 0.0000 28.8694 0.0000 -8.2787
# 5 10.3479 6.9602 5.8410 0.0000 29.5063 0.0000
# 6 0.0000 0.0000 0.0000 -8.2787 0.0000 -11.3824
#
#
#
# Elastic Compliance Matrix: (Units=1/GPa)
#
#
# Indices 1 2 3 4 5 6 
#
# 1 0.007835 -0.000967 -0.000723 0.000000 -0.002376 0.000000
# 2 -0.000967 0.011064 -0.003903 0.000000 -0.001498 0.000000
# 3 -0.000723 -0.003903 0.014321 0.000000 -0.001661 0.000000
# 4 0.000000 0.000000 0.000000 0.028661 0.000000 -0.020846
# 5 -0.002376 -0.001498 -0.001661 0.000000 0.035407 0.000000
# 6 0.000000 0.000000 0.000000 -0.020846 0.000000 -0.072693
#
#
# Mechanical properties :
#
#
# Convention : Reuss Voigt Hill
#
# Bulk Modulus (GPa) = 45.38674 48.60258 46.99466
# Shear Modulus (GPa) = 115.94330 26.50190 71.22260
#
# Velocity S-wave (km/s) = 6.82275 3.26193 5.34744
# Velocity P-wave (km/s) = 8.96041 5.80520 7.54948
#
# Compressibility (1/GPa) = 0.02203287
#
# Stress axis : x y z
#
# Youngs Moduli (GPa) = 127.64036 90.38424 69.82802
#
# Poissons Ratio (x) = 0.08741 0.05047
# Poissons Ratio (y) = 0.12343 0.27257
# Poissons Ratio (z) = 0.09225 0.35280
#
# Static dielectric constant tensor:
#      x y z
#    x 2.042530 0.000000 -0.098280 
#    y 0.000000 2.414590 0.000000 
#    z -0.098280 0.000000 2.080830 
# 
# From -- ./inp_files/23416.got.cif
#   From: 2010.05.17/outbox.cif.g08.bks.cpg/sg9_12_cif.got.tgz:23416.got - 2010.06.03 20:04:27.
