data_PCOD9138082
_publ_section_title
;
Structure prediction by ZEFSAII (Michael W. Deem and Ramdas Pophale) SiO2 
 PCOD9138082
Probable space group: C C
;
_chemical_formula_sum "Si O2"
_cell_formula_units_Z 24
_cell_length_a 5.888134
_cell_length_b 12.453488
_cell_length_c 13.920148
_cell_angle_alpha 90.000000
_cell_angle_beta 79.704391
_cell_angle_gamma 90.000000
_cell_volume 1004.298809
_symmetry_space_group_name_H-M "C C"
_symmetry_group_IT_number 9
_symmetry_cell_setting 'monoclinic'
loop_
_space_group_symop_operation_xyz
x,y,z
x,-y,1/2+z
1/2+x,1/2+y,z
1/2+x,1/2-y,1/2+z
loop_
_atom_site_type_symbol
_atom_site_label
_atom_site_fract_x
_atom_site_fract_y
_atom_site_fract_z
Si Si1 0.764160 0.250048 0.573940
Si Si2 0.091116 0.746750 0.886000
Si Si3 0.251862 0.028023 0.309152
Si Si4 0.611508 0.114517 0.166577
Si Si5 0.942948 0.897134 0.473794
Si Si6 0.859954 0.329606 0.220386
O O1 0.588480 0.304817 0.514029
O O2 0.605605 0.170946 0.647496
O O3 0.969486 0.208739 0.491349
O O4 0.884987 0.344016 0.626560
O O5 0.284979 0.663404 0.906567
O O6 0.919500 0.685320 0.827842
O O7 0.170836 0.849201 0.819588
O O8 0.209923 0.938511 0.228682
O O9 0.118255 0.979508 0.411029
O O10 0.526633 0.046031 0.265040
O O11 0.728169 0.224259 0.194944
O O12 0.775820 0.062523 0.072971
#
# Coordination Sequence:
#
# PCOD9138082 Si02
#       6
#     4   4   4   4   4   4
#     4  10  22  48  64  94 148 176 214 292 334 392
#     4  11  24  45  69  96 137 175 225 284 337 400
#     4  12  24  42  72 100 126 182 228 274 340 400
#     4  10  24  47  66 101 141 175 228 282 334 406
#     4  10  24  47  66 101 141 175 228 282 334 406
#     4  11  24  45  69  96 137 175 225 284 337 400
#
# _framework density 23.897268
#
# number of rings (size 3 to 8) (size 9 to 14) (size 15 to 20)
#    0.000    1.333    3.333    1.000    2.333    1.333 
#    9.000    0.000    0.000    0.000    0.000    0.000 
#    0.000    0.000    0.000    0.000    0.000    0.000 
#
# Total GULP energy -66861.066897 kJ/mol
# GULP energy per Si atom -5571.755575 kJ/mol
# Density = 2.384288 g / cm^3
# Si number density = 23.897268 Si / 1000 Ang^3
#
#
#
# Elastic Constant Matrix: (Units=GPa)
#
#
# Indices 1 2 3 4 5 6 
#
# 1 55.1287 20.9611 44.8761 0.0000 -10.7480 0.0000
# 2 20.9611 101.1829 51.7762 0.0000 -30.4973 0.0000
# 3 44.8761 51.7762 138.2894 0.0000 -51.7241 0.0000
# 4 0.0000 0.0000 0.0000 43.1967 0.0000 -17.3804
# 5 -10.7480 -30.4973 -51.7241 0.0000 73.7866 0.0000
# 6 0.0000 0.0000 0.0000 -17.3804 0.0000 20.0770
#
#
#
# Elastic Compliance Matrix: (Units=1/GPa)
#
#
# Indices 1 2 3 4 5 6 
#
# 1 0.025297 -0.001716 -0.008747 0.000000 -0.003156 0.000000
# 2 -0.001716 0.012692 -0.003153 0.000000 0.002785 0.000000
# 3 -0.008747 -0.003153 0.013942 0.000000 0.007196 0.000000
# 4 0.000000 0.000000 0.000000 0.035523 0.000000 0.030752
# 5 -0.003156 0.002785 0.007196 0.000000 0.019288 0.000000
# 6 0.000000 0.000000 0.000000 0.030752 0.000000 0.076429
#
#
# Mechanical properties :
#
#
# Convention : Reuss Voigt Hill
#
# Bulk Modulus (GPa) = 40.48926 58.86976 49.67951
# Shear Modulus (GPa) = 22.86914 39.21124 31.04019
#
# Velocity S-wave (km/s) = 3.09686 4.05510 3.60794
# Velocity P-wave (km/s) = 5.45594 6.82738 6.17982
#
# Compressibility (1/GPa) = 0.02469791
#
# Stress axis : x y z
#
# Youngs Moduli (GPa) = 39.53079 78.79240 71.72752
#
# Poissons Ratio (x) = 0.13519 0.62740
# Poissons Ratio (y) = 0.06783 0.22617
# Poissons Ratio (z) = 0.34578 0.24845
#
# Static dielectric constant tensor:
#      x y z
#    x 1.933950 0.000000 -0.071930 
#    y 0.000000 1.987260 0.000000 
#    z -0.071930 0.000000 1.968020 
# 
# From -- ./inp_files/21596.got.cif
#   From: 2010.05.17/outbox.cif.g08.bks.cpg/sg9_11_cif.got.tgz:21596.got - 2010.06.03 20:04:27.
