data_PCOD9138070
_publ_section_title
;
Structure prediction by ZEFSAII (Michael W. Deem and Ramdas Pophale) SiO2 
 PCOD9138070
Probable space group: C C
;
_chemical_formula_sum "Si O2"
_cell_formula_units_Z 32
_cell_length_a 9.627676
_cell_length_b 12.853693
_cell_length_c 21.847012
_cell_angle_alpha 90.000000
_cell_angle_beta 153.199667
_cell_angle_gamma 90.000000
_cell_volume 1219.003734
_symmetry_space_group_name_H-M "C C"
_symmetry_group_IT_number 9
_symmetry_cell_setting 'monoclinic'
loop_
_space_group_symop_operation_xyz
x,y,z
x,-y,1/2+z
1/2+x,1/2+y,z
1/2+x,1/2-y,1/2+z
loop_
_atom_site_type_symbol
_atom_site_label
_atom_site_fract_x
_atom_site_fract_y
_atom_site_fract_z
Si Si1 0.854710 0.743028 0.077150
Si Si2 0.925793 0.466081 0.435167
Si Si3 0.345176 0.862354 0.815066
Si Si4 0.281088 0.619222 0.667720
Si Si5 0.688457 0.657274 0.494163
Si Si6 0.867166 0.711479 0.690356
Si Si7 0.395312 0.552236 0.909345
Si Si8 0.411967 0.635844 0.044744
O O1 0.843941 0.789633 0.141805
O O2 0.187909 0.743108 0.177924
O O3 0.679993 0.825460 0.965413
O O4 0.662980 0.636278 0.997793
O O5 0.812434 0.523120 0.328304
O O6 0.611525 0.407771 0.327013
O O7 0.071737 0.539426 0.544241
O O8 0.216137 0.404897 0.524530
O O9 0.126614 0.792576 0.771798
O O10 0.246491 0.849157 0.706677
O O11 0.050197 0.626320 0.634314
O O12 0.639283 0.700397 0.542855
O O13 0.468488 0.556660 0.404284
O O14 0.735797 0.753490 0.464367
O O15 0.055373 0.603353 0.770632
O O16 0.425598 0.554816 0.995403
#
# Coordination Sequence:
#
# PCOD9138070 Si02
#       8
#     4   4   4   4   4   4   4   4
#     4  10  22  47  75  99 142 197 241 303 372 439
#     4  11  23  42  77 100 140 198 237 296 375 434
#     4   9  22  43  71 101 143 182 245 299 365 448
#     4  11  24  45  70 110 141 188 247 297 368 443
#     4  11  27  46  68 110 147 185 245 309 364 445
#     4  10  24  48  69 104 144 188 243 305 372 441
#     4  11  25  46  74 103 148 193 242 304 378 442
#     4  11  23  49  68 109 147 185 248 309 362 450
#
# _framework density 26.250945999999999
#
# number of rings (size 3 to 8) (size 9 to 14) (size 15 to 20)
#    0.000    1.500    2.500    0.750    7.000    1.000 
#   13.500    0.000    0.000    0.000    0.000    0.000 
#    0.000    0.000    0.000    0.000    0.000    0.000 
#
# Total GULP energy -89305.440657 kJ/mol
# GULP energy per Si atom -5581.590041 kJ/mol
# Density = 2.619120 g / cm^3
# Si number density = 26.250946 Si / 1000 Ang^3
#
#
#
# Elastic Constant Matrix: (Units=GPa)
#
#
# Indices 1 2 3 4 5 6 
#
# 1 123.3147 2.2240 8.7053 -0.0015 8.3516 -0.0004
# 2 2.2240 61.8484 -23.0718 0.0003 0.8477 -0.0001
# 3 8.7053 -23.0718 62.7426 0.0057 -11.4927 -0.0026
# 4 -0.0015 0.0003 0.0057 28.1160 -0.0023 1.2895
# 5 8.3516 0.8477 -11.4927 -0.0023 39.2398 0.0002
# 6 -0.0004 -0.0001 -0.0026 1.2895 0.0002 21.5964
#
#
#
# Elastic Compliance Matrix: (Units=1/GPa)
#
#
# Indices 1 2 3 4 5 6 
#
# 1 0.008425 -0.001005 -0.001969 0.000001 -0.002348 0.000000
# 2 -0.001005 0.018968 0.007480 -0.000002 0.001995 0.000001
# 3 -0.001969 0.007480 0.020086 -0.000004 0.006140 0.000003
# 4 0.000001 -0.000002 -0.000004 0.035665 0.000001 -0.002129
# 5 -0.002348 0.001995 0.006140 0.000001 0.027739 0.000000
# 6 0.000000 0.000001 0.000003 -0.002129 0.000000 0.046431
#
#
# Mechanical properties :
#
#
# Convention : Reuss Voigt Hill
#
# Bulk Modulus (GPa) = 17.70195 24.84674 21.27435
# Shear Modulus (GPa) = 29.91618 35.12698 32.52158
#
# Velocity S-wave (km/s) = 3.37949 3.66200 3.52358
# Velocity P-wave (km/s) = 4.68892 5.23125 4.96749
#
# Compressibility (1/GPa) = 0.05649095
#
# Stress axis : x y z
#
# Youngs Moduli (GPa) = 118.68773 52.72152 49.78471
#
# Poissons Ratio (x) = 0.05300 0.09801
# Poissons Ratio (y) = 0.11931 -0.37237
# Poissons Ratio (z) = 0.23367 -0.39434
#
# Static dielectric constant tensor:
#      x y z
#    x 2.125270 0.000000 0.050580 
#    y 0.000000 2.240030 0.000000 
#    z 0.050580 0.000000 2.073950 
# 
# From -- ./inp_files/35067.got.cif
#   From: 2010.05.17/outbox.cif.g08.bks.cpg/sg9_18_cif.got.tgz:35067.got - 2010.06.03 20:04:27.
