data_PCOD9138096
_publ_section_title
;
Structure prediction by ZEFSAII (Michael W. Deem and Ramdas Pophale) SiO2 
 PCOD9138096
Probable space group: C C
;
_chemical_formula_sum "Si O2"
_cell_formula_units_Z 24
_cell_length_a 6.705046
_cell_length_b 30.884121
_cell_length_c 4.898681
_cell_angle_alpha 90.000000
_cell_angle_beta 63.974522
_cell_angle_gamma 90.000000
_cell_volume 911.553387
_symmetry_space_group_name_H-M "C C"
_symmetry_group_IT_number 9
_symmetry_cell_setting 'monoclinic'
loop_
_space_group_symop_operation_xyz
x,y,z
x,-y,1/2+z
1/2+x,1/2+y,z
1/2+x,1/2-y,1/2+z
loop_
_atom_site_type_symbol
_atom_site_label
_atom_site_fract_x
_atom_site_fract_y
_atom_site_fract_z
Si Si1 0.216190 0.254690 0.360270
Si Si2 0.608396 0.849258 0.428766
Si Si3 0.320533 0.029523 0.494247
Si Si4 0.494325 0.400175 0.412786
Si Si5 0.805488 0.967827 0.880985
Si Si6 0.833131 0.331858 0.081507
O O1 0.224144 0.304249 0.449307
O O2 0.278461 0.217527 0.539496
O O3 0.935106 0.248922 0.514124
O O4 0.037664 0.340128 0.162036
O O5 0.396159 0.853147 0.753270
O O6 0.769693 0.888928 0.386832
O O7 0.148668 0.066168 0.665321
O O8 0.301532 0.986631 0.696429
O O9 0.555848 0.046414 0.460168
O O10 0.442219 0.425544 0.720971
O O11 0.631057 0.356131 0.346601
O O12 0.835156 0.992693 0.145344
#
# Coordination Sequence:
#
# PCOD9138096 Si02
#       6
#     4   4   4   4   4   4
#     4  10  22  48  74 108 146 200 252 312 380 450
#     4  11  27  46  71 106 145 191 245 308 372 445
#     4  10  23  42  68  99 139 185 236 297 364 441
#     4  12  24  46  70 108 138 196 236 310 358 456
#     4  10  23  42  68  99 139 185 236 297 364 441
#     4  11  27  46  71 106 145 191 245 308 372 445
#
# _framework density 26.328683000000002
#
# number of rings (size 3 to 8) (size 9 to 14) (size 15 to 20)
#    0.000    1.333    1.667    2.000    0.000   16.000 
#    0.000    0.000    0.000    0.000    0.000    0.000 
#    0.000    0.000    0.000    0.000    0.000    0.000 
#
# Total GULP energy -67040.625393 kJ/mol
# GULP energy per Si atom -5586.718783 kJ/mol
# Density = 2.626876 g / cm^3
# Si number density = 26.328683 Si / 1000 Ang^3
#
#
#
# Elastic Constant Matrix: (Units=GPa)
#
#
# Indices 1 2 3 4 5 6 
#
# 1 85.1428 14.2867 33.6178 0.0000 -8.1878 0.0000
# 2 14.2867 61.9777 13.8916 0.0000 -8.2163 0.0000
# 3 33.6178 13.8916 91.3980 0.0000 -1.2842 0.0000
# 4 0.0000 0.0000 0.0000 37.0098 0.0000 -21.0645
# 5 -8.1878 -8.2163 -1.2842 0.0000 52.9361 0.0000
# 6 0.0000 0.0000 0.0000 -21.0645 0.0000 38.5578
#
#
#
# Elastic Compliance Matrix: (Units=1/GPa)
#
#
# Indices 1 2 3 4 5 6 
#
# 1 0.014172 -0.001935 -0.004894 0.000000 0.001773 0.000000
# 2 -0.001935 0.017314 -0.001887 0.000000 0.002342 0.000000
# 3 -0.004894 -0.001887 0.013018 0.000000 -0.000734 0.000000
# 4 0.000000 0.000000 0.000000 0.039213 0.000000 0.021422
# 5 0.001773 0.002342 -0.000734 0.000000 0.019511 0.000000
# 6 0.000000 0.000000 0.000000 0.021422 0.000000 0.037638
#
#
# Mechanical properties :
#
#
# Convention : Reuss Voigt Hill
#
# Bulk Modulus (GPa) = 36.93739 40.23452 38.58596
# Shear Modulus (GPa) = 29.88249 37.48221 33.68235
#
# Velocity S-wave (km/s) = 3.37260 3.77719 3.58061
# Velocity P-wave (km/s) = 5.40608 5.85984 5.63753
#
# Compressibility (1/GPa) = 0.02707284
#
# Stress axis : x y z
#
# Youngs Moduli (GPa) = 70.55936 57.75559 76.81852
#
# Poissons Ratio (x) = 0.11176 0.37594
# Poissons Ratio (y) = 0.13653 0.14496
# Poissons Ratio (z) = 0.34531 0.10898
#
# Static dielectric constant tensor:
#      x y z
#    x 2.194860 0.000000 -0.120030 
#    y 0.000000 1.982910 0.000000 
#    z -0.120030 0.000000 2.156240 
# 
# From -- ./inp_files/1095.got.cif
#   From: 2010.05.17/outbox.cif.g08.bks.cpg/sg9_1_cif.got.tgz:1095.got - 2010.06.03 20:04:27.
