data_PCOD9138440
_publ_section_title
;
Structure prediction by ZEFSAII (Michael W. Deem and Ramdas Pophale) SiO2 
 PCOD9138440
Probable space group: C C
;
_chemical_formula_sum "Si O2"
_cell_formula_units_Z 28
_cell_length_a 8.741997
_cell_length_b 21.765255
_cell_length_c 7.798099
_cell_angle_alpha 90.000000
_cell_angle_beta 50.535795
_cell_angle_gamma 90.000000
_cell_volume 1145.493767
_symmetry_space_group_name_H-M "C C"
_symmetry_group_IT_number 9
_symmetry_cell_setting 'monoclinic'
loop_
_space_group_symop_operation_xyz
x,y,z
x,-y,1/2+z
1/2+x,1/2+y,z
1/2+x,1/2-y,1/2+z
loop_
_atom_site_type_symbol
_atom_site_label
_atom_site_fract_x
_atom_site_fract_y
_atom_site_fract_z
Si Si1 0.581410 0.968186 0.447980
Si Si2 0.029970 0.716972 0.116909
Si Si3 0.144917 0.849482 0.906112
Si Si4 0.248150 0.931340 0.144977
Si Si5 0.813472 0.068834 0.114319
Si Si6 0.714247 0.850585 0.190170
Si Si7 0.569659 0.829801 0.957232
O O1 0.645495 0.940464 0.585396
O O2 0.595791 0.914098 0.298643
O O3 0.378631 0.006840 0.575000
O O4 0.762198 0.014335 0.280003
O O5 0.072269 0.787589 0.053032
O O6 0.018748 0.711166 0.330273
O O7 0.838167 0.679665 0.179823
O O8 0.197900 0.681778 0.887251
O O9 0.208900 0.906352 0.979788
O O10 0.936460 0.868305 0.973787
O O11 0.034613 0.933817 0.386356
O O12 0.387912 0.876600 0.114420
O O13 0.754362 0.131190 0.251320
O O14 0.626827 0.806750 0.104409
#
# Coordination Sequence:
#
# PCOD9138440 Si02
#       7
#     4   4   4   4   4   4   4
#     4  11  23  39  69 103 145 187 245 295 356 442
#     4  11  23  46  73 103 147 191 234 308 363 440
#     4  11  23  45  75 105 144 198 242 297 383 421
#     4  10  23  43  70 106 142 200 236 294 377 431
#     4  11  22  42  67 101 148 188 233 304 361 428
#     4  12  24  47  72 107 144 187 247 309 359 440
#     4  10  24  44  70 107 142 183 249 295 365 440
#
# _framework density 24.443607
#
# number of rings (size 3 to 8) (size 9 to 14) (size 15 to 20)
#    0.000    1.143    4.286    1.714    0.000    5.714 
#    5.143    0.000    0.000    0.000    0.000    0.000 
#    0.000    0.000    0.000    0.000    0.000    0.000 
#
# Total GULP energy -78108.722713 kJ/mol
# GULP energy per Si atom -5579.194480 kJ/mol
# Density = 2.438797 g / cm^3
# Si number density = 24.443607 Si / 1000 Ang^3
#
#
#
# Elastic Constant Matrix: (Units=GPa)
#
#
# Indices 1 2 3 4 5 6 
#
# 1 80.9747 -6.5964 25.4643 0.0000 -19.2821 0.0000
# 2 -6.5964 61.9608 24.4164 0.0000 -16.1616 0.0000
# 3 25.4643 24.4164 103.4758 0.0000 -49.7446 0.0000
# 4 0.0000 0.0000 0.0000 16.2112 0.0000 5.4334
# 5 -19.2821 -16.1616 -49.7446 0.0000 56.2088 0.0000
# 6 0.0000 0.0000 0.0000 5.4334 0.0000 11.9000
#
#
#
# Elastic Compliance Matrix: (Units=1/GPa)
#
#
# Indices 1 2 3 4 5 6 
#
# 1 0.014314 0.003494 -0.002617 0.000000 0.003599 0.000000
# 2 0.003494 0.018841 -0.003699 0.000000 0.003342 0.000000
# 3 -0.002617 -0.003699 0.017819 0.000000 0.013809 0.000000
# 4 0.000000 0.000000 0.000000 0.072831 0.000000 -0.033254
# 5 0.003599 0.003342 0.013809 0.000000 0.032207 0.000000
# 6 0.000000 0.000000 0.000000 -0.033254 0.000000 0.099217
#
#
# Mechanical properties :
#
#
# Convention : Reuss Voigt Hill
#
# Bulk Modulus (GPa) = 22.06008 36.99777 29.52892
# Shear Modulus (GPa) = 18.11710 30.40580 24.26145
#
# Velocity S-wave (km/s) = 2.72541 3.53075 3.15389
# Velocity P-wave (km/s) = 4.35297 5.63830 5.03680
#
# Compressibility (1/GPa) = 0.04533076
#
# Stress axis : x y z
#
# Youngs Moduli (GPa) = 69.86128 53.07715 56.11939
#
# Poissons Ratio (x) = -0.18544 0.14685
# Poissons Ratio (y) = -0.24408 0.20756
# Poissons Ratio (z) = 0.18281 0.19631
#
# Static dielectric constant tensor:
#      x y z
#    x 2.043360 0.000000 -0.003350 
#    y 0.000000 1.996690 0.000000 
#    z -0.003350 0.000000 1.943670 
# 
# From -- ./inp_files/6006.got.cif
#   From: 2010.05.17/outbox.cif.g08.bks.cpg/sg9_4_cif.got.tgz:6006.got - 2010.06.03 20:04:27.
