data_PCOD9138254
_publ_section_title
;
Structure prediction by ZEFSAII (Michael W. Deem and Ramdas Pophale) SiO2 
 PCOD9138254
Probable space group: C C
;
_chemical_formula_sum "Si O2"
_cell_formula_units_Z 32
_cell_length_a 15.802619
_cell_length_b 11.830034
_cell_length_c 13.115758
_cell_angle_alpha 90.000000
_cell_angle_beta 149.895480
_cell_angle_gamma 90.000000
_cell_volume 1229.837668
_symmetry_space_group_name_H-M "C C"
_symmetry_group_IT_number 9
_symmetry_cell_setting 'monoclinic'
loop_
_space_group_symop_operation_xyz
x,y,z
x,-y,1/2+z
1/2+x,1/2+y,z
1/2+x,1/2-y,1/2+z
loop_
_atom_site_type_symbol
_atom_site_label
_atom_site_fract_x
_atom_site_fract_y
_atom_site_fract_z
Si Si1 0.753680 0.650118 0.446040
Si Si2 0.394200 0.080617 0.039413
Si Si3 0.619022 0.723664 0.782447
Si Si4 0.958032 0.394596 0.849076
Si Si5 0.293184 0.474443 0.767153
Si Si6 0.339607 0.417601 0.052253
Si Si7 0.095752 0.844513 0.566598
Si Si8 0.927944 0.141829 0.235251
O O1 0.873752 0.553293 0.521390
O O2 0.638812 0.682266 0.229934
O O3 0.864404 0.748160 0.610790
O O4 0.617816 0.617316 0.393374
O O5 0.513981 0.178349 0.118236
O O6 0.429056 0.095861 0.197517
O O7 0.219791 0.135199 0.819466
O O8 0.523687 0.634045 0.752285
O O9 0.738491 0.804849 0.972083
O O10 0.769374 0.396150 0.701086
O O11 0.101746 0.484954 0.038128
O O12 0.038931 0.274355 0.961232
O O13 0.304053 0.450099 0.898607
O O14 0.372415 0.363051 0.794794
O O15 0.433995 0.572115 0.892948
O O16 0.317284 0.532334 0.087013
#
# Coordination Sequence:
#
# PCOD9138254 Si02
#       8
#     4   4   4   4   4   4   4   4
#     4  12  27  49  74 105 149 203 243 305 376 449
#     4  11  23  44  69 109 139 189 244 297 373 437
#     4  10  23  41  77  98 143 188 240 305 368 442
#     4  12  25  41  72 111 141 193 246 312 371 433
#     4  12  27  47  71 110 152 194 249 312 372 447
#     4  11  24  49  70 107 144 192 246 307 374 441
#     4  12  24  46  76 107 151 189 254 314 367 438
#     4  12  27  47  73 107 151 194 250 306 371 451
#
# _framework density 26.019696
#
# number of rings (size 3 to 8) (size 9 to 14) (size 15 to 20)
#    0.000    0.500    3.750    3.750    8.750    1.000 
#    0.000    0.000    0.000    0.000    0.000    0.000 
#    0.000    0.000    0.000    0.000    0.000    0.000 
#
# Total GULP energy -89269.695994 kJ/mol
# GULP energy per Si atom -5579.356000 kJ/mol
# Density = 2.596047 g / cm^3
# Si number density = 26.019696 Si / 1000 Ang^3
#
#
#
# Elastic Constant Matrix: (Units=GPa)
#
#
# Indices 1 2 3 4 5 6 
#
# 1 42.0009 -16.7230 23.7508 0.0000 3.3700 0.0000
# 2 -16.7230 147.9209 32.6479 0.0000 0.8821 0.0000
# 3 23.7508 32.6479 92.5741 0.0000 9.1485 0.0000
# 4 0.0000 0.0000 0.0000 46.0262 0.0000 11.4040
# 5 3.3700 0.8821 9.1485 0.0000 49.8272 0.0000
# 6 0.0000 0.0000 0.0000 11.4040 0.0000 31.6181
#
#
#
# Elastic Compliance Matrix: (Units=1/GPa)
#
#
# Indices 1 2 3 4 5 6 
#
# 1 0.031967 0.005875 -0.010235 0.000000 -0.000387 0.000000
# 2 0.005875 0.008417 -0.004503 0.000000 0.000280 0.000000
# 3 -0.010235 -0.004503 0.015216 0.000000 -0.002022 0.000000
# 4 0.000000 0.000000 0.000000 0.023859 0.000000 -0.008605
# 5 -0.000387 0.000280 -0.002022 0.000000 0.020462 0.000000
# 6 0.000000 0.000000 0.000000 -0.008605 0.000000 0.034731
#
#
# Mechanical properties :
#
#
# Convention : Reuss Voigt Hill
#
# Bulk Modulus (GPa) = 26.40368 40.20525 33.30447
# Shear Modulus (GPa) = 30.30236 41.68233 35.99234
#
# Velocity S-wave (km/s) = 3.41632 4.00678 3.72327
# Velocity P-wave (km/s) = 5.07260 6.07381 5.59564
#
# Compressibility (1/GPa) = 0.03787351
#
# Stress axis : x y z
#
# Youngs Moduli (GPa) = 31.28194 118.80860 65.71957
#
# Poissons Ratio (x) = -0.69805 0.67266
# Poissons Ratio (y) = -0.18379 0.29597
# Poissons Ratio (z) = 0.32018 0.53505
#
# Static dielectric constant tensor:
#      x y z
#    x 2.267290 0.000000 0.110360 
#    y 0.000000 1.994480 0.000000 
#    z 0.110360 0.000000 2.189990 
# 
# From -- ./inp_files/26826.got.cif
#   From: 2010.05.17/outbox.cif.g08.bks.cpg/sg9_14_cif.got.tgz:26826.got - 2010.06.03 20:04:27.
