data_PCOD9138878
_publ_section_title
;
Structure prediction by ZEFSAII (Michael W. Deem and Ramdas Pophale) SiO2 
 PCOD9138878
Probable space group: C C
;
_chemical_formula_sum "Si O2"
_cell_formula_units_Z 24
_cell_length_a 10.115898
_cell_length_b 13.295653
_cell_length_c 9.565966
_cell_angle_alpha 90.000000
_cell_angle_beta 133.989593
_cell_angle_gamma 90.000000
_cell_volume 925.663629
_symmetry_space_group_name_H-M "C C"
_symmetry_group_IT_number 9
_symmetry_cell_setting 'monoclinic'
loop_
_space_group_symop_operation_xyz
x,y,z
x,-y,1/2+z
1/2+x,1/2+y,z
1/2+x,1/2-y,1/2+z
loop_
_atom_site_type_symbol
_atom_site_label
_atom_site_fract_x
_atom_site_fract_y
_atom_site_fract_z
Si Si1 0.392590 0.926968 0.154630
Si Si2 0.664567 0.203832 0.017630
Si Si3 0.224333 0.695695 0.575261
Si Si4 0.913915 0.862426 0.946318
Si Si5 0.306466 0.575506 0.891916
Si Si6 0.317744 0.889441 0.785122
O O1 0.471307 0.838624 0.313432
O O2 0.596450 0.964359 0.253246
O O3 0.300288 0.011547 0.179832
O O4 0.297440 0.903515 0.936480
O O5 0.598545 0.314062 0.017989
O O6 0.804754 0.170654 0.996643
O O7 0.753230 0.144863 0.212110
O O8 0.342667 0.704713 0.522763
O O9 0.327717 0.618455 0.753553
O O10 0.196365 0.799683 0.635993
O O11 0.024785 0.649230 0.407202
O O12 0.927378 0.977607 0.007160
#
# Coordination Sequence:
#
# PCOD9138878 Si02
#       6
#     4   4   4   4   4   4
#     4   9  21  40  64  93 124 179 222 262 336 417
#     4  10  24  36  68  97 129 176 228 277 337 415
#     4  11  23  38  67  95 132 173 222 278 344 406
#     4  12  21  40  65 100 132 176 230 279 343 414
#     4   9  21  41  64  91 128 181 216 273 341 410
#     4  11  22  41  68  94 129 175 222 279 339 408
#
# _framework density 25.927344999999999
#
# number of rings (size 3 to 8) (size 9 to 14) (size 15 to 20)
#    1.000    0.667    1.667    4.000    4.667    0.000 
#    0.000    1.667    3.667    2.000    0.000    0.000 
#    0.000    0.000    0.000    0.000    0.000    0.000 
#
# Total GULP energy -67094.707935 kJ/mol
# GULP energy per Si atom -5591.225661 kJ/mol
# Density = 2.586833 g / cm^3
# Si number density = 25.927345 Si / 1000 Ang^3
#
#
#
# Elastic Constant Matrix: (Units=GPa)
#
#
# Indices 1 2 3 4 5 6 
#
# 1 116.1054 33.9594 61.9148 0.0000 -16.3576 0.0000
# 2 33.9594 151.4318 37.7903 0.0000 -9.2053 0.0000
# 3 61.9148 37.7903 113.2928 0.0000 -25.5644 0.0000
# 4 0.0000 0.0000 0.0000 44.1478 0.0000 -3.6324
# 5 -16.3576 -9.2053 -25.5644 0.0000 47.7953 0.0000
# 6 0.0000 0.0000 0.0000 -3.6324 0.0000 34.1782
#
#
#
# Elastic Compliance Matrix: (Units=1/GPa)
#
#
# Indices 1 2 3 4 5 6 
#
# 1 0.012366 -0.001182 -0.006210 0.000000 0.000683 0.000000
# 2 -0.001182 0.007317 -0.001783 0.000000 0.000051 0.000000
# 3 -0.006210 -0.001783 0.013941 0.000000 0.004988 0.000000
# 4 0.000000 0.000000 0.000000 0.022851 0.000000 0.002429
# 5 0.000683 0.000051 0.004988 0.000000 0.023834 0.000000
# 6 0.000000 0.000000 0.000000 0.002429 0.000000 0.029517
#
#
# Mechanical properties :
#
#
# Convention : Reuss Voigt Hill
#
# Bulk Modulus (GPa) = 65.47145 72.01765 68.74455
# Shear Modulus (GPa) = 37.51884 41.70195 39.61040
#
# Velocity S-wave (km/s) = 3.80817 4.01486 3.91288
# Velocity P-wave (km/s) = 6.68154 7.02347 6.85464
#
# Compressibility (1/GPa) = 0.01527383
#
# Stress axis : x y z
#
# Youngs Moduli (GPa) = 80.86506 136.67192 71.73282
#
# Poissons Ratio (x) = 0.16155 0.44544
# Poissons Ratio (y) = 0.09558 0.12791
# Poissons Ratio (z) = 0.50215 0.24371
#
# Static dielectric constant tensor:
#      x y z
#    x 1.995140 0.000000 0.043260 
#    y 0.000000 2.105280 0.000000 
#    z 0.043260 0.000000 2.033610 
# 
# From -- ./inp_files/7312.got.cif
#   From: 2010.05.17/outbox.cif.g08.bks.cpg/sg9_4_cif.got.tgz:7312.got - 2010.06.03 20:04:27.
