data_PCOD9138928
_publ_section_title
;
Structure prediction by ZEFSAII (Michael W. Deem and Ramdas Pophale) SiO2 
 PCOD9138928
Probable space group: C C
;
_chemical_formula_sum "Si O2"
_cell_formula_units_Z 24
_cell_length_a 8.529875
_cell_length_b 16.334969
_cell_length_c 7.292026
_cell_angle_alpha 90.000000
_cell_angle_beta 98.418739
_cell_angle_gamma 90.000000
_cell_volume 1005.087924
_symmetry_space_group_name_H-M "C C"
_symmetry_group_IT_number 9
_symmetry_cell_setting 'monoclinic'
loop_
_space_group_symop_operation_xyz
x,y,z
x,-y,1/2+z
1/2+x,1/2+y,z
1/2+x,1/2-y,1/2+z
loop_
_atom_site_type_symbol
_atom_site_label
_atom_site_fract_x
_atom_site_fract_y
_atom_site_fract_z
Si Si1 0.500000 0.848472 0.912040
Si Si2 0.761870 0.415606 0.601964
Si Si3 0.572638 0.584394 0.587494
Si Si4 0.334508 0.651528 0.277418
Si Si5 0.452554 0.660631 0.919331
Si Si6 0.881954 0.339370 0.270127
O O1 0.371648 0.898699 0.442591
O O2 0.667254 0.860701 0.844729
O O3 0.441707 0.755317 0.863238
O O4 0.505876 0.859623 0.132023
O O5 0.667254 0.500000 0.594729
O O6 0.868392 0.405202 0.797485
O O7 0.623771 0.348373 0.549920
O O8 0.466116 0.594799 0.391973
O O9 0.710737 0.651626 0.639537
O O10 0.328632 0.640378 0.057435
O O11 0.392802 0.744684 0.326219
O O12 0.462860 0.601301 0.746867
#
# Coordination Sequence:
#
# PCOD9138928 Si02
#       6
#     4   4   4   4   4   4
#     4  11  23  43  69 107 143 182 244 297 347 428
#     4  11  24  43  72 100 143 189 238 288 362 430
#     4  11  24  43  72 100 143 189 238 288 362 430
#     4  11  23  43  69 107 143 182 244 297 347 428
#     4  10  24  41  71 102 138 194 235 287 357 428
#     4  10  24  41  71 102 138 194 235 287 357 428
#
# _framework density 23.878509000000001
#
# number of rings (size 3 to 8) (size 9 to 14) (size 15 to 20)
#    0.000    1.333    3.333    2.000    9.333    1.333 
#    0.000    1.667    0.000    0.000    0.000    0.000 
#    0.000    0.000    0.000    0.000    0.000    0.000 
#
# Total GULP energy -67174.822366 kJ/mol
# GULP energy per Si atom -5597.901864 kJ/mol
# Density = 2.382416 g / cm^3
# Si number density = 23.878509 Si / 1000 Ang^3
#
#
#
# Elastic Constant Matrix: (Units=GPa)
#
#
# Indices 1 2 3 4 5 6 
#
# 1 68.7359 36.9327 30.1608 0.0000 -23.9314 0.0000
# 2 36.9327 128.2353 47.9437 0.0000 -3.0563 0.0000
# 3 30.1608 47.9437 106.8506 0.0000 -40.1719 0.0000
# 4 0.0000 0.0000 0.0000 29.8060 0.0000 4.2664
# 5 -23.9314 -3.0563 -40.1719 0.0000 53.8720 0.0000
# 6 0.0000 0.0000 0.0000 4.2664 0.0000 35.6040
#
#
#
# Elastic Compliance Matrix: (Units=1/GPa)
#
#
# Indices 1 2 3 4 5 6 
#
# 1 0.020738 -0.005806 0.000127 0.000000 0.008978 0.000000
# 2 -0.005806 0.011532 -0.005919 0.000000 -0.006338 0.000000
# 3 0.000127 -0.005919 0.016499 0.000000 0.012024 0.000000
# 4 0.000000 0.000000 0.000000 0.034136 0.000000 -0.004090
# 5 0.008978 -0.006338 0.012024 0.000000 0.031157 0.000000
# 6 0.000000 0.000000 0.000000 -0.004090 0.000000 0.028577
#
#
# Mechanical properties :
#
#
# Convention : Reuss Voigt Hill
#
# Bulk Modulus (GPa) = 39.10298 59.32181 49.21240
# Shear Modulus (GPa) = 28.67631 36.44204 32.55918
#
# Velocity S-wave (km/s) = 3.46920 3.91083 3.69661
# Velocity P-wave (km/s) = 5.69723 6.72978 6.23492
#
# Compressibility (1/GPa) = 0.02557350
#
# Stress axis : x y z
#
# Youngs Moduli (GPa) = 48.22010 86.71456 60.60876
#
# Poissons Ratio (x) = 0.50348 -0.00767
# Poissons Ratio (y) = 0.27997 0.35871
# Poissons Ratio (z) = -0.00611 0.51322
#
# Static dielectric constant tensor:
#      x y z
#    x 1.899930 0.000000 -0.069240 
#    y 0.000000 1.919750 0.000000 
#    z -0.069240 0.000000 1.982790 
# 
# From -- ./inp_files/5217.got.cif
#   From: 2010.05.17/outbox.cif.g08.bks.cpg/sg9_3_cif.got.tgz:5217.got - 2010.06.03 20:04:27.
