data_PCOD9138684
_publ_section_title
;
Structure prediction by ZEFSAII (Michael W. Deem and Ramdas Pophale) SiO2 
 PCOD9138684
Probable space group: C C
;
_chemical_formula_sum "Si O2"
_cell_formula_units_Z 32
_cell_length_a 11.162234
_cell_length_b 11.492365
_cell_length_c 13.811199
_cell_angle_alpha 90.000000
_cell_angle_beta 40.290340
_cell_angle_gamma 90.000000
_cell_volume 1145.694189
_symmetry_space_group_name_H-M "C C"
_symmetry_group_IT_number 9
_symmetry_cell_setting 'monoclinic'
loop_
_space_group_symop_operation_xyz
x,y,z
x,-y,1/2+z
1/2+x,1/2+y,z
1/2+x,1/2-y,1/2+z
loop_
_atom_site_type_symbol
_atom_site_label
_atom_site_fract_x
_atom_site_fract_y
_atom_site_fract_z
Si Si1 0.119110 0.317015 0.476150
Si Si2 0.923205 0.265732 0.916879
Si Si3 0.403570 0.480007 0.204144
Si Si4 0.324960 0.668552 0.536152
Si Si5 0.077130 0.011102 0.790184
Si Si6 0.092792 0.450109 0.691537
Si Si7 0.732338 0.556177 0.872959
Si Si8 0.148187 0.685331 0.446776
O O1 0.237240 0.223242 0.466671
O O2 0.270475 0.367690 0.306309
O O3 0.094366 0.414221 0.576716
O O4 0.937947 0.261203 0.533856
O O5 0.962328 0.126695 0.895084
O O6 0.084793 0.330569 0.755879
O O7 0.954301 0.312098 0.006533
O O8 0.567639 0.474198 0.183621
O O9 0.231533 0.448157 0.139487
O O10 0.268398 0.582593 0.325257
O O11 0.483968 0.612485 0.371110
O O12 0.534237 0.486124 0.534114
O O13 0.166463 0.695537 0.552713
O O14 0.251064 0.010886 0.751834
O O15 0.896677 0.508252 0.834600
O O16 0.739972 0.693130 0.862604
#
# Coordination Sequence:
#
# PCOD9138684 Si02
#       8
#     4   4   4   4   4   4   4   4
#     4  11  25  52  86 113 165 227 277 355 432 508
#     4  10  23  45  77 111 150 220 269 337 437 500
#     4  10  23  47  77 114 159 219 283 341 429 517
#     4  11  24  50  79 117 168 213 289 358 419 516
#     4   9  21  49  72 105 159 205 270 345 400 509
#     4  12  26  50  77 124 170 219 291 358 428 531
#     4  11  26  45  77 118 161 218 276 353 432 510
#     4  10  24  46  75 110 166 217 271 359 429 503
#
# _framework density 27.930664
#
# number of rings (size 3 to 8) (size 9 to 14) (size 15 to 20)
#    0.000    1.500    3.750    0.750    3.500    6.000 
#   11.250    1.250    0.000    0.000    0.000    0.000 
#    0.000    0.000    0.000    0.000    0.000    0.000 
#
# Total GULP energy -89243.795116 kJ/mol
# GULP energy per Si atom -5577.737195 kJ/mol
# Density = 2.786709 g / cm^3
# Si number density = 27.930664 Si / 1000 Ang^3
#
#
#
# Elastic Constant Matrix: (Units=GPa)
#
#
# Indices 1 2 3 4 5 6 
#
# 1 197.5293 61.9141 65.3976 -0.0001 0.8209 0.0001
# 2 61.9141 89.9953 40.4547 0.0000 -3.3427 0.0000
# 3 65.3976 40.4547 109.9148 -0.0001 6.0372 0.0001
# 4 -0.0001 0.0000 -0.0001 45.2179 0.0001 6.4436
# 5 0.8209 -3.3427 6.0372 0.0001 38.4057 -0.0001
# 6 0.0001 0.0000 0.0001 6.4436 -0.0001 50.3548
#
#
#
# Elastic Compliance Matrix: (Units=1/GPa)
#
#
# Indices 1 2 3 4 5 6 
#
# 1 0.007166 -0.003611 -0.002934 0.000000 -0.000006 0.000000
# 2 -0.003611 0.015280 -0.003584 0.000000 0.001970 0.000000
# 3 -0.002934 -0.003584 0.012282 0.000000 -0.002180 0.000000
# 4 0.000000 0.000000 0.000000 0.022526 0.000000 -0.002882
# 5 -0.000006 0.001970 -0.002180 0.000000 0.026552 0.000000
# 6 0.000000 0.000000 0.000000 -0.002882 0.000000 0.020228
#
#
# Mechanical properties :
#
#
# Convention : Reuss Voigt Hill
#
# Bulk Modulus (GPa) = 69.10531 81.44136 75.27334
# Shear Modulus (GPa) = 38.72494 42.10722 40.41608
#
# Velocity S-wave (km/s) = 3.72757 3.88695 3.80809
# Velocity P-wave (km/s) = 6.58193 7.02611 6.80764
#
# Compressibility (1/GPa) = 0.01447067
#
# Stress axis : x y z
#
# Youngs Moduli (GPa) = 139.54982 65.44426 81.41723
#
# Poissons Ratio (x) = 0.23633 0.23889
# Poissons Ratio (y) = 0.50394 0.29176
# Poissons Ratio (z) = 0.40946 0.23452
#
# Static dielectric constant tensor:
#      x y z
#    x 2.312580 0.000000 0.110330 
#    y 0.000000 2.199940 0.000000 
#    z 0.110330 0.000000 2.252140 
# 
# From -- ./inp_files/24630.got.cif
#   From: 2010.05.17/outbox.cif.g08.bks.cpg/sg9_13_cif.got.tgz:24630.got - 2010.06.03 20:04:27.
