data_PCOD9138838
_publ_section_title
;
Structure prediction by ZEFSAII (Michael W. Deem and Ramdas Pophale) SiO2 
 PCOD9138838
Probable space group: C C
;
_chemical_formula_sum "Si O2"
_cell_formula_units_Z 28
_cell_length_a 7.562295
_cell_length_b 8.991919
_cell_length_c 20.553002
_cell_angle_alpha 90.000000
_cell_angle_beta 127.778167
_cell_angle_gamma 90.000000
_cell_volume 1104.642842
_symmetry_space_group_name_H-M "C C"
_symmetry_group_IT_number 9
_symmetry_cell_setting 'monoclinic'
loop_
_space_group_symop_operation_xyz
x,y,z
x,-y,1/2+z
1/2+x,1/2+y,z
1/2+x,1/2-y,1/2+z
loop_
_atom_site_type_symbol
_atom_site_label
_atom_site_fract_x
_atom_site_fract_y
_atom_site_fract_z
Si Si1 0.756530 0.830674 0.595500
Si Si2 0.200351 0.814610 0.883224
Si Si3 0.585880 0.516382 0.736249
Si Si4 0.577149 0.816765 0.687509
Si Si5 0.928774 0.856513 0.954052
Si Si6 0.060901 0.171934 0.043545
Si Si7 0.057829 0.493335 0.796690
O O1 0.727243 0.762726 0.660925
O O2 0.519641 0.794437 0.508183
O O3 0.857602 0.985534 0.644533
O O4 0.938765 0.780656 0.583567
O O5 0.142110 0.933411 0.815290
O O6 0.115585 0.656323 0.836243
O O7 0.066829 0.861004 0.917778
O O8 0.452357 0.779263 0.964302
O O9 0.594874 0.691299 0.745932
O O10 0.793733 0.466840 0.738291
O O11 0.325780 0.826564 0.605764
O O12 0.638639 0.965103 0.740901
O O13 0.676660 0.883593 0.875138
O O14 0.991213 0.000822 0.011644
#
# Coordination Sequence:
#
# PCOD9138838 Si02
#       7
#     4   4   4   4   4   4   4
#     4  11  24  44  74 106 147 185 245 301 362 436
#     4  10  25  48  74 104 146 194 248 303 363 444
#     4  12  25  44  71 112 146 190 252 300 364 440
#     4  12  27  46  75 109 146 197 241 303 374 433
#     4  10  23  48  74 105 146 194 244 306 365 437
#     4  10  24  49  72 109 147 191 243 306 371 434
#     4  11  24  47  72 103 150 193 249 301 365 436
#
# _framework density 25.347560999999999
#
# number of rings (size 3 to 8) (size 9 to 14) (size 15 to 20)
#    0.000    1.143    1.429    3.429    4.000    5.714 
#   12.857    0.000    0.000    0.000    0.000    0.000 
#    0.000    0.000    0.000    0.000    0.000    0.000 
#
# Total GULP energy -78163.572622 kJ/mol
# GULP energy per Si atom -5583.112330 kJ/mol
# Density = 2.528987 g / cm^3
# Si number density = 25.347561 Si / 1000 Ang^3
#
#
#
# Elastic Constant Matrix: (Units=GPa)
#
#
# Indices 1 2 3 4 5 6 
#
# 1 76.5555 25.2432 49.6646 0.0000 -20.9525 0.0000
# 2 25.2432 60.0674 42.7732 0.0000 -5.5825 0.0000
# 3 49.6646 42.7732 123.5478 0.0000 -2.2084 0.0000
# 4 0.0000 0.0000 0.0000 50.6508 0.0000 1.1439
# 5 -20.9525 -5.5825 -2.2084 0.0000 61.1861 0.0000
# 6 0.0000 0.0000 0.0000 1.1439 0.0000 17.8037
#
#
#
# Elastic Compliance Matrix: (Units=1/GPa)
#
#
# Indices 1 2 3 4 5 6 
#
# 1 0.020377 -0.002937 -0.007059 0.000000 0.006455 0.000000
# 2 -0.002937 0.022705 -0.006665 0.000000 0.000825 0.000000
# 3 -0.007059 -0.006665 0.013194 0.000000 -0.002549 0.000000
# 4 0.000000 0.000000 0.000000 0.019772 0.000000 -0.001270
# 5 0.006455 0.000825 -0.002549 0.000000 0.018537 0.000000
# 6 0.000000 0.000000 0.000000 -0.001270 0.000000 0.056250
#
#
# Mechanical properties :
#
#
# Convention : Reuss Voigt Hill
#
# Bulk Modulus (GPa) = 43.56667 55.05918 49.31293
# Shear Modulus (GPa) = 26.06763 35.42743 30.74753
#
# Velocity S-wave (km/s) = 3.21036 3.74259 3.48665
# Velocity P-wave (km/s) = 5.56479 6.35963 5.97544
#
# Compressibility (1/GPa) = 0.02295333
#
# Stress axis : x y z
#
# Youngs Moduli (GPa) = 49.07477 44.04277 75.79318
#
# Poissons Ratio (x) = 0.12934 0.53504
# Poissons Ratio (y) = 0.14412 0.50520
# Poissons Ratio (z) = 0.34643 0.29356
#
# Static dielectric constant tensor:
#      x y z
#    x 2.044010 0.000000 0.020970 
#    y 0.000000 1.983560 0.000000 
#    z 0.020970 0.000000 1.974800 
# 
# From -- ./inp_files/32453.got.cif
#   From: 2010.05.17/outbox.cif.g08.bks.cpg/sg9_17_cif.got.tgz:32453.got - 2010.06.03 20:04:27.
