data_PCOD9138390
_publ_section_title
;
Structure prediction by ZEFSAII (Michael W. Deem and Ramdas Pophale) SiO2 
 PCOD9138390
Probable space group: C C
;
_chemical_formula_sum "Si O2"
_cell_formula_units_Z 32
_cell_length_a 6.459640
_cell_length_b 12.474903
_cell_length_c 19.613257
_cell_angle_alpha 90.000000
_cell_angle_beta 114.959856
_cell_angle_gamma 90.000000
_cell_volume 1432.889448
_symmetry_space_group_name_H-M "C C"
_symmetry_group_IT_number 9
_symmetry_cell_setting 'monoclinic'
loop_
_space_group_symop_operation_xyz
x,y,z
x,-y,1/2+z
1/2+x,1/2+y,z
1/2+x,1/2-y,1/2+z
loop_
_atom_site_type_symbol
_atom_site_label
_atom_site_fract_x
_atom_site_fract_y
_atom_site_fract_z
Si Si1 0.806240 0.724825 0.870100
Si Si2 0.199542 0.156953 0.468453
Si Si3 0.919087 0.083724 0.554050
Si Si4 0.926274 0.928820 0.258206
Si Si5 0.643161 0.036862 0.330988
Si Si6 0.639823 0.214000 0.616596
Si Si7 0.688013 0.447121 0.686350
Si Si8 0.490637 0.036132 0.955034
O O1 0.642149 0.651685 0.799817
O O2 0.677718 0.838169 0.854554
O O3 0.856934 0.647955 0.942629
O O4 0.070324 0.765443 0.896940
O O5 0.391768 0.203680 0.546269
O O6 0.322069 0.060741 0.447259
O O7 0.002893 0.111520 0.490769
O O8 0.814865 0.184078 0.579817
O O9 0.720893 0.992307 0.527957
O O10 0.133313 0.036631 0.623014
O O11 0.725503 0.867152 0.188601
O O12 0.845057 0.976931 0.318849
O O13 0.013209 0.026434 0.223336
O O14 0.437839 0.038000 0.249457
O O15 0.568462 0.973445 0.387572
O O16 0.660919 0.331393 0.650001
#
# Coordination Sequence:
#
# PCOD9138390 Si02
#       8
#     4   4   4   4   4   4   4   4
#     4  12  24  42  69  98 132 180 221 275 345 395
#     4  11  24  45  68 102 136 178 231 280 334 412
#     4  10  23  43  66  98 138 174 231 280 335 403
#     4  11  25  44  66 102 139 172 235 281 336 410
#     4  12  25  43  68 102 135 178 225 281 336 408
#     4  10  23  44  69  99 134 181 228 277 343 402
#     4  11  23  44  67  98 136 180 224 281 340 405
#     4  11  25  45  65 101 138 173 227 281 335 403
#
# _framework density 22.3325
#
# number of rings (size 3 to 8) (size 9 to 14) (size 15 to 20)
#    0.000    1.000    3.750    2.250    0.000    4.000 
#    0.000    0.000    0.000    0.000    0.000    0.000 
#    0.000    0.000    0.000    0.000    0.000    0.000 
#
# Total GULP energy -89255.587557 kJ/mol
# GULP energy per Si atom -5578.474222 kJ/mol
# Density = 2.228167 g / cm^3
# Si number density = 22.332500 Si / 1000 Ang^3
#
#
#
# Elastic Constant Matrix: (Units=GPa)
#
#
# Indices 1 2 3 4 5 6 
#
# 1 63.1423 47.6279 43.5323 0.0000 5.9339 0.0000
# 2 47.6279 95.4854 24.5906 0.0000 2.7764 0.0000
# 3 43.5323 24.5906 95.2515 0.0000 22.4146 0.0000
# 4 0.0000 0.0000 0.0000 43.0500 0.0000 4.1228
# 5 5.9339 2.7764 22.4146 0.0000 60.5743 0.0000
# 6 0.0000 0.0000 0.0000 4.1228 0.0000 24.0079
#
#
#
# Elastic Compliance Matrix: (Units=1/GPa)
#
#
# Indices 1 2 3 4 5 6 
#
# 1 0.035437 -0.014400 -0.012943 0.000000 0.001978 0.000000
# 2 -0.014400 0.017091 0.002214 0.000000 -0.000192 0.000000
# 3 -0.012943 0.002214 0.017053 0.000000 -0.005144 0.000000
# 4 0.000000 0.000000 0.000000 0.023617 0.000000 -0.004056
# 5 0.001978 -0.000192 -0.005144 0.000000 0.018227 0.000000
# 6 0.000000 0.000000 0.000000 -0.004056 0.000000 0.042350
#
#
# Mechanical properties :
#
#
# Convention : Reuss Voigt Hill
#
# Bulk Modulus (GPa) = 51.75496 53.93118 52.84307
# Shear Modulus (GPa) = 23.75601 34.73501 29.24551
#
# Velocity S-wave (km/s) = 3.26504 3.94808 3.62270
# Velocity P-wave (km/s) = 6.11875 6.70707 6.41965
#
# Compressibility (1/GPa) = 0.01932182
#
# Stress axis : x y z
#
# Youngs Moduli (GPa) = 28.21933 58.51088 58.64148
#
# Poissons Ratio (x) = 0.84255 0.75902
# Poissons Ratio (y) = 0.40636 -0.12984
# Poissons Ratio (z) = 0.36525 -0.12955
#
# Static dielectric constant tensor:
#      x y z
#    x 1.830480 0.000000 0.023830 
#    y 0.000000 1.836080 0.000000 
#    z 0.023830 0.000000 1.858650 
# 
# From -- ./inp_files/32096.got.cif
#   From: 2010.05.17/outbox.cif.g08.bks.cpg/sg9_17_cif.got.tgz:32096.got - 2010.06.03 20:04:27.
