data_PCOD9138100
_publ_section_title
;
Structure prediction by ZEFSAII (Michael W. Deem and Ramdas Pophale) SiO2 
 PCOD9138100
Probable space group: C C
;
_chemical_formula_sum "Si O2"
_cell_formula_units_Z 28
_cell_length_a 5.307659
_cell_length_b 18.949983
_cell_length_c 11.628008
_cell_angle_alpha 90.000000
_cell_angle_beta 107.792990
_cell_angle_gamma 90.000000
_cell_volume 1113.602477
_symmetry_space_group_name_H-M "C C"
_symmetry_group_IT_number 9
_symmetry_cell_setting 'monoclinic'
loop_
_space_group_symop_operation_xyz
x,y,z
x,-y,1/2+z
1/2+x,1/2+y,z
1/2+x,1/2-y,1/2+z
loop_
_atom_site_type_symbol
_atom_site_label
_atom_site_fract_x
_atom_site_fract_y
_atom_site_fract_z
Si Si1 0.654270 0.322803 0.410920
Si Si2 0.034577 0.545647 0.922019
Si Si3 0.467934 0.626666 0.117751
Si Si4 0.218186 0.234949 0.683952
Si Si5 0.244601 0.902263 0.887703
Si Si6 0.151949 0.386115 0.224034
Si Si7 0.304543 0.354708 0.007356
O O1 0.628845 0.330933 0.543346
O O2 0.730112 0.264696 0.325124
O O3 0.358617 0.341368 0.327567
O O4 0.843537 0.387569 0.405663
O O5 0.097361 0.545450 0.793946
O O6 0.876429 0.476982 0.936673
O O7 0.291176 0.566978 0.031413
O O8 0.296084 0.688756 0.150934
O O9 0.645339 0.596143 0.243624
O O10 0.409368 0.168869 0.674552
O O11 0.947399 0.213348 0.581982
O O12 0.495444 0.848669 0.930062
O O13 0.997955 0.885037 0.936717
O O14 0.285213 0.402285 0.120862
#
# Coordination Sequence:
#
# PCOD9138100 Si02
#       7
#     4   4   4   4   4   4   4
#     4   9  22  44  74 111 151 209 256 323 393 460
#     4  10  25  48  74 112 153 210 260 327 391 470
#     4  11  27  47  76 118 155 212 260 332 389 475
#     4  10  22  48  78 111 155 203 263 324 397 473
#     4  12  29  48  77 117 161 201 267 325 394 472
#     4   9  20  45  75 109 148 205 258 317 396 461
#     4  11  25  50  74 116 151 208 254 328 392 465
#
# _framework density 25.143621
#
# number of rings (size 3 to 8) (size 9 to 14) (size 15 to 20)
#    0.000    1.714    1.429    0.000    6.000   11.429 
#    2.571    0.000    0.000    0.000    0.000    0.000 
#    0.000    0.000    0.000    0.000    0.000    0.000 
#
# Total GULP energy -78244.959278 kJ/mol
# GULP energy per Si atom -5588.925663 kJ/mol
# Density = 2.508639 g / cm^3
# Si number density = 25.143621 Si / 1000 Ang^3
#
#
#
# Elastic Constant Matrix: (Units=GPa)
#
#
# Indices 1 2 3 4 5 6 
#
# 1 131.7685 29.6667 69.3714 0.0000 -12.1745 0.0000
# 2 29.6667 77.8541 40.2462 0.0000 -6.5155 0.0000
# 3 69.3714 40.2462 169.0228 0.0000 -15.3339 0.0000
# 4 0.0000 0.0000 0.0000 15.4623 0.0000 9.2336
# 5 -12.1745 -6.5155 -15.3339 0.0000 50.5612 0.0000
# 6 0.0000 0.0000 0.0000 9.2336 0.0000 34.6412
#
#
#
# Elastic Compliance Matrix: (Units=1/GPa)
#
#
# Indices 1 2 3 4 5 6 
#
# 1 0.009982 -0.001877 -0.003551 0.000000 0.001085 0.000000
# 2 -0.001877 0.015036 -0.002751 0.000000 0.000651 0.000000
# 3 -0.003551 -0.002751 0.008143 0.000000 0.001260 0.000000
# 4 0.000000 0.000000 0.000000 0.076916 0.000000 -0.020502
# 5 0.001085 0.000651 0.001260 0.000000 0.020505 0.000000
# 6 0.000000 0.000000 0.000000 -0.020502 0.000000 0.034332
#
#
# Mechanical properties :
#
#
# Convention : Reuss Voigt Hill
#
# Bulk Modulus (GPa) = 59.51393 73.02377 66.26885
# Shear Modulus (GPa) = 26.75597 36.09035 31.42316
#
# Velocity S-wave (km/s) = 3.26563 3.79274 3.53901
# Velocity P-wave (km/s) = 6.15956 6.94878 6.56603
#
# Compressibility (1/GPa) = 0.01680279
#
# Stress axis : x y z
#
# Youngs Moduli (GPa) = 100.18527 66.50568 122.80081
#
# Poissons Ratio (x) = 0.12482 0.43611
# Poissons Ratio (y) = 0.18804 0.33781
# Poissons Ratio (z) = 0.35580 0.18295
#
# Static dielectric constant tensor:
#      x y z
#    x 2.055450 0.000000 -0.063560 
#    y 0.000000 2.038900 0.000000 
#    z -0.063560 0.000000 2.091120 
# 
# From -- ./inp_files/13394.got.cif
#   From: 2010.05.17/outbox.cif.g08.bks.cpg/sg9_7_cif.got.tgz:13394.got - 2010.06.03 20:04:27.
