data_PCOD9138898
_publ_section_title
;
Structure prediction by ZEFSAII (Michael W. Deem and Ramdas Pophale) SiO2 
 PCOD9138898
Probable space group: C C
;
_chemical_formula_sum "Si O2"
_cell_formula_units_Z 28
_cell_length_a 7.110215
_cell_length_b 12.249421
_cell_length_c 18.443978
_cell_angle_alpha 90.000000
_cell_angle_beta 134.521185
_cell_angle_gamma 90.000000
_cell_volume 1145.347004
_symmetry_space_group_name_H-M "C C"
_symmetry_group_IT_number 9
_symmetry_cell_setting 'monoclinic'
loop_
_space_group_symop_operation_xyz
x,y,z
x,-y,1/2+z
1/2+x,1/2+y,z
1/2+x,1/2-y,1/2+z
loop_
_atom_site_type_symbol
_atom_site_label
_atom_site_fract_x
_atom_site_fract_y
_atom_site_fract_z
Si Si1 0.588400 0.827561 0.321640
Si Si2 0.161022 0.467450 0.752646
Si Si3 0.151890 0.257857 0.940165
Si Si4 0.215985 0.970387 0.388913
Si Si5 0.401896 0.485838 0.173049
Si Si6 0.492464 0.755740 0.675516
Si Si7 0.742072 0.000902 0.484954
O O1 0.552770 0.917393 0.248879
O O2 0.306916 0.769197 0.251740
O O3 0.683663 0.900320 0.416864
O O4 0.838440 0.750227 0.372066
O O5 0.468574 0.475205 0.862062
O O6 0.197660 0.461343 0.674984
O O7 0.997597 0.361175 0.727866
O O8 0.204048 0.159452 0.898272
O O9 0.248339 0.380888 0.949670
O O10 0.325949 0.224707 0.057438
O O11 0.505630 0.011576 0.481280
O O12 0.170214 0.999762 0.292396
O O13 0.363748 0.355362 0.168784
O O14 0.458601 0.517806 0.105399
#
# Coordination Sequence:
#
# PCOD9138898 Si02
#       7
#     4   4   4   4   4   4   4
#     4  11  23  38  63  93 122 161 215 252 306 376
#     4   9  21  38  61  85 123 162 199 259 307 355
#     4  10  24  40  61  94 124 161 213 255 311 371
#     4   9  19  42  59  85 127 157 202 259 303 366
#     4   9  21  39  60  90 121 163 206 249 314 370
#     4  11  21  40  64  89 120 167 206 254 312 369
#     4  11  21  39  64  88 125 165 203 258 313 365
#
# _framework density 24.446736999999999
#
# number of rings (size 3 to 8) (size 9 to 14) (size 15 to 20)
#    0.857    1.143    1.429    1.714    2.000    2.286 
#    0.000    5.714    0.000    0.000    0.000    0.000 
#    0.000    0.000    0.000    0.000    0.000    0.000 
#
# Total GULP energy -77979.793195 kJ/mol
# GULP energy per Si atom -5569.985228 kJ/mol
# Density = 2.439110 g / cm^3
# Si number density = 24.446737 Si / 1000 Ang^3
#
#
#
# Elastic Constant Matrix: (Units=GPa)
#
#
# Indices 1 2 3 4 5 6 
#
# 1 50.0734 26.8005 28.2529 0.0000 7.2192 0.0000
# 2 26.8005 106.1761 25.4999 0.0000 5.2470 0.0000
# 3 28.2529 25.4999 77.5992 0.0000 -9.3429 0.0000
# 4 0.0000 0.0000 0.0000 37.8500 0.0000 1.0666
# 5 7.2192 5.2470 -9.3429 0.0000 39.9672 0.0000
# 6 0.0000 0.0000 0.0000 1.0666 0.0000 29.2769
#
#
#
# Elastic Compliance Matrix: (Units=1/GPa)
#
#
# Indices 1 2 3 4 5 6 
#
# 1 0.029017 -0.004606 -0.009887 0.000000 -0.006948 0.000000
# 2 -0.004606 0.011146 -0.002121 0.000000 -0.001127 0.000000
# 3 -0.009887 -0.002121 0.017937 0.000000 0.006257 0.000000
# 4 0.000000 0.000000 0.000000 0.026447 0.000000 -0.000963
# 5 -0.006948 -0.001127 0.006257 0.000000 0.027886 0.000000
# 6 0.000000 0.000000 0.000000 -0.000963 0.000000 0.034192
#
#
# Mechanical properties :
#
#
# Convention : Reuss Voigt Hill
#
# Bulk Modulus (GPa) = 40.20948 43.88390 42.04669
# Shear Modulus (GPa) = 26.57524 31.63850 29.10687
#
# Velocity S-wave (km/s) = 3.30065 3.60138 3.45429
# Velocity P-wave (km/s) = 5.56859 5.93995 5.75726
#
# Compressibility (1/GPa) = 0.02486976
#
# Stress axis : x y z
#
# Youngs Moduli (GPa) = 34.46312 89.71671 55.75033
#
# Poissons Ratio (x) = 0.41326 0.55123
# Poissons Ratio (y) = 0.15875 0.11827
# Poissons Ratio (z) = 0.34075 0.19032
#
# Static dielectric constant tensor:
#      x y z
#    x 1.980480 0.000000 -0.050810 
#    y 0.000000 1.924770 0.000000 
#    z -0.050810 0.000000 1.988230 
# 
# From -- ./inp_files/34963.got.cif
#   From: 2010.05.17/outbox.cif.g08.bks.cpg/sg9_18_cif.got.tgz:34963.got - 2010.06.03 20:04:27.
