data_PCOD9138228
_publ_section_title
;
Structure prediction by ZEFSAII (Michael W. Deem and Ramdas Pophale) SiO2 
 PCOD9138228
Probable space group: C C
;
_chemical_formula_sum "Si O2"
_cell_formula_units_Z 32
_cell_length_a 7.291045
_cell_length_b 31.504195
_cell_length_c 5.957317
_cell_angle_alpha 90.000000
_cell_angle_beta 106.424002
_cell_angle_gamma 90.000000
_cell_volume 1312.550616
_symmetry_space_group_name_H-M "C C"
_symmetry_group_IT_number 9
_symmetry_cell_setting 'monoclinic'
loop_
_space_group_symop_operation_xyz
x,y,z
x,-y,1/2+z
1/2+x,1/2+y,z
1/2+x,1/2-y,1/2+z
loop_
_atom_site_type_symbol
_atom_site_label
_atom_site_fract_x
_atom_site_fract_y
_atom_site_fract_z
Si Si1 0.071340 0.883909 0.044650
Si Si2 0.261771 0.261383 0.505755
Si Si3 0.613421 0.685445 0.267149
Si Si4 0.758300 0.178089 0.633356
Si Si5 0.472717 0.816226 0.638164
Si Si6 0.013619 0.517242 0.771273
Si Si7 0.048247 0.018498 0.602518
Si Si8 0.513161 0.886178 0.344548
O O1 0.000370 0.931553 0.055629
O O2 0.292686 0.883257 0.191701
O O3 0.940213 0.848461 0.115229
O O4 0.073122 0.863878 0.795267
O O5 0.423208 0.287017 0.692902
O O6 0.237269 0.211108 0.497664
O O7 0.311400 0.278330 0.274055
O O8 0.061352 0.283625 0.494307
O O9 0.749455 0.688512 0.100547
O O10 0.602440 0.190986 0.398314
O O11 0.649528 0.144548 0.753377
O O12 0.514678 0.865291 0.589871
O O13 0.071558 0.505658 0.530500
O O14 0.780789 0.514094 0.686334
O O15 0.072231 0.565637 0.837865
O O16 0.988840 0.996929 0.338176
#
# Coordination Sequence:
#
# PCOD9138228 Si02
#       8
#     4   4   4   4   4   4   4   4
#     4  11  23  42  71  99 134 184 235 288 358 424
#     4  11  27  43  65  98 135 182 232 286 346 411
#     4  12  25  43  70  99 136 186 233 284 355 416
#     4  11  23  45  63  98 135 177 228 290 341 421
#     4  11  24  43  68  93 136 179 224 290 340 418
#     4   9  19  35  63  98 134 179 230 289 356 427
#     4   9  20  40  67 100 139 181 237 299 361 431
#     4  10  23  41  67  95 131 178 229 282 351 416
#
# _framework density 24.380013000000002
#
# number of rings (size 3 to 8) (size 9 to 14) (size 15 to 20)
#    0.000    1.500    2.500    1.500    5.250    5.000 
#    0.000    1.250    0.000    0.000    0.000    0.000 
#    0.000    0.000    0.000    0.000    0.000    0.000 
#
# Total GULP energy -89240.633557 kJ/mol
# GULP energy per Si atom -5577.539597 kJ/mol
# Density = 2.432452 g / cm^3
# Si number density = 24.380013 Si / 1000 Ang^3
#
#
#
# Elastic Constant Matrix: (Units=GPa)
#
#
# Indices 1 2 3 4 5 6 
#
# 1 79.8273 -0.5709 5.9744 0.0000 -13.5794 0.0000
# 2 -0.5709 140.2167 41.7576 0.0000 -12.1139 0.0000
# 3 5.9744 41.7576 88.0567 0.0000 1.8430 0.0000
# 4 0.0000 0.0000 0.0000 32.5193 0.0000 -0.6958
# 5 -13.5794 -12.1139 1.8430 0.0000 34.9385 0.0000
# 6 0.0000 0.0000 0.0000 -0.6958 0.0000 25.7595
#
#
#
# Elastic Compliance Matrix: (Units=1/GPa)
#
#
# Indices 1 2 3 4 5 6 
#
# 1 0.013621 0.001002 -0.001519 0.000000 0.005722 0.000000
# 2 0.001002 0.008726 -0.004282 0.000000 0.003641 0.000000
# 3 -0.001519 -0.004282 0.013548 0.000000 -0.002790 0.000000
# 4 0.000000 0.000000 0.000000 0.030769 0.000000 0.000831
# 5 0.005722 0.003641 -0.002790 0.000000 0.032255 0.000000
# 6 0.000000 0.000000 0.000000 0.000831 0.000000 0.038843
#
#
# Mechanical properties :
#
#
# Convention : Reuss Voigt Hill
#
# Bulk Modulus (GPa) = 38.02674 44.71365 41.37020
# Shear Modulus (GPa) = 32.02546 36.03944 34.03245
#
# Velocity S-wave (km/s) = 3.62829 3.84896 3.74025
# Velocity P-wave (km/s) = 5.76055 6.17517 5.97146
#
# Compressibility (1/GPa) = 0.02629728
#
# Stress axis : x y z
#
# Youngs Moduli (GPa) = 73.41482 114.60464 73.80968
#
# Poissons Ratio (x) = -0.11486 0.11213
# Poissons Ratio (y) = -0.07358 0.31605
# Poissons Ratio (z) = 0.11153 0.49074
#
# Static dielectric constant tensor:
#      x y z
#    x 1.988250 0.000000 -0.069860 
#    y 0.000000 1.869230 0.000000 
#    z -0.069860 0.000000 2.058880 
# 
# From -- ./inp_files/1311.got.cif
#   From: 2010.05.17/outbox.cif.g08.bks.cpg/sg9_1_cif.got.tgz:1311.got - 2010.06.03 20:04:27.
