data_PCOD9138712
_publ_section_title
;
Structure prediction by ZEFSAII (Michael W. Deem and Ramdas Pophale) SiO2 
 PCOD9138712
Probable space group: C C
;
_chemical_formula_sum "Si O2"
_cell_formula_units_Z 32
_cell_length_a 30.178713
_cell_length_b 7.936045
_cell_length_c 11.555505
_cell_angle_alpha 90.000000
_cell_angle_beta 26.222084
_cell_angle_gamma 90.000000
_cell_volume 1222.841743
_symmetry_space_group_name_H-M "C C"
_symmetry_group_IT_number 9
_symmetry_cell_setting 'monoclinic'
loop_
_space_group_symop_operation_xyz
x,y,z
x,-y,1/2+z
1/2+x,1/2+y,z
1/2+x,1/2-y,1/2+z
loop_
_atom_site_type_symbol
_atom_site_label
_atom_site_fract_x
_atom_site_fract_y
_atom_site_fract_z
Si Si1 0.314100 0.806660 0.107890
Si Si2 0.112222 0.853682 0.837117
Si Si3 0.121551 0.964057 0.063027
Si Si4 0.287281 0.619195 0.394759
Si Si5 0.460395 0.865836 0.591713
Si Si6 0.878320 0.636085 0.065265
Si Si7 0.676202 0.225303 0.110784
Si Si8 0.449148 0.252362 0.671979
O O1 0.297975 0.657671 0.233490
O O2 0.215322 0.914770 0.312299
O O3 0.383746 0.946068 0.008062
O O4 0.372571 0.759242 0.856994
O O5 0.073582 0.935620 0.047778
O O6 0.225304 0.783386 0.585784
O O7 0.095807 0.953643 0.752142
O O8 0.054895 0.681647 0.944210
O O9 0.143212 0.770152 0.054721
O O10 0.224727 0.446977 0.542120
O O11 0.394978 0.625740 0.206530
O O12 0.467659 0.819258 0.441361
O O13 0.437360 0.062824 0.649796
O O14 0.773958 0.652072 0.379865
O O15 0.885282 0.756427 0.939241
O O16 0.568134 0.254161 0.423603
#
# Coordination Sequence:
#
# PCOD9138712 Si02
#       8
#     4   4   4   4   4   4   4   4
#     4   9  21  41  72  94 140 198 252 320 401 474
#     4  11  24  47  76 111 153 212 267 330 414 487
#     4  10  25  45  73 108 156 205 262 331 409 480
#     4  11  22  46  73 112 146 197 266 330 393 484
#     4  11  22  44  74 106 142 207 265 317 410 481
#     4  10  23  46  68 106 156 198 259 333 403 480
#     4  11  25  46  74 115 154 206 256 335 398 479
#     4  11  24  47  78 108 153 205 263 334 402 485
#
# _framework density 26.168552999999999
#
# number of rings (size 3 to 8) (size 9 to 14) (size 15 to 20)
#    0.000    1.500    2.500    2.250    5.250    2.000 
#   11.250    0.000    0.000    0.000    0.000    0.000 
#    0.000    0.000    0.000    0.000    0.000    0.000 
#
# Total GULP energy -89124.664341 kJ/mol
# GULP energy per Si atom -5570.291521 kJ/mol
# Density = 2.610899 g / cm^3
# Si number density = 26.168553 Si / 1000 Ang^3
#
#
#
# Elastic Constant Matrix: (Units=GPa)
#
#
# Indices 1 2 3 4 5 6 
#
# 1 148.1469 43.4685 26.6818 0.0000 0.6705 0.0000
# 2 43.4685 108.5482 26.2213 0.0000 -10.4342 0.0000
# 3 26.6818 26.2213 80.4924 0.0000 -11.0349 0.0000
# 4 0.0000 0.0000 0.0000 29.4563 0.0000 -3.5407
# 5 0.6705 -10.4342 -11.0349 0.0000 34.6918 0.0000
# 6 0.0000 0.0000 0.0000 -3.5407 0.0000 24.0565
#
#
#
# Elastic Compliance Matrix: (Units=1/GPa)
#
#
# Indices 1 2 3 4 5 6 
#
# 1 0.007947 -0.002875 -0.001921 0.000000 -0.001629 0.000000
# 2 -0.002875 0.011182 -0.002322 0.000000 0.002680 0.000000
# 3 -0.001921 -0.002322 0.014352 0.000000 0.003904 0.000000
# 4 0.000000 0.000000 0.000000 0.034560 0.000000 0.005087
# 5 -0.001629 0.002680 0.003904 0.000000 0.030905 0.000000
# 6 0.000000 0.000000 0.000000 0.005087 0.000000 0.042317
#
#
# Mechanical properties :
#
#
# Convention : Reuss Voigt Hill
#
# Bulk Modulus (GPa) = 51.96263 58.88119 55.42191
# Shear Modulus (GPa) = 30.88035 33.69531 32.28783
#
# Velocity S-wave (km/s) = 3.43892 3.59224 3.51642
# Velocity P-wave (km/s) = 5.97229 6.30517 6.14099
#
# Compressibility (1/GPa) = 0.01924460
#
# Stress axis : x y z
#
# Youngs Moduli (GPa) = 125.83386 89.42609 69.67639
#
# Poissons Ratio (x) = 0.25710 0.13386
# Poissons Ratio (y) = 0.36177 0.16181
# Poissons Ratio (z) = 0.24174 0.20768
#
# Static dielectric constant tensor:
#      x y z
#    x 2.102110 0.000000 -0.041790 
#    y 0.000000 2.102970 0.000000 
#    z -0.041790 0.000000 2.187500 
# 
# From -- ./inp_files/21426.got.cif
#   From: 2010.05.17/outbox.cif.g08.bks.cpg/sg9_11_cif.got.tgz:21426.got - 2010.06.03 20:04:27.
