data_PCOD9138211
_publ_section_title
;
Structure prediction by ZEFSAII (Michael W. Deem and Ramdas Pophale) SiO2 
 PCOD9138211
Probable space group: C C
;
_chemical_formula_sum "Si O2"
_cell_formula_units_Z 32
_cell_length_a 12.342727
_cell_length_b 15.373297
_cell_length_c 16.864229
_cell_angle_alpha 90.000000
_cell_angle_beta 30.063534
_cell_angle_gamma 90.000000
_cell_volume 1603.052291
_symmetry_space_group_name_H-M "C C"
_symmetry_group_IT_number 9
_symmetry_cell_setting 'monoclinic'
loop_
_space_group_symop_operation_xyz
x,y,z
x,-y,1/2+z
1/2+x,1/2+y,z
1/2+x,1/2-y,1/2+z
loop_
_atom_site_type_symbol
_atom_site_label
_atom_site_fract_x
_atom_site_fract_y
_atom_site_fract_z
Si Si1 0.335710 0.297833 0.466650
Si Si2 0.191187 0.011313 0.342748
Si Si3 0.890820 0.514499 0.957090
Si Si4 0.575989 0.951277 0.985831
Si Si5 0.909975 0.637657 0.320570
Si Si6 0.712271 0.777139 0.833463
Si Si7 0.969704 0.018747 0.824706
Si Si8 0.156071 0.137899 0.991262
O O1 0.286443 0.213182 0.445755
O O2 0.559559 0.276582 0.370486
O O3 0.136460 0.320836 0.649791
O O4 0.396955 0.972541 0.164805
O O5 0.118009 0.944122 0.456895
O O6 0.016149 0.016966 0.383670
O O7 0.273462 0.098153 0.334091
O O8 0.065062 0.516914 0.917481
O O9 0.686337 0.478678 0.136175
O O10 0.805572 0.600617 0.967139
O O11 0.954555 0.443809 0.850673
O O12 0.559533 0.854568 0.962092
O O13 0.803856 0.958519 0.884142
O O14 0.374598 0.615097 0.892088
O O15 0.926394 0.821578 0.662642
O O16 0.772184 0.712128 0.866305
#
# Coordination Sequence:
#
# PCOD9138211 Si02
#       8
#     4   4   4   4   4   4   4   4
#     4  12  23  37  66 100 129 166 223 277 318 381
#     4  10  23  41  65  94 135 172 214 268 331 394
#     4  10  23  41  65  94 135 172 214 268 331 394
#     4  11  22  42  67  97 131 174 217 267 328 398
#     4  11  23  41  62  98 132 166 219 274 326 382
#     4  12  23  37  66 100 129 166 223 277 318 381
#     4  11  22  42  67  97 131 174 217 267 328 398
#     4  11  23  41  62  98 132 166 219 274 326 382
#
# _framework density 19.961919999999999
#
# number of rings (size 3 to 8) (size 9 to 14) (size 15 to 20)
#    0.000    1.000    5.000    2.250    3.500    0.000 
#    0.000    1.250    0.000    0.000    0.000    0.000 
#    0.000    0.000    0.000    0.000    0.000    0.000 
#
# Total GULP energy -89380.920056 kJ/mol
# GULP energy per Si atom -5586.307503 kJ/mol
# Density = 1.991649 g / cm^3
# Si number density = 19.961920 Si / 1000 Ang^3
#
#
#
# Elastic Constant Matrix: (Units=GPa)
#
#
# Indices 1 2 3 4 5 6 
#
# 1 92.5260 17.5960 23.9824 -0.0034 4.6752 -0.0046
# 2 17.5960 67.9502 31.4319 -0.0156 9.4085 -0.0013
# 3 23.9824 31.4319 75.9401 -0.0037 10.6209 -0.0003
# 4 -0.0034 -0.0156 -0.0037 42.8359 0.0031 8.8328
# 5 4.6752 9.4085 10.6209 0.0031 21.5193 0.0006
# 6 -0.0046 -0.0013 -0.0003 8.8328 0.0006 28.9958
#
#
#
# Elastic Compliance Matrix: (Units=1/GPa)
#
#
# Indices 1 2 3 4 5 6 
#
# 1 0.011924 -0.001630 -0.003038 0.000000 -0.000378 0.000002
# 2 -0.001630 0.018850 -0.006643 0.000007 -0.004609 -0.000001
# 3 -0.003038 -0.006643 0.017593 -0.000001 -0.005119 0.000000
# 4 0.000000 0.000007 -0.000001 0.024910 -0.000006 -0.007588
# 5 -0.000378 -0.004609 -0.005119 -0.000006 0.051093 0.000000
# 6 0.000002 -0.000001 0.000000 -0.007588 0.000000 0.036799
#
#
# Mechanical properties :
#
#
# Convention : Reuss Voigt Hill
#
# Bulk Modulus (GPa) = 38.84197 42.49299 40.66748
# Shear Modulus (GPa) = 25.99122 29.56393 27.77757
#
# Velocity S-wave (km/s) = 3.61229 3.85257 3.73437
# Velocity P-wave (km/s) = 6.07441 6.41272 6.24586
#
# Compressibility (1/GPa) = 0.02574535
#
# Stress axis : x y z
#
# Youngs Moduli (GPa) = 83.86180 53.05167 56.84070
#
# Poissons Ratio (x) = 0.08648 0.17269
# Poissons Ratio (y) = 0.13670 0.37757
# Poissons Ratio (z) = 0.25479 0.35240
#
# Static dielectric constant tensor:
#      x y z
#    x 1.743630 0.000000 -0.001580 
#    y 0.000000 1.677850 0.000010 
#    z -0.001580 0.000010 1.735510 
# 
# From -- ./inp_files/25037.got.cif
#   From: 2010.05.17/outbox.cif.g08.bks.cpg/sg9_13_cif.got.tgz:25037.got - 2010.06.03 20:04:27.
