data_PCOD9138266
_publ_section_title
;
Structure prediction by ZEFSAII (Michael W. Deem and Ramdas Pophale) SiO2 
 PCOD9138266
Probable space group: C C
;
_chemical_formula_sum "Si O2"
_cell_formula_units_Z 32
_cell_length_a 18.296432
_cell_length_b 8.102352
_cell_length_c 9.490134
_cell_angle_alpha 90.000000
_cell_angle_beta 110.760820
_cell_angle_gamma 90.000000
_cell_volume 1315.507067
_symmetry_space_group_name_H-M "C C"
_symmetry_group_IT_number 9
_symmetry_cell_setting 'monoclinic'
loop_
_space_group_symop_operation_xyz
x,y,z
x,-y,1/2+z
1/2+x,1/2+y,z
1/2+x,1/2-y,1/2+z
loop_
_atom_site_type_symbol
_atom_site_label
_atom_site_fract_x
_atom_site_fract_y
_atom_site_fract_z
Si Si1 0.493100 0.996674 0.833320
Si Si2 0.810564 0.189834 0.033549
Si Si3 0.825505 0.616967 0.806680
Si Si4 0.714814 0.681912 0.236221
Si Si5 0.570047 0.523469 0.016555
Si Si6 0.766682 0.176548 0.490423
Si Si7 0.095163 0.777832 0.262871
Si Si8 0.481173 0.215294 0.582705
O O1 0.527497 0.851402 0.757957
O O2 0.401803 0.025047 0.803528
O O3 0.511899 0.165220 0.759888
O O4 0.516891 0.923176 0.001820
O O5 0.811934 0.223851 0.199879
O O6 0.886303 0.287552 0.028377
O O7 0.734914 0.266471 0.906634
O O8 0.805988 0.998790 0.995038
O O9 0.753901 0.494798 0.737390
O O10 0.821995 0.681620 0.963613
O O11 0.626758 0.654523 0.134536
O O12 0.752564 0.801685 0.146875
O O13 0.585427 0.347772 0.098452
O O14 0.490689 0.603802 0.019200
O O15 0.583709 0.565094 0.862400
O O16 0.680674 0.201598 0.358270
#
# Coordination Sequence:
#
# PCOD9138266 Si02
#       8
#     4   4   4   4   4   4   4   4
#     4  10  23  42  64  94 129 168 216 262 325 388
#     4  11  24  41  65  97 131 167 219 273 323 385
#     4  11  22  42  68  93 125 175 215 262 331 387
#     4  11  22  40  68  92 128 173 217 266 322 398
#     4  10  23  42  64  94 129 166 218 264 325 390
#     4  11  24  41  66  96 131 168 221 274 325 382
#     4  10  23  44  65  97 128 171 216 270 325 388
#     4  10  23  44  62  95 129 168 214 263 324 390
#
# _framework density 24.325220999999999
#
# number of rings (size 3 to 8) (size 9 to 14) (size 15 to 20)
#    0.000    1.500    2.500    1.500    5.250    2.000 
#   11.250    0.000    0.000    0.000    0.000    0.000 
#    0.000    0.000    0.000    0.000    0.000    0.000 
#
# Total GULP energy -89221.927920 kJ/mol
# GULP energy per Si atom -5576.370495 kJ/mol
# Density = 2.426986 g / cm^3
# Si number density = 24.325221 Si / 1000 Ang^3
#
#
#
# Elastic Constant Matrix: (Units=GPa)
#
#
# Indices 1 2 3 4 5 6 
#
# 1 52.9703 23.6753 5.9457 0.0000 -11.2499 0.0000
# 2 23.6753 83.7889 17.3017 0.0000 -4.4532 0.0000
# 3 5.9457 17.3017 74.3668 0.0000 -11.3118 0.0000
# 4 0.0000 0.0000 0.0000 99.7562 0.0000 -52.0489
# 5 -11.2499 -4.4532 -11.3118 0.0000 21.0430 0.0000
# 6 0.0000 0.0000 0.0000 -52.0489 0.0000 62.6336
#
#
#
# Elastic Compliance Matrix: (Units=1/GPa)
#
#
# Indices 1 2 3 4 5 6 
#
# 1 0.024244 -0.006493 0.001454 0.000000 0.012369 0.000000
# 2 -0.006493 0.014303 -0.003132 0.000000 -0.002128 0.000000
# 3 0.001454 -0.003132 0.015330 0.000000 0.008355 0.000000
# 4 0.000000 0.000000 0.000000 0.017698 0.000000 0.014707
# 5 0.012369 -0.002128 0.008355 0.000000 0.058175 0.000000
# 6 0.000000 0.000000 0.000000 0.014707 0.000000 0.028188
#
#
# Mechanical properties :
#
#
# Convention : Reuss Voigt Hill
#
# Bulk Modulus (GPa) = 26.64241 33.88572 30.26407
# Shear Modulus (GPa) = 26.76746 47.63344 37.20045
#
# Velocity S-wave (km/s) = 3.32083 4.42995 3.91486
# Velocity P-wave (km/s) = 5.06756 6.33454 5.73614
#
# Compressibility (1/GPa) = 0.03753415
#
# Stress axis : x y z
#
# Youngs Moduli (GPa) = 41.24660 69.91459 65.23047
#
# Poissons Ratio (x) = 0.45398 -0.09483
# Poissons Ratio (y) = 0.26783 0.20432
# Poissons Ratio (z) = -0.05996 0.21899
#
# Static dielectric constant tensor:
#      x y z
#    x 1.958080 0.000000 -0.015010 
#    y 0.000000 1.802920 0.000000 
#    z -0.015010 0.000000 1.926590 
# 
# From -- ./inp_files/11358.got.cif
#   From: 2010.05.17/outbox.cif.g08.bks.cpg/sg9_6_cif.got.tgz:11358.got - 2010.06.03 20:04:27.
