data_PCOD9138846
_publ_section_title
;
Structure prediction by ZEFSAII (Michael W. Deem and Ramdas Pophale) SiO2 
 PCOD9138846
Probable space group: C C
;
_chemical_formula_sum "Si O2"
_cell_formula_units_Z 28
_cell_length_a 7.951157
_cell_length_b 16.582706
_cell_length_c 13.899589
_cell_angle_alpha 90.000000
_cell_angle_beta 142.764287
_cell_angle_gamma 90.000000
_cell_volume 1108.949065
_symmetry_space_group_name_H-M "C C"
_symmetry_group_IT_number 9
_symmetry_cell_setting 'monoclinic'
loop_
_space_group_symop_operation_xyz
x,y,z
x,-y,1/2+z
1/2+x,1/2+y,z
1/2+x,1/2-y,1/2+z
loop_
_atom_site_type_symbol
_atom_site_label
_atom_site_fract_x
_atom_site_fract_y
_atom_site_fract_z
Si Si1 0.915130 0.060907 0.155270
Si Si2 0.265438 0.882618 0.645742
Si Si3 0.405741 0.714412 0.250690
Si Si4 0.435230 0.712770 0.669081
Si Si5 0.838661 0.636165 0.589181
Si Si6 0.922860 0.926177 0.308730
Si Si7 0.814135 0.921146 0.966607
O O1 0.766838 0.141119 0.126754
O O2 0.169151 0.094344 0.208351
O O3 0.996035 0.005185 0.281718
O O4 0.773503 0.999074 0.015563
O O5 0.259218 0.786896 0.628302
O O6 0.578346 0.915181 0.779178
O O7 0.065755 0.921328 0.476330
O O8 0.668672 0.676014 0.424179
O O9 0.199461 0.748029 0.237550
O O10 0.465312 0.789831 0.208996
O O11 0.283511 0.657616 0.520692
O O12 0.017820 0.848583 0.290517
O O13 0.617310 0.590479 0.557135
O O14 0.591678 0.917716 0.168702
#
# Coordination Sequence:
#
# PCOD9138846 Si02
#       7
#     4   4   4   4   4   4   4
#     4  11  29  48  71 116 155 200 246 321 377 453
#     4  12  25  47  79 110 148 203 256 308 378 454
#     4  11  26  48  77 114 150 195 254 316 379 448
#     4  10  23  48  81 108 149 197 253 311 378 450
#     4  11  26  50  77 115 149 200 254 316 377 460
#     4  11  28  49  78 112 154 199 254 315 387 448
#     4  10  25  50  75 111 155 196 255 313 382 455
#
# _framework density 25.249130999999998
#
# number of rings (size 3 to 8) (size 9 to 14) (size 15 to 20)
#    0.000    1.143    1.429    1.714   12.000    3.429 
#    2.571    0.000    0.000    0.000    0.000    0.000 
#    0.000    0.000    0.000    0.000    0.000    0.000 
#
# Total GULP energy -78528.200025 kJ/mol
# GULP energy per Si atom -5609.157145 kJ/mol
# Density = 2.519166 g / cm^3
# Si number density = 25.249131 Si / 1000 Ang^3
#
#
#
# Elastic Constant Matrix: (Units=GPa)
#
#
# Indices 1 2 3 4 5 6 
#
# 1 128.2371 63.7572 52.0316 0.0026 -12.4335 -0.0007
# 2 63.7572 154.6545 27.6529 -0.0006 -16.8233 -0.0012
# 3 52.0316 27.6529 107.9687 0.0073 2.8986 0.0062
# 4 0.0026 -0.0006 0.0073 28.4499 0.0060 -26.6807
# 5 -12.4335 -16.8233 2.8986 0.0060 36.7817 0.0027
# 6 -0.0007 -0.0012 0.0062 -26.6807 0.0027 50.1015
#
#
#
# Elastic Compliance Matrix: (Units=1/GPa)
#
#
# Indices 1 2 3 4 5 6 
#
# 1 0.011882 -0.003741 -0.004840 0.000000 0.002687 0.000001
# 2 -0.003741 0.008363 -0.000409 0.000000 0.002593 0.000000
# 3 -0.004840 -0.000409 0.011773 -0.000007 -0.002751 -0.000005
# 4 0.000000 0.000000 -0.000007 0.070217 -0.000014 0.037393
# 5 0.002687 0.002593 -0.002751 -0.000014 0.029499 -0.000008
# 6 0.000001 0.000000 -0.000005 0.037393 -0.000008 0.039872
#
#
# Mechanical properties :
#
#
# Convention : Reuss Voigt Hill
#
# Bulk Modulus (GPa) = 71.23090 75.30485 73.26788
# Shear Modulus (GPa) = 25.73780 39.56118 32.64949
#
# Velocity S-wave (km/s) = 3.19620 3.96262 3.59986
# Velocity P-wave (km/s) = 6.47251 7.12923 6.80879
#
# Compressibility (1/GPa) = 0.01403885
#
# Stress axis : x y z
#
# Youngs Moduli (GPa) = 84.15806 119.56915 84.93903
#
# Poissons Ratio (x) = 0.44728 0.41113
# Poissons Ratio (y) = 0.31482 0.03473
# Poissons Ratio (z) = 0.40735 0.04889
#
# Static dielectric constant tensor:
#      x y z
#    x 1.991330 0.000000 0.001460 
#    y 0.000000 1.994810 0.000000 
#    z 0.001460 0.000000 1.959670 
# 
# From -- ./inp_files/15434.got.cif
#   From: 2010.05.17/outbox.cif.g08.bks.cpg/sg9_8_cif.got.tgz:15434.got - 2010.06.03 20:04:27.
