data_PCOD9138552
_publ_section_title
;
Structure prediction by ZEFSAII (Michael W. Deem and Ramdas Pophale) SiO2 
 PCOD9138552
Probable space group: C C
;
_chemical_formula_sum "Si O2"
_cell_formula_units_Z 32
_cell_length_a 14.049293
_cell_length_b 8.724481
_cell_length_c 13.267593
_cell_angle_alpha 90.000000
_cell_angle_beta 129.960470
_cell_angle_gamma 90.000000
_cell_volume 1246.497533
_symmetry_space_group_name_H-M "C C"
_symmetry_group_IT_number 9
_symmetry_cell_setting 'monoclinic'
loop_
_space_group_symop_operation_xyz
x,y,z
x,-y,1/2+z
1/2+x,1/2+y,z
1/2+x,1/2-y,1/2+z
loop_
_atom_site_type_symbol
_atom_site_label
_atom_site_fract_x
_atom_site_fract_y
_atom_site_fract_z
Si Si1 0.056350 0.988322 0.942190
Si Si2 0.226419 0.647039 0.341307
Si Si3 0.374176 0.987661 0.798051
Si Si4 0.355370 0.762056 0.123166
Si Si5 0.481917 0.737946 0.754572
Si Si6 0.963109 0.987662 0.579684
Si Si7 0.110867 0.647039 0.036428
Si Si8 0.280942 0.011678 0.935552
O O1 0.963250 0.103445 0.823509
O O2 0.043253 0.809987 0.963235
O O3 0.168646 0.999999 0.938871
O O4 0.057639 0.054434 0.055815
O O5 0.329016 0.518050 0.434961
O O6 0.108084 0.661023 0.335643
O O7 0.294033 0.809987 0.414500
O O8 0.168643 0.634563 0.188867
O O9 0.347929 0.145376 0.721924
O O10 0.508270 0.018050 0.942774
O O11 0.378815 0.859875 0.714401
O O12 0.279650 0.945563 0.821926
O O13 0.458470 0.640123 0.163336
O O14 0.229203 0.661024 0.042092
O O15 0.374044 0.896558 0.054234
O O16 0.489354 0.645378 0.655811
#
# Coordination Sequence:
#
# PCOD9138552 Si02
#       8
#     4   4   4   4   4   4   4   4
#     4  10  23  44  71  98 135 179 228 283 339 407
#     4  11  23  43  68  99 138 181 225 277 347 408
#     4  12  24  44  71 103 139 181 228 284 345 402
#     4  11  25  43  69 104 135 178 231 286 343 408
#     4  11  25  43  69 104 135 178 231 286 343 408
#     4  12  24  44  71 103 139 181 228 284 345 402
#     4  11  23  43  68  99 138 181 225 277 347 408
#     4  10  23  44  71  98 135 179 228 283 339 407
#
# _framework density 25.67193
#
# number of rings (size 3 to 8) (size 9 to 14) (size 15 to 20)
#    0.000    1.000    2.500    3.750    3.500    0.000 
#    0.000    1.250    0.000    0.000    0.000    0.000 
#    0.000    0.000    0.000    0.000    0.000    0.000 
#
# Total GULP energy -89146.244029 kJ/mol
# GULP energy per Si atom -5571.640252 kJ/mol
# Density = 2.561350 g / cm^3
# Si number density = 25.671930 Si / 1000 Ang^3
#
#
#
# Elastic Constant Matrix: (Units=GPa)
#
#
# Indices 1 2 3 4 5 6 
#
# 1 113.6154 31.4326 40.0554 0.0000 -48.2391 0.0000
# 2 31.4326 61.3355 38.2108 0.0000 -13.0635 0.0000
# 3 40.0554 38.2108 127.4900 0.0000 -12.0596 0.0000
# 4 0.0000 0.0000 0.0000 40.5941 0.0000 -3.7693
# 5 -48.2391 -13.0635 -12.0596 0.0000 41.9412 0.0000
# 6 0.0000 0.0000 0.0000 -3.7693 0.0000 39.1593
#
#
#
# Elastic Compliance Matrix: (Units=1/GPa)
#
#
# Indices 1 2 3 4 5 6 
#
# 1 0.019664 -0.003765 -0.003106 0.000000 0.020551 0.000000
# 2 -0.003765 0.021688 -0.005230 0.000000 0.000921 0.000000
# 3 -0.003106 -0.005230 0.010172 0.000000 -0.002276 0.000000
# 4 0.000000 0.000000 0.000000 0.024856 0.000000 0.002393
# 5 0.020551 0.000921 -0.002276 0.000000 0.047112 0.000000
# 6 0.000000 0.000000 0.000000 0.002393 0.000000 0.025767
#
#
# Mechanical properties :
#
#
# Convention : Reuss Voigt Hill
#
# Bulk Modulus (GPa) = 36.60178 57.98205 47.29192
# Shear Modulus (GPa) = 27.38724 37.18840 32.28782
#
# Velocity S-wave (km/s) = 3.26976 3.81018 3.55027
# Velocity P-wave (km/s) = 5.34262 6.48008 5.93864
#
# Compressibility (1/GPa) = 0.02732107
#
# Stress axis : x y z
#
# Youngs Moduli (GPa) = 50.85533 46.10909 98.31209
#
# Poissons Ratio (x) = 0.17362 0.30531
# Poissons Ratio (y) = 0.19149 0.51418
# Poissons Ratio (z) = 0.15793 0.24115
#
# Static dielectric constant tensor:
#      x y z
#    x 2.059060 0.000000 0.065850 
#    y 0.000000 2.020320 0.000000 
#    z 0.065850 0.000000 2.131770 
# 
# From -- ./inp_files/17997.got.cif
#   From: 2010.05.17/outbox.cif.g08.bks.cpg/sg9_9_cif.got.tgz:17997.got - 2010.06.03 20:04:27.
