data_PCOD9138234
_publ_section_title
;
Structure prediction by ZEFSAII (Michael W. Deem and Ramdas Pophale) SiO2 
 PCOD9138234
Probable space group: C C
;
_chemical_formula_sum "Si O2"
_cell_formula_units_Z 32
_cell_length_a 15.434191
_cell_length_b 11.737947
_cell_length_c 7.921299
_cell_angle_alpha 90.000000
_cell_angle_beta 93.666350
_cell_angle_gamma 90.000000
_cell_volume 1432.130718
_symmetry_space_group_name_H-M "C C"
_symmetry_group_IT_number 9
_symmetry_cell_setting 'monoclinic'
loop_
_space_group_symop_operation_xyz
x,y,z
x,-y,1/2+z
1/2+x,1/2+y,z
1/2+x,1/2-y,1/2+z
loop_
_atom_site_type_symbol
_atom_site_label
_atom_site_fract_x
_atom_site_fract_y
_atom_site_fract_z
Si Si1 0.601730 0.204825 0.295580
Si Si2 0.438303 0.351081 0.340938
Si Si3 0.352012 0.529210 0.515635
Si Si4 0.791164 0.743346 0.878332
Si Si5 0.038558 0.470667 0.289046
Si Si6 0.402009 0.932910 0.506153
Si Si7 0.318338 0.830777 0.997157
Si Si8 0.190588 0.645027 0.950185
O O1 0.527974 0.301014 0.281331
O O2 0.688791 0.249448 0.392690
O O3 0.633677 0.161763 0.113875
O O4 0.567756 0.089789 0.381953
O O5 0.435845 0.455142 0.473389
O O6 0.375343 0.403880 0.189450
O O7 0.396072 0.245393 0.434633
O O8 0.329078 0.629756 0.382239
O O9 0.268927 0.443533 0.503165
O O10 0.807655 0.684230 0.698543
O O11 0.838905 0.671236 0.029091
O O12 0.128831 0.403541 0.295721
O O13 0.970359 0.390244 0.375471
O O14 0.971526 0.521718 0.146661
O O15 0.341071 0.040112 0.453618
O O16 0.233335 0.766844 0.915584
#
# Coordination Sequence:
#
# PCOD9138234 Si02
#       8
#     4   4   4   4   4   4   4   4
#     4  11  22  42  64  98 130 169 224 276 328 387
#     4  11  23  41  69  97 130 172 219 277 325 404
#     4  11  23  42  67  96 132 176 219 264 347 391
#     4  11  24  44  66  94 136 179 217 276 335 399
#     4  12  22  39  66  98 125 171 233 272 323 386
#     4  12  24  41  65  95 136 175 221 275 334 402
#     4  10  23  42  67  94 134 174 221 270 343 393
#     4  10  23  41  68  96 131 170 224 284 317 402
#
# _framework density 22.344327
#
# number of rings (size 3 to 8) (size 9 to 14) (size 15 to 20)
#    0.000    1.000    5.000    3.000    1.750    0.000 
#    4.500    0.000    0.000    0.000    0.000    0.000 
#    0.000    0.000    0.000    0.000    0.000    0.000 
#
# Total GULP energy -89193.081441 kJ/mol
# GULP energy per Si atom -5574.567590 kJ/mol
# Density = 2.229347 g / cm^3
# Si number density = 22.344327 Si / 1000 Ang^3
#
#
#
# Elastic Constant Matrix: (Units=GPa)
#
#
# Indices 1 2 3 4 5 6 
#
# 1 141.4699 66.2699 20.2941 0.0000 16.6844 0.0000
# 2 66.2699 132.5092 9.9675 0.0000 4.0028 0.0000
# 3 20.2941 9.9675 33.0235 0.0000 6.6865 0.0000
# 4 0.0000 0.0000 0.0000 17.8817 0.0000 5.4741
# 5 16.6844 4.0028 6.6865 0.0000 35.6486 0.0000
# 6 0.0000 0.0000 0.0000 5.4741 0.0000 60.7983
#
#
#
# Elastic Compliance Matrix: (Units=1/GPa)
#
#
# Indices 1 2 3 4 5 6 
#
# 1 0.010298 -0.004729 -0.004192 0.000000 -0.003503 0.000000
# 2 -0.004729 0.009901 -0.000317 0.000000 0.001161 0.000000
# 3 -0.004192 -0.000317 0.033834 0.000000 -0.004349 0.000000
# 4 0.000000 0.000000 0.000000 0.057508 0.000000 -0.005178
# 5 -0.003503 0.001161 -0.004349 0.000000 0.030376 0.000000
# 6 0.000000 0.000000 0.000000 -0.005178 0.000000 0.016914
#
#
# Mechanical properties :
#
#
# Convention : Reuss Voigt Hill
#
# Bulk Modulus (GPa) = 28.12471 55.56283 41.84377
# Shear Modulus (GPa) = 26.43260 36.89712 31.66486
#
# Velocity S-wave (km/s) = 3.44316 4.06802 3.76857
# Velocity P-wave (km/s) = 5.33117 6.85461 6.14032
#
# Compressibility (1/GPa) = 0.03555592
#
# Stress axis : x y z
#
# Youngs Moduli (GPa) = 97.10187 101.00391 29.55615
#
# Poissons Ratio (x) = 0.47768 0.12390
# Poissons Ratio (y) = 0.45922 0.00937
# Poissons Ratio (z) = 0.40706 0.03203
#
# Static dielectric constant tensor:
#      x y z
#    x 1.821520 0.000000 -0.009410 
#    y 0.000000 1.813070 0.000000 
#    z -0.009410 0.000000 2.034530 
# 
# From -- ./inp_files/9130.got.cif
#   From: 2010.05.17/outbox.cif.g08.bks.cpg/sg9_5_cif.got.tgz:9130.got - 2010.06.03 20:04:27.
