data_PCOD9138201
_publ_section_title
;
Structure prediction by ZEFSAII (Michael W. Deem and Ramdas Pophale) SiO2 
 PCOD9138201
Probable space group: C C
;
_chemical_formula_sum "Si O2"
_cell_formula_units_Z 28
_cell_length_a 10.074509
_cell_length_b 9.658728
_cell_length_c 10.810349
_cell_angle_alpha 90.000000
_cell_angle_beta 114.208449
_cell_angle_gamma 90.000000
_cell_volume 959.415624
_symmetry_space_group_name_H-M "C C"
_symmetry_group_IT_number 9
_symmetry_cell_setting 'monoclinic'
loop_
_space_group_symop_operation_xyz
x,y,z
x,-y,1/2+z
1/2+x,1/2+y,z
1/2+x,1/2-y,1/2+z
loop_
_atom_site_type_symbol
_atom_site_label
_atom_site_fract_x
_atom_site_fract_y
_atom_site_fract_z
Si Si1 0.890260 0.606782 0.960550
Si Si2 0.481242 0.670043 0.242365
Si Si3 0.655315 0.812624 0.935675
Si Si4 0.435128 0.404941 0.468932
Si Si5 0.387715 0.925789 0.725024
Si Si6 0.689964 0.749435 0.519785
Si Si7 0.222455 0.362115 0.218407
O O1 0.798110 0.745874 0.937860
O O2 0.848814 0.516891 0.827351
O O3 0.816558 0.235421 0.174378
O O4 0.857545 0.524725 0.075274
O O5 0.488267 0.558684 0.128589
O O6 0.583888 0.637747 0.402863
O O7 0.573691 0.804009 0.222523
O O8 0.558652 0.685494 0.951870
O O9 0.558606 0.895014 0.802393
O O10 0.683989 0.909175 0.064131
O O11 0.297150 0.305450 0.453002
O O12 0.338816 0.471539 0.321610
O O13 0.554655 0.840612 0.514075
O O14 0.310926 0.778545 0.715533
#
# Coordination Sequence:
#
# PCOD9138201 Si02
#       7
#     4   4   4   4   4   4   4
#     4  11  24  39  65  95 136 187 228 292 360 417
#     4   8  15  29  54  89 123 161 219 274 325 418
#     4   9  18  36  64  87 127 171 234 275 350 417
#     4   7  14  28  55  87 120 161 213 268 327 406
#     4  10  23  41  63  97 138 177 236 296 343 432
#     4   9  18  31  58  89 129 167 224 279 339 410
#     4   8  14  32  59  88 119 174 216 270 338 416
#
# _framework density 29.184432000000001
#
# number of rings (size 3 to 8) (size 9 to 14) (size 15 to 20)
#    0.857    2.286    0.000    0.000    2.000    4.571 
#    0.000    0.000   12.571    0.000    0.000    0.000 
#    0.000    0.000    0.000    0.000    0.000    0.000 
#
# Total GULP energy -78016.196268 kJ/mol
# GULP energy per Si atom -5572.585448 kJ/mol
# Density = 2.911801 g / cm^3
# Si number density = 29.184432 Si / 1000 Ang^3
#
#
#
# Elastic Constant Matrix: (Units=GPa)
#
#
# Indices 1 2 3 4 5 6 
#
# 1 192.9794 33.9195 14.4686 0.0000 41.8299 0.0000
# 2 33.9195 58.0166 18.9456 0.0000 16.5663 0.0000
# 3 14.4686 18.9456 165.6285 0.0000 29.0125 0.0000
# 4 0.0000 0.0000 0.0000 28.2674 0.0000 26.8267
# 5 41.8299 16.5663 29.0125 0.0000 60.7563 0.0000
# 6 0.0000 0.0000 0.0000 26.8267 0.0000 31.5684
#
#
#
# Elastic Compliance Matrix: (Units=1/GPa)
#
#
# Indices 1 2 3 4 5 6 
#
# 1 0.006493 -0.002823 0.000441 0.000000 -0.003911 0.000000
# 2 -0.002823 0.020204 -0.001571 0.000000 -0.002815 0.000000
# 3 0.000441 -0.001571 0.006719 0.000000 -0.003083 0.000000
# 4 0.000000 0.000000 0.000000 0.182812 0.000000 -0.155353
# 5 -0.003911 -0.002815 -0.003083 0.000000 0.021392 0.000000
# 6 0.000000 0.000000 0.000000 -0.155353 0.000000 0.163696
#
#
# Mechanical properties :
#
#
# Convention : Reuss Voigt Hill
#
# Bulk Modulus (GPa) = 39.20311 61.25463 50.22887
# Shear Modulus (GPa) = 11.96957 47.40447 29.68702
#
# Velocity S-wave (km/s) = 2.02738 4.03464 3.19285
# Velocity P-wave (km/s) = 4.35229 6.53749 5.55343
#
# Compressibility (1/GPa) = 0.02550818
#
# Stress axis : x y z
#
# Youngs Moduli (GPa) = 154.01658 49.49522 148.83240
#
# Poissons Ratio (x) = 0.13974 -0.06561
# Poissons Ratio (y) = 0.43483 0.23387
# Poissons Ratio (z) = -0.06789 0.07777
#
# Static dielectric constant tensor:
#      x y z
#    x 2.258260 0.000000 -0.056250 
#    y 0.000000 2.448940 0.000000 
#    z -0.056250 0.000000 3.104590 
# 
# From -- ./inp_files/7273.got.cif
#   From: 2010.05.17/outbox.cif.g08.bks.cpg/sg9_4_cif.got.tgz:7273.got - 2010.06.03 20:04:27.
