data_PCOD9138370
_publ_section_title
;
Structure prediction by ZEFSAII (Michael W. Deem and Ramdas Pophale) SiO2 
 PCOD9138370
Probable space group: C C
;
_chemical_formula_sum "Si O2"
_cell_formula_units_Z 28
_cell_length_a 21.496367
_cell_length_b 7.709725
_cell_length_c 8.749100
_cell_angle_alpha 90.000000
_cell_angle_beta 132.255424
_cell_angle_gamma 90.000000
_cell_volume 1073.222340
_symmetry_space_group_name_H-M "C C"
_symmetry_group_IT_number 9
_symmetry_cell_setting 'monoclinic'
loop_
_space_group_symop_operation_xyz
x,y,z
x,-y,1/2+z
1/2+x,1/2+y,z
1/2+x,1/2-y,1/2+z
loop_
_atom_site_type_symbol
_atom_site_label
_atom_site_fract_x
_atom_site_fract_y
_atom_site_fract_z
Si Si1 0.657000 0.126938 0.463500
Si Si2 0.134837 0.008920 0.452686
Si Si3 0.216017 0.705205 0.901370
Si Si4 0.908315 0.143928 0.611588
Si Si5 0.472559 0.990940 0.729213
Si Si6 0.310646 0.893289 0.293488
Si Si7 0.980747 0.859590 0.895883
O O1 0.640583 0.323161 0.377306
O O2 0.695219 0.162916 0.693417
O O3 0.713348 0.983784 0.475437
O O4 0.564501 0.041797 0.314119
O O5 0.141128 0.173803 0.349992
O O6 0.224045 0.016415 0.689045
O O7 0.059696 0.043171 0.446963
O O8 0.979891 0.338515 0.342197
O O9 0.294116 0.823327 0.094013
O O10 0.949826 0.305473 0.771611
O O11 0.820460 0.221055 0.411425
O O12 0.962883 0.124208 0.545931
O O13 0.905513 0.967507 0.694191
O O14 0.394884 0.996333 0.478610
#
# Coordination Sequence:
#
# PCOD9138370 Si02
#       7
#     4   4   4   4   4   4   4
#     4  12  24  43  75  98 147 180 240 280 357 410
#     4  10  23  43  64 101 136 186 228 290 333 421
#     4  10  26  44  69 106 135 184 233 288 347 422
#     4  10  26  44  69 106 135 184 233 288 347 422
#     4  10  23  43  64 101 136 186 228 290 333 421
#     4   8  22  50  60 104 142 174 244 276 360 404
#     4  12  24  43  75  98 147 180 240 280 357 410
#
# _framework density 26.089653999999999
#
# number of rings (size 3 to 8) (size 9 to 14) (size 15 to 20)
#    1.714    0.000    2.857    0.000    4.000    5.714 
#    0.000    0.000    0.000    0.000    0.000    0.000 
#    0.000    0.000    0.000    0.000    0.000    0.000 
#
# Total GULP energy -78137.721637 kJ/mol
# GULP energy per Si atom -5581.265831 kJ/mol
# Density = 2.603027 g / cm^3
# Si number density = 26.089654 Si / 1000 Ang^3
#
#
#
# Elastic Constant Matrix: (Units=GPa)
#
#
# Indices 1 2 3 4 5 6 
#
# 1 86.2952 52.1062 32.2739 0.0000 5.5017 0.0000
# 2 52.1062 176.6882 38.0087 0.0000 -32.0976 0.0000
# 3 32.2739 38.0087 125.6861 0.0000 -6.7858 0.0000
# 4 0.0000 0.0000 0.0000 44.2196 0.0000 -5.4064
# 5 5.5017 -32.0976 -6.7858 0.0000 40.4732 0.0000
# 6 0.0000 0.0000 0.0000 -5.4064 0.0000 38.1572
#
#
#
# Elastic Compliance Matrix: (Units=1/GPa)
#
#
# Indices 1 2 3 4 5 6 
#
# 1 0.016473 -0.005515 -0.002946 0.000000 -0.007107 0.000000
# 2 -0.005515 0.008855 -0.000850 0.000000 0.007630 0.000000
# 3 -0.002946 -0.000850 0.009037 0.000000 0.001242 0.000000
# 4 0.000000 0.000000 0.000000 0.023013 0.000000 0.003261
# 5 -0.007107 0.007630 0.001242 0.000000 0.031933 0.000000
# 6 0.000000 0.000000 0.000000 0.003261 0.000000 0.026669
#
#
# Mechanical properties :
#
#
# Convention : Reuss Voigt Hill
#
# Bulk Modulus (GPa) = 63.51954 70.38302 66.95128
# Shear Modulus (GPa) = 35.75253 42.32203 39.03728
#
# Velocity S-wave (km/s) = 3.70587 4.03199 3.87237
# Velocity P-wave (km/s) = 6.53535 6.97939 6.76102
#
# Compressibility (1/GPa) = 0.01574319
#
# Stress axis : x y z
#
# Youngs Moduli (GPa) = 60.70427 112.92967 110.65927
#
# Poissons Ratio (x) = 0.62286 0.32598
# Poissons Ratio (y) = 0.33481 0.09402
# Poissons Ratio (z) = 0.17882 0.09595
#
# Static dielectric constant tensor:
#      x y z
#    x 2.051510 0.000000 0.062390 
#    y 0.000000 2.032750 0.000000 
#    z 0.062390 0.000000 2.128430 
# 
# From -- ./inp_files/12476.got.cif
#   From: 2010.05.17/outbox.cif.g08.bks.cpg/sg9_7_cif.got.tgz:12476.got - 2010.06.03 20:04:27.
