data_PCOD9138089
_publ_section_title
;
Structure prediction by ZEFSAII (Michael W. Deem and Ramdas Pophale) SiO2 
 PCOD9138089
Probable space group: C C
;
_chemical_formula_sum "Si O2"
_cell_formula_units_Z 32
_cell_length_a 8.199486
_cell_length_b 31.453418
_cell_length_c 7.230074
_cell_angle_alpha 90.000000
_cell_angle_beta 137.535553
_cell_angle_gamma 90.000000
_cell_volume 1258.885661
_symmetry_space_group_name_H-M "C C"
_symmetry_group_IT_number 9
_symmetry_cell_setting 'monoclinic'
loop_
_space_group_symop_operation_xyz
x,y,z
x,-y,1/2+z
1/2+x,1/2+y,z
1/2+x,1/2-y,1/2+z
loop_
_atom_site_type_symbol
_atom_site_label
_atom_site_fract_x
_atom_site_fract_y
_atom_site_fract_z
Si Si1 0.219210 0.760318 0.167480
Si Si2 0.012968 0.915418 0.131467
Si Si3 0.613687 0.146066 0.467474
Si Si4 0.286437 0.729385 0.807339
Si Si5 0.426478 0.152455 0.919217
Si Si6 0.017500 0.562724 0.503540
Si Si7 0.719379 0.075947 0.039093
Si Si8 0.379921 0.977318 0.520393
O O1 0.434303 0.741683 0.476180
O O2 0.298510 0.809060 0.208805
O O3 0.241009 0.735735 0.990003
O O4 0.806200 0.888910 0.059831
O O5 0.226884 0.881917 0.298769
O O6 0.119666 0.955926 0.323680
O O7 0.939742 0.927630 0.862678
O O8 0.727544 0.181868 0.690854
O O9 0.428593 0.111732 0.404629
O O10 0.520496 0.167075 0.199697
O O11 0.070366 0.757320 0.528952
O O12 0.630034 0.125145 0.985799
O O13 0.232120 0.565357 0.834688
O O14 0.851947 0.526896 0.461594
O O15 0.040576 0.539745 0.325058
O O16 0.517687 0.045403 0.964515
#
# Coordination Sequence:
#
# PCOD9138089 Si02
#       8
#     4   4   4   4   4   4   4   4
#     4  10  24  43  67 102 144 193 247 313 382 459
#     4  10  22  48  69 104 141 188 255 312 379 465
#     4  11  25  45  73 105 146 197 254 316 387 459
#     4  10  25  45  70 107 152 193 258 319 385 465
#     4  10  23  44  71  96 143 186 247 314 378 454
#     4  12  23  46  72  99 152 190 240 317 376 458
#     4  10  23  43  71  99 139 188 244 303 377 455
#     4  11  23  48  65 106 145 187 243 312 374 451
#
# _framework density 25.419304
#
# number of rings (size 3 to 8) (size 9 to 14) (size 15 to 20)
#    0.000    1.500    5.000    0.000    8.750    2.000 
#   11.250    0.000    0.000    0.000    0.000    0.000 
#    0.000    0.000    0.000    0.000    0.000    0.000 
#
# Total GULP energy -89294.075305 kJ/mol
# GULP energy per Si atom -5580.879707 kJ/mol
# Density = 2.536145 g / cm^3
# Si number density = 25.419304 Si / 1000 Ang^3
#
#
#
# Elastic Constant Matrix: (Units=GPa)
#
#
# Indices 1 2 3 4 5 6 
#
# 1 54.2383 16.0365 48.9422 0.0000 -12.8999 0.0000
# 2 16.0365 138.3896 28.7031 0.0000 4.7906 0.0000
# 3 48.9422 28.7031 125.5819 0.0000 -2.7486 0.0000
# 4 0.0000 0.0000 0.0000 44.0200 0.0000 -10.7816
# 5 -12.8999 4.7906 -2.7486 0.0000 51.5672 0.0000
# 6 0.0000 0.0000 0.0000 -10.7816 0.0000 22.5754
#
#
#
# Elastic Compliance Matrix: (Units=1/GPa)
#
#
# Indices 1 2 3 4 5 6 
#
# 1 0.031090 -0.001444 -0.011627 0.000000 0.007292 0.000000
# 2 -0.001444 0.007686 -0.001219 0.000000 -0.001140 0.000000
# 3 -0.011627 -0.001219 0.012726 0.000000 -0.002117 0.000000
# 4 0.000000 0.000000 0.000000 0.025726 0.000000 0.012286
# 5 0.007292 -0.001140 -0.002117 0.000000 0.021209 0.000000
# 6 0.000000 0.000000 0.000000 0.012286 0.000000 0.050164
#
#
# Mechanical properties :
#
#
# Convention : Reuss Voigt Hill
#
# Bulk Modulus (GPa) = 43.62441 56.17484 49.89963
# Shear Modulus (GPa) = 27.05322 38.60106 32.82714
#
# Velocity S-wave (km/s) = 3.26587 3.90111 3.59754
# Velocity P-wave (km/s) = 5.60539 6.51451 6.07697
#
# Compressibility (1/GPa) = 0.02292295
#
# Stress axis : x y z
#
# Youngs Moduli (GPa) = 32.16494 130.11435 78.57649
#
# Poissons Ratio (x) = 0.18783 0.91360
# Poissons Ratio (y) = 0.04643 0.09578
# Poissons Ratio (z) = 0.37398 0.15861
#
# Static dielectric constant tensor:
#      x y z
#    x 2.192250 0.000000 0.031860 
#    y 0.000000 1.998750 0.000000 
#    z 0.031860 0.000000 2.019730 
# 
# From -- ./inp_files/1354.got.cif
#   From: 2010.05.17/outbox.cif.g08.bks.cpg/sg9_1_cif.got.tgz:1354.got - 2010.06.03 20:04:27.
