data_PCOD9138379
_publ_section_title
;
Structure prediction by ZEFSAII (Michael W. Deem and Ramdas Pophale) SiO2 
 PCOD9138379
Probable space group: C C
;
_chemical_formula_sum "Si O2"
_cell_formula_units_Z 32
_cell_length_a 13.006586
_cell_length_b 8.589056
_cell_length_c 15.037197
_cell_angle_alpha 90.000000
_cell_angle_beta 43.744181
_cell_angle_gamma 90.000000
_cell_volume 1161.528699
_symmetry_space_group_name_H-M "C C"
_symmetry_group_IT_number 9
_symmetry_cell_setting 'monoclinic'
loop_
_space_group_symop_operation_xyz
x,y,z
x,-y,1/2+z
1/2+x,1/2+y,z
1/2+x,1/2-y,1/2+z
loop_
_atom_site_type_symbol
_atom_site_label
_atom_site_fract_x
_atom_site_fract_y
_atom_site_fract_z
Si Si1 0.856310 0.260490 0.458820
Si Si2 0.069179 0.506109 0.432878
Si Si3 0.365117 0.547299 0.657159
Si Si4 0.668753 0.487688 0.018997
Si Si5 0.531821 0.519339 0.861234
Si Si6 0.308725 0.109782 0.267385
Si Si7 0.130448 0.500615 0.598032
Si Si8 0.343569 0.235526 0.518333
O O1 0.963763 0.367763 0.455715
O O2 0.766767 0.360066 0.442660
O O3 0.713539 0.156000 0.582408
O O4 0.968201 0.130603 0.351756
O O5 0.965486 0.659387 0.507694
O O6 0.844796 0.230634 0.693586
O O7 0.144652 0.483648 0.481866
O O8 0.496466 0.488747 0.639048
O O9 0.446870 0.503534 0.512251
O O10 0.206712 0.474121 0.779502
O O11 0.704318 0.365178 0.918415
O O12 0.747392 0.414153 0.053619
O O13 0.704555 0.500819 0.772187
O O14 0.460392 0.681002 0.876051
O O15 0.455602 0.028416 0.212685
O O16 0.212679 0.361432 0.596810
#
# Coordination Sequence:
#
# PCOD9138379 Si02
#       8
#     4   4   4   4   4   4   4   4
#     4  10  23  43  66 101 134 176 227 280 329 420
#     4  11  24  46  68  99 139 179 228 281 344 398
#     4  11  22  42  72  93 133 186 219 281 343 401
#     4  10  23  44  65  98 136 169 233 274 344 401
#     4  10  23  44  65  98 136 169 233 274 344 401
#     4  11  22  42  72  93 133 186 219 281 343 401
#     4  11  24  46  68  99 139 179 228 281 344 398
#     4  10  23  43  66 101 134 176 227 280 329 420
#
# _framework density 27.549900999999998
#
# number of rings (size 3 to 8) (size 9 to 14) (size 15 to 20)
#    0.000    1.500    2.500    1.500    3.500    5.000 
#    9.000    3.750    0.000    0.000    0.000    0.000 
#    0.000    0.000    0.000    0.000    0.000    0.000 
#
# Total GULP energy -89153.898344 kJ/mol
# GULP energy per Si atom -5572.118647 kJ/mol
# Density = 2.748720 g / cm^3
# Si number density = 27.549901 Si / 1000 Ang^3
#
#
#
# Elastic Constant Matrix: (Units=GPa)
#
#
# Indices 1 2 3 4 5 6 
#
# 1 129.0199 47.3626 80.6142 0.0000 -47.0052 0.0000
# 2 47.3626 79.9232 44.2165 0.0000 -27.1978 0.0000
# 3 80.6142 44.2165 139.9956 0.0000 -24.1727 0.0000
# 4 0.0000 0.0000 0.0000 22.3776 0.0000 -9.6125
# 5 -47.0052 -27.1978 -24.1727 0.0000 76.2376 0.0000
# 6 0.0000 0.0000 0.0000 -9.6125 0.0000 42.1386
#
#
#
# Elastic Compliance Matrix: (Units=1/GPa)
#
#
# Indices 1 2 3 4 5 6 
#
# 1 0.015466 -0.003295 -0.006794 0.000000 0.006206 0.000000
# 2 -0.003295 0.017191 -0.002988 0.000000 0.003154 0.000000
# 3 -0.006794 -0.002988 0.011734 0.000000 -0.001534 0.000000
# 4 0.000000 0.000000 0.000000 0.049542 0.000000 0.011301
# 5 0.006206 0.003154 -0.001534 0.000000 0.017582 0.000000
# 6 0.000000 0.000000 0.000000 0.011301 0.000000 0.026309
#
#
# Mechanical properties :
#
#
# Convention : Reuss Voigt Hill
#
# Bulk Modulus (GPa) = 54.82913 77.03612 65.93263
# Shear Modulus (GPa) = 29.40199 39.93377 34.66788
#
# Velocity S-wave (km/s) = 3.27039 3.81137 3.55120
# Velocity P-wave (km/s) = 5.84855 6.88417 6.38738
#
# Compressibility (1/GPa) = 0.01823848
#
# Stress axis : x y z
#
# Youngs Moduli (GPa) = 64.65706 58.17093 85.22333
#
# Poissons Ratio (x) = 0.19166 0.57898
# Poissons Ratio (y) = 0.21303 0.25462
# Poissons Ratio (z) = 0.43926 0.17380
#
# Static dielectric constant tensor:
#      x y z
#    x 2.253570 0.000000 0.136000 
#    y 0.000000 2.381170 0.000000 
#    z 0.136000 0.000000 2.259800 
# 
# From -- ./inp_files/21428.got.cif
#   From: 2010.05.17/outbox.cif.g08.bks.cpg/sg9_11_cif.got.tgz:21428.got - 2010.06.03 20:04:27.
