data_PCOD9138777
_publ_section_title
;
Structure prediction by ZEFSAII (Michael W. Deem and Ramdas Pophale) SiO2 
 PCOD9138777
Probable space group: C C
;
_chemical_formula_sum "Si O2"
_cell_formula_units_Z 28
_cell_length_a 4.973850
_cell_length_b 22.234989
_cell_length_c 9.193949
_cell_angle_alpha 90.000000
_cell_angle_beta 85.201890
_cell_angle_gamma 90.000000
_cell_volume 1013.227776
_symmetry_space_group_name_H-M "C C"
_symmetry_group_IT_number 9
_symmetry_cell_setting 'monoclinic'
loop_
_space_group_symop_operation_xyz
x,y,z
x,-y,1/2+z
1/2+x,1/2+y,z
1/2+x,1/2-y,1/2+z
loop_
_atom_site_type_symbol
_atom_site_label
_atom_site_fract_x
_atom_site_fract_y
_atom_site_fract_z
Si Si1 0.080440 0.686224 0.738740
Si Si2 0.049536 0.221711 0.510341
Si Si3 0.810222 0.942893 0.163467
Si Si4 0.814169 0.479712 0.662366
Si Si5 0.212302 0.327909 0.636406
Si Si6 0.233329 0.876356 0.466780
Si Si7 0.480435 0.392935 0.879246
O O1 0.248406 0.712902 0.591378
O O2 0.234689 0.619992 0.739858
O O3 0.107278 0.737745 0.863997
O O4 0.800917 0.655498 0.811731
O O5 0.926085 0.343809 0.579248
O O6 0.144185 0.155043 0.468606
O O7 0.221989 0.255799 0.626424
O O8 0.607011 0.998198 0.196355
O O9 0.797532 0.932079 0.991802
O O10 0.113049 0.964122 0.176715
O O11 0.795626 0.446016 0.505374
O O12 0.681489 0.432488 0.777794
O O13 0.432711 0.360195 0.526486
O O14 0.285241 0.352543 0.789051
#
# Coordination Sequence:
#
# PCOD9138777 Si02
#       7
#     4   4   4   4   4   4   4
#     4  10  25  49  75 115 151 204 261 323 390 472
#     4  10  24  52  77 115 156 206 262 327 395 469
#     4  11  27  47  74 117 152 205 261 327 386 482
#     4  11  25  46  78 110 155 202 257 324 395 461
#     4  10  23  48  78 110 152 206 257 325 394 466
#     4  10  23  46  77 109 150 205 259 317 398 462
#     4  10  25  50  79 116 156 208 267 323 402 472
#
# _framework density 27.634457000000001
#
# number of rings (size 3 to 8) (size 9 to 14) (size 15 to 20)
#    0.000    1.714    0.000    1.714   12.000    4.571 
#   18.000    0.000    0.000    0.000    0.000    0.000 
#    0.000    0.000    0.000    0.000    0.000    0.000 
#
# Total GULP energy -78261.551005 kJ/mol
# GULP energy per Si atom -5590.110786 kJ/mol
# Density = 2.757156 g / cm^3
# Si number density = 27.634457 Si / 1000 Ang^3
#
#
#
# Elastic Constant Matrix: (Units=GPa)
#
#
# Indices 1 2 3 4 5 6 
#
# 1 62.7594 7.6543 20.9993 0.0000 4.7809 0.0000
# 2 7.6543 128.1824 48.9940 0.0000 -7.5026 0.0000
# 3 20.9993 48.9940 170.8569 0.0000 -9.7410 0.0000
# 4 0.0000 0.0000 0.0000 54.4794 0.0000 8.4059
# 5 4.7809 -7.5026 -9.7410 0.0000 30.0235 0.0000
# 6 0.0000 0.0000 0.0000 8.4059 0.0000 30.7440
#
#
#
# Elastic Compliance Matrix: (Units=1/GPa)
#
#
# Indices 1 2 3 4 5 6 
#
# 1 0.016976 -0.000387 -0.002175 0.000000 -0.003506 0.000000
# 2 -0.000387 0.008829 -0.002399 0.000000 0.001490 0.000000
# 3 -0.002175 -0.002399 0.006922 0.000000 0.001993 0.000000
# 4 0.000000 0.000000 0.000000 0.019164 0.000000 -0.005240
# 5 -0.003506 0.001490 0.001993 0.000000 0.034884 0.000000
# 6 0.000000 0.000000 0.000000 -0.005240 0.000000 0.033959
#
#
# Mechanical properties :
#
#
# Convention : Reuss Voigt Hill
#
# Bulk Modulus (GPa) = 43.85421 57.45487 50.65454
# Shear Modulus (GPa) = 36.16410 41.99277 39.07843
#
# Velocity S-wave (km/s) = 3.62146 3.90241 3.76456
# Velocity P-wave (km/s) = 5.77845 6.41414 6.10458
#
# Compressibility (1/GPa) = 0.02280283
#
# Stress axis : x y z
#
# Youngs Moduli (GPa) = 58.90657 113.26691 144.47191
#
# Poissons Ratio (x) = 0.04389 0.31426
# Poissons Ratio (y) = 0.02283 0.34661
# Poissons Ratio (z) = 0.12813 0.27174
#
# Static dielectric constant tensor:
#      x y z
#    x 2.232740 0.000000 0.085860 
#    y 0.000000 2.314820 0.000000 
#    z 0.085860 0.000000 2.219070 
# 
# From -- ./inp_files/13314.got.cif
#   From: 2010.05.17/outbox.cif.g08.bks.cpg/sg9_7_cif.got.tgz:13314.got - 2010.06.03 20:04:27.
