data_PCOD9138628
_publ_section_title
;
Structure prediction by ZEFSAII (Michael W. Deem and Ramdas Pophale) SiO2 
 PCOD9138628
Probable space group: C C
;
_chemical_formula_sum "Si O2"
_cell_formula_units_Z 32
_cell_length_a 16.061253
_cell_length_b 16.599743
_cell_length_c 10.176243
_cell_angle_alpha 90.000000
_cell_angle_beta 148.819944
_cell_angle_gamma 90.000000
_cell_volume 1404.659130
_symmetry_space_group_name_H-M "C C"
_symmetry_group_IT_number 9
_symmetry_cell_setting 'monoclinic'
loop_
_space_group_symop_operation_xyz
x,y,z
x,-y,1/2+z
1/2+x,1/2+y,z
1/2+x,1/2-y,1/2+z
loop_
_atom_site_type_symbol
_atom_site_label
_atom_site_fract_x
_atom_site_fract_y
_atom_site_fract_z
Si Si1 0.395390 0.005053 0.421810
Si Si2 0.933670 0.067537 0.371810
Si Si3 0.833698 0.666455 0.224373
Si Si4 0.994310 0.928295 0.653443
Si Si5 0.287054 0.199071 0.589079
Si Si6 0.728038 0.339930 0.287977
Si Si7 0.558523 0.920145 0.397560
Si Si8 0.712860 0.194102 0.752334
O O1 0.289566 0.077664 0.218730
O O2 0.497603 0.040200 0.680005
O O3 0.301123 0.927740 0.348647
O O4 0.501952 0.973476 0.444992
O O5 0.955863 0.043091 0.249483
O O6 0.037732 0.148037 0.529262
O O7 0.006171 0.001544 0.569153
O O8 0.748817 0.081862 0.153651
O O9 0.755708 0.732678 0.213230
O O10 0.027648 0.670313 0.491451
O O11 0.784385 0.681966 0.008262
O O12 0.841389 0.875676 0.400625
O O13 0.152542 0.871017 0.875047
O O14 0.278821 0.213418 0.733088
O O15 0.458851 0.162552 0.779412
O O16 0.244385 0.274121 0.441787
#
# Coordination Sequence:
#
# PCOD9138628 Si02
#       8
#     4   4   4   4   4   4   4   4
#     4  11  21  39  69 100 134 170 223 277 335 387
#     4  11  24  41  67 102 134 169 225 283 332 388
#     4  12  25  45  70  98 135 180 221 274 334 401
#     4  11  25  44  67 103 133 173 223 278 334 401
#     4  10  23  45  69  96 135 185 222 266 332 406
#     4  10  25  44  69 101 136 172 228 279 333 387
#     4  11  20  37  65 101 134 174 220 280 331 388
#     4  12  25  47  70  95 137 179 228 265 335 418
#
# _framework density 22.781327000000001
#
# number of rings (size 3 to 8) (size 9 to 14) (size 15 to 20)
#    0.000    1.000    3.750    3.000    3.500    0.000 
#    4.500    0.000    0.000    0.000    0.000    0.000 
#    0.000    0.000    0.000    0.000    0.000    0.000 
#
# Total GULP energy -89676.195605 kJ/mol
# GULP energy per Si atom -5604.762225 kJ/mol
# Density = 2.272948 g / cm^3
# Si number density = 22.781327 Si / 1000 Ang^3
#
#
#
# Elastic Constant Matrix: (Units=GPa)
#
#
# Indices 1 2 3 4 5 6 
#
# 1 115.1429 34.6886 46.0706 0.0000 -16.5465 0.0000
# 2 34.6886 53.5539 8.6804 0.0000 -8.6845 0.0000
# 3 46.0706 8.6804 77.4765 0.0000 -16.7292 0.0000
# 4 0.0000 0.0000 0.0000 25.2598 0.0000 2.4446
# 5 -16.5465 -8.6845 -16.7292 0.0000 52.1339 0.0000
# 6 0.0000 0.0000 0.0000 2.4446 0.0000 31.0249
#
#
#
# Elastic Compliance Matrix: (Units=1/GPa)
#
#
# Indices 1 2 3 4 5 6 
#
# 1 0.014083 -0.007802 -0.007323 0.000000 0.000820 0.000000
# 2 -0.007802 0.023693 0.002474 0.000000 0.002264 0.000000
# 3 -0.007323 0.002474 0.017806 0.000000 0.003801 0.000000
# 4 0.000000 0.000000 0.000000 0.039893 0.000000 -0.003143
# 5 0.000820 0.002264 0.003801 0.000000 0.021039 0.000000
# 6 0.000000 0.000000 0.000000 -0.003143 0.000000 0.032480
#
#
# Mechanical properties :
#
#
# Convention : Reuss Voigt Hill
#
# Bulk Modulus (GPa) = 33.02682 47.22808 40.12745
# Shear Modulus (GPa) = 27.11653 32.13262 29.62458
#
# Velocity S-wave (km/s) = 3.45381 3.75971 3.61000
# Velocity P-wave (km/s) = 5.51669 6.29470 5.91849
#
# Compressibility (1/GPa) = 0.03027843
#
# Stress axis : x y z
#
# Youngs Moduli (GPa) = 71.00513 42.20699 56.16230
#
# Poissons Ratio (x) = 0.32931 0.41130
# Poissons Ratio (y) = 0.55400 -0.13894
# Poissons Ratio (z) = 0.52000 -0.10442
#
# Static dielectric constant tensor:
#      x y z
#    x 1.815370 0.000000 0.013770 
#    y 0.000000 1.863370 0.000000 
#    z 0.013770 0.000000 1.830510 
# 
# From -- ./inp_files/9970.got.cif
#   From: 2010.05.17/outbox.cif.g08.bks.cpg/sg9_5_cif.got.tgz:9970.got - 2010.06.03 20:04:27.
