data_PCOD9138526
_publ_section_title
;
Structure prediction by ZEFSAII (Michael W. Deem and Ramdas Pophale) SiO2 
 PCOD9138526
Probable space group: C C
;
_chemical_formula_sum "Si O2"
_cell_formula_units_Z 28
_cell_length_a 5.066925
_cell_length_b 20.792751
_cell_length_c 11.072440
_cell_angle_alpha 90.000000
_cell_angle_beta 101.733783
_cell_angle_gamma 90.000000
_cell_volume 1142.163238
_symmetry_space_group_name_H-M "C C"
_symmetry_group_IT_number 9
_symmetry_cell_setting 'monoclinic'
loop_
_space_group_symop_operation_xyz
x,y,z
x,-y,1/2+z
1/2+x,1/2+y,z
1/2+x,1/2-y,1/2+z
loop_
_atom_site_type_symbol
_atom_site_label
_atom_site_fract_x
_atom_site_fract_y
_atom_site_fract_z
Si Si1 0.056960 0.488424 0.560160
Si Si2 0.934075 0.631235 0.543738
Si Si3 0.972170 0.690262 0.310608
Si Si4 0.994159 0.884805 0.840779
Si Si5 0.700276 0.176961 0.811110
Si Si6 0.732697 0.618037 0.882689
Si Si7 0.117425 0.001767 0.714223
O O1 0.377256 0.484621 0.600390
O O2 0.011508 0.560221 0.503861
O O3 0.913334 0.432414 0.472815
O O4 0.901696 0.488762 0.675175
O O5 0.611330 0.631236 0.485569
O O6 0.026741 0.686369 0.460139
O O7 0.074183 0.641520 0.683288
O O8 0.234165 0.656420 0.282070
O O9 0.726527 0.640842 0.272630
O O10 0.844604 0.759090 0.274761
O O11 0.011069 0.960393 0.818748
O O12 0.433327 0.177550 0.870104
O O13 0.945248 0.141951 0.903168
O O14 0.637931 0.575437 0.758149
#
# Coordination Sequence:
#
# PCOD9138526 Si02
#       7
#     4   4   4   4   4   4   4
#     4  12  25  41  68 104 142 177 228 280 362 412
#     4  10  24  41  74  94 132 184 227 282 343 419
#     4  10  24  44  66  97 131 186 231 287 324 419
#     4  10  23  44  69  96 136 173 234 279 337 408
#     4  12  25  45  68 100 141 181 232 283 356 405
#     4  12  24  43  67 102 142 177 225 295 341 422
#     4  12  23  42  68 103 136 182 223 284 349 419
#
# _framework density 24.514883999999999
#
# number of rings (size 3 to 8) (size 9 to 14) (size 15 to 20)
#    0.857    0.000    4.286    2.571    4.000    1.143 
#    7.714    0.000    0.000    0.000    0.000    0.000 
#    0.000    0.000    0.000    0.000    0.000    0.000 
#
# Total GULP energy -77971.406608 kJ/mol
# GULP energy per Si atom -5569.386186 kJ/mol
# Density = 2.445909 g / cm^3
# Si number density = 24.514884 Si / 1000 Ang^3
#
#
#
# Elastic Constant Matrix: (Units=GPa)
#
#
# Indices 1 2 3 4 5 6 
#
# 1 165.1462 39.8649 18.7775 0.0000 31.7046 0.0000
# 2 39.8649 76.2081 5.0732 0.0000 12.0495 0.0000
# 3 18.7775 5.0732 35.8692 0.0000 17.0972 0.0000
# 4 0.0000 0.0000 0.0000 13.1472 0.0000 1.0721
# 5 31.7046 12.0495 17.0972 0.0000 27.5152 0.0000
# 6 0.0000 0.0000 0.0000 1.0721 0.0000 41.0655
#
#
#
# Elastic Compliance Matrix: (Units=1/GPa)
#
#
# Indices 1 2 3 4 5 6 
#
# 1 0.008396 -0.003075 0.000013 0.000000 -0.008336 0.000000
# 2 -0.003075 0.015270 0.001348 0.000000 -0.003981 0.000000
# 3 0.000013 0.001348 0.039740 0.000000 -0.025299 0.000000
# 4 0.000000 0.000000 0.000000 0.076224 0.000000 -0.001990
# 5 -0.008336 -0.003981 -0.025299 0.000000 0.063413 0.000000
# 6 0.000000 0.000000 0.000000 -0.001990 0.000000 0.024403
#
#
# Mechanical properties :
#
#
# Convention : Reuss Voigt Hill
#
# Bulk Modulus (GPa) = 16.67263 44.96165 30.81714
# Shear Modulus (GPa) = 19.93072 30.57943 25.25508
#
# Velocity S-wave (km/s) = 2.85442 3.53566 3.21314
# Velocity P-wave (km/s) = 4.20469 5.92015 5.13457
#
# Compressibility (1/GPa) = 0.05997856
#
# Stress axis : x y z
#
# Youngs Moduli (GPa) = 119.09794 65.48651 25.16329
#
# Poissons Ratio (x) = 0.20137 -0.00032
# Poissons Ratio (y) = 0.36623 -0.03391
# Poissons Ratio (z) = -0.00154 -0.08826
#
# Static dielectric constant tensor:
#      x y z
#    x 1.974890 0.000000 -0.016780 
#    y 0.000000 2.018820 0.000000 
#    z -0.016780 0.000000 2.031430 
# 
# From -- ./inp_files/13679.got.cif
#   From: 2010.05.17/outbox.cif.g08.bks.cpg/sg9_7_cif.got.tgz:13679.got - 2010.06.03 20:04:27.
