data_PCOD9138075
_publ_section_title
;
Structure prediction by ZEFSAII (Michael W. Deem and Ramdas Pophale) SiO2 
 PCOD9138075
Probable space group: C C
;
_chemical_formula_sum "Si O2"
_cell_formula_units_Z 32
_cell_length_a 11.828101
_cell_length_b 8.126448
_cell_length_c 13.414695
_cell_angle_alpha 90.000000
_cell_angle_beta 73.488685
_cell_angle_gamma 90.000000
_cell_volume 1236.255219
_symmetry_space_group_name_H-M "C C"
_symmetry_group_IT_number 9
_symmetry_cell_setting 'monoclinic'
loop_
_space_group_symop_operation_xyz
x,y,z
x,-y,1/2+z
1/2+x,1/2+y,z
1/2+x,1/2-y,1/2+z
loop_
_atom_site_type_symbol
_atom_site_label
_atom_site_fract_x
_atom_site_fract_y
_atom_site_fract_z
Si Si1 0.044510 0.022077 0.925470
Si Si2 0.777189 0.989120 0.761817
Si Si3 0.041367 0.486050 0.717429
Si Si4 0.744881 0.568233 0.117600
Si Si5 0.409818 0.779858 0.097973
Si Si6 0.531199 0.362312 0.206770
Si Si7 0.797818 0.529426 0.337786
Si Si8 0.819047 0.812833 0.939604
O O1 0.170447 0.938795 0.918896
O O2 0.947679 0.881140 0.932257
O O3 0.062326 0.115858 0.815665
O O4 0.985598 0.159655 0.009981
O O5 0.653491 0.047388 0.749653
O O6 0.818096 0.833628 0.683187
O O7 0.760374 0.950643 0.884004
O O8 0.893908 0.100275 0.725738
O O9 0.069112 0.314181 0.655538
O O10 0.992247 0.622120 0.655183
O O11 0.934295 0.419374 0.814960
O O12 0.835264 0.422894 0.060156
O O13 0.612189 0.504519 0.140195
O O14 0.774138 0.573325 0.227788
O O15 0.765182 0.736337 0.053003
O O16 0.814945 0.340150 0.365758
#
# Coordination Sequence:
#
# PCOD9138075 Si02
#       8
#     4   4   4   4   4   4   4   4
#     4  10  25  45  76 114 154 203 273 328 406 480
#     4  11  23  47  75 112 156 203 264 323 398 480
#     4  11  23  48  79 107 156 211 257 328 404 470
#     4  10  22  47  77 109 159 208 269 330 403 472
#     4  11  24  45  73 110 157 203 260 336 397 479
#     4  10  23  46  76 110 155 208 262 328 396 473
#     4  10  23  47  74 109 155 205 264 335 392 470
#     4  11  23  47  78 109 156 213 263 332 400 470
#
# _framework density 25.884623000000001
#
# number of rings (size 3 to 8) (size 9 to 14) (size 15 to 20)
#    0.000    1.500    3.750    0.750    3.500    4.000 
#    4.500    0.000    0.000    0.000    0.000    0.000 
#    0.000    0.000    0.000    0.000    0.000    0.000 
#
# Total GULP energy -89408.549193 kJ/mol
# GULP energy per Si atom -5588.034325 kJ/mol
# Density = 2.582571 g / cm^3
# Si number density = 25.884623 Si / 1000 Ang^3
#
#
#
# Elastic Constant Matrix: (Units=GPa)
#
#
# Indices 1 2 3 4 5 6 
#
# 1 226.9557 52.2226 49.9147 0.0000 -2.3741 0.0000
# 2 52.2226 57.4481 32.7346 0.0000 0.6507 0.0000
# 3 49.9147 32.7346 142.3439 0.0000 -4.3280 0.0000
# 4 0.0000 0.0000 0.0000 37.1926 0.0000 10.0507
# 5 -2.3741 0.6507 -4.3280 0.0000 23.5884 0.0000
# 6 0.0000 0.0000 0.0000 10.0507 0.0000 35.9257
#
#
#
# Elastic Compliance Matrix: (Units=1/GPa)
#
#
# Indices 1 2 3 4 5 6 
#
# 1 0.005682 -0.004655 -0.000906 0.000000 0.000534 0.000000
# 2 -0.004655 0.023892 -0.003918 0.000000 -0.001847 0.000000
# 3 -0.000906 -0.003918 0.008291 0.000000 0.001538 0.000000
# 4 0.000000 0.000000 0.000000 0.029086 0.000000 -0.008137
# 5 0.000534 -0.001847 0.001538 0.000000 0.042781 0.000000
# 6 0.000000 0.000000 0.000000 -0.008137 0.000000 0.030112
#
#
# Mechanical properties :
#
#
# Convention : Reuss Voigt Hill
#
# Bulk Modulus (GPa) = 52.89094 77.38795 65.13945
# Shear Modulus (GPa) = 30.28393 38.79971 34.54182
#
# Velocity S-wave (km/s) = 3.42418 3.87583 3.65698
# Velocity P-wave (km/s) = 6.00924 7.07047 6.56135
#
# Compressibility (1/GPa) = 0.01890683
#
# Stress axis : x y z
#
# Youngs Moduli (GPa) = 175.99137 41.85440 120.61749
#
# Poissons Ratio (x) = 0.19484 0.10924
# Poissons Ratio (y) = 0.81928 0.47261
# Poissons Ratio (z) = 0.15940 0.16399
#
# Static dielectric constant tensor:
#      x y z
#    x 2.042120 0.000000 -0.022010 
#    y 0.000000 2.118490 0.000000 
#    z -0.022010 0.000000 2.141340 
# 
# From -- ./inp_files/24369.got.cif
#   From: 2010.05.17/outbox.cif.g08.bks.cpg/sg9_13_cif.got.tgz:24369.got - 2010.06.03 20:04:27.
