data_PCOD9138830
_publ_section_title
;
Structure prediction by ZEFSAII (Michael W. Deem and Ramdas Pophale) SiO2 
 PCOD9138830
Probable space group: C C
;
_chemical_formula_sum "Si O2"
_cell_formula_units_Z 24
_cell_length_a 5.260620
_cell_length_b 13.369620
_cell_length_c 14.192796
_cell_angle_alpha 90.000000
_cell_angle_beta 117.055205
_cell_angle_gamma 90.000000
_cell_volume 888.978744
_symmetry_space_group_name_H-M "C C"
_symmetry_group_IT_number 9
_symmetry_cell_setting 'monoclinic'
loop_
_space_group_symop_operation_xyz
x,y,z
x,-y,1/2+z
1/2+x,1/2+y,z
1/2+x,1/2-y,1/2+z
loop_
_atom_site_type_symbol
_atom_site_label
_atom_site_fract_x
_atom_site_fract_y
_atom_site_fract_z
Si Si1 0.236070 0.424142 0.306840
Si Si2 0.336692 0.091904 0.194878
Si Si3 0.296545 0.510082 0.530678
Si Si4 0.216249 0.043908 0.375070
Si Si5 0.628321 0.250510 0.907263
Si Si6 0.317007 0.742094 0.543797
O O1 0.300346 0.466930 0.423796
O O2 0.545417 0.445705 0.314507
O O3 0.105830 0.317528 0.310031
O O4 0.028755 0.493510 0.211663
O O5 0.362973 0.099510 0.311498
O O6 0.411820 0.188258 0.146632
O O7 0.008503 0.062270 0.120636
O O8 0.393911 0.624690 0.562368
O O9 0.956127 0.514110 0.489966
O O10 0.023437 0.135979 0.375421
O O11 0.458971 0.216537 0.971613
O O12 0.970578 0.253366 0.983519
#
# Coordination Sequence:
#
# PCOD9138830 Si02
#       6
#     4   4   4   4   4   4
#     4  11  24  43  73 104 146 192 243 309 366 437
#     4  11  26  42  73 112 144 193 255 303 368 449
#     4  10  23  48  69 103 149 198 238 310 370 438
#     4  10  25  47  71 109 150 193 251 308 365 449
#     4  11  25  47  76 101 150 203 242 306 381 434
#     4  11  25  47  74 107 147 199 249 306 370 447
#
# _framework density 26.997271000000001
#
# number of rings (size 3 to 8) (size 9 to 14) (size 15 to 20)
#    0.000    1.333    3.333    0.000    7.000    4.000 
#    0.000    0.000    0.000    0.000    0.000    0.000 
#    0.000    0.000    0.000    0.000    0.000    0.000 
#
# Total GULP energy -67072.984855 kJ/mol
# GULP energy per Si atom -5589.415405 kJ/mol
# Density = 2.693582 g / cm^3
# Si number density = 26.997271 Si / 1000 Ang^3
#
#
#
# Elastic Constant Matrix: (Units=GPa)
#
#
# Indices 1 2 3 4 5 6 
#
# 1 97.8487 15.9886 11.6856 0.0000 -0.4311 0.0000
# 2 15.9886 133.1220 1.4194 0.0000 2.4259 0.0000
# 3 11.6856 1.4194 74.3024 0.0000 -1.3313 0.0000
# 4 0.0000 0.0000 0.0000 38.6815 0.0000 -3.4068
# 5 -0.4311 2.4259 -1.3313 0.0000 40.4305 0.0000
# 6 0.0000 0.0000 0.0000 -3.4068 0.0000 36.4055
#
#
#
# Elastic Compliance Matrix: (Units=1/GPa)
#
#
# Indices 1 2 3 4 5 6 
#
# 1 0.010623 -0.001261 -0.001644 0.000000 0.000135 0.000000
# 2 -0.001261 0.007671 0.000043 0.000000 -0.000472 0.000000
# 3 -0.001644 0.000043 0.013724 0.000000 0.000432 0.000000
# 4 0.000000 0.000000 0.000000 0.026067 0.000000 0.002439
# 5 0.000135 -0.000472 0.000432 0.000000 0.024778 0.000000
# 6 0.000000 0.000000 0.000000 0.002439 0.000000 0.027697
#
#
# Mechanical properties :
#
#
# Convention : Reuss Voigt Hill
#
# Bulk Modulus (GPa) = 38.03008 40.38447 39.20728
# Shear Modulus (GPa) = 39.98464 41.51547 40.75005
#
# Velocity S-wave (km/s) = 3.85263 3.92569 3.88933
# Velocity P-wave (km/s) = 5.82302 5.96148 5.89266
#
# Compressibility (1/GPa) = 0.02629497
#
# Stress axis : x y z
#
# Youngs Moduli (GPa) = 94.13693 130.35296 72.86506
#
# Poissons Ratio (x) = 0.16435 0.11980
# Poissons Ratio (y) = 0.11869 -0.00315
# Poissons Ratio (z) = 0.15478 -0.00564
#
# Static dielectric constant tensor:
#      x y z
#    x 2.361950 0.000000 -0.055290 
#    y 0.000000 2.157870 0.000000 
#    z -0.055290 0.000000 2.049830 
# 
# From -- ./inp_files/12946.got.cif
#   From: 2010.05.17/outbox.cif.g08.bks.cpg/sg9_7_cif.got.tgz:12946.got - 2010.06.03 20:04:27.
