data_PCOD9138583
_publ_section_title
;
Structure prediction by ZEFSAII (Michael W. Deem and Ramdas Pophale) SiO2 
 PCOD9138583
Probable space group: C C
;
_chemical_formula_sum "Si O2"
_cell_formula_units_Z 28
_cell_length_a 15.122371
_cell_length_b 6.259847
_cell_length_c 11.290494
_cell_angle_alpha 90.000000
_cell_angle_beta 88.957304
_cell_angle_gamma 90.000000
_cell_volume 1068.623281
_symmetry_space_group_name_H-M "C C"
_symmetry_group_IT_number 9
_symmetry_cell_setting 'monoclinic'
loop_
_space_group_symop_operation_xyz
x,y,z
x,-y,1/2+z
1/2+x,1/2+y,z
1/2+x,1/2-y,1/2+z
loop_
_atom_site_type_symbol
_atom_site_label
_atom_site_fract_x
_atom_site_fract_y
_atom_site_fract_z
Si Si1 0.240250 0.715813 0.832830
Si Si2 0.575929 0.447503 0.338838
Si Si3 0.412408 0.710051 0.459195
Si Si4 0.317720 0.123199 0.769692
Si Si5 0.462076 0.426619 0.649278
Si Si6 0.050391 0.426176 0.992242
Si Si7 0.216733 0.391338 0.605683
O O1 0.229712 0.557997 0.719064
O O2 0.154770 0.878504 0.845957
O O3 0.319903 0.873664 0.793205
O O4 0.257737 0.635739 0.968298
O O5 0.486517 0.551522 0.399940
O O6 0.536124 0.432786 0.210087
O O7 0.595378 0.209065 0.384790
O O8 0.319833 0.769220 0.399602
O O9 0.399193 0.591428 0.583175
O O10 0.466831 0.930565 0.461764
O O11 0.401068 0.255726 0.719003
O O12 0.243252 0.175861 0.674895
O O13 0.519106 0.266577 0.571898
O O14 0.118311 0.564307 0.064427
#
# Coordination Sequence:
#
# PCOD9138583 Si02
#       7
#     4   4   4   4   4   4   4
#     4  12  29  51  80 120 165 217 270 342 411 493
#     4  10  23  44  75 115 150 199 277 322 402 478
#     4  10  24  46  74 109 154 208 267 327 405 485
#     4  11  30  47  77 117 164 212 264 342 410 488
#     4  10  24  48  76 113 154 212 273 331 398 494
#     4  11  24  44  80 112 154 210 267 340 399 480
#     4  12  30  50  82 118 165 214 276 338 415 482
#
# _framework density 26.20194
#
# number of rings (size 3 to 8) (size 9 to 14) (size 15 to 20)
#    0.000    1.143    2.857    0.000   10.000    5.714 
#    0.000    0.000    0.000    0.000    0.000    0.000 
#    0.000    0.000    0.000    0.000    0.000    0.000 
#
# Total GULP energy -77996.469381 kJ/mol
# GULP energy per Si atom -5571.176384 kJ/mol
# Density = 2.614230 g / cm^3
# Si number density = 26.201940 Si / 1000 Ang^3
#
#
#
# Elastic Constant Matrix: (Units=GPa)
#
#
# Indices 1 2 3 4 5 6 
#
# 1 81.7412 26.9215 54.0038 0.0000 22.6794 0.0000
# 2 26.9215 31.0797 135.0306 0.0000 -12.6711 0.0000
# 3 54.0038 135.0306 116.4197 0.0000 32.6484 0.0000
# 4 0.0000 0.0000 0.0000 50.3978 0.0000 -8.8929
# 5 22.6794 -12.6711 32.6484 0.0000 45.8054 0.0000
# 6 0.0000 0.0000 0.0000 -8.8929 0.0000 37.5059
#
#
#
# Elastic Compliance Matrix: (Units=1/GPa)
#
#
# Indices 1 2 3 4 5 6 
#
# 1 0.017116 -0.002220 -0.003519 0.000000 -0.006580 0.000000
# 2 -0.002220 -0.004834 0.008378 0.000000 -0.006210 0.000000
# 3 -0.003519 0.008378 -0.000793 0.000000 0.004625 0.000000
# 4 0.000000 0.000000 0.000000 0.020709 0.000000 0.004910
# 5 -0.006580 -0.006210 0.004625 0.000000 0.020075 0.000000
# 6 0.000000 0.000000 0.000000 0.004910 0.000000 0.027827
#
#
# Mechanical properties :
#
#
# Convention : Reuss Voigt Hill
#
# Bulk Modulus (GPa) = 59.64101 73.46139 66.55120
# Shear Modulus (GPa) = 62.18176 27.62747 44.90461
#
# Velocity S-wave (km/s) = 4.87681 3.25068 4.14429
# Velocity P-wave (km/s) = 7.38393 6.49513 6.95375
#
# Compressibility (1/GPa) = 0.01676699
#
# Stress axis : x y z
#
# Youngs Moduli (GPa) = 58.42647 -206.85928 -1261.26741
#
# Poissons Ratio (x) = -0.45928 -4.43821
# Poissons Ratio (y) = 0.12972 10.56734
# Poissons Ratio (z) = 0.20559 1.73314
#
# Static dielectric constant tensor:
#      x y z
#    x 2.058410 0.000000 -0.131420 
#    y 0.000000 2.099710 0.000000 
#    z -0.131420 0.000000 2.773980 
# 
# From -- ./inp_files/18838.got.cif
#   From: 2010.05.17/outbox.cif.g08.bks.cpg/sg9_10_cif.got.tgz:18838.got - 2010.06.03 20:04:27.
