data_PCOD9138438
_publ_section_title
;
Structure prediction by ZEFSAII (Michael W. Deem and Ramdas Pophale) SiO2 
 PCOD9138438
Probable space group: C C
;
_chemical_formula_sum "Si O2"
_cell_formula_units_Z 32
_cell_length_a 11.201516
_cell_length_b 16.744659
_cell_length_c 9.376186
_cell_angle_alpha 90.000000
_cell_angle_beta 59.386713
_cell_angle_gamma 90.000000
_cell_volume 1513.536003
_symmetry_space_group_name_H-M "C C"
_symmetry_group_IT_number 9
_symmetry_cell_setting 'monoclinic'
loop_
_space_group_symop_operation_xyz
x,y,z
x,-y,1/2+z
1/2+x,1/2+y,z
1/2+x,1/2-y,1/2+z
loop_
_atom_site_type_symbol
_atom_site_label
_atom_site_fract_x
_atom_site_fract_y
_atom_site_fract_z
Si Si1 0.251180 0.697259 0.524800
Si Si2 0.457711 0.837731 0.325629
Si Si3 0.224628 0.419889 0.553173
Si Si4 0.597253 0.553479 0.680476
Si Si5 0.782811 0.482615 0.321914
Si Si6 0.389982 0.686504 0.742129
Si Si7 0.322164 0.452685 0.799385
Si Si8 0.949939 0.633457 0.152580
O O1 0.326120 0.779033 0.431632
O O2 0.321444 0.667801 0.630507
O O3 0.292345 0.633728 0.380098
O O4 0.086518 0.699215 0.658678
O O5 0.400759 0.918445 0.288873
O O6 0.508158 0.853318 0.457268
O O7 0.303646 0.348038 0.426891
O O8 0.305223 0.451400 0.640850
O O9 0.213301 0.489036 0.442379
O O10 0.071374 0.392965 0.684780
O O11 0.710550 0.517667 0.505819
O O12 0.667097 0.557789 0.792254
O O13 0.534769 0.638098 0.665737
O O14 0.468377 0.491619 0.755274
O O15 0.842301 0.561518 0.209316
O O16 0.395749 0.781777 0.739497
#
# Coordination Sequence:
#
# PCOD9138438 Si02
#       8
#     4   4   4   4   4   4   4   4
#     4  11  24  46  74 100 146 186 242 297 361 438
#     4  11  26  46  72 106 140 192 243 296 370 430
#     4  11  23  43  69  99 133 177 234 290 352 426
#     4  11  24  42  69 102 142 184 238 293 359 435
#     4  12  25  43  69 102 145 188 238 297 365 428
#     4  10  23  43  70 100 135 188 236 292 359 431
#     4  11  24  43  70 100 137 184 233 293 355 429
#     4  11  25  42  71  97 140 181 236 296 359 431
#
# _framework density 21.142543
#
# number of rings (size 3 to 8) (size 9 to 14) (size 15 to 20)
#    0.000    1.000    2.500    4.500    5.250    3.000 
#    2.250    0.000    0.000    0.000    0.000    0.000 
#    0.000    0.000    0.000    0.000    0.000    0.000 
#
# Total GULP energy -89392.733498 kJ/mol
# GULP energy per Si atom -5587.045844 kJ/mol
# Density = 2.109442 g / cm^3
# Si number density = 21.142543 Si / 1000 Ang^3
#
#
#
# Elastic Constant Matrix: (Units=GPa)
#
#
# Indices 1 2 3 4 5 6 
#
# 1 76.3531 35.3638 10.0772 0.0000 3.0809 0.0000
# 2 35.3638 112.6259 35.4125 0.0000 -1.3050 0.0000
# 3 10.0772 35.4125 61.1883 0.0000 4.3003 0.0000
# 4 0.0000 0.0000 0.0000 25.2279 0.0000 -1.4484
# 5 3.0809 -1.3050 4.3003 0.0000 31.2586 0.0000
# 6 0.0000 0.0000 0.0000 -1.4484 0.0000 32.0062
#
#
#
# Elastic Compliance Matrix: (Units=1/GPa)
#
#
# Indices 1 2 3 4 5 6 
#
# 1 0.015430 -0.005020 0.000490 0.000000 -0.001798 0.000000
# 2 -0.005020 0.012542 -0.006567 0.000000 0.001922 0.000000
# 3 0.000490 -0.006567 0.020282 0.000000 -0.003113 0.000000
# 4 0.000000 0.000000 0.000000 0.039742 0.000000 0.001798
# 5 -0.001798 0.001922 -0.003113 0.000000 0.032677 0.000000
# 6 0.000000 0.000000 0.000000 0.001798 0.000000 0.031325
#
#
# Mechanical properties :
#
#
# Convention : Reuss Voigt Hill
#
# Bulk Modulus (GPa) = 38.37203 45.76379 42.06791
# Shear Modulus (GPa) = 27.34062 28.98613 28.16337
#
# Velocity S-wave (km/s) = 3.59995 3.70670 3.65371
# Velocity P-wave (km/s) = 5.95551 6.32549 6.14329
#
# Compressibility (1/GPa) = 0.02606065
#
# Stress axis : x y z
#
# Youngs Moduli (GPa) = 64.80931 79.73009 49.30552
#
# Poissons Ratio (x) = 0.40024 -0.02418
# Poissons Ratio (y) = 0.32534 0.32380
# Poissons Ratio (z) = -0.03178 0.52360
#
# Static dielectric constant tensor:
#      x y z
#    x 1.785050 0.000000 -0.021800 
#    y 0.000000 1.769380 0.000000 
#    z -0.021800 0.000000 1.769920 
# 
# From -- ./inp_files/7544.got.cif
#   From: 2010.05.17/outbox.cif.g08.bks.cpg/sg9_4_cif.got.tgz:7544.got - 2010.06.03 20:04:27.
