data_PCOD9138693
_publ_section_title
;
Structure prediction by ZEFSAII (Michael W. Deem and Ramdas Pophale) SiO2 
 PCOD9138693
Probable space group: C C
;
_chemical_formula_sum "Si O2"
_cell_formula_units_Z 32
_cell_length_a 9.607709
_cell_length_b 9.574733
_cell_length_c 33.869344
_cell_angle_alpha 90.000000
_cell_angle_beta 153.538727
_cell_angle_gamma 90.000000
_cell_volume 1388.326058
_symmetry_space_group_name_H-M "C C"
_symmetry_group_IT_number 9
_symmetry_cell_setting 'monoclinic'
loop_
_space_group_symop_operation_xyz
x,y,z
x,-y,1/2+z
1/2+x,1/2+y,z
1/2+x,1/2-y,1/2+z
loop_
_atom_site_type_symbol
_atom_site_label
_atom_site_fract_x
_atom_site_fract_y
_atom_site_fract_z
Si Si1 0.748510 0.389007 0.742030
Si Si2 0.788691 0.896035 0.360729
Si Si3 0.201437 0.572215 0.979346
Si Si4 0.256922 0.757523 0.063772
Si Si5 0.054598 0.820719 0.094664
Si Si6 0.780954 0.909037 0.274522
Si Si7 0.613298 0.577563 0.295029
Si Si8 0.229418 0.921572 0.548547
O O1 0.534007 0.340193 0.651081
O O2 0.911388 0.242624 0.795262
O O3 0.562225 0.428655 0.734831
O O4 0.984033 0.511117 0.792101
O O5 0.917726 0.951423 0.351487
O O6 0.699685 0.735058 0.329748
O O7 0.016978 0.910286 0.455409
O O8 0.134380 0.697607 0.991893
O O9 0.303601 0.442712 0.032997
O O10 0.499518 0.601561 0.027239
O O11 0.914969 0.520131 0.880380
O O12 0.349143 0.919152 0.080902
O O13 0.023754 0.761678 0.041937
O O14 0.979380 0.701967 0.107105
O O15 0.407621 0.881363 0.185446
O O16 0.856787 0.018664 0.260001
#
# Coordination Sequence:
#
# PCOD9138693 Si02
#       8
#     4   4   4   4   4   4   4   4
#     4  10  23  46  64  97 137 180 227 286 346 414
#     4  11  23  42  70 102 136 181 228 292 343 412
#     4  11  23  41  69 103 134 175 235 289 339 417
#     4  10  25  41  70  98 136 180 227 286 345 418
#     4  10  23  47  65  99 141 180 225 284 350 405
#     4  10  25  42  71  98 139 181 227 284 347 418
#     4  11  24  42  70 102 135 180 235 288 349 409
#     4  11  24  43  71 101 138 181 232 289 347 409
#
# _framework density 23.049340999999998
#
# number of rings (size 3 to 8) (size 9 to 14) (size 15 to 20)
#    0.000    1.500    2.500    0.750    3.500   13.000 
#    0.000    5.000    0.000    0.000    0.000    0.000 
#    0.000    0.000    0.000    0.000    0.000    0.000 
#
# Total GULP energy -89447.790301 kJ/mol
# GULP energy per Si atom -5590.486894 kJ/mol
# Density = 2.299688 g / cm^3
# Si number density = 23.049341 Si / 1000 Ang^3
#
#
#
# Elastic Constant Matrix: (Units=GPa)
#
#
# Indices 1 2 3 4 5 6 
#
# 1 80.1494 38.6593 33.1124 0.0000 -22.9862 0.0001
# 2 38.6593 56.4574 18.1690 -0.0001 -7.9639 0.0001
# 3 33.1124 18.1690 78.2410 0.0009 -4.8130 -0.0001
# 4 0.0000 -0.0001 0.0009 38.2469 0.0000 -4.0580
# 5 -22.9862 -7.9639 -4.8130 0.0000 38.5655 0.0000
# 6 0.0001 0.0001 -0.0001 -4.0580 0.0000 53.3220
#
#
#
# Elastic Compliance Matrix: (Units=1/GPa)
#
#
# Indices 1 2 3 4 5 6 
#
# 1 0.024912 -0.013294 -0.006763 0.000000 0.011259 0.000000
# 2 -0.013294 0.026697 -0.000727 0.000000 -0.002501 0.000000
# 3 -0.006763 -0.000727 0.015675 0.000000 -0.002225 0.000000
# 4 0.000000 0.000000 0.000000 0.026359 0.000000 0.002006
# 5 0.011259 -0.002501 -0.002225 0.000000 0.031846 0.000000
# 6 0.000000 0.000000 0.000000 0.002006 0.000000 0.018907
#
#
# Mechanical properties :
#
#
# Convention : Reuss Voigt Hill
#
# Bulk Modulus (GPa) = 38.88752 43.85881 41.37316
# Shear Modulus (GPa) = 25.70216 34.35403 30.02809
#
# Velocity S-wave (km/s) = 3.34292 3.86483 3.61331
# Velocity P-wave (km/s) = 5.63988 6.24383 5.94952
#
# Compressibility (1/GPa) = 0.02571519
#
# Stress axis : x y z
#
# Youngs Moduli (GPa) = 40.14131 37.45792 63.79446
#
# Poissons Ratio (x) = 0.49796 0.43146
# Poissons Ratio (y) = 0.53363 0.04640
# Poissons Ratio (z) = 0.27149 0.02724
#
# Static dielectric constant tensor:
#      x y z
#    x 1.866430 0.000000 0.015710 
#    y 0.000000 1.852520 0.000000 
#    z 0.015710 0.000000 1.956440 
# 
# From -- ./inp_files/32644.got.cif
#   From: 2010.05.17/outbox.cif.g08.bks.cpg/sg9_17_cif.got.tgz:32644.got - 2010.06.03 20:04:27.
