data_PCOD9138049
_publ_section_title
;
Structure prediction by ZEFSAII (Michael W. Deem and Ramdas Pophale) SiO2 
 PCOD9138049
Probable space group: C C
;
_chemical_formula_sum "Si O2"
_cell_formula_units_Z 28
_cell_length_a 21.921299
_cell_length_b 14.316485
_cell_length_c 11.281554
_cell_angle_alpha 90.000000
_cell_angle_beta 160.639433
_cell_angle_gamma 90.000000
_cell_volume 1173.736822
_symmetry_space_group_name_H-M "C C"
_symmetry_group_IT_number 9
_symmetry_cell_setting 'monoclinic'
loop_
_space_group_symop_operation_xyz
x,y,z
x,-y,1/2+z
1/2+x,1/2+y,z
1/2+x,1/2-y,1/2+z
loop_
_atom_site_type_symbol
_atom_site_label
_atom_site_fract_x
_atom_site_fract_y
_atom_site_fract_z
Si Si1 0.807610 0.352784 0.224830
Si Si2 0.669156 0.883996 0.745861
Si Si3 0.399835 0.540147 0.266045
Si Si4 0.691423 0.204240 0.834014
Si Si5 0.587202 0.079871 0.843202
Si Si6 0.986200 0.219826 0.752803
Si Si7 0.682775 0.477110 0.626946
O O1 0.889043 0.278678 0.470860
O O2 0.668146 0.430148 0.020055
O O3 0.995675 0.391539 0.511543
O O4 0.709900 0.299610 0.938084
O O5 0.615274 0.861164 0.512877
O O6 0.829837 0.809226 0.063509
O O7 0.771107 0.983628 0.937465
O O8 0.597875 0.500246 0.600465
O O9 0.383607 0.648985 0.204225
O O10 0.282129 0.529569 0.170697
O O11 0.558700 0.139892 0.671685
O O12 0.630810 0.217762 0.589651
O O13 0.402456 0.027354 0.534326
O O14 0.090070 0.120715 0.912993
#
# Coordination Sequence:
#
# PCOD9138049 Si02
#       7
#     4   4   4   4   4   4   4
#     4  12  25  47  75 105 148 195 244 317 381 456
#     4  11  23  47  68 105 148 188 246 313 378 449
#     4   9  23  45  67 103 143 192 241 305 364 450
#     4  10  24  47  71 105 147 192 248 311 373 457
#     4  10  22  47  70 105 150 185 250 313 367 456
#     4  11  26  47  73 109 145 197 253 307 382 466
#     4  11  25  46  72 110 145 203 246 312 383 450
#
# _framework density 23.855433000000001
#
# number of rings (size 3 to 8) (size 9 to 14) (size 15 to 20)
#    0.857    0.571    2.857    0.857    6.000    1.143 
#   25.714    0.000    0.000    0.000    0.000    0.000 
#    0.000    0.000    0.000    0.000    0.000    0.000 
#
# Total GULP energy -77969.873886 kJ/mol
# GULP energy per Si atom -5569.276706 kJ/mol
# Density = 2.380114 g / cm^3
# Si number density = 23.855433 Si / 1000 Ang^3
#
#
#
# Elastic Constant Matrix: (Units=GPa)
#
#
# Indices 1 2 3 4 5 6 
#
# 1 113.4876 38.9041 43.0324 0.0000 31.7273 0.0000
# 2 38.9041 65.2240 4.8750 0.0000 7.2560 0.0000
# 3 43.0324 4.8750 46.9301 0.0000 13.9284 0.0000
# 4 0.0000 0.0000 0.0000 30.1699 0.0000 3.9421
# 5 31.7273 7.2560 13.9284 0.0000 50.2709 0.0000
# 6 0.0000 0.0000 0.0000 3.9421 0.0000 42.2728
#
#
#
# Elastic Compliance Matrix: (Units=1/GPa)
#
#
# Indices 1 2 3 4 5 6 
#
# 1 0.019924 -0.009979 -0.015176 0.000000 -0.006930 0.000000
# 2 -0.009979 0.020626 0.006562 0.000000 0.001503 0.000000
# 3 -0.015176 0.006562 0.034846 0.000000 -0.001024 0.000000
# 4 0.000000 0.000000 0.000000 0.033554 0.000000 -0.003129
# 5 -0.006930 0.001503 -0.001024 0.000000 0.024332 0.000000
# 6 0.000000 0.000000 0.000000 -0.003129 0.000000 0.023948
#
#
# Mechanical properties :
#
#
# Convention : Reuss Voigt Hill
#
# Bulk Modulus (GPa) = 26.17152 44.36274 35.26713
# Shear Modulus (GPa) = 24.13653 33.79807 28.96730
#
# Velocity S-wave (km/s) = 3.18430 3.76811 3.48844
# Velocity P-wave (km/s) = 4.95121 6.12930 5.57148
#
# Compressibility (1/GPa) = 0.03820947
#
# Stress axis : x y z
#
# Youngs Moduli (GPa) = 50.19030 48.48174 28.69753
#
# Poissons Ratio (x) = 0.48380 0.43552
# Poissons Ratio (y) = 0.50085 -0.18830
# Poissons Ratio (z) = 0.76170 -0.31811
#
# Static dielectric constant tensor:
#      x y z
#    x 1.893690 0.000000 0.031060 
#    y 0.000000 2.042100 0.000000 
#    z 0.031060 0.000000 1.943800 
# 
# From -- ./inp_files/21004.got.cif
#   From: 2010.05.17/outbox.cif.g08.bks.cpg/sg9_11_cif.got.tgz:21004.got - 2010.06.03 20:04:27.
