data_PCOD9138850
_publ_section_title
;
Structure prediction by ZEFSAII (Michael W. Deem and Ramdas Pophale) SiO2 
 PCOD9138850
Probable space group: C C
;
_chemical_formula_sum "Si O2"
_cell_formula_units_Z 24
_cell_length_a 12.018524
_cell_length_b 18.640491
_cell_length_c 14.217581
_cell_angle_alpha 90.000000
_cell_angle_beta 160.314511
_cell_angle_gamma 90.000000
_cell_volume 1072.950091
_symmetry_space_group_name_H-M "C C"
_symmetry_group_IT_number 9
_symmetry_cell_setting 'monoclinic'
loop_
_space_group_symop_operation_xyz
x,y,z
x,-y,1/2+z
1/2+x,1/2+y,z
1/2+x,1/2-y,1/2+z
loop_
_atom_site_type_symbol
_atom_site_label
_atom_site_fract_x
_atom_site_fract_y
_atom_site_fract_z
Si Si1 0.650070 0.410573 0.768840
Si Si2 0.805703 0.697627 0.892561
Si Si3 0.466634 0.560678 0.708644
Si Si4 0.699426 0.594564 0.081886
Si Si5 0.722912 0.802345 0.543309
Si Si6 0.726262 0.801019 0.253065
O O1 0.601917 0.491448 0.763077
O O2 0.642519 0.410510 0.649160
O O3 0.356549 0.365405 0.584215
O O4 0.985316 0.370359 0.070740
O O5 0.523311 0.749152 0.627876
O O6 0.683072 0.628834 0.850791
O O7 0.009296 0.671600 0.962301
O O8 0.089491 0.581325 0.383098
O O9 0.516847 0.545117 0.860116
O O10 0.513383 0.670293 0.911295
O O11 0.513031 0.744935 0.318387
O O12 0.962640 0.759044 0.512984
#
# Coordination Sequence:
#
# PCOD9138850 Si02
#       6
#     4   4   4   4   4   4
#     4  12  28  48  77 109 154 194 253 321 380 441
#     4  10  23  49  71 102 141 192 248 302 363 444
#     4  12  29  47  77 107 151 199 253 309 381 460
#     4  12  28  48  69 114 145 202 249 303 392 441
#     4  10  24  43  73 105 139 190 244 302 369 435
#     4  12  24  45  75 109 152 191 245 309 373 449
#
# _framework density 22.368234999999999
#
# number of rings (size 3 to 8) (size 9 to 14) (size 15 to 20)
#    0.000    0.667    3.333    2.000    7.000    4.000 
#    6.000    0.000    0.000    0.000    0.000    0.000 
#    0.000    0.000    0.000    0.000    0.000    0.000 
#
# Total GULP energy -66970.364142 kJ/mol
# GULP energy per Si atom -5580.863678 kJ/mol
# Density = 2.231732 g / cm^3
# Si number density = 22.368235 Si / 1000 Ang^3
#
#
#
# Elastic Constant Matrix: (Units=GPa)
#
#
# Indices 1 2 3 4 5 6 
#
# 1 109.0934 67.3590 27.9884 -0.0114 0.5421 -0.0025
# 2 67.3590 135.1377 49.2855 -0.0025 19.7431 0.0040
# 3 27.9884 49.2855 158.6383 -0.0032 -9.9068 0.0252
# 4 -0.0114 -0.0025 -0.0032 18.9822 0.0068 7.3651
# 5 0.5421 19.7431 -9.9068 0.0068 38.1539 0.0074
# 6 -0.0025 0.0040 0.0252 7.3651 0.0074 31.2322
#
#
#
# Elastic Compliance Matrix: (Units=1/GPa)
#
#
# Indices 1 2 3 4 5 6 
#
# 1 0.013688 -0.007399 0.000113 0.000006 0.003663 0.000000
# 2 -0.007399 0.013438 -0.003351 -0.000001 -0.007719 0.000003
# 3 0.000113 -0.003351 0.007556 0.000002 0.003695 -0.000007
# 4 0.000006 -0.000001 0.000002 0.057986 -0.000006 -0.013674
# 5 0.003663 -0.007719 0.003695 -0.000006 0.031111 -0.000008
# 6 0.000000 0.000003 -0.000007 -0.013674 -0.000008 0.035243
#
#
# Mechanical properties :
#
#
# Convention : Reuss Voigt Hill
#
# Bulk Modulus (GPa) = 74.59543 76.90392 75.74967
# Shear Modulus (GPa) = 27.06129 34.88942 30.97535
#
# Velocity S-wave (km/s) = 3.48200 3.95368 3.72532
# Velocity P-wave (km/s) = 7.04181 7.43624 7.24171
#
# Compressibility (1/GPa) = 0.01340565
#
# Stress axis : x y z
#
# Youngs Moduli (GPa) = 73.05794 74.41714 132.34954
#
# Poissons Ratio (x) = 0.55060 -0.01489
# Poissons Ratio (y) = 0.54055 0.44357
# Poissons Ratio (z) = -0.00822 0.24941
#
# Static dielectric constant tensor:
#      x y z
#    x 1.922590 -0.000010 -0.001950 
#    y -0.000010 1.826540 -0.000020 
#    z -0.001950 -0.000020 1.831510 
# 
# From -- ./inp_files/25007.got.cif
#   From: 2010.05.17/outbox.cif.g08.bks.cpg/sg9_13_cif.got.tgz:25007.got - 2010.06.03 20:04:27.
