data_PCOD9138615
_publ_section_title
;
Structure prediction by ZEFSAII (Michael W. Deem and Ramdas Pophale) SiO2 
 PCOD9138615
Probable space group: C C
;
_chemical_formula_sum "Si O2"
_cell_formula_units_Z 32
_cell_length_a 10.595186
_cell_length_b 10.187650
_cell_length_c 10.771093
_cell_angle_alpha 90.000000
_cell_angle_beta 95.126633
_cell_angle_gamma 90.000000
_cell_volume 1157.981329
_symmetry_space_group_name_H-M "C C"
_symmetry_group_IT_number 9
_symmetry_cell_setting 'monoclinic'
loop_
_space_group_symop_operation_xyz
x,y,z
x,-y,1/2+z
1/2+x,1/2+y,z
1/2+x,1/2-y,1/2+z
loop_
_atom_site_type_symbol
_atom_site_label
_atom_site_fract_x
_atom_site_fract_y
_atom_site_fract_z
Si Si1 0.562230 0.063986 0.085700
Si Si2 0.659286 0.836021 0.961212
Si Si3 0.310462 0.299139 0.628795
Si Si4 0.930881 0.753313 0.270500
Si Si5 0.886783 0.676581 0.876208
Si Si6 0.876793 0.023503 0.918960
Si Si7 0.726014 0.561507 0.276642
Si Si8 0.120630 0.063578 0.534359
O O1 0.700841 0.096707 0.146672
O O2 0.468007 0.151581 0.162697
O O3 0.515431 0.129590 0.951730
O O4 0.575191 0.906521 0.064046
O O5 0.552381 0.777023 0.865212
O O6 0.774304 0.728158 0.959894
O O7 0.738433 0.960987 0.916466
O O8 0.391247 0.275933 0.759901
O O9 0.381261 0.353321 0.515357
O O10 0.218085 0.177159 0.584275
O O11 0.914546 0.910807 0.290193
O O12 0.791111 0.701851 0.289623
O O13 0.836943 0.545900 0.802034
O O14 0.970493 0.920428 0.999096
O O15 0.653328 0.533431 0.396358
O O16 0.647734 0.541030 0.144586
#
# Coordination Sequence:
#
# PCOD9138615 Si02
#       8
#     4   4   4   4   4   4   4   4
#     4  11  24  43  73 104 144 193 239 306 377 436
#     4  11  25  46  71 109 142 186 246 298 372 444
#     4  10  23  45  67 109 146 179 249 305 357 450
#     4  12  24  47  72 106 149 188 251 307 362 453
#     4  11  22  44  73 103 143 190 235 305 376 430
#     4  11  26  46  73 106 146 192 242 301 368 441
#     4  11  24  44  75 109 144 195 251 303 374 447
#     4  11  24  45  72 104 148 195 243 305 370 443
#
# _framework density 27.634295999999999
#
# number of rings (size 3 to 8) (size 9 to 14) (size 15 to 20)
#    0.000    1.000    3.750    2.250    1.750    3.000 
#    0.000    0.000    0.000    0.000    0.000    0.000 
#    0.000    0.000    0.000    0.000    0.000    0.000 
#
# Total GULP energy -89169.236038 kJ/mol
# GULP energy per Si atom -5573.077252 kJ/mol
# Density = 2.757140 g / cm^3
# Si number density = 27.634296 Si / 1000 Ang^3
#
#
#
# Elastic Constant Matrix: (Units=GPa)
#
#
# Indices 1 2 3 4 5 6 
#
# 1 94.3179 27.8383 64.7464 0.0000 21.5112 0.0000
# 2 27.8383 88.3901 8.1466 0.0000 9.4093 0.0000
# 3 64.7464 8.1466 123.0474 0.0000 12.3847 0.0000
# 4 0.0000 0.0000 0.0000 30.0918 0.0000 0.7105
# 5 21.5112 9.4093 12.3847 0.0000 44.2362 0.0000
# 6 0.0000 0.0000 0.0000 0.7105 0.0000 60.3963
#
#
#
# Elastic Compliance Matrix: (Units=1/GPa)
#
#
# Indices 1 2 3 4 5 6 
#
# 1 0.019955 -0.004762 -0.009580 0.000000 -0.006009 0.000000
# 2 -0.004762 0.012746 0.001751 0.000000 -0.000886 0.000000
# 3 -0.009580 0.001751 0.012986 0.000000 0.000650 0.000000
# 4 0.000000 0.000000 0.000000 0.033241 0.000000 -0.000391
# 5 -0.006009 -0.000886 0.000650 0.000000 0.025534 0.000000
# 6 0.000000 0.000000 0.000000 -0.000391 0.000000 0.016562
#
#
# Mechanical properties :
#
#
# Convention : Reuss Voigt Hill
#
# Bulk Modulus (GPa) = 48.76786 56.35757 52.56271
# Shear Modulus (GPa) = 32.67088 40.61312 36.64200
#
# Velocity S-wave (km/s) = 3.44213 3.83778 3.64533
# Velocity P-wave (km/s) = 5.78650 6.33059 6.06465
#
# Compressibility (1/GPa) = 0.02050531
#
# Stress axis : x y z
#
# Youngs Moduli (GPa) = 50.11337 78.45474 77.00330
#
# Poissons Ratio (x) = 0.37361 0.73769
# Poissons Ratio (y) = 0.23865 -0.13484
# Poissons Ratio (z) = 0.48008 -0.13738
#
# Static dielectric constant tensor:
#      x y z
#    x 2.173840 0.000000 -0.145980 
#    y 0.000000 2.340770 0.000000 
#    z -0.145980 0.000000 2.204800 
# 
# From -- ./inp_files/16462.got.cif
#   From: 2010.05.17/outbox.cif.g08.bks.cpg/sg9_9_cif.got.tgz:16462.got - 2010.06.03 20:04:27.
