data_PCOD9138031
_publ_section_title
;
Structure prediction by ZEFSAII (Michael W. Deem and Ramdas Pophale) SiO2 
 PCOD9138031
Probable space group: C C
;
_chemical_formula_sum "Si O2"
_cell_formula_units_Z 28
_cell_length_a 7.098696
_cell_length_b 16.543354
_cell_length_c 11.700669
_cell_angle_alpha 90.000000
_cell_angle_beta 131.653144
_cell_angle_gamma 90.000000
_cell_volume 1026.689707
_symmetry_space_group_name_H-M "C C"
_symmetry_group_IT_number 9
_symmetry_cell_setting 'monoclinic'
loop_
_space_group_symop_operation_xyz
x,y,z
x,-y,1/2+z
1/2+x,1/2+y,z
1/2+x,1/2-y,1/2+z
loop_
_atom_site_type_symbol
_atom_site_label
_atom_site_fract_x
_atom_site_fract_y
_atom_site_fract_z
Si Si1 0.928060 0.362548 0.631600
Si Si2 0.915885 0.220619 0.946139
Si Si3 0.925752 0.204317 0.216069
Si Si4 0.809880 0.899637 0.209026
Si Si5 0.422400 0.049354 0.361841
Si Si6 0.752452 0.385813 0.206088
Si Si7 0.606635 0.518837 0.425950
O O1 0.716844 0.289995 0.538496
O O2 0.959335 0.387789 0.775669
O O3 0.792065 0.441997 0.524059
O O4 0.197560 0.343528 0.685488
O O5 0.721922 0.295916 0.873476
O O6 0.096103 0.425519 0.036610
O O7 0.791498 0.174087 0.788229
O O8 0.904614 0.188521 0.071626
O O9 0.852436 0.296976 0.222279
O O10 0.043637 0.880895 0.220400
O O11 0.842959 0.974282 0.309327
O O12 0.441905 0.956840 0.324735
O O13 0.149379 0.047977 0.313387
O O14 0.635545 0.420883 0.041424
#
# Coordination Sequence:
#
# PCOD9138031 Si02
#       7
#     4   4   4   4   4   4   4
#     4  10  26  52  79 115 164 215 266 341 402 482
#     4  11  29  50  76 114 161 216 270 326 399 500
#     4  12  29  49  80 113 166 216 272 320 418 491
#     4  10  23  46  79 110 162 205 264 343 404 469
#     4  10  22  46  82 111 152 209 270 339 409 466
#     4  10  24  45  74 116 155 210 270 330 406 480
#     4   9  21  46  74 113 154 207 274 333 402 480
#
# _framework density 27.272114999999999
#
# number of rings (size 3 to 8) (size 9 to 14) (size 15 to 20)
#    0.000    1.714    0.000    0.857   10.000    9.143 
#    0.000    0.000    0.000    0.000    0.000    0.000 
#    0.000    0.000    0.000    0.000    0.000    0.000 
#
# Total GULP energy -78292.051385 kJ/mol
# GULP energy per Si atom -5592.289385 kJ/mol
# Density = 2.721004 g / cm^3
# Si number density = 27.272115 Si / 1000 Ang^3
#
#
#
# Elastic Constant Matrix: (Units=GPa)
#
#
# Indices 1 2 3 4 5 6 
#
# 1 199.6164 41.9626 28.3294 0.0000 -14.5339 0.0000
# 2 41.9626 127.6232 39.4285 0.0000 4.3142 0.0000
# 3 28.3294 39.4285 149.3544 0.0000 -13.8463 0.0000
# 4 0.0000 0.0000 0.0000 36.1493 0.0000 -1.9950
# 5 -14.5339 4.3142 -13.8463 0.0000 51.0486 0.0000
# 6 0.0000 0.0000 0.0000 -1.9950 0.0000 32.0094
#
#
#
# Elastic Compliance Matrix: (Units=1/GPa)
#
#
# Indices 1 2 3 4 5 6 
#
# 1 0.005556 -0.001744 -0.000444 0.000000 0.001609 0.000000
# 2 -0.001744 0.009173 -0.002266 0.000000 -0.001886 0.000000
# 3 -0.000444 -0.002266 0.007574 0.000000 0.002119 0.000000
# 4 0.000000 0.000000 0.000000 0.027759 0.000000 0.001730
# 5 0.001609 -0.001886 0.002119 0.000000 0.020781 0.000000
# 6 0.000000 0.000000 0.000000 0.001730 0.000000 0.031349
#
#
# Mechanical properties :
#
#
# Convention : Reuss Voigt Hill
#
# Bulk Modulus (GPa) = 74.65210 77.33722 75.99466
# Shear Modulus (GPa) = 43.26557 48.29971 45.78264
#
# Velocity S-wave (km/s) = 3.98733 4.21292 4.10168
# Velocity P-wave (km/s) = 6.97359 7.21694 7.09630
#
# Compressibility (1/GPa) = 0.01339547
#
# Stress axis : x y z
#
# Youngs Moduli (GPa) = 179.97136 109.01892 132.02446
#
# Poissons Ratio (x) = 0.19014 0.05867
# Poissons Ratio (y) = 0.31388 0.29911
# Poissons Ratio (z) = 0.07997 0.24699
#
# Static dielectric constant tensor:
#      x y z
#    x 2.137980 0.000000 0.096110 
#    y 0.000000 2.306430 0.000000 
#    z 0.096110 0.000000 2.110960 
# 
# From -- ./inp_files/23264.got.cif
#   From: 2010.05.17/outbox.cif.g08.bks.cpg/sg9_12_cif.got.tgz:23264.got - 2010.06.03 20:04:27.
