data_PCOD9138579
_publ_section_title
;
Structure prediction by ZEFSAII (Michael W. Deem and Ramdas Pophale) SiO2 
 PCOD9138579
Probable space group: C C
;
_chemical_formula_sum "Si O2"
_cell_formula_units_Z 32
_cell_length_a 18.034783
_cell_length_b 9.070861
_cell_length_c 14.067868
_cell_angle_alpha 90.000000
_cell_angle_beta 145.886323
_cell_angle_gamma 90.000000
_cell_volume 1290.696402
_symmetry_space_group_name_H-M "C C"
_symmetry_group_IT_number 9
_symmetry_cell_setting 'monoclinic'
loop_
_space_group_symop_operation_xyz
x,y,z
x,-y,1/2+z
1/2+x,1/2+y,z
1/2+x,1/2-y,1/2+z
loop_
_atom_site_type_symbol
_atom_site_label
_atom_site_fract_x
_atom_site_fract_y
_atom_site_fract_z
Si Si1 0.767030 0.306971 0.262800
Si Si2 0.109395 0.030698 0.987944
Si Si3 0.689954 0.091095 0.014793
Si Si4 0.181726 0.864811 0.880591
Si Si5 0.516161 0.727628 0.622493
Si Si6 0.953746 0.925309 0.500372
Si Si7 0.280902 0.284508 0.171845
Si Si8 0.929645 0.559898 0.191732
O O1 0.733387 0.453042 0.169722
O O2 0.725738 0.174327 0.149913
O O3 0.665053 0.298419 0.243870
O O4 0.920828 0.307384 0.446745
O O5 0.996848 0.003778 0.944846
O O6 0.139592 0.203009 0.022569
O O7 0.099627 0.950408 0.877384
O O8 0.762957 0.935225 0.094691
O O9 0.721059 0.204986 0.963026
O O10 0.534354 0.055147 0.844293
O O11 0.081787 0.851623 0.685956
O O12 0.313169 0.966509 0.014846
O O13 0.437004 0.571243 0.547052
O O14 0.507082 0.832768 0.702246
O O15 0.838181 0.819814 0.338599
O O16 0.365964 0.169305 0.201098
#
# Coordination Sequence:
#
# PCOD9138579 Si02
#       8
#     4   4   4   4   4   4   4   4
#     4  10  23  44  75 101 141 187 243 297 360 432
#     4   9  22  43  68  95 144 182 233 290 360 417
#     4  11  25  46  69 106 138 192 240 294 366 430
#     4  10  25  46  71 101 144 187 238 297 362 425
#     4  11  24  44  74 105 140 189 244 294 361 432
#     4  11  23  43  68 105 136 187 235 299 357 419
#     4  11  24  44  71 101 144 183 241 297 360 424
#     4  11  26  46  72 102 143 189 238 298 362 431
#
# _framework density 24.792815999999998
#
# number of rings (size 3 to 8) (size 9 to 14) (size 15 to 20)
#    0.000    1.500    1.250    2.250   12.250    3.000 
#    4.500    0.000    0.000    0.000    0.000    0.000 
#    0.000    0.000    0.000    0.000    0.000    0.000 
#
# Total GULP energy -89379.690295 kJ/mol
# GULP energy per Si atom -5586.230643 kJ/mol
# Density = 2.473639 g / cm^3
# Si number density = 24.792816 Si / 1000 Ang^3
#
#
#
# Elastic Constant Matrix: (Units=GPa)
#
#
# Indices 1 2 3 4 5 6 
#
# 1 64.1346 21.2535 12.2190 0.0000 -6.8295 0.0000
# 2 21.2535 135.9716 33.5898 0.0000 -3.2020 0.0000
# 3 12.2190 33.5898 132.7126 0.0000 -5.1306 0.0000
# 4 0.0000 0.0000 0.0000 33.8246 0.0000 3.6869
# 5 -6.8295 -3.2020 -5.1306 0.0000 24.8937 0.0000
# 6 0.0000 0.0000 0.0000 3.6869 0.0000 28.1072
#
#
#
# Elastic Compliance Matrix: (Units=1/GPa)
#
#
# Indices 1 2 3 4 5 6 
#
# 1 0.016972 -0.002355 -0.000805 0.000000 0.004187 0.000000
# 2 -0.002355 0.008181 -0.001853 0.000000 0.000024 0.000000
# 3 -0.000805 -0.001853 0.008125 0.000000 0.001216 0.000000
# 4 0.000000 0.000000 0.000000 0.029993 0.000000 -0.003934
# 5 0.004187 0.000024 0.001216 0.000000 0.041573 0.000000
# 6 0.000000 0.000000 0.000000 -0.003934 0.000000 0.036094
#
#
# Mechanical properties :
#
#
# Convention : Reuss Voigt Hill
#
# Bulk Modulus (GPa) = 43.00651 51.88261 47.44456
# Shear Modulus (GPa) = 31.50298 35.08217 33.29258
#
# Velocity S-wave (km/s) = 3.56848 3.76575 3.66844
# Velocity P-wave (km/s) = 5.86198 6.31504 6.09272
#
# Compressibility (1/GPa) = 0.02325229
#
# Stress axis : x y z
#
# Youngs Moduli (GPa) = 58.92060 122.23535 123.07542
#
# Poissons Ratio (x) = 0.28792 0.09902
# Poissons Ratio (y) = 0.13879 0.22803
# Poissons Ratio (z) = 0.04741 0.22648
#
# Static dielectric constant tensor:
#      x y z
#    x 2.027160 0.000000 0.031060 
#    y 0.000000 2.002790 0.000000 
#    z 0.031060 0.000000 2.051990 
# 
# From -- ./inp_files/26719.got.cif
#   From: 2010.05.17/outbox.cif.g08.bks.cpg/sg9_14_cif.got.tgz:26719.got - 2010.06.03 20:04:27.
