data_PCOD9138191
_publ_section_title
;
Structure prediction by ZEFSAII (Michael W. Deem and Ramdas Pophale) SiO2 
 PCOD9138191
Probable space group: C C
;
_chemical_formula_sum "Si O2"
_cell_formula_units_Z 32
_cell_length_a 20.361842
_cell_length_b 12.152911
_cell_length_c 7.148380
_cell_angle_alpha 90.000000
_cell_angle_beta 132.261981
_cell_angle_gamma 90.000000
_cell_volume 1309.128329
_symmetry_space_group_name_H-M "C C"
_symmetry_group_IT_number 9
_symmetry_cell_setting 'monoclinic'
loop_
_space_group_symop_operation_xyz
x,y,z
x,-y,1/2+z
1/2+x,1/2+y,z
1/2+x,1/2-y,1/2+z
loop_
_atom_site_type_symbol
_atom_site_label
_atom_site_fract_x
_atom_site_fract_y
_atom_site_fract_z
Si Si1 0.045440 0.731212 0.214690
Si Si2 0.357914 0.064320 0.219907
Si Si3 0.052256 0.094612 0.403720
Si Si4 0.988673 0.422785 0.262009
Si Si5 0.456781 0.629221 0.848696
Si Si6 0.156537 0.552991 0.435287
Si Si7 0.765309 0.878337 0.807630
Si Si8 0.749745 0.361646 0.187545
O O1 0.122469 0.662803 0.470585
O O2 0.984651 0.773175 0.263957
O O3 0.065163 0.834622 0.117884
O O4 0.005675 0.648467 0.980488
O O5 0.409173 0.125475 0.483436
O O6 0.438442 0.031197 0.238886
O O7 0.308464 0.951023 0.188393
O O8 0.285773 0.132120 0.969713
O O9 0.148597 0.098005 0.490518
O O10 0.013017 0.977712 0.389573
O O11 0.984420 0.142882 0.118076
O O12 0.075089 0.465100 0.310085
O O13 0.354961 0.614200 0.596358
O O14 0.182390 0.611652 0.290231
O O15 0.245139 0.487819 0.652717
O O16 0.759714 0.768570 0.669711
#
# Coordination Sequence:
#
# PCOD9138191 Si02
#       8
#     4   4   4   4   4   4   4   4
#     4  12  26  47  78 113 148 214 263 316 406 470
#     4  10  23  40  75 107 154 196 257 331 384 477
#     4  12  25  50  76 111 153 208 261 321 406 472
#     4  11  21  44  70 112 148 204 258 320 396 464
#     4  12  28  49  82 111 161 211 260 330 395 488
#     4  12  24  47  75 104 162 197 264 324 378 481
#     4  12  27  48  71 115 154 204 262 326 392 459
#     4  11  24  47  71 111 152 196 261 326 395 467
#
# _framework density 24.443743999999999
#
# number of rings (size 3 to 8) (size 9 to 14) (size 15 to 20)
#    0.000    0.500    5.000    2.250    3.500    2.000 
#    0.000    1.250    0.000    0.000    0.000    0.000 
#    0.000    0.000    0.000    0.000    0.000    0.000 
#
# Total GULP energy -89212.033490 kJ/mol
# GULP energy per Si atom -5575.752093 kJ/mol
# Density = 2.438811 g / cm^3
# Si number density = 24.443744 Si / 1000 Ang^3
#
#
#
# Elastic Constant Matrix: (Units=GPa)
#
#
# Indices 1 2 3 4 5 6 
#
# 1 52.8604 44.3861 -0.6335 0.0000 7.0013 0.0000
# 2 44.3861 123.1672 48.3286 0.0000 13.3427 0.0000
# 3 -0.6335 48.3286 106.4266 0.0000 11.2844 0.0000
# 4 0.0000 0.0000 0.0000 29.5985 0.0000 -0.5159
# 5 7.0013 13.3427 11.2844 0.0000 33.6407 0.0000
# 6 0.0000 0.0000 0.0000 -0.5159 0.0000 42.1486
#
#
#
# Elastic Compliance Matrix: (Units=1/GPa)
#
#
# Indices 1 2 3 4 5 6 
#
# 1 0.030518 -0.013201 0.006527 0.000000 -0.003305 0.000000
# 2 -0.013201 0.015797 -0.007133 0.000000 -0.001125 0.000000
# 3 0.006527 -0.007133 0.012980 0.000000 -0.002883 0.000000
# 4 0.000000 0.000000 0.000000 0.033793 0.000000 0.000414
# 5 -0.003305 -0.001125 -0.002883 0.000000 0.031827 0.000000
# 6 0.000000 0.000000 0.000000 0.000414 0.000000 0.023731
#
#
# Mechanical properties :
#
#
# Convention : Reuss Voigt Hill
#
# Bulk Modulus (GPa) = 31.56456 51.84628 41.70542
# Shear Modulus (GPa) = 26.76378 33.76909 30.26643
#
# Velocity S-wave (km/s) = 3.31254 3.72089 3.52264
# Velocity P-wave (km/s) = 5.25088 6.30210 5.80035
#
# Compressibility (1/GPa) = 0.03168110
#
# Stress axis : x y z
#
# Youngs Moduli (GPa) = 32.76725 63.30345 77.04354
#
# Poissons Ratio (x) = 0.83566 -0.50284
# Poissons Ratio (y) = 0.43256 0.54953
# Poissons Ratio (z) = -0.21386 0.45152
#
# Static dielectric constant tensor:
#      x y z
#    x 2.009130 0.000000 -0.094690 
#    y 0.000000 2.048220 0.000000 
#    z -0.094690 0.000000 2.074550 
# 
# From -- ./inp_files/12195.got.cif
#   From: 2010.05.17/outbox.cif.g08.bks.cpg/sg9_7_cif.got.tgz:12195.got - 2010.06.03 20:04:27.
