data_PCOD9138346
_publ_section_title
;
Structure prediction by ZEFSAII (Michael W. Deem and Ramdas Pophale) SiO2 
 PCOD9138346
Probable space group: C C
;
_chemical_formula_sum "Si O2"
_cell_formula_units_Z 32
_cell_length_a 31.768240
_cell_length_b 8.021961
_cell_length_c 9.181995
_cell_angle_alpha 90.000000
_cell_angle_beta 38.172844
_cell_angle_gamma 90.000000
_cell_volume 1446.186915
_symmetry_space_group_name_H-M "C C"
_symmetry_group_IT_number 9
_symmetry_cell_setting 'monoclinic'
loop_
_space_group_symop_operation_xyz
x,y,z
x,-y,1/2+z
1/2+x,1/2+y,z
1/2+x,1/2-y,1/2+z
loop_
_atom_site_type_symbol
_atom_site_label
_atom_site_fract_x
_atom_site_fract_y
_atom_site_fract_z
Si Si1 0.701770 0.300794 0.861200
Si Si2 0.129962 0.673554 0.808244
Si Si3 0.591847 0.196368 0.383074
Si Si4 0.980688 0.723633 0.219046
Si Si5 0.614253 0.400627 0.596693
Si Si6 0.476873 0.567071 0.107016
Si Si7 0.359584 0.797244 0.474845
Si Si8 0.420764 0.942631 0.597759
O O1 0.683765 0.162695 0.789609
O O2 0.778729 0.279365 0.697476
O O3 0.650712 0.287328 0.134676
O O4 0.670529 0.472396 0.880177
O O5 0.106623 0.495079 0.814435
O O6 0.149430 0.807582 0.635758
O O7 0.058172 0.741730 0.061280
O O8 0.599010 0.251722 0.528296
O O9 0.517910 0.266139 0.543210
O O10 0.951745 0.589833 0.411975
O O11 0.957962 0.916381 0.269640
O O12 0.968774 0.651580 0.086286
O O13 0.539809 0.480438 0.843075
O O14 0.402983 0.649497 0.277983
O O15 0.387326 0.823768 0.565340
O O16 0.370712 0.961532 0.344676
#
# Coordination Sequence:
#
# PCOD9138346 Si02
#       8
#     4   4   4   4   4   4   4   4
#     4  11  25  45  65 101 138 184 228 281 347 421
#     4  11  24  41  69 102 140 174 228 285 351 403
#     4  11  23  43  71 101 138 175 236 285 344 411
#     4  10  23  42  72 101 134 175 229 289 338 405
#     4  10  23  42  73  99 130 185 226 291 340 412
#     4  10  24  41  68 104 136 178 229 285 346 403
#     4  11  26  44  69  97 142 182 228 285 345 423
#     4  10  24  44  67  99 134 183 226 287 343 406
#
# _framework density 22.127153
#
# number of rings (size 3 to 8) (size 9 to 14) (size 15 to 20)
#    0.000    1.500    0.000    4.500   17.500    0.000 
#    4.500    0.000    0.000    0.000    0.000    0.000 
#    0.000    0.000    0.000    0.000    0.000    0.000 
#
# Total GULP energy -89078.329286 kJ/mol
# GULP energy per Si atom -5567.395580 kJ/mol
# Density = 2.207679 g / cm^3
# Si number density = 22.127153 Si / 1000 Ang^3
#
#
#
# Elastic Constant Matrix: (Units=GPa)
#
#
# Indices 1 2 3 4 5 6 
#
# 1 112.4854 18.3770 50.9415 0.0000 1.0805 0.0000
# 2 18.3770 98.2879 8.7169 0.0000 -4.7651 0.0000
# 3 50.9415 8.7169 70.4354 0.0000 -14.9681 0.0000
# 4 0.0000 0.0000 0.0000 23.9210 0.0000 11.9118
# 5 1.0805 -4.7651 -14.9681 0.0000 41.3867 0.0000
# 6 0.0000 0.0000 0.0000 11.9118 0.0000 29.9038
#
#
#
# Elastic Compliance Matrix: (Units=1/GPa)
#
#
# Indices 1 2 3 4 5 6 
#
# 1 0.014246 -0.001907 -0.011042 0.000000 -0.004585 0.000000
# 2 -0.001907 0.010566 0.000369 0.000000 0.001400 0.000000
# 3 -0.011042 0.000369 0.024057 0.000000 0.009031 0.000000
# 4 0.000000 0.000000 0.000000 0.052148 0.000000 -0.020773
# 5 -0.004585 0.001400 0.009031 0.000000 0.027709 0.000000
# 6 0.000000 0.000000 0.000000 -0.020773 0.000000 0.041715
#
#
# Mechanical properties :
#
#
# Convention : Reuss Voigt Hill
#
# Bulk Modulus (GPa) = 42.17699 48.58661 45.38180
# Shear Modulus (GPa) = 24.56963 32.58719 28.57841
#
# Velocity S-wave (km/s) = 3.33586 3.84177 3.59772
# Velocity P-wave (km/s) = 5.82579 6.45636 6.14916
#
# Compressibility (1/GPa) = 0.02370961
#
# Stress axis : x y z
#
# Youngs Moduli (GPa) = 70.19524 94.64477 41.56859
#
# Poissons Ratio (x) = 0.18045 0.45898
# Poissons Ratio (y) = 0.13383 -0.01533
# Poissons Ratio (z) = 0.77507 -0.03490
#
# Static dielectric constant tensor:
#      x y z
#    x 1.842130 0.000000 0.065030 
#    y 0.000000 1.995940 0.000000 
#    z 0.065030 0.000000 1.829050 
# 
# From -- ./inp_files/12688.got.cif
#   From: 2010.05.17/outbox.cif.g08.bks.cpg/sg9_7_cif.got.tgz:12688.got - 2010.06.03 20:04:27.
