data_PCOD9138229
_publ_section_title
;
Structure prediction by ZEFSAII (Michael W. Deem and Ramdas Pophale) SiO2 
 PCOD9138229
Probable space group: C C
;
_chemical_formula_sum "Si O2"
_cell_formula_units_Z 32
_cell_length_a 15.279161
_cell_length_b 11.629142
_cell_length_c 19.208683
_cell_angle_alpha 90.000000
_cell_angle_beta 24.824726
_cell_angle_gamma 90.000000
_cell_volume 1432.954858
_symmetry_space_group_name_H-M "C C"
_symmetry_group_IT_number 9
_symmetry_cell_setting 'monoclinic'
loop_
_space_group_symop_operation_xyz
x,y,z
x,-y,1/2+z
1/2+x,1/2+y,z
1/2+x,1/2-y,1/2+z
loop_
_atom_site_type_symbol
_atom_site_label
_atom_site_fract_x
_atom_site_fract_y
_atom_site_fract_z
Si Si1 0.502040 0.486627 0.741570
Si Si2 0.061582 0.613449 0.605444
Si Si3 0.295895 0.208657 0.037268
Si Si4 0.232080 0.596377 0.681232
Si Si5 0.923671 0.927311 0.646344
Si Si6 0.656724 0.712078 0.854419
Si Si7 0.404422 0.292860 0.393026
Si Si8 0.040280 0.580069 0.218621
O O1 0.654314 0.394981 0.668477
O O2 0.541153 0.466766 0.631468
O O3 0.518915 0.613862 0.760663
O O4 0.265929 0.445827 0.927276
O O5 0.153539 0.721523 0.583499
O O6 0.952229 0.523296 0.736891
O O7 0.879208 0.648348 0.685570
O O8 0.353850 0.304018 0.052750
O O9 0.504161 0.151306 0.857722
O O10 0.338045 0.542552 0.671898
O O11 0.198845 0.487235 0.654884
O O12 0.732622 0.843923 0.807979
O O13 0.047033 0.851107 0.499221
O O14 0.519587 0.707362 0.884261
O O15 0.174282 0.339552 0.571407
O O16 0.404617 0.166184 0.361240
#
# Coordination Sequence:
#
# PCOD9138229 Si02
#       8
#     4   4   4   4   4   4   4   4
#     4  11  25  42  66 100 139 182 232 283 347 415
#     4  10  23  43  67 101 137 177 236 289 337 403
#     4  11  23  41  70  95 131 183 231 282 340 411
#     4  11  24  44  67  99 135 177 235 288 342 410
#     4  12  26  42  66 107 139 182 233 290 347 409
#     4  12  23  41  70 101 138 179 234 291 338 412
#     4  11  23  44  65 101 138 182 225 281 349 418
#     4  10  23  41  67  98 139 178 226 280 346 414
#
# _framework density 22.331478000000001
#
# number of rings (size 3 to 8) (size 9 to 14) (size 15 to 20)
#    0.000    1.000    5.000    0.750    5.250    2.000 
#    0.000    5.000    0.000    0.000    0.000    0.000 
#    0.000    0.000    0.000    0.000    0.000    0.000 
#
# Total GULP energy -89381.845086 kJ/mol
# GULP energy per Si atom -5586.365318 kJ/mol
# Density = 2.228065 g / cm^3
# Si number density = 22.331478 Si / 1000 Ang^3
#
#
#
# Elastic Constant Matrix: (Units=GPa)
#
#
# Indices 1 2 3 4 5 6 
#
# 1 51.2632 25.7483 3.0258 0.0033 13.7598 -0.0047
# 2 25.7483 105.9667 24.5684 -0.0055 12.4118 -0.0018
# 3 3.0258 24.5684 84.0283 -0.0221 15.7909 0.0081
# 4 0.0033 -0.0055 -0.0221 47.7082 0.0063 12.3924
# 5 13.7598 12.4118 15.7909 0.0063 23.3319 -0.0020
# 6 -0.0047 -0.0018 0.0081 12.3924 -0.0020 28.1652
#
#
#
# Elastic Compliance Matrix: (Units=1/GPa)
#
#
# Indices 1 2 3 4 5 6 
#
# 1 0.025966 -0.005371 0.003410 0.000001 -0.014764 0.000002
# 2 -0.005371 0.011549 -0.003006 0.000000 -0.000942 0.000000
# 3 0.003410 -0.003006 0.014590 0.000010 -0.010286 -0.000009
# 4 0.000001 0.000000 0.000010 0.023665 -0.000015 -0.010413
# 5 -0.014764 -0.000942 -0.010286 -0.000015 0.059029 0.000011
# 6 0.000002 0.000000 -0.000009 -0.010413 0.000011 0.040086
#
#
# Mechanical properties :
#
#
# Convention : Reuss Voigt Hill
#
# Bulk Modulus (GPa) = 23.71298 38.66036 31.18667
# Shear Modulus (GPa) = 25.14100 32.36877 28.75489
#
# Velocity S-wave (km/s) = 3.35895 3.81132 3.59226
# Velocity P-wave (km/s) = 5.06804 6.05952 5.58583
#
# Compressibility (1/GPa) = 0.04217100
#
# Stress axis : x y z
#
# Youngs Moduli (GPa) = 38.51131 86.58557 68.54017
#
# Poissons Ratio (x) = 0.46502 -0.23371
# Poissons Ratio (y) = 0.20683 0.20606
# Poissons Ratio (z) = -0.13132 0.26031
#
# Static dielectric constant tensor:
#      x y z
#    x 1.811810 0.000000 0.046330 
#    y 0.000000 1.826180 0.000000 
#    z 0.046330 0.000000 1.877140 
# 
# From -- ./inp_files/11630.got.cif
#   From: 2010.05.17/outbox.cif.g08.bks.cpg/sg9_6_cif.got.tgz:11630.got - 2010.06.03 20:04:27.
