data_PCOD9138433
_publ_section_title
;
Structure prediction by ZEFSAII (Michael W. Deem and Ramdas Pophale) SiO2 
 PCOD9138433
Probable space group: C C
;
_chemical_formula_sum "Si O2"
_cell_formula_units_Z 32
_cell_length_a 10.956997
_cell_length_b 9.798991
_cell_length_c 27.222006
_cell_angle_alpha 90.000000
_cell_angle_beta 30.500478
_cell_angle_gamma 90.000000
_cell_volume 1483.433397
_symmetry_space_group_name_H-M "C C"
_symmetry_group_IT_number 9
_symmetry_cell_setting 'monoclinic'
loop_
_space_group_symop_operation_xyz
x,y,z
x,-y,1/2+z
1/2+x,1/2+y,z
1/2+x,1/2-y,1/2+z
loop_
_atom_site_type_symbol
_atom_site_label
_atom_site_fract_x
_atom_site_fract_y
_atom_site_fract_z
Si Si1 0.185070 0.247133 0.772030
Si Si2 0.244867 0.819151 0.601205
Si Si3 0.678754 0.960095 0.294487
Si Si4 0.962860 0.800804 0.533243
Si Si5 0.251798 0.558609 0.661881
Si Si6 0.668247 0.551662 0.865542
Si Si7 0.894255 0.232735 0.444834
Si Si8 0.645662 0.403365 0.180958
O O1 0.462355 0.289323 0.687047
O O2 0.056898 0.392854 0.826868
O O3 0.102276 0.137773 0.840266
O O4 0.169982 0.176235 0.724167
O O5 0.320263 0.691349 0.607830
O O6 0.366905 0.812730 0.505708
O O7 0.280328 0.956184 0.620251
O O8 0.817261 0.931805 0.195907
O O9 0.509435 0.835097 0.365577
O O10 0.870997 0.952876 0.271364
O O11 0.077300 0.860479 0.443871
O O12 0.138743 0.709555 0.506746
O O13 0.727675 0.706101 0.611374
O O14 0.881923 0.931165 0.592648
O O15 0.959807 0.540159 0.763365
O O16 0.542159 0.404213 0.904920
#
# Coordination Sequence:
#
# PCOD9138433 Si02
#       8
#     4   4   4   4   4   4   4   4
#     4  10  23  45  66  94 137 178 226 285 345 414
#     4  10  23  43  69  97 134 176 232 287 339 418
#     4  11  24  41  69  99 134 182 230 282 353 413
#     4  12  23  45  70  96 143 181 229 290 348 412
#     4  11  22  48  70  96 140 183 227 289 351 404
#     4  11  26  43  70 103 134 183 234 288 347 417
#     4  12  24  43  66 103 135 177 236 289 345 415
#     4  11  23  44  68  96 137 186 226 288 352 411
#
# _framework density 21.571577000000001
#
# number of rings (size 3 to 8) (size 9 to 14) (size 15 to 20)
#    0.000    1.000    5.000    1.500    3.500    1.000 
#    2.250    0.000    0.000    0.000    0.000    0.000 
#    0.000    0.000    0.000    0.000    0.000    0.000 
#
# Total GULP energy -89270.325943 kJ/mol
# GULP energy per Si atom -5579.395371 kJ/mol
# Density = 2.152248 g / cm^3
# Si number density = 21.571577 Si / 1000 Ang^3
#
#
#
# Elastic Constant Matrix: (Units=GPa)
#
#
# Indices 1 2 3 4 5 6 
#
# 1 79.6085 51.9805 19.6495 0.0007 17.5701 0.0007
# 2 51.9805 132.5374 22.6148 0.0028 8.6612 0.0010
# 3 19.6495 22.6148 64.3583 -0.0011 24.2815 -0.0046
# 4 0.0007 0.0028 -0.0011 29.7503 0.0018 4.5572
# 5 17.5701 8.6612 24.2815 0.0018 24.6085 0.0018
# 6 0.0007 0.0010 -0.0046 4.5572 0.0018 41.9106
#
#
#
# Elastic Compliance Matrix: (Units=1/GPa)
#
#
# Indices 1 2 3 4 5 6 
#
# 1 0.019730 -0.007125 0.001352 0.000001 -0.012913 0.000000
# 2 -0.007125 0.010599 -0.003283 -0.000001 0.004596 -0.000001
# 3 0.001352 -0.003283 0.025819 0.000002 -0.025285 0.000004
# 4 0.000001 -0.000001 0.000002 0.034183 -0.000005 -0.003717
# 5 -0.012913 0.004596 -0.025285 -0.000005 0.073187 -0.000005
# 6 0.000000 -0.000001 0.000004 -0.003717 -0.000005 0.024264
#
#
# Mechanical properties :
#
#
# Convention : Reuss Voigt Hill
#
# Bulk Modulus (GPa) = 26.29149 51.66598 38.97873
# Shear Modulus (GPa) = 22.87564 31.40450 27.14007
#
# Velocity S-wave (km/s) = 3.25999 3.81967 3.55088
# Velocity P-wave (km/s) = 5.13659 6.59213 5.90934
#
# Compressibility (1/GPa) = 0.03803512
#
# Stress axis : x y z
#
# Youngs Moduli (GPa) = 50.68439 94.34672 38.73161
#
# Poissons Ratio (x) = 0.67220 -0.05235
# Poissons Ratio (y) = 0.36111 0.12716
# Poissons Ratio (z) = -0.06850 0.30976
#
# Static dielectric constant tensor:
#      x y z
#    x 1.828460 0.000000 -0.075730 
#    y 0.000000 1.806120 0.000000 
#    z -0.075730 0.000000 1.839510 
# 
# From -- ./inp_files/24250.got.cif
#   From: 2010.05.17/outbox.cif.g08.bks.cpg/sg9_13_cif.got.tgz:24250.got - 2010.06.03 20:04:27.
