data_PCOD9138734
_publ_section_title
;
Structure prediction by ZEFSAII (Michael W. Deem and Ramdas Pophale) SiO2 
 PCOD9138734
Probable space group: C C
;
_chemical_formula_sum "Si O2"
_cell_formula_units_Z 24
_cell_length_a 9.649289
_cell_length_b 8.779390
_cell_length_c 11.682881
_cell_angle_alpha 90.000000
_cell_angle_beta 107.422263
_cell_angle_gamma 90.000000
_cell_volume 944.309712
_symmetry_space_group_name_H-M "C C"
_symmetry_group_IT_number 9
_symmetry_cell_setting 'monoclinic'
loop_
_space_group_symop_operation_xyz
x,y,z
x,-y,1/2+z
1/2+x,1/2+y,z
1/2+x,1/2-y,1/2+z
loop_
_atom_site_type_symbol
_atom_site_label
_atom_site_fract_x
_atom_site_fract_y
_atom_site_fract_z
Si Si1 0.563810 0.987521 0.257220
Si Si2 0.327112 0.024602 0.877471
Si Si3 0.803414 0.184300 0.965171
Si Si4 0.000347 0.248304 0.583630
Si Si5 0.536137 0.497042 0.412917
Si Si6 0.798553 0.988203 0.163933
O O1 0.406062 0.959147 0.273961
O O2 0.677917 0.925039 0.379421
O O3 0.645541 0.915749 0.166998
O O4 0.564247 0.160943 0.209852
O O5 0.161902 0.068217 0.863742
O O6 0.421937 0.119455 0.990945
O O7 0.312330 0.846986 0.907585
O O8 0.575204 0.360607 0.005032
O O9 0.965638 0.124084 0.979508
O O10 0.779890 0.144944 0.091276
O O11 0.880295 0.135072 0.607639
O O12 0.403089 0.533010 0.294906
#
# Coordination Sequence:
#
# PCOD9138734 Si02
#       6
#     4   4   4   4   4   4
#     4  11  22  42  70  99 138 181 228 284 348 412
#     4  12  25  42  69 105 136 178 240 289 346 416
#     4  10  24  45  68  98 140 185 230 288 350 412
#     4  11  26  44  71 104 139 188 237 286 349 419
#     4  10  24  45  68 101 140 181 233 287 348 415
#     4  10  23  46  70  97 141 187 228 288 353 412
#
# _framework density 25.415388
#
# number of rings (size 3 to 8) (size 9 to 14) (size 15 to 20)
#    0.000    1.333    0.000    5.000    0.000   14.667 
#    0.000    0.000    0.000    0.000    0.000    0.000 
#    0.000    0.000    0.000    0.000    0.000    0.000 
#
# Total GULP energy -66847.629720 kJ/mol
# GULP energy per Si atom -5570.635810 kJ/mol
# Density = 2.535754 g / cm^3
# Si number density = 25.415388 Si / 1000 Ang^3
#
#
#
# Elastic Constant Matrix: (Units=GPa)
#
#
# Indices 1 2 3 4 5 6 
#
# 1 114.9350 27.9036 36.1137 0.0000 -45.1060 0.0000
# 2 27.9036 78.5024 38.6708 0.0000 10.6871 0.0000
# 3 36.1137 38.6708 87.9235 0.0000 -33.9373 0.0000
# 4 0.0000 0.0000 0.0000 40.7453 0.0000 22.2180
# 5 -45.1060 10.6871 -33.9373 0.0000 54.2077 0.0000
# 6 0.0000 0.0000 0.0000 22.2180 0.0000 23.6506
#
#
#
# Elastic Compliance Matrix: (Units=1/GPa)
#
#
# Indices 1 2 3 4 5 6 
#
# 1 0.018260 -0.012607 0.006420 0.000000 0.021699 0.000000
# 2 -0.012607 0.030666 -0.019374 0.000000 -0.028665 0.000000
# 3 0.006420 -0.019374 0.027420 0.000000 0.026328 0.000000
# 4 0.000000 0.000000 0.000000 0.050319 0.000000 -0.047271
# 5 0.021699 -0.028665 0.026328 0.000000 0.058638 0.000000
# 6 0.000000 0.000000 0.000000 -0.047271 0.000000 0.086690
#
#
# Mechanical properties :
#
#
# Convention : Reuss Voigt Hill
#
# Bulk Modulus (GPa) = 39.64414 54.08191 46.86303
# Shear Modulus (GPa) = 15.08203 35.63224 25.35714
#
# Velocity S-wave (km/s) = 2.43867 3.74838 3.16208
# Velocity P-wave (km/s) = 4.85405 6.32924 5.64008
#
# Compressibility (1/GPa) = 0.02522441
#
# Stress axis : x y z
#
# Youngs Moduli (GPa) = 54.76570 32.60979 36.47004
#
# Poissons Ratio (x) = 0.41112 -0.23415
# Poissons Ratio (y) = 0.69044 0.70656
# Poissons Ratio (z) = -0.35162 0.63177
#
# Static dielectric constant tensor:
#      x y z
#    x 2.075270 0.000000 -0.019970 
#    y 0.000000 2.073710 0.000000 
#    z -0.019970 0.000000 2.062440 
# 
# From -- ./inp_files/14279.got.cif
#   From: 2010.05.17/outbox.cif.g08.bks.cpg/sg9_8_cif.got.tgz:14279.got - 2010.06.03 20:04:27.
