data_PCOD9138484
_publ_section_title
;
Structure prediction by ZEFSAII (Michael W. Deem and Ramdas Pophale) SiO2 
 PCOD9138484
Probable space group: C C
;
_chemical_formula_sum "Si O2"
_cell_formula_units_Z 28
_cell_length_a 7.410389
_cell_length_b 11.761243
_cell_length_c 21.122452
_cell_angle_alpha 90.000000
_cell_angle_beta 129.235601
_cell_angle_gamma 90.000000
_cell_volume 1425.899546
_symmetry_space_group_name_H-M "C C"
_symmetry_group_IT_number 9
_symmetry_cell_setting 'monoclinic'
loop_
_space_group_symop_operation_xyz
x,y,z
x,-y,1/2+z
1/2+x,1/2+y,z
1/2+x,1/2-y,1/2+z
loop_
_atom_site_type_symbol
_atom_site_label
_atom_site_fract_x
_atom_site_fract_y
_atom_site_fract_z
Si Si1 0.503080 0.810475 0.818140
Si Si2 0.339614 0.132508 0.089033
Si Si3 0.139724 0.197298 0.732135
Si Si4 0.626800 0.459890 0.662842
Si Si5 0.109764 0.576436 0.025118
Si Si6 0.498766 0.729299 0.399157
Si Si7 0.993268 0.326147 0.962691
O O1 0.501746 0.703188 0.769070
O O2 0.313118 0.896198 0.748564
O O3 0.775796 0.847153 0.869881
O O4 0.465357 0.791169 0.883296
O O5 0.548879 0.195498 0.172563
O O6 0.223814 0.046185 0.112861
O O7 0.439939 0.079414 0.047669
O O8 0.154680 0.231727 0.031554
O O9 0.404824 0.212686 0.813560
O O10 0.098814 0.085553 0.683523
O O11 0.374130 0.401657 0.605954
O O12 0.031924 0.673369 0.958949
O O13 0.101403 0.451866 0.991737
O O14 0.741722 0.670420 0.440003
#
# Coordination Sequence:
#
# PCOD9138484 Si02
#       7
#     4   4   4   4   4   4   4
#     4   9  23  41  65  91 132 166 215 263 312 387
#     4  11  23  42  62  98 130 168 215 260 322 384
#     4   9  21  45  62  92 132 164 212 268 311 382
#     4  11  22  43  68  93 131 172 211 267 322 374
#     4  12  25  40  68  98 127 170 219 259 323 384
#     4  10  23  44  63  94 130 166 216 264 314 380
#     4  12  23  43  68  92 130 174 206 271 322 371
#
# _framework density 19.636725999999999
#
# number of rings (size 3 to 8) (size 9 to 14) (size 15 to 20)
#    0.857    0.571    4.286    0.857    2.000    2.286 
#    5.143    0.000    0.000    0.000    0.000    0.000 
#    0.000    0.000    0.000    0.000    0.000    0.000 
#
# Total GULP energy -78049.634210 kJ/mol
# GULP energy per Si atom -5574.973872 kJ/mol
# Density = 1.959203 g / cm^3
# Si number density = 19.636726 Si / 1000 Ang^3
#
#
#
# Elastic Constant Matrix: (Units=GPa)
#
#
# Indices 1 2 3 4 5 6 
#
# 1 96.0238 22.7800 31.2389 0.0000 -3.9615 0.0000
# 2 22.7800 52.2217 27.2848 0.0000 -6.5574 0.0000
# 3 31.2389 27.2848 88.0567 0.0000 -9.4328 0.0000
# 4 0.0000 0.0000 0.0000 14.2076 0.0000 -1.9302
# 5 -3.9615 -6.5574 -9.4328 0.0000 32.7519 0.0000
# 6 0.0000 0.0000 0.0000 -1.9302 0.0000 24.4547
#
#
#
# Elastic Compliance Matrix: (Units=1/GPa)
#
#
# Indices 1 2 3 4 5 6 
#
# 1 0.012344 -0.003710 -0.003249 0.000000 -0.000186 0.000000
# 2 -0.003710 0.024183 -0.005888 0.000000 0.002697 0.000000
# 3 -0.003249 -0.005888 0.014616 0.000000 0.002638 0.000000
# 4 0.000000 0.000000 0.000000 0.071148 0.000000 0.005616
# 5 -0.000186 0.002697 0.002638 0.000000 0.031810 0.000000
# 6 0.000000 0.000000 0.000000 0.005616 0.000000 0.041335
#
#
# Mechanical properties :
#
#
# Convention : Reuss Voigt Hill
#
# Bulk Modulus (GPa) = 39.29665 44.32328 41.80997
# Shear Modulus (GPa) = 21.77585 24.61608 23.19597
#
# Velocity S-wave (km/s) = 3.33368 3.54443 3.44067
# Velocity P-wave (km/s) = 5.90535 6.27465 6.09280
#
# Compressibility (1/GPa) = 0.02544746
#
# Stress axis : x y z
#
# Youngs Moduli (GPa) = 81.01320 41.35204 68.41821
#
# Poissons Ratio (x) = 0.15342 0.22231
# Poissons Ratio (y) = 0.30057 0.40284
# Poissons Ratio (z) = 0.26324 0.24348
#
# Static dielectric constant tensor:
#      x y z
#    x 1.705780 0.000000 0.015390 
#    y 0.000000 1.667000 0.000000 
#    z 0.015390 0.000000 1.714820 
# 
# From -- ./inp_files/28550.got.cif
#   From: 2010.05.17/outbox.cif.g08.bks.cpg/sg9_15_cif.got.tgz:28550.got - 2010.06.03 20:04:27.
