data_PCOD9138972
_publ_section_title
;
Structure prediction by ZEFSAII (Michael W. Deem and Ramdas Pophale) SiO2 
 PCOD9138972
Probable space group: C C
;
_chemical_formula_sum "Si O2"
_cell_formula_units_Z 24
_cell_length_a 10.133918
_cell_length_b 12.006552
_cell_length_c 16.261711
_cell_angle_alpha 90.000000
_cell_angle_beta 29.265905
_cell_angle_gamma 90.000000
_cell_volume 967.273912
_symmetry_space_group_name_H-M "C C"
_symmetry_group_IT_number 9
_symmetry_cell_setting 'monoclinic'
loop_
_space_group_symop_operation_xyz
x,y,z
x,-y,1/2+z
1/2+x,1/2+y,z
1/2+x,1/2-y,1/2+z
loop_
_atom_site_type_symbol
_atom_site_label
_atom_site_fract_x
_atom_site_fract_y
_atom_site_fract_z
Si Si1 0.377960 0.803783 0.612490
Si Si2 0.664926 0.478613 0.182410
Si Si3 0.777301 0.965501 0.543993
Si Si4 0.496083 0.237655 0.491871
Si Si5 0.696625 0.625702 0.380342
Si Si6 0.050099 0.839872 0.633474
O O1 0.634289 0.723376 0.478708
O O2 0.226899 0.800802 0.780673
O O3 0.196872 0.777978 0.630400
O O4 0.402036 0.937332 0.585373
O O5 0.413498 0.496415 0.381609
O O6 0.768538 0.354510 0.130212
O O7 0.605800 0.530510 0.124723
O O8 0.878841 0.842026 0.508219
O O9 0.458626 0.954327 0.735850
O O10 0.933079 0.048650 0.520013
O O11 0.732542 0.178963 0.313574
O O12 0.621623 0.286237 0.508180
#
# Coordination Sequence:
#
# PCOD9138972 Si02
#       6
#     4   4   4   4   4   4
#     4   9  23  43  72 104 145 191 249 307 382 451
#     4   9  24  42  70 109 144 198 241 318 368 458
#     4  11  27  44  76 103 155 195 253 319 380 451
#     4  12  23  47  72 111 149 196 262 309 385 458
#     4  11  25  48  72 106 144 199 250 314 382 451
#     4  10  24  42  78 105 147 199 247 313 385 449
#
# _framework density 24.812000000000001
#
# number of rings (size 3 to 8) (size 9 to 14) (size 15 to 20)
#    1.000    0.667    1.667    1.000    9.333    0.000 
#    9.000    0.000    0.000    0.000    0.000    0.000 
#    0.000    0.000    0.000    0.000    0.000    0.000 
#
# Total GULP energy -66940.834251 kJ/mol
# GULP energy per Si atom -5578.402854 kJ/mol
# Density = 2.475553 g / cm^3
# Si number density = 24.812000 Si / 1000 Ang^3
#
#
#
# Elastic Constant Matrix: (Units=GPa)
#
#
# Indices 1 2 3 4 5 6 
#
# 1 48.5769 30.5659 21.3883 -0.0033 -13.7219 0.0029
# 2 30.5659 132.7775 43.0640 -0.0062 -3.5729 0.0010
# 3 21.3883 43.0640 85.4039 -0.0241 -17.2205 0.0121
# 4 -0.0033 -0.0062 -0.0241 41.4929 0.0068 -4.2689
# 5 -13.7219 -3.5729 -17.2205 0.0068 32.1417 -0.0050
# 6 0.0029 0.0010 0.0121 -4.2689 -0.0050 32.4313
#
#
#
# Elastic Compliance Matrix: (Units=1/GPa)
#
#
# Indices 1 2 3 4 5 6 
#
# 1 0.027815 -0.005418 -0.002198 -0.000002 0.010095 0.000000
# 2 -0.005418 0.010134 -0.004476 -0.000001 -0.003585 0.000001
# 3 -0.002198 -0.004476 0.015950 0.000007 0.007109 -0.000004
# 4 -0.000002 -0.000001 0.000007 0.024431 -0.000002 0.003216
# 5 0.010095 -0.003585 0.007109 -0.000002 0.038832 0.000002
# 6 0.000000 0.000001 -0.000004 0.003216 0.000002 0.031258
#
#
# Mechanical properties :
#
#
# Convention : Reuss Voigt Hill
#
# Bulk Modulus (GPa) = 33.65440 50.75497 42.20469
# Shear Modulus (GPa) = 27.39584 32.66253 30.02918
#
# Velocity S-wave (km/s) = 3.32646 3.63216 3.48267
# Velocity P-wave (km/s) = 5.32419 6.17174 5.76356
#
# Compressibility (1/GPa) = 0.02971379
#
# Stress axis : x y z
#
# Youngs Moduli (GPa) = 35.95216 98.67850 62.69615
#
# Poissons Ratio (x) = 0.53469 0.13782
# Poissons Ratio (y) = 0.19481 0.28061
# Poissons Ratio (z) = 0.07903 0.44166
#
# Static dielectric constant tensor:
#      x y z
#    x 2.076370 0.000000 -0.000700 
#    y 0.000000 1.972110 0.000000 
#    z -0.000700 0.000000 1.950690 
# 
# From -- ./inp_files/30039.got.cif
#   From: 2010.05.17/outbox.cif.g08.bks.cpg/sg9_16_cif.got.tgz:30039.got - 2010.06.03 20:04:27.
