data_PCOD9138970
_publ_section_title
;
Structure prediction by ZEFSAII (Michael W. Deem and Ramdas Pophale) SiO2 
 PCOD9138970
Probable space group: C C
;
_chemical_formula_sum "Si O2"
_cell_formula_units_Z 32
_cell_length_a 21.862865
_cell_length_b 9.894579
_cell_length_c 9.513969
_cell_angle_alpha 90.000000
_cell_angle_beta 42.508571
_cell_angle_gamma 90.000000
_cell_volume 1390.658069
_symmetry_space_group_name_H-M "C C"
_symmetry_group_IT_number 9
_symmetry_cell_setting 'monoclinic'
loop_
_space_group_symop_operation_xyz
x,y,z
x,-y,1/2+z
1/2+x,1/2+y,z
1/2+x,1/2-y,1/2+z
loop_
_atom_site_type_symbol
_atom_site_label
_atom_site_fract_x
_atom_site_fract_y
_atom_site_fract_z
Si Si1 0.767330 0.091869 0.464020
Si Si2 0.208516 0.895018 0.890625
Si Si3 0.037383 0.929301 0.652008
Si Si4 0.959460 0.117139 0.000925
Si Si5 0.695420 0.098214 0.876843
Si Si6 0.582252 0.867366 0.154998
Si Si7 0.827286 0.483857 0.944478
Si Si8 0.450109 0.911643 0.989654
O O1 0.742532 0.945438 0.442206
O O2 0.858293 0.135172 0.233143
O O3 0.767629 0.091410 0.629728
O O4 0.675948 0.172670 0.574802
O O5 0.162886 0.750171 0.944734
O O6 0.266830 0.899994 0.935689
O O7 0.268537 0.924006 0.649903
O O8 0.134977 0.012287 0.025127
O O9 0.035294 0.768999 0.684229
O O10 0.018868 0.952125 0.520383
O O11 0.966089 0.019324 0.857893
O O12 0.997671 0.267284 0.914821
O O13 0.620724 0.980104 0.979354
O O14 0.514476 0.958792 0.360812
O O15 0.887041 0.403366 0.957185
O O16 0.892707 0.565798 0.728605
#
# Coordination Sequence:
#
# PCOD9138970 Si02
#       8
#     4   4   4   4   4   4   4   4
#     4  10  25  44  74  96 140 181 233 281 351 414
#     4  11  24  46  69 107 140 191 228 293 355 424
#     4  12  28  45  71 104 147 183 237 295 353 417
#     4  12  27  46  72 106 145 183 236 294 354 413
#     4  10  24  42  74  97 134 187 235 276 339 429
#     4  10  27  45  73  98 144 183 233 282 352 416
#     4  10  25  40  74 106 146 174 240 291 357 411
#     4  11  24  46  73 106 138 188 232 296 345 422
#
# _framework density 23.01069
#
# number of rings (size 3 to 8) (size 9 to 14) (size 15 to 20)
#    0.750    0.500    0.000    3.750   10.500    7.000 
#    0.000    0.000    0.000    0.000    0.000    0.000 
#    0.000    0.000    0.000    0.000    0.000    0.000 
#
# Total GULP energy -89337.220036 kJ/mol
# GULP energy per Si atom -5583.576252 kJ/mol
# Density = 2.295832 g / cm^3
# Si number density = 23.010690 Si / 1000 Ang^3
#
#
#
# Elastic Constant Matrix: (Units=GPa)
#
#
# Indices 1 2 3 4 5 6 
#
# 1 55.5249 -13.4780 20.6746 0.0000 19.3439 0.0000
# 2 -13.4780 113.2197 36.6938 0.0000 12.9160 0.0000
# 3 20.6746 36.6938 141.3195 0.0000 6.7062 0.0000
# 4 0.0000 0.0000 0.0000 0.7136 0.0000 8.1668
# 5 19.3439 12.9160 6.7062 0.0000 39.1307 0.0000
# 6 0.0000 0.0000 0.0000 8.1668 0.0000 20.3110
#
#
#
# Elastic Compliance Matrix: (Units=1/GPa)
#
#
# Indices 1 2 3 4 5 6 
#
# 1 0.026305 0.006318 -0.004812 0.000000 -0.014264 0.000000
# 2 0.006318 0.011470 -0.003604 0.000000 -0.006292 0.000000
# 3 -0.004812 -0.003604 0.008617 0.000000 0.002092 0.000000
# 4 0.000000 0.000000 0.000000 -0.389078 0.000000 0.156444
# 5 -0.014264 -0.006292 0.002092 0.000000 0.034325 0.000000
# 6 0.000000 0.000000 0.000000 0.156444 0.000000 -0.013670
#
#
# Mechanical properties :
#
#
# Convention : Reuss Voigt Hill
#
# Bulk Modulus (GPa) = 23.69888 44.20499 33.95194
# Shear Modulus (GPa) = -16.45980 29.77597 6.65809
#
# Velocity S-wave (km/s) = -2.67743 3.60113 1.70287
# Velocity P-wave (km/s) = 0.87364 6.04510 4.31894
#
# Compressibility (1/GPa) = 0.04219609
#
# Stress axis : x y z
#
# Youngs Moduli (GPa) = 38.01598 87.18159 116.05409
#
# Poissons Ratio (x) = -0.55083 0.55844
# Poissons Ratio (y) = -0.24019 0.41826
# Poissons Ratio (z) = 0.18293 0.31421
#
# Static dielectric constant tensor:
#      x y z
#    x 1.895860 0.000000 -0.039860 
#    y 0.000000 1.818910 0.000000 
#    z -0.039860 0.000000 1.849980 
# 
# From -- ./inp_files/12409.got.cif
#   From: 2010.05.17/outbox.cif.g08.bks.cpg/sg9_7_cif.got.tgz:12409.got - 2010.06.03 20:04:27.
