data_PCOD9138255
_publ_section_title
;
Structure prediction by ZEFSAII (Michael W. Deem and Ramdas Pophale) SiO2 
 PCOD9138255
Probable space group: C C
;
_chemical_formula_sum "Si O2"
_cell_formula_units_Z 32
_cell_length_a 17.992156
_cell_length_b 6.080128
_cell_length_c 13.495124
_cell_angle_alpha 90.000000
_cell_angle_beta 69.093433
_cell_angle_gamma 90.000000
_cell_volume 1379.099946
_symmetry_space_group_name_H-M "C C"
_symmetry_group_IT_number 9
_symmetry_cell_setting 'monoclinic'
loop_
_space_group_symop_operation_xyz
x,y,z
x,-y,1/2+z
1/2+x,1/2+y,z
1/2+x,1/2-y,1/2+z
loop_
_atom_site_type_symbol
_atom_site_label
_atom_site_fract_x
_atom_site_fract_y
_atom_site_fract_z
Si Si1 0.059010 0.863411 0.767060
Si Si2 0.454139 0.302028 0.201591
Si Si3 0.756354 0.950693 0.545987
Si Si4 0.909105 0.336917 0.922461
Si Si5 0.084934 0.536920 0.597303
Si Si6 0.707460 0.367994 0.235467
Si Si7 0.836987 0.677807 0.105734
Si Si8 0.568376 0.367545 0.435768
O O1 0.077004 0.625511 0.714489
O O2 0.136846 0.012622 0.706678
O O3 0.055785 0.891127 0.888912
O O4 0.985307 0.985426 0.747394
O O5 0.418007 0.134631 0.300713
O O6 0.390068 0.341696 0.146306
O O7 0.525202 0.165791 0.117528
O O8 0.833741 0.828334 0.467678
O O9 0.737081 0.838345 0.660422
O O10 0.672830 0.951630 0.529481
O O11 0.779666 0.197482 0.558181
O O12 0.995326 0.251597 0.915506
O O13 0.889658 0.529315 0.008314
O O14 0.064322 0.758560 0.545406
O O15 0.781756 0.531724 0.203814
O O16 0.658225 0.313956 0.356972
#
# Coordination Sequence:
#
# PCOD9138255 Si02
#       8
#     4   4   4   4   4   4   4   4
#     4   9  21  41  61  91 127 158 211 264 303 382
#     4  11  24  42  65  94 127 168 211 262 318 381
#     4  11  22  38  65  89 130 169 204 263 319 369
#     4  10  23  42  59  93 134 156 214 268 305 381
#     4  12  21  41  70  93 122 177 213 254 326 379
#     4   9  20  43  59  88 134 154 208 270 302 372
#     4  11  23  40  63  96 124 168 206 261 322 372
#     4   9  20  41  64  88 126 166 207 262 307 374
#
# _framework density 23.203538000000002
#
# number of rings (size 3 to 8) (size 9 to 14) (size 15 to 20)
#    0.750    1.000    3.750    0.000    1.750    4.000 
#    0.000    1.250    0.000    0.000    0.000    0.000 
#    0.000    0.000    0.000    0.000    0.000    0.000 
#
# Total GULP energy -89089.424480 kJ/mol
# GULP energy per Si atom -5568.089030 kJ/mol
# Density = 2.315073 g / cm^3
# Si number density = 23.203538 Si / 1000 Ang^3
#
#
#
# Elastic Constant Matrix: (Units=GPa)
#
#
# Indices 1 2 3 4 5 6 
#
# 1 70.5337 4.5403 26.8567 0.0000 -4.7044 0.0000
# 2 4.5403 19.7836 4.9905 0.0000 -11.7669 0.0000
# 3 26.8567 4.9905 82.3147 0.0000 -12.2048 0.0000
# 4 0.0000 0.0000 0.0000 16.0345 0.0000 -3.8894
# 5 -4.7044 -11.7669 -12.2048 0.0000 27.0260 0.0000
# 6 0.0000 0.0000 0.0000 -3.8894 0.0000 27.4804
#
#
#
# Elastic Compliance Matrix: (Units=1/GPa)
#
#
# Indices 1 2 3 4 5 6 
#
# 1 0.016316 -0.002890 -0.005266 0.000000 -0.000796 0.000000
# 2 -0.002890 0.068729 0.001220 0.000000 0.029972 0.000000
# 3 -0.005266 0.001220 0.014721 0.000000 0.006263 0.000000
# 4 0.000000 0.000000 0.000000 0.064583 0.000000 0.009141
# 5 -0.000796 0.029972 0.006263 0.000000 0.052740 0.000000
# 6 0.000000 0.000000 0.000000 0.009141 0.000000 0.037683
#
#
# Mechanical properties :
#
#
# Convention : Reuss Voigt Hill
#
# Bulk Modulus (GPa) = 11.64222 27.26745 19.45484
# Shear Modulus (GPa) = 16.81940 23.19115 20.00528
#
# Velocity S-wave (km/s) = 2.69525 3.16486 2.93945
# Velocity P-wave (km/s) = 3.83590 5.01319 4.46353
#
# Compressibility (1/GPa) = 0.08589430
#
# Stress axis : x y z
#
# Youngs Moduli (GPa) = 61.29076 14.54989 67.92891
#
# Poissons Ratio (x) = 0.04204 0.35772
# Poissons Ratio (y) = 0.17710 -0.08286
# Poissons Ratio (z) = 0.32277 -0.01775
#
# Static dielectric constant tensor:
#      x y z
#    x 1.858480 0.000000 -0.007740 
#    y 0.000000 1.872780 0.000000 
#    z -0.007740 0.000000 1.934140 
# 
# From -- ./inp_files/26461.got.cif
#   From: 2010.05.17/outbox.cif.g08.bks.cpg/sg9_14_cif.got.tgz:26461.got - 2010.06.03 20:04:27.
