data_PCOD9138796
_publ_section_title
;
Structure prediction by ZEFSAII (Michael W. Deem and Ramdas Pophale) SiO2 
 PCOD9138796
Probable space group: C C
;
_chemical_formula_sum "Si O2"
_cell_formula_units_Z 28
_cell_length_a 11.842949
_cell_length_b 9.303316
_cell_length_c 14.192395
_cell_angle_alpha 90.000000
_cell_angle_beta 55.874042
_cell_angle_gamma 90.000000
_cell_volume 1294.440293
_symmetry_space_group_name_H-M "C C"
_symmetry_group_IT_number 9
_symmetry_cell_setting 'monoclinic'
loop_
_space_group_symop_operation_xyz
x,y,z
x,-y,1/2+z
1/2+x,1/2+y,z
1/2+x,1/2-y,1/2+z
loop_
_atom_site_type_symbol
_atom_site_label
_atom_site_fract_x
_atom_site_fract_y
_atom_site_fract_z
Si Si1 0.914050 0.731064 0.930300
Si Si2 0.674540 0.224845 0.408403
Si Si3 0.208442 0.824757 0.007822
Si Si4 0.527679 0.058131 0.040606
Si Si5 0.962319 0.469725 0.783604
Si Si6 0.247578 0.320158 0.675788
Si Si7 0.495675 0.496571 0.002132
O O1 0.764307 0.758214 0.960197
O O2 0.981782 0.625093 0.822304
O O3 0.986089 0.880810 0.922656
O O4 0.922841 0.641344 0.022681
O O5 0.773841 0.217302 0.271764
O O6 0.579735 0.362021 0.437206
O O7 0.585559 0.082526 0.463336
O O8 0.327627 0.895214 0.889733
O O9 0.155821 0.667334 0.998577
O O10 0.256978 0.803552 0.092367
O O11 0.075428 0.922547 0.051718
O O12 0.461090 0.022053 0.171652
O O13 0.091612 0.371523 0.746790
O O14 0.346111 0.449406 0.599349
#
# Coordination Sequence:
#
# PCOD9138796 Si02
#       7
#     4   4   4   4   4   4   4
#     4  11  24  46  67 104 139 186 240 291 356 433
#     4  12  25  45  71 106 141 190 239 293 367 429
#     4  10  23  47  71 103 141 190 239 288 366 430
#     4  10  25  45  70 105 148 185 238 304 357 433
#     4  11  22  47  75 102 143 196 238 299 366 429
#     4  11  25  44  73 104 144 185 233 304 356 428
#     4  11  26  46  67 104 148 182 243 293 354 428
#
# _framework density 21.630970999999999
#
# number of rings (size 3 to 8) (size 9 to 14) (size 15 to 20)
#    0.000    1.143    2.857    2.571    2.000    4.571 
#    5.143    0.000    0.000    0.000    0.000    0.000 
#    0.000    0.000    0.000    0.000    0.000    0.000 
#
# Total GULP energy -78256.614207 kJ/mol
# GULP energy per Si atom -5589.758158 kJ/mol
# Density = 2.158174 g / cm^3
# Si number density = 21.630971 Si / 1000 Ang^3
#
#
#
# Elastic Constant Matrix: (Units=GPa)
#
#
# Indices 1 2 3 4 5 6 
#
# 1 97.9880 25.0516 39.2311 0.0000 12.2070 0.0000
# 2 25.0516 130.1911 38.9452 0.0000 11.0160 0.0000
# 3 39.2311 38.9452 105.8348 0.0000 28.7898 0.0000
# 4 0.0000 0.0000 0.0000 18.3848 0.0000 -2.2958
# 5 12.2070 11.0160 28.7898 0.0000 34.2566 0.0000
# 6 0.0000 0.0000 0.0000 -2.2958 0.0000 29.3971
#
#
#
# Elastic Compliance Matrix: (Units=1/GPa)
#
#
# Indices 1 2 3 4 5 6 
#
# 1 0.012138 -0.001110 -0.003904 0.000000 -0.000687 0.000000
# 2 -0.001110 0.008733 -0.002782 0.000000 -0.000075 0.000000
# 3 -0.003904 -0.002782 0.014646 0.000000 -0.010023 0.000000
# 4 0.000000 0.000000 0.000000 0.054929 0.000000 0.004290
# 5 -0.000687 -0.000075 -0.010023 0.000000 0.037884 0.000000
# 6 0.000000 0.000000 0.000000 0.004290 0.000000 0.034352
#
#
# Mechanical properties :
#
#
# Convention : Reuss Voigt Hill
#
# Bulk Modulus (GPa) = 50.18590 60.05220 55.11905
# Shear Modulus (GPa) = 27.03959 31.79342 29.41651
#
# Velocity S-wave (km/s) = 3.53943 3.83797 3.69172
# Velocity P-wave (km/s) = 6.32097 6.88930 6.61125
#
# Compressibility (1/GPa) = 0.01992592
#
# Stress axis : x y z
#
# Youngs Moduli (GPa) = 82.38841 114.50764 68.27789
#
# Poissons Ratio (x) = 0.12705 0.26655
# Poissons Ratio (y) = 0.09142 0.18994
# Poissons Ratio (z) = 0.32164 0.31855
#
# Static dielectric constant tensor:
#      x y z
#    x 1.817520 0.000000 0.034320 
#    y 0.000000 1.791910 0.000000 
#    z 0.034320 0.000000 1.757150 
# 
# From -- ./inp_files/20779.got.cif
#   From: 2010.05.17/outbox.cif.g08.bks.cpg/sg9_11_cif.got.tgz:20779.got - 2010.06.03 20:04:27.
