data_PCOD9138662
_publ_section_title
;
Structure prediction by ZEFSAII (Michael W. Deem and Ramdas Pophale) SiO2 
 PCOD9138662
Probable space group: C C
;
_chemical_formula_sum "Si O2"
_cell_formula_units_Z 28
_cell_length_a 9.855927
_cell_length_b 11.450298
_cell_length_c 18.359438
_cell_angle_alpha 90.000000
_cell_angle_beta 38.011515
_cell_angle_gamma 90.000000
_cell_volume 1275.931391
_symmetry_space_group_name_H-M "C C"
_symmetry_group_IT_number 9
_symmetry_cell_setting 'monoclinic'
loop_
_space_group_symop_operation_xyz
x,y,z
x,-y,1/2+z
1/2+x,1/2+y,z
1/2+x,1/2-y,1/2+z
loop_
_atom_site_type_symbol
_atom_site_label
_atom_site_fract_x
_atom_site_fract_y
_atom_site_fract_z
Si Si1 0.782950 0.589215 0.043600
Si Si2 0.130461 0.350591 0.683117
Si Si3 0.085131 0.263250 0.246115
Si Si4 0.207179 0.529251 0.777522
Si Si5 0.118631 0.892332 0.455377
Si Si6 0.588271 0.416322 0.217662
Si Si7 0.198468 0.061980 0.304330
O O1 0.698529 0.692202 0.132052
O O2 0.789784 0.468602 0.086187
O O3 0.630488 0.589737 0.036918
O O4 0.018438 0.590332 0.905764
O O5 0.136388 0.419052 0.758293
O O6 0.375336 0.342321 0.546085
O O7 0.047344 0.219354 0.728903
O O8 0.958793 0.413762 0.701868
O O9 0.244221 0.370289 0.201233
O O10 0.084679 0.171383 0.313427
O O11 0.837209 0.316869 0.339813
O O12 0.396775 0.512781 0.756532
O O13 0.129661 0.018455 0.412568
O O14 0.633570 0.454393 0.280129
#
# Coordination Sequence:
#
# PCOD9138662 Si02
#       7
#     4   4   4   4   4   4   4
#     4  10  23  45  73 102 147 191 235 301 363 422
#     4  12  25  44  71 105 140 189 245 290 360 433
#     4  10  23  45  73 105 144 188 241 293 363 426
#     4  11  23  47  72 105 144 191 242 298 362 430
#     4  11  25  44  73 107 141 198 233 306 357 431
#     4  11  26  44  70 105 142 186 243 298 355 432
#     4  11  25  45  68 107 144 181 247 294 358 428
#
# _framework density 21.944754
#
# number of rings (size 3 to 8) (size 9 to 14) (size 15 to 20)
#    0.000    1.143    5.714    0.000    2.000    9.143 
#    2.571    0.000    0.000    0.000    0.000    0.000 
#    0.000    0.000    0.000    0.000    0.000    0.000 
#
# Total GULP energy -78025.534601 kJ/mol
# GULP energy per Si atom -5573.252472 kJ/mol
# Density = 2.189481 g / cm^3
# Si number density = 21.944754 Si / 1000 Ang^3
#
#
#
# Elastic Constant Matrix: (Units=GPa)
#
#
# Indices 1 2 3 4 5 6 
#
# 1 107.4348 24.1698 27.3367 0.0001 0.0848 0.0000
# 2 24.1698 62.9625 20.3390 -0.0001 19.8893 0.0000
# 3 27.3367 20.3390 73.4696 -0.0004 10.2311 -0.0001
# 4 0.0001 -0.0001 -0.0004 27.0652 0.0001 5.7453
# 5 0.0848 19.8893 10.2311 0.0001 32.0185 0.0000
# 6 0.0000 0.0000 -0.0001 5.7453 0.0000 39.4995
#
#
#
# Elastic Compliance Matrix: (Units=1/GPa)
#
#
# Indices 1 2 3 4 5 6 
#
# 1 0.011171 -0.004363 -0.003477 0.000000 0.003792 0.000000
# 2 -0.004363 0.022615 -0.002807 0.000000 -0.013139 0.000000
# 3 -0.003477 -0.002807 0.016157 0.000000 -0.003410 0.000000
# 4 0.000000 0.000000 0.000000 0.038125 0.000000 -0.005545
# 5 0.003792 -0.013139 -0.003410 0.000000 0.040473 0.000000
# 6 0.000000 0.000000 0.000000 -0.005545 0.000000 0.026123
#
#
# Mechanical properties :
#
#
# Convention : Reuss Voigt Hill
#
# Bulk Modulus (GPa) = 34.90607 43.06196 38.98401
# Shear Modulus (GPa) = 26.95300 31.18474 29.06887
#
# Velocity S-wave (km/s) = 3.50840 3.77378 3.64351
# Velocity P-wave (km/s) = 5.68794 6.21724 5.95847
#
# Compressibility (1/GPa) = 0.02864831
#
# Stress axis : x y z
#
# Youngs Moduli (GPa) = 89.51605 44.21880 61.89373
#
# Poissons Ratio (x) = 0.19292 0.21519
# Poissons Ratio (y) = 0.39055 0.17377
# Poissons Ratio (z) = 0.31123 0.12414
#
# Static dielectric constant tensor:
#      x y z
#    x 1.889840 0.000000 -0.056790 
#    y 0.000000 1.842160 0.000000 
#    z -0.056790 0.000000 1.855100 
# 
# From -- ./inp_files/29130.got.cif
#   From: 2010.05.17/outbox.cif.g08.bks.cpg/sg9_15_cif.got.tgz:29130.got - 2010.06.03 20:04:27.
