data_PCOD9138666
_publ_section_title
;
Structure prediction by ZEFSAII (Michael W. Deem and Ramdas Pophale) SiO2 
 PCOD9138666
Probable space group: C C
;
_chemical_formula_sum "Si O2"
_cell_formula_units_Z 32
_cell_length_a 11.687579
_cell_length_b 10.911293
_cell_length_c 15.622785
_cell_angle_alpha 90.000000
_cell_angle_beta 143.707806
_cell_angle_gamma 90.000000
_cell_volume 1179.261306
_symmetry_space_group_name_H-M "C C"
_symmetry_group_IT_number 9
_symmetry_cell_setting 'monoclinic'
loop_
_space_group_symop_operation_xyz
x,y,z
x,-y,1/2+z
1/2+x,1/2+y,z
1/2+x,1/2-y,1/2+z
loop_
_atom_site_type_symbol
_atom_site_label
_atom_site_fract_x
_atom_site_fract_y
_atom_site_fract_z
Si Si1 0.809930 0.769444 0.400720
Si Si2 0.569252 0.944518 0.493312
Si Si3 0.496020 0.429700 0.755319
Si Si4 0.807061 0.134460 0.557804
Si Si5 0.850963 0.217073 0.398835
Si Si6 0.583668 0.995946 0.196449
Si Si7 0.725750 0.701427 0.172594
Si Si8 0.171471 0.966046 0.032473
O O1 0.648417 0.679045 0.340126
O O2 0.855223 0.719560 0.333126
O O3 0.006618 0.768061 0.572020
O O4 0.735169 0.905454 0.334371
O O5 0.394955 0.849127 0.383761
O O6 0.555056 0.012418 0.576506
O O7 0.778832 0.877140 0.625705
O O8 0.622778 0.040648 0.450677
O O9 0.482295 0.536478 0.675807
O O10 0.538849 0.499094 0.870039
O O11 0.821001 0.216751 0.482907
O O12 0.795650 0.216141 0.635964
O O13 0.672018 0.132846 0.260669
O O14 0.048738 0.144358 0.497438
O O15 0.383684 0.960206 0.120045
O O16 0.695913 0.567850 0.118352
#
# Coordination Sequence:
#
# PCOD9138666 Si02
#       8
#     4   4   4   4   4   4   4   4
#     4  12  24  44  79 106 150 199 262 314 386 469
#     4  10  23  49  69 104 151 194 244 318 382 458
#     4  10  23  45  73 108 143 201 256 321 386 465
#     4  10  24  46  70 107 146 196 253 308 392 466
#     4  12  24  48  72 109 151 195 255 317 387 475
#     4  12  25  48  71 108 149 198 253 315 396 464
#     4  12  24  46  72 108 152 198 255 318 381 468
#     4  12  25  46  74 106 152 197 252 321 388 461
#
# _framework density 27.135629000000002
#
# number of rings (size 3 to 8) (size 9 to 14) (size 15 to 20)
#    0.750    0.000    3.750    3.750    1.750    1.000 
#    9.000    0.000    0.000    0.000    0.000    0.000 
#    0.000    0.000    0.000    0.000    0.000    0.000 
#
# Total GULP energy -89573.645902 kJ/mol
# GULP energy per Si atom -5598.352869 kJ/mol
# Density = 2.707387 g / cm^3
# Si number density = 27.135629 Si / 1000 Ang^3
#
#
#
# Elastic Constant Matrix: (Units=GPa)
#
#
# Indices 1 2 3 4 5 6 
#
# 1 128.9019 13.8238 14.3475 0.0001 27.6374 0.0000
# 2 13.8238 71.8631 21.4888 0.0001 30.4167 0.0001
# 3 14.3475 21.4888 87.7787 0.0007 16.1950 0.0002
# 4 0.0001 0.0001 0.0007 41.1966 0.0002 14.3259
# 5 27.6374 30.4167 16.1950 0.0002 39.8778 0.0000
# 6 0.0000 0.0001 0.0002 14.3259 0.0000 40.5108
#
#
#
# Elastic Compliance Matrix: (Units=1/GPa)
#
#
# Indices 1 2 3 4 5 6 
#
# 1 0.009224 0.001473 -0.000521 0.000000 -0.007305 0.000000
# 2 0.001473 0.021228 -0.002445 0.000000 -0.016220 0.000000
# 3 -0.000521 -0.002445 0.012610 0.000000 -0.002895 0.000000
# 4 0.000000 0.000000 0.000000 0.027677 0.000000 -0.009788
# 5 -0.007305 -0.016220 -0.002895 0.000000 0.043687 0.000000
# 6 0.000000 0.000000 0.000000 -0.009788 0.000000 0.028146
#
#
# Mechanical properties :
#
#
# Convention : Reuss Voigt Hill
#
# Bulk Modulus (GPa) = 24.95162 43.09600 34.02381
# Shear Modulus (GPa) = 31.46299 40.24261 35.85280
#
# Velocity S-wave (km/s) = 3.40880 3.85517 3.63884
# Velocity P-wave (km/s) = 4.97074 5.97768 5.49732
#
# Compressibility (1/GPa) = 0.04007756
#
# Stress axis : x y z
#
# Youngs Moduli (GPa) = 108.41256 47.10698 79.30119
#
# Poissons Ratio (x) = -0.06940 0.04128
# Poissons Ratio (y) = -0.15971 0.19390
# Poissons Ratio (z) = 0.05644 0.11518
#
# Static dielectric constant tensor:
#      x y z
#    x 2.118960 0.000000 0.039160 
#    y 0.000000 2.183220 0.000000 
#    z 0.039160 0.000000 2.100960 
# 
# From -- ./inp_files/30075.got.cif
#   From: 2010.05.17/outbox.cif.g08.bks.cpg/sg9_16_cif.got.tgz:30075.got - 2010.06.03 20:04:27.
