data_PCOD9138243
_publ_section_title
;
Structure prediction by ZEFSAII (Michael W. Deem and Ramdas Pophale) SiO2 
 PCOD9138243
Probable space group: C C
;
_chemical_formula_sum "Si O2"
_cell_formula_units_Z 28
_cell_length_a 4.897474
_cell_length_b 18.165564
_cell_length_c 14.519710
_cell_angle_alpha 90.000000
_cell_angle_beta 109.773699
_cell_angle_gamma 90.000000
_cell_volume 1215.584857
_symmetry_space_group_name_H-M "C C"
_symmetry_group_IT_number 9
_symmetry_cell_setting 'monoclinic'
loop_
_space_group_symop_operation_xyz
x,y,z
x,-y,1/2+z
1/2+x,1/2+y,z
1/2+x,1/2-y,1/2+z
loop_
_atom_site_type_symbol
_atom_site_label
_atom_site_fract_x
_atom_site_fract_y
_atom_site_fract_z
Si Si1 0.038290 0.381725 0.108380
Si Si2 0.191228 0.996280 0.823737
Si Si3 0.493016 0.288403 0.806954
Si Si4 0.240276 0.038658 0.036203
Si Si5 0.182401 0.855908 0.230106
Si Si6 0.076959 0.353086 0.900977
Si Si7 0.822240 0.094484 0.146302
O O1 0.336766 0.366007 0.196862
O O2 0.915497 0.464590 0.083832
O O3 0.781906 0.344151 0.136088
O O4 0.106695 0.355916 0.013372
O O5 0.303793 0.066180 0.779685
O O6 0.424777 0.930074 0.854132
O O7 0.134365 0.024393 0.920700
O O8 0.916607 0.962288 0.738390
O O9 0.334988 0.211024 0.798676
O O10 0.838152 0.290592 0.852012
O O11 0.416135 0.328194 0.701519
O O12 0.363489 0.338717 0.874846
O O13 0.489237 0.099041 0.079515
O O14 0.989773 0.061598 0.077474
#
# Coordination Sequence:
#
# PCOD9138243 Si02
#       7
#     4   4   4   4   4   4   4
#     4  11  22  41  69  97 128 177 222 277 325 404
#     4  10  23  41  71  96 127 170 220 287 319 389
#     4  11  24  43  65  96 134 181 210 272 338 404
#     4  11  22  39  67 101 123 171 226 269 330 386
#     4  12  24  42  66  98 137 167 222 278 339 379
#     4  10  23  44  69  91 130 177 229 259 338 407
#     4  11  22  42  65  91 137 169 217 268 327 405
#
# _framework density 23.034179999999999
#
# number of rings (size 3 to 8) (size 9 to 14) (size 15 to 20)
#    0.000    1.143    2.857    3.429    0.000    8.000 
#    7.714    0.000    0.000    0.000    0.000    0.000 
#    0.000    0.000    0.000    0.000    0.000    0.000 
#
# Total GULP energy -78242.903778 kJ/mol
# GULP energy per Si atom -5588.778841 kJ/mol
# Density = 2.298175 g / cm^3
# Si number density = 23.034180 Si / 1000 Ang^3
#
#
#
# Elastic Constant Matrix: (Units=GPa)
#
#
# Indices 1 2 3 4 5 6 
#
# 1 64.9736 -1.5120 19.7246 0.0000 -20.4079 0.0000
# 2 -1.5120 81.1260 11.2652 0.0000 5.2354 0.0000
# 3 19.7246 11.2652 91.2332 0.0000 -15.8216 0.0000
# 4 0.0000 0.0000 0.0000 4.8224 0.0000 1.3853
# 5 -20.4079 5.2354 -15.8216 0.0000 34.9199 0.0000
# 6 0.0000 0.0000 0.0000 1.3853 0.0000 17.0594
#
#
#
# Elastic Compliance Matrix: (Units=1/GPa)
#
#
# Indices 1 2 3 4 5 6 
#
# 1 0.019327 0.000038 -0.002415 0.000000 0.010195 0.000000
# 2 0.000038 0.012799 -0.002081 0.000000 -0.002840 0.000000
# 3 -0.002415 -0.002081 0.012534 0.000000 0.004580 0.000000
# 4 0.000000 0.000000 0.000000 0.212318 0.000000 -0.017241
# 5 0.010195 -0.002840 0.004580 0.000000 0.037096 0.000000
# 6 0.000000 0.000000 0.000000 -0.017241 0.000000 0.060019
#
#
# Mechanical properties :
#
#
# Convention : Reuss Voigt Hill
#
# Bulk Modulus (GPa) = 27.97687 32.92091 30.44889
# Shear Modulus (GPa) = 13.33599 25.21733 19.27666
#
# Velocity S-wave (km/s) = 2.40878 3.31233 2.89601
# Velocity P-wave (km/s) = 4.46189 5.38070 4.94269
#
# Compressibility (1/GPa) = 0.03574381
#
# Stress axis : x y z
#
# Youngs Moduli (GPa) = 51.74050 78.12831 79.78154
#
# Poissons Ratio (x) = -0.00294 0.19268
# Poissons Ratio (y) = -0.00195 0.16603
# Poissons Ratio (z) = 0.12496 0.16259
#
# Static dielectric constant tensor:
#      x y z
#    x 1.828860 0.000000 -0.005910 
#    y 0.000000 1.921250 0.000000 
#    z -0.005910 0.000000 1.871610 
# 
# From -- ./inp_files/21871.got.cif
#   From: 2010.05.17/outbox.cif.g08.bks.cpg/sg9_11_cif.got.tgz:21871.got - 2010.06.03 20:04:27.
