data_PCOD9138574
_publ_section_title
;
Structure prediction by ZEFSAII (Michael W. Deem and Ramdas Pophale) SiO2 
 PCOD9138574
Probable space group: C C
;
_chemical_formula_sum "Si O2"
_cell_formula_units_Z 28
_cell_length_a 12.750672
_cell_length_b 5.174769
_cell_length_c 16.594703
_cell_angle_alpha 90.000000
_cell_angle_beta 66.889608
_cell_angle_gamma 90.000000
_cell_volume 1007.078848
_symmetry_space_group_name_H-M "C C"
_symmetry_group_IT_number 9
_symmetry_cell_setting 'monoclinic'
loop_
_space_group_symop_operation_xyz
x,y,z
x,-y,1/2+z
1/2+x,1/2+y,z
1/2+x,1/2-y,1/2+z
loop_
_atom_site_type_symbol
_atom_site_label
_atom_site_fract_x
_atom_site_fract_y
_atom_site_fract_z
Si Si1 0.068640 0.002678 0.121850
Si Si2 0.175591 0.620204 0.713665
Si Si3 0.305457 0.716365 0.049312
Si Si4 0.983985 0.345685 0.877472
Si Si5 0.584857 0.547432 0.445133
Si Si6 0.236688 0.555396 0.413365
Si Si7 0.363734 0.244213 0.262425
O O1 0.093370 0.247647 0.171439
O O2 0.195520 0.898060 0.072106
O O3 0.014987 0.013649 0.048193
O O4 0.985914 0.797190 0.188127
O O5 0.267332 0.428584 0.643171
O O6 0.260866 0.824550 0.733565
O O7 0.093528 0.479945 0.803067
O O8 0.414731 0.885264 0.983393
O O9 0.291656 0.499229 0.983318
O O10 0.888799 0.398636 0.838445
O O11 0.022859 0.045152 0.882104
O O12 0.639784 0.828230 0.434152
O O13 0.678171 0.325750 0.424518
O O14 0.320901 0.515041 0.313623
#
# Coordination Sequence:
#
# PCOD9138574 Si02
#       7
#     4   4   4   4   4   4   4
#     4  11  25  46  74 108 154 199 258 326 387 471
#     4  12  24  48  75 107 154 202 262 323 394 465
#     4  10  23  49  67 109 153 195 256 321 388 462
#     4  11  25  47  75 108 152 202 259 323 387 474
#     4  11  23  48  74 106 151 206 250 320 389 460
#     4  10  23  44  74 104 148 195 258 311 383 461
#     4  11  25  44  71 114 142 201 257 314 388 461
#
# _framework density 27.803186
#
# number of rings (size 3 to 8) (size 9 to 14) (size 15 to 20)
#    0.000    1.143    4.286    0.857    2.000    3.429 
#   12.857    0.000    0.000    0.000    0.000    0.000 
#    0.000    0.000    0.000    0.000    0.000    0.000 
#
# Total GULP energy -78070.750129 kJ/mol
# GULP energy per Si atom -5576.482152 kJ/mol
# Density = 2.773990 g / cm^3
# Si number density = 27.803186 Si / 1000 Ang^3
#
#
#
# Elastic Constant Matrix: (Units=GPa)
#
#
# Indices 1 2 3 4 5 6 
#
# 1 109.9681 55.4666 59.5453 -0.0001 -17.1744 -0.0001
# 2 55.4666 71.0156 44.9571 0.0002 -3.3171 0.0002
# 3 59.5453 44.9571 171.2020 -0.0001 -7.0229 -0.0001
# 4 -0.0001 0.0002 -0.0001 35.9778 0.0000 3.3478
# 5 -17.1744 -3.3171 -7.0229 0.0000 69.4750 0.0000
# 6 -0.0001 0.0002 -0.0001 3.3478 0.0000 39.2586
#
#
#
# Elastic Compliance Matrix: (Units=1/GPa)
#
#
# Indices 1 2 3 4 5 6 
#
# 1 0.016741 -0.011179 -0.002751 0.000000 0.003327 0.000000
# 2 -0.011179 0.024363 -0.002586 0.000000 -0.001862 0.000000
# 3 -0.002751 -0.002586 0.007475 0.000000 -0.000048 0.000000
# 4 0.000000 0.000000 0.000000 0.028017 0.000000 -0.002389
# 5 0.003327 -0.001862 -0.000048 0.000000 0.015122 0.000000
# 6 0.000000 0.000000 0.000000 -0.002389 0.000000 0.025676
#
#
# Mechanical properties :
#
#
# Convention : Reuss Voigt Hill
#
# Bulk Modulus (GPa) = 64.31764 74.68039 69.49902
# Shear Modulus (GPa) = 32.13227 41.75674 36.94450
#
# Velocity S-wave (km/s) = 3.40325 3.87960 3.64921
# Velocity P-wave (km/s) = 6.21500 6.85471 6.54268
#
# Compressibility (1/GPa) = 0.01554783
#
# Stress axis : x y z
#
# Youngs Moduli (GPa) = 59.73383 41.04653 133.78240
#
# Poissons Ratio (x) = 0.45885 0.36799
# Poissons Ratio (y) = 0.66775 0.34594
# Poissons Ratio (z) = 0.16431 0.10614
#
# Static dielectric constant tensor:
#      x y z
#    x 2.302200 0.000000 0.098790 
#    y 0.000000 2.189560 0.000000 
#    z 0.098790 0.000000 2.251990 
# 
# From -- ./inp_files/30443.got.cif
#   From: 2010.05.17/outbox.cif.g08.bks.cpg/sg9_16_cif.got.tgz:30443.got - 2010.06.03 20:04:27.
