data_PCOD9138642
_publ_section_title
;
Structure prediction by ZEFSAII (Michael W. Deem and Ramdas Pophale) SiO2 
 PCOD9138642
Probable space group: C C
;
_chemical_formula_sum "Si O2"
_cell_formula_units_Z 28
_cell_length_a 8.876310
_cell_length_b 11.620674
_cell_length_c 13.525189
_cell_angle_alpha 90.000000
_cell_angle_beta 70.412004
_cell_angle_gamma 90.000000
_cell_volume 1314.367768
_symmetry_space_group_name_H-M "C C"
_symmetry_group_IT_number 9
_symmetry_cell_setting 'monoclinic'
loop_
_space_group_symop_operation_xyz
x,y,z
x,-y,1/2+z
1/2+x,1/2+y,z
1/2+x,1/2-y,1/2+z
loop_
_atom_site_type_symbol
_atom_site_label
_atom_site_fract_x
_atom_site_fract_y
_atom_site_fract_z
Si Si1 0.465700 0.715849 0.903460
Si Si2 0.871572 0.583518 0.094590
Si Si3 0.361640 0.440503 0.276696
Si Si4 0.945795 0.182008 0.484861
Si Si5 0.532382 0.552178 0.068020
Si Si6 0.225906 0.210425 0.300601
Si Si7 0.138282 0.584896 0.464696
O O1 0.502555 0.622885 0.808512
O O2 0.306509 0.772726 0.891322
O O3 0.580986 0.821559 0.897881
O O4 0.463568 0.645259 0.006162
O O5 0.713371 0.574906 0.061539
O O6 0.808475 0.610996 0.218797
O O7 0.961448 0.698835 0.038993
O O8 0.989588 0.476377 0.051687
O O9 0.424271 0.535578 0.188867
O O10 0.271598 0.334088 0.242779
O O11 0.241251 0.489948 0.384201
O O12 0.761477 0.149579 0.508742
O O13 0.039309 0.194685 0.360139
O O14 0.024083 0.072536 0.519496
#
# Coordination Sequence:
#
# PCOD9138642 Si02
#       7
#     4   4   4   4   4   4   4
#     4  10  23  46  68 106 144 192 241 299 363 436
#     4  12  25  43  72 106 140 197 241 296 371 437
#     4  10  23  45  71 100 142 188 239 304 357 422
#     4  12  22  45  71  97 146 185 236 306 358 433
#     4  12  24  45  74 104 145 198 243 296 378 432
#     4  10  23  47  69 103 146 185 242 306 361 424
#     4  12  24  45  71 102 143 185 242 299 364 434
#
# _framework density 21.303016
#
# number of rings (size 3 to 8) (size 9 to 14) (size 15 to 20)
#    0.857    0.000    5.714    1.714    0.000    1.143 
#    5.143    0.000    0.000    0.000    0.000    0.000 
#    0.000    0.000    0.000    0.000    0.000    0.000 
#
# Total GULP energy -78066.437364 kJ/mol
# GULP energy per Si atom -5576.174097 kJ/mol
# Density = 2.125453 g / cm^3
# Si number density = 21.303016 Si / 1000 Ang^3
#
#
#
# Elastic Constant Matrix: (Units=GPa)
#
#
# Indices 1 2 3 4 5 6 
#
# 1 94.5613 41.3515 39.6794 0.0000 8.2316 0.0000
# 2 41.3515 75.3367 17.6683 0.0000 7.8465 0.0000
# 3 39.6794 17.6683 70.7063 0.0000 -5.6497 0.0000
# 4 0.0000 0.0000 0.0000 25.3516 0.0000 18.1270
# 5 8.2316 7.8465 -5.6497 0.0000 28.2296 0.0000
# 6 0.0000 0.0000 0.0000 18.1270 0.0000 31.1168
#
#
#
# Elastic Compliance Matrix: (Units=1/GPa)
#
#
# Indices 1 2 3 4 5 6 
#
# 1 0.017745 -0.007229 -0.008541 0.000000 -0.004874 0.000000
# 2 -0.007229 0.017687 -0.000597 0.000000 -0.002927 0.000000
# 3 -0.008541 -0.000597 0.019611 0.000000 0.006581 0.000000
# 4 0.000000 0.000000 0.000000 0.067605 0.000000 -0.039383
# 5 -0.004874 -0.002927 0.006581 0.000000 0.038976 0.000000
# 6 0.000000 0.000000 0.000000 -0.039383 0.000000 0.055079
#
#
# Mechanical properties :
#
#
# Convention : Reuss Voigt Hill
#
# Bulk Modulus (GPa) = 44.82561 48.66698 46.74629
# Shear Modulus (GPa) = 19.46490 26.39995 22.93243
#
# Velocity S-wave (km/s) = 3.02605 3.52413 3.28455
# Velocity P-wave (km/s) = 5.77035 6.28124 6.03121
#
# Compressibility (1/GPa) = 0.02230868
#
# Stress axis : x y z
#
# Youngs Moduli (GPa) = 56.35472 56.54017 50.99151
#
# Poissons Ratio (x) = 0.40874 0.43553
# Poissons Ratio (y) = 0.40740 0.03042
# Poissons Ratio (z) = 0.48133 0.03373
#
# Static dielectric constant tensor:
#      x y z
#    x 1.774350 0.000000 0.020100 
#    y 0.000000 1.792710 0.000000 
#    z 0.020100 0.000000 1.814000 
# 
# From -- ./inp_files/22652.got.cif
#   From: 2010.05.17/outbox.cif.g08.bks.cpg/sg9_12_cif.got.tgz:22652.got - 2010.06.03 20:04:27.
