data_PCOD9138368
_publ_section_title
;
Structure prediction by ZEFSAII (Michael W. Deem and Ramdas Pophale) SiO2 
 PCOD9138368
Probable space group: C C
;
_chemical_formula_sum "Si O2"
_cell_formula_units_Z 32
_cell_length_a 7.644334
_cell_length_b 10.509775
_cell_length_c 18.642531
_cell_angle_alpha 90.000000
_cell_angle_beta 109.688601
_cell_angle_gamma 90.000000
_cell_volume 1410.183441
_symmetry_space_group_name_H-M "C C"
_symmetry_group_IT_number 9
_symmetry_cell_setting 'monoclinic'
loop_
_space_group_symop_operation_xyz
x,y,z
x,-y,1/2+z
1/2+x,1/2+y,z
1/2+x,1/2-y,1/2+z
loop_
_atom_site_type_symbol
_atom_site_label
_atom_site_fract_x
_atom_site_fract_y
_atom_site_fract_z
Si Si1 0.424530 0.301204 0.894910
Si Si2 0.983524 0.434873 0.486331
Si Si3 0.901964 0.034046 0.001425
Si Si4 0.253484 0.855688 0.747419
Si Si5 0.986234 0.577747 0.145421
Si Si6 0.187936 0.918634 0.155174
Si Si7 0.362310 0.208918 0.419666
Si Si8 0.331861 0.331639 0.720039
O O1 0.380922 0.161515 0.918759
O O2 0.382479 0.414981 0.944233
O O3 0.645311 0.295688 0.911129
O O4 0.335756 0.325101 0.805892
O O5 0.933158 0.387002 0.557924
O O6 0.941500 0.581152 0.465101
O O7 0.205303 0.427894 0.508136
O O8 0.952764 0.161209 0.962601
O O9 0.036673 0.986280 0.083858
O O10 0.378951 0.841425 0.693263
O O11 0.359449 0.808097 0.832647
O O12 0.039219 0.809616 0.720672
O O13 0.212777 0.008298 0.734539
O O14 0.881390 0.443449 0.141900
O O15 0.206067 0.547605 0.183737
O O16 0.184772 0.770402 0.168211
#
# Coordination Sequence:
#
# PCOD9138368 Si02
#       8
#     4   4   4   4   4   4   4   4
#     4  10  24  42  68  99 136 176 232 285 347 409
#     4  11  23  43  71 100 137 184 229 286 345 408
#     4  11  24  42  70 103 140 179 231 290 343 408
#     4   9  23  45  63  99 134 172 232 282 334 410
#     4  10  24  42  64 100 129 178 231 273 344 407
#     4  10  23  43  63  98 138 172 229 285 333 417
#     4  10  23  44  67  97 140 183 226 290 345 407
#     4  11  22  45  68  92 140 180 218 293 347 400
#
# _framework density 22.692083
#
# number of rings (size 3 to 8) (size 9 to 14) (size 15 to 20)
#    0.750    1.000    0.000    3.000    1.750    8.000 
#   11.250    0.000    0.000    0.000    0.000    0.000 
#    0.000    0.000    0.000    0.000    0.000    0.000 
#
# Total GULP energy -89110.995145 kJ/mol
# GULP energy per Si atom -5569.437197 kJ/mol
# Density = 2.264043 g / cm^3
# Si number density = 22.692083 Si / 1000 Ang^3
#
#
#
# Elastic Constant Matrix: (Units=GPa)
#
#
# Indices 1 2 3 4 5 6 
#
# 1 70.2488 1.5863 51.5433 0.0000 -7.3465 0.0000
# 2 1.5863 76.0185 37.1058 0.0000 1.0798 0.0000
# 3 51.5433 37.1058 117.2405 0.0000 -12.5130 0.0000
# 4 0.0000 0.0000 0.0000 29.9249 0.0000 8.6624
# 5 -7.3465 1.0798 -12.5130 0.0000 34.6898 0.0000
# 6 0.0000 0.0000 0.0000 8.6624 0.0000 7.8088
#
#
#
# Elastic Compliance Matrix: (Units=1/GPa)
#
#
# Indices 1 2 3 4 5 6 
#
# 1 0.022625 0.005147 -0.011525 0.000000 0.000474 0.000000
# 2 0.005147 0.016915 -0.007859 0.000000 -0.002271 0.000000
# 3 -0.011525 -0.007859 0.016484 0.000000 0.003750 0.000000
# 4 0.000000 0.000000 0.000000 0.049224 0.000000 -0.054605
# 5 0.000474 -0.002271 0.003750 0.000000 0.030351 0.000000
# 6 0.000000 0.000000 0.000000 -0.054605 0.000000 0.188635
#
#
# Mechanical properties :
#
#
# Convention : Reuss Voigt Hill
#
# Bulk Modulus (GPa) = 36.29790 49.33096 42.81443
# Shear Modulus (GPa) = 13.81635 26.03619 19.92627
#
# Velocity S-wave (km/s) = 2.47019 3.39096 2.96652
# Velocity P-wave (km/s) = 4.91593 6.09245 5.53554
#
# Compressibility (1/GPa) = 0.02754980
#
# Stress axis : x y z
#
# Youngs Moduli (GPa) = 44.19976 59.11740 60.66608
#
# Poissons Ratio (x) = -0.30425 0.69917
# Poissons Ratio (y) = -0.22748 0.47676
# Poissons Ratio (z) = 0.50940 0.46459
#
# Static dielectric constant tensor:
#      x y z
#    x 1.880300 0.000000 0.001240 
#    y 0.000000 1.937260 0.000000 
#    z 0.001240 0.000000 1.849900 
# 
# From -- ./inp_files/29207.got.cif
#   From: 2010.05.17/outbox.cif.g08.bks.cpg/sg9_15_cif.got.tgz:29207.got - 2010.06.03 20:04:27.
