data_PCOD9138029
_publ_section_title
;
Structure prediction by ZEFSAII (Michael W. Deem and Ramdas Pophale) SiO2 
 PCOD9138029
Probable space group: C C
;
_chemical_formula_sum "Si O2"
_cell_formula_units_Z 28
_cell_length_a 6.535124
_cell_length_b 22.847004
_cell_length_c 9.866185
_cell_angle_alpha 90.000000
_cell_angle_beta 47.106292
_cell_angle_gamma 90.000000
_cell_volume 1079.219345
_symmetry_space_group_name_H-M "C C"
_symmetry_group_IT_number 9
_symmetry_cell_setting 'monoclinic'
loop_
_space_group_symop_operation_xyz
x,y,z
x,-y,1/2+z
1/2+x,1/2+y,z
1/2+x,1/2-y,1/2+z
loop_
_atom_site_type_symbol
_atom_site_label
_atom_site_fract_x
_atom_site_fract_y
_atom_site_fract_z
Si Si1 0.333260 0.331603 0.810680
Si Si2 0.588059 0.489756 0.815537
Si Si3 0.459263 0.829262 0.585825
Si Si4 0.878578 0.119699 0.581304
Si Si5 0.283654 0.210953 0.455617
Si Si6 0.259380 0.574108 0.108782
Si Si7 0.052656 0.474741 0.376887
O O1 0.667416 0.323508 0.635525
O O2 0.277480 0.345286 0.994145
O O3 0.273028 0.384715 0.734335
O O4 0.087565 0.285239 0.887464
O O5 0.544371 0.433224 0.931402
O O6 0.308868 0.501522 0.852443
O O7 0.063447 0.480157 0.743907
O O8 0.556271 0.546567 0.928439
O O9 0.339445 0.818052 0.788113
O O10 0.655450 0.773479 0.480654
O O11 0.632671 0.887865 0.542594
O O12 0.632984 0.087704 0.774337
O O13 0.053598 0.162107 0.604802
O O14 0.801805 0.518320 0.095664
#
# Coordination Sequence:
#
# PCOD9138029 Si02
#       7
#     4   4   4   4   4   4   4
#     4  10  22  46  78 106 152 196 252 314 388 458
#     4  11  26  44  73 111 152 204 251 311 389 458
#     4  10  24  46  74 110 149 198 257 320 386 462
#     4  10  24  46  72 107 155 197 257 314 376 465
#     4  10  24  46  74 110 149 198 257 320 386 462
#     4  10  24  46  72 107 155 197 257 314 376 465
#     4  11  26  44  73 111 152 204 251 311 389 458
#
# _framework density 25.944676999999999
#
# number of rings (size 3 to 8) (size 9 to 14) (size 15 to 20)
#    0.000    1.714    1.429    0.000   12.000    9.143 
#    0.000    7.143    0.000    0.000    0.000    0.000 
#    0.000    0.000    0.000    0.000    0.000    0.000 
#
# Total GULP energy -78096.085425 kJ/mol
# GULP energy per Si atom -5578.291816 kJ/mol
# Density = 2.588563 g / cm^3
# Si number density = 25.944677 Si / 1000 Ang^3
#
#
#
# Elastic Constant Matrix: (Units=GPa)
#
#
# Indices 1 2 3 4 5 6 
#
# 1 87.8178 30.7776 38.0119 0.0000 -7.9680 0.0000
# 2 30.7776 120.3621 59.7703 0.0000 -25.2775 0.0000
# 3 38.0119 59.7703 177.3952 0.0000 -13.5366 0.0000
# 4 0.0000 0.0000 0.0000 47.7727 0.0000 -18.8114
# 5 -7.9680 -25.2775 -13.5366 0.0000 44.4662 0.0000
# 6 0.0000 0.0000 0.0000 -18.8114 0.0000 36.0007
#
#
#
# Elastic Compliance Matrix: (Units=1/GPa)
#
#
# Indices 1 2 3 4 5 6 
#
# 1 0.013088 -0.002253 -0.002011 0.000000 0.000452 0.000000
# 2 -0.002253 0.011457 -0.002980 0.000000 0.005202 0.000000
# 3 -0.002011 -0.002980 0.007080 0.000000 0.000101 0.000000
# 4 0.000000 0.000000 0.000000 0.026355 0.000000 0.013771
# 5 0.000452 0.005202 0.000101 0.000000 0.025558 0.000000
# 6 0.000000 0.000000 0.000000 0.013771 0.000000 0.034973
#
#
# Mechanical properties :
#
#
# Convention : Reuss Voigt Hill
#
# Bulk Modulus (GPa) = 58.35639 71.41051 64.88345
# Shear Modulus (GPa) = 36.04579 42.78227 39.41403
#
# Velocity S-wave (km/s) = 3.73142 4.06517 3.90186
# Velocity P-wave (km/s) = 6.41140 7.04401 6.73514
#
# Compressibility (1/GPa) = 0.01713608
#
# Stress axis : x y z
#
# Youngs Moduli (GPa) = 76.40391 87.28339 141.24477
#
# Poissons Ratio (x) = 0.19667 0.28402
# Poissons Ratio (y) = 0.17216 0.42097
# Poissons Ratio (z) = 0.15364 0.26014
#
# Static dielectric constant tensor:
#      x y z
#    x 2.328700 0.000000 -0.129260 
#    y 0.000000 1.921020 0.000000 
#    z -0.129260 0.000000 2.185310 
# 
# From -- ./inp_files/13715.got.cif
#   From: 2010.05.17/outbox.cif.g08.bks.cpg/sg9_7_cif.got.tgz:13715.got - 2010.06.03 20:04:27.
