data_PCOD9138548
_publ_section_title
;
Structure prediction by ZEFSAII (Michael W. Deem and Ramdas Pophale) SiO2 
 PCOD9138548
Probable space group: C C
;
_chemical_formula_sum "Si O2"
_cell_formula_units_Z 32
_cell_length_a 23.279019
_cell_length_b 8.439648
_cell_length_c 13.926075
_cell_angle_alpha 90.000000
_cell_angle_beta 148.647087
_cell_angle_gamma 90.000000
_cell_volume 1423.568048
_symmetry_space_group_name_H-M "C C"
_symmetry_group_IT_number 9
_symmetry_cell_setting 'monoclinic'
loop_
_space_group_symop_operation_xyz
x,y,z
x,-y,1/2+z
1/2+x,1/2+y,z
1/2+x,1/2-y,1/2+z
loop_
_atom_site_type_symbol
_atom_site_label
_atom_site_fract_x
_atom_site_fract_y
_atom_site_fract_z
Si Si1 0.217240 0.699916 0.983320
Si Si2 0.965761 0.850785 0.781081
Si Si3 0.812468 0.430635 0.271964
Si Si4 0.514960 0.368349 0.634067
Si Si5 0.016509 0.767123 0.068349
Si Si6 0.923619 0.706356 0.326108
Si Si7 0.121883 0.150585 0.022211
Si Si8 0.703392 0.843218 0.956986
O O1 0.178716 0.522815 0.952656
O O2 0.137809 0.796661 0.798994
O O3 0.334897 0.663874 0.103898
O O4 0.237150 0.805136 0.106754
O O5 0.989756 0.807767 0.705317
O O6 0.005820 0.771203 0.937799
O O7 0.026907 0.019403 0.875401
O O8 0.912628 0.333004 0.462470
O O9 0.874875 0.535412 0.280144
O O10 0.729744 0.549539 0.210454
O O11 0.513515 0.555118 0.608286
O O12 0.429781 0.294998 0.437412
O O13 0.131876 0.690028 0.261371
O O14 0.050347 0.714106 0.472832
O O15 0.831961 0.797183 0.131992
O O16 0.159415 0.225171 0.976005
#
# Coordination Sequence:
#
# PCOD9138548 Si02
#       8
#     4   4   4   4   4   4   4   4
#     4  11  23  42  69 106 142 180 235 292 351 426
#     4  11  23  46  68  99 140 187 233 288 368 409
#     4  10  23  44  71 105 146 183 235 294 355 424
#     4  12  23  44  71 104 145 181 236 300 347 426
#     4  11  23  45  72 104 145 185 238 301 349 431
#     4  11  23  44  71 107 145 182 236 297 352 428
#     4  11  21  45  71 102 142 183 236 288 364 422
#     4  11  23  42  71 107 141 185 235 298 354 422
#
# _framework density 22.478728
#
# number of rings (size 3 to 8) (size 9 to 14) (size 15 to 20)
#    0.000    1.000    5.000    2.250    0.000    4.000 
#    4.500    0.000    0.000    0.000    0.000    0.000 
#    0.000    0.000    0.000    0.000    0.000    0.000 
#
# Total GULP energy -89189.924010 kJ/mol
# GULP energy per Si atom -5574.370251 kJ/mol
# Density = 2.242757 g / cm^3
# Si number density = 22.478728 Si / 1000 Ang^3
#
#
#
# Elastic Constant Matrix: (Units=GPa)
#
#
# Indices 1 2 3 4 5 6 
#
# 1 84.2818 5.3389 28.9719 0.0000 12.1910 0.0000
# 2 5.3389 106.4366 45.1903 0.0000 10.2984 0.0000
# 3 28.9719 45.1903 156.1291 0.0000 7.9915 0.0000
# 4 0.0000 0.0000 0.0000 42.1797 0.0000 14.4911
# 5 12.1910 10.2984 7.9915 0.0000 30.8693 0.0000
# 6 0.0000 0.0000 0.0000 14.4911 0.0000 25.8887
#
#
#
# Elastic Compliance Matrix: (Units=1/GPa)
#
#
# Indices 1 2 3 4 5 6 
#
# 1 0.013375 0.000858 -0.002478 0.000000 -0.004927 0.000000
# 2 0.000858 0.011012 -0.003183 0.000000 -0.003189 0.000000
# 3 -0.002478 -0.003183 0.007785 0.000000 0.000025 0.000000
# 4 0.000000 0.000000 0.000000 0.029353 0.000000 -0.016430
# 5 -0.004927 -0.003189 0.000025 0.000000 0.035397 0.000000
# 6 0.000000 0.000000 0.000000 -0.016430 0.000000 0.047824
#
#
# Mechanical properties :
#
#
# Convention : Reuss Voigt Hill
#
# Bulk Modulus (GPa) = 44.31604 56.20552 50.26078
# Shear Modulus (GPa) = 30.88802 37.61065 34.24934
#
# Velocity S-wave (km/s) = 3.71091 4.09487 3.90761
# Velocity P-wave (km/s) = 6.17402 6.88589 6.53965
#
# Compressibility (1/GPa) = 0.02256519
#
# Stress axis : x y z
#
# Youngs Moduli (GPa) = 74.76587 90.80726 128.45354
#
# Poissons Ratio (x) = -0.07791 0.31832
# Poissons Ratio (y) = -0.06414 0.40892
# Poissons Ratio (z) = 0.18528 0.28908
#
# Static dielectric constant tensor:
#      x y z
#    x 1.927140 0.000000 0.037780 
#    y 0.000000 1.867990 0.000000 
#    z 0.037780 0.000000 1.845690 
# 
# From -- ./inp_files/27752.got.cif
#   From: 2010.05.17/outbox.cif.g08.bks.cpg/sg9_14_cif.got.tgz:27752.got - 2010.06.03 20:04:27.
