data_PCOD9138134
_publ_section_title
;
Structure prediction by ZEFSAII (Michael W. Deem and Ramdas Pophale) SiO2 
 PCOD9138134
Probable space group: C C
;
_chemical_formula_sum "Si O2"
_cell_formula_units_Z 28
_cell_length_a 20.075948
_cell_length_b 8.642693
_cell_length_c 14.579065
_cell_angle_alpha 90.000000
_cell_angle_beta 156.020965
_cell_angle_gamma 90.000000
_cell_volume 1028.042391
_symmetry_space_group_name_H-M "C C"
_symmetry_group_IT_number 9
_symmetry_cell_setting 'monoclinic'
loop_
_space_group_symop_operation_xyz
x,y,z
x,-y,1/2+z
1/2+x,1/2+y,z
1/2+x,1/2-y,1/2+z
loop_
_atom_site_type_symbol
_atom_site_label
_atom_site_fract_x
_atom_site_fract_y
_atom_site_fract_z
Si Si1 0.491450 0.278203 0.582100
Si Si2 0.910437 0.531989 0.249739
Si Si3 0.078521 0.083476 0.589620
Si Si4 0.064943 0.914223 0.861888
Si Si5 0.939595 0.547042 0.080750
Si Si6 0.755326 0.003724 0.226363
Si Si7 0.291470 0.631927 0.566450
O O1 0.573337 0.396612 0.610565
O O2 0.574923 0.306734 0.785603
O O3 0.311528 0.357471 0.356797
O O4 0.467074 0.095507 0.545428
O O5 0.920207 0.471132 0.158054
O O6 0.065343 0.465267 0.498443
O O7 0.737568 0.500133 0.077310
O O8 0.900566 0.716764 0.222117
O O9 0.905915 0.124792 0.421890
O O10 0.053141 0.133285 0.452759
O O11 0.262471 0.127427 0.847608
O O12 0.906183 0.022654 0.649772
O O13 0.107889 0.646210 0.295272
O O14 0.763818 0.946625 0.130758
#
# Coordination Sequence:
#
# PCOD9138134 Si02
#       7
#     4   4   4   4   4   4   4
#     4  10  23  41  68 102 135 178 234 292 347 406
#     4  11  21  41  65 101 137 182 231 287 348 413
#     4   9  22  41  62 101 132 179 231 278 344 418
#     4  11  22  38  68  96 139 176 223 296 342 410
#     4  11  23  42  71  97 144 180 232 295 348 414
#     4   8  20  37  64  97 133 170 237 289 326 408
#     4  10  23  38  64  98 136 185 230 283 349 411
#
# _framework density 27.236229000000002
#
# number of rings (size 3 to 8) (size 9 to 14) (size 15 to 20)
#    0.857    1.143    1.429    1.714    8.000    1.143 
#    0.000    0.000   25.143    0.000    0.000    0.000 
#    0.000    0.000    0.000    0.000    0.000    0.000 
#
# Total GULP energy -78117.207757 kJ/mol
# GULP energy per Si atom -5579.800554 kJ/mol
# Density = 2.717424 g / cm^3
# Si number density = 27.236229 Si / 1000 Ang^3
#
#
#
# Elastic Constant Matrix: (Units=GPa)
#
#
# Indices 1 2 3 4 5 6 
#
# 1 101.4380 50.5965 34.5221 0.0000 3.6055 0.0000
# 2 50.5965 67.3281 25.9467 0.0000 11.4486 0.0000
# 3 34.5221 25.9467 238.8425 0.0000 15.6515 0.0000
# 4 0.0000 0.0000 0.0000 20.2991 0.0000 9.3066
# 5 3.6055 11.4486 15.6515 0.0000 47.4608 0.0000
# 6 0.0000 0.0000 0.0000 9.3066 0.0000 28.0495
#
#
#
# Elastic Compliance Matrix: (Units=1/GPa)
#
#
# Indices 1 2 3 4 5 6 
#
# 1 0.016208 -0.012083 -0.001166 0.000000 0.002068 0.000000
# 2 -0.012083 0.025017 -0.000650 0.000000 -0.004902 0.000000
# 3 -0.001166 -0.000650 0.004507 0.000000 -0.001241 0.000000
# 4 0.000000 0.000000 0.000000 0.058102 0.000000 -0.019278
# 5 0.002068 -0.004902 -0.001241 0.000000 0.022505 0.000000
# 6 0.000000 0.000000 0.000000 -0.019278 0.000000 0.042047
#
#
# Mechanical properties :
#
#
# Convention : Reuss Voigt Hill
#
# Bulk Modulus (GPa) = 55.75510 69.97101 62.86305
# Shear Modulus (GPa) = 24.73273 38.93143 31.83208
#
# Velocity S-wave (km/s) = 3.01671 3.78484 3.42239
# Velocity P-wave (km/s) = 5.71397 6.69673 6.22477
#
# Compressibility (1/GPa) = 0.01793558
#
# Stress axis : x y z
#
# Youngs Moduli (GPa) = 61.69721 39.97313 221.86348
#
# Poissons Ratio (x) = 0.48298 0.25861
# Poissons Ratio (y) = 0.74547 0.14422
# Poissons Ratio (z) = 0.07191 0.02598
#
# Static dielectric constant tensor:
#      x y z
#    x 2.166690 0.000000 -0.015030 
#    y 0.000000 2.202610 0.000000 
#    z -0.015030 0.000000 2.183400 
# 
# From -- ./inp_files/31582.got.cif
#   From: 2010.05.17/outbox.cif.g08.bks.cpg/sg9_16_cif.got.tgz:31582.got - 2010.06.03 20:04:27.
