data_PCOD9138962
_publ_section_title
;
Structure prediction by ZEFSAII (Michael W. Deem and Ramdas Pophale) SiO2 
 PCOD9138962
Probable space group: C C
;
_chemical_formula_sum "Si O2"
_cell_formula_units_Z 20
_cell_length_a 6.555285
_cell_length_b 20.471706
_cell_length_c 7.434394
_cell_angle_alpha 90.000000
_cell_angle_beta 45.515730
_cell_angle_gamma 90.000000
_cell_volume 711.787534
_symmetry_space_group_name_H-M "C C"
_symmetry_group_IT_number 9
_symmetry_cell_setting 'monoclinic'
loop_
_space_group_symop_operation_xyz
x,y,z
x,-y,1/2+z
1/2+x,1/2+y,z
1/2+x,1/2-y,1/2+z
loop_
_atom_site_type_symbol
_atom_site_label
_atom_site_fract_x
_atom_site_fract_y
_atom_site_fract_z
Si Si1 0.803760 0.324952 0.637600
Si Si2 0.842233 0.451897 0.434286
Si Si3 0.226789 0.095616 0.639388
Si Si4 0.282150 0.639546 0.622064
Si Si5 0.107910 0.285949 0.811914
O O1 0.821484 0.405902 0.623980
O O2 0.946775 0.290180 0.716262
O O3 0.158126 0.432965 0.163780
O O4 0.466307 0.321319 0.865551
O O5 0.792213 0.525500 0.512714
O O6 0.649173 0.421555 0.394139
O O7 0.008459 0.316973 0.342241
O O8 0.500227 0.143561 0.455670
O O9 0.977065 0.130269 0.679992
O O10 0.426157 0.265127 0.548181
#
# Coordination Sequence:
#
# PCOD9138962 Si02
#       5
#     4   4   4   4   4
#     4   9  20  45  65  96 130 171 224 273 335 391
#     4  10  24  42  71 108 131 177 221 286 355 392
#     4  11  22  45  70 102 140 176 225 283 338 411
#     4   9  21  42  63 102 131 173 212 275 344 391
#     4  11  23  44  69  96 134 187 226 271 332 399
#
# _framework density 28.098269999999999
#
# number of rings (size 3 to 8) (size 9 to 14) (size 15 to 20)
#    1.200    0.800    0.000    4.800    0.000    3.200 
#   18.000    2.000    0.000    0.000    0.000    0.000 
#    0.000    0.000    0.000    0.000    0.000    0.000 
#
# Total GULP energy -55821.834274 kJ/mol
# GULP energy per Si atom -5582.183427 kJ/mol
# Density = 2.803432 g / cm^3
# Si number density = 28.098270 Si / 1000 Ang^3
#
#
#
# Elastic Constant Matrix: (Units=GPa)
#
#
# Indices 1 2 3 4 5 6 
#
# 1 93.4392 32.8298 34.0131 0.0000 3.0879 0.0000
# 2 32.8298 201.4159 51.9588 0.0000 8.5667 0.0000
# 3 34.0131 51.9588 199.5264 0.0000 -16.8373 0.0000
# 4 0.0000 0.0000 0.0000 55.5394 0.0000 20.0334
# 5 3.0879 8.5667 -16.8373 0.0000 64.8878 0.0000
# 6 0.0000 0.0000 0.0000 20.0334 0.0000 41.9272
#
#
#
# Elastic Compliance Matrix: (Units=1/GPa)
#
#
# Indices 1 2 3 4 5 6 
#
# 1 0.011864 -0.001458 -0.001712 0.000000 -0.000816 0.000000
# 2 -0.001458 0.005577 -0.001288 0.000000 -0.001001 0.000000
# 3 -0.001712 -0.001288 0.005787 0.000000 0.001753 0.000000
# 4 0.000000 0.000000 0.000000 0.021755 0.000000 -0.010395
# 5 -0.000816 -0.001001 0.001753 0.000000 0.016037 0.000000
# 6 0.000000 0.000000 0.000000 -0.010395 0.000000 0.028818
#
#
# Mechanical properties :
#
#
# Convention : Reuss Voigt Hill
#
# Bulk Modulus (GPa) = 69.86510 81.33165 75.59838
# Shear Modulus (GPa) = 48.29749 57.50954 52.90351
#
# Velocity S-wave (km/s) = 4.15043 4.52899 4.34384
# Velocity P-wave (km/s) = 6.92002 7.50715 7.21955
#
# Compressibility (1/GPa) = 0.01431330
#
# Stress axis : x y z
#
# Youngs Moduli (GPa) = 84.28607 179.29557 172.79634
#
# Poissons Ratio (x) = 0.26132 0.29580
# Poissons Ratio (y) = 0.12285 0.22264
# Poissons Ratio (z) = 0.14428 0.23101
#
# Static dielectric constant tensor:
#      x y z
#    x 2.301380 0.000000 -0.006550 
#    y 0.000000 2.137030 0.000000 
#    z -0.006550 0.000000 2.335040 
# 
# From -- ./inp_files/5531.got.cif
#   From: 2010.05.17/outbox.cif.g08.bks.cpg/sg9_3_cif.got.tgz:5531.got - 2010.06.03 20:04:27.
