data_PCOD9138520
_publ_section_title
;
Structure prediction by ZEFSAII (Michael W. Deem and Ramdas Pophale) SiO2 
 PCOD9138520
Probable space group: C C
;
_chemical_formula_sum "Si O2"
_cell_formula_units_Z 32
_cell_length_a 6.758649
_cell_length_b 13.227000
_cell_length_c 18.298145
_cell_angle_alpha 90.000000
_cell_angle_beta 52.719517
_cell_angle_gamma 90.000000
_cell_volume 1301.567436
_symmetry_space_group_name_H-M "C C"
_symmetry_group_IT_number 9
_symmetry_cell_setting 'monoclinic'
loop_
_space_group_symop_operation_xyz
x,y,z
x,-y,1/2+z
1/2+x,1/2+y,z
1/2+x,1/2-y,1/2+z
loop_
_atom_site_type_symbol
_atom_site_label
_atom_site_fract_x
_atom_site_fract_y
_atom_site_fract_z
Si Si1 0.706870 0.644792 0.928760
Si Si2 0.959494 0.842913 0.858371
Si Si3 0.107034 0.912933 0.130375
Si Si4 0.305728 0.923755 0.246972
Si Si5 0.220057 0.259842 0.159801
Si Si6 0.954163 0.372760 0.793790
Si Si7 0.941659 0.124409 0.122929
Si Si8 0.547249 0.978354 0.923659
O O1 0.747917 0.763414 0.925197
O O2 0.687540 0.618742 0.848204
O O3 0.940959 0.583097 0.912616
O O4 0.471705 0.615633 0.029915
O O5 0.828090 0.952578 0.886779
O O6 0.086376 0.802603 0.755183
O O7 0.184276 0.825319 0.864043
O O8 0.155384 0.914305 0.205947
O O9 0.975732 0.811548 0.128975
O O10 0.353710 0.942366 0.029054
O O11 0.934467 0.011606 0.156097
O O12 0.550238 0.856339 0.180421
O O13 0.385597 0.037042 0.252034
O O14 0.182691 0.183097 0.100907
O O15 0.031441 0.408360 0.855776
O O16 0.193584 0.320119 0.705558
#
# Coordination Sequence:
#
# PCOD9138520 Si02
#       8
#     4   4   4   4   4   4   4   4
#     4   9  24  45  70 101 141 183 238 298 352 432
#     4  11  24  41  69 101 136 184 228 285 363 419
#     4  11  25  45  72 101 142 187 240 294 369 420
#     4  10  23  44  69 101 138 188 228 295 359 425
#     4  11  24  41  73 100 137 182 233 294 349 431
#     4  11  23  43  72  97 142 185 227 291 358 418
#     4  11  23  47  70 103 146 181 246 300 350 440
#     4  10  24  46  65 102 140 182 232 297 348 431
#
# _framework density 24.585742
#
# number of rings (size 3 to 8) (size 9 to 14) (size 15 to 20)
#    0.000    1.500    2.500    0.750    5.250    0.000 
#    2.250    0.000    5.500    0.000    0.000    0.000 
#    0.000    0.000    0.000    0.000    0.000    0.000 
#
# Total GULP energy -89360.443699 kJ/mol
# GULP energy per Si atom -5585.027731 kJ/mol
# Density = 2.452978 g / cm^3
# Si number density = 24.585742 Si / 1000 Ang^3
#
#
#
# Elastic Constant Matrix: (Units=GPa)
#
#
# Indices 1 2 3 4 5 6 
#
# 1 99.2660 24.4470 46.3697 -0.0008 -1.6248 0.0005
# 2 24.4470 84.1477 6.3658 -0.0008 -2.1608 0.0005
# 3 46.3697 6.3658 92.1910 -0.0013 15.7615 0.0004
# 4 -0.0008 -0.0008 -0.0013 20.6521 0.0005 -0.5065
# 5 -1.6248 -2.1608 15.7615 0.0005 23.6900 -0.0004
# 6 0.0005 0.0005 0.0004 -0.5065 -0.0004 29.1292
#
#
#
# Elastic Compliance Matrix: (Units=1/GPa)
#
#
# Indices 1 2 3 4 5 6 
#
# 1 0.014947 -0.003551 -0.008342 0.000000 0.006251 0.000000
# 2 -0.003551 0.012862 0.000834 0.000000 0.000375 0.000000
# 3 -0.008342 0.000834 0.017004 0.000001 -0.011809 0.000000
# 4 0.000000 0.000000 0.000001 0.048442 -0.000002 0.000842
# 5 0.006251 0.000375 -0.011809 -0.000002 0.050532 0.000001
# 6 0.000000 0.000000 0.000000 0.000842 0.000001 0.034345
#
#
# Mechanical properties :
#
#
# Convention : Reuss Voigt Hill
#
# Bulk Modulus (GPa) = 44.06090 47.77442 45.91766
# Shear Modulus (GPa) = 24.05987 27.92240 25.99114
#
# Velocity S-wave (km/s) = 3.13167 3.37369 3.25493
# Velocity P-wave (km/s) = 5.57106 5.88640 5.73090
#
# Compressibility (1/GPa) = 0.02269586
#
# Stress axis : x y z
#
# Youngs Moduli (GPa) = 66.90113 77.74797 58.80930
#
# Poissons Ratio (x) = 0.27609 0.49057
# Poissons Ratio (y) = 0.23757 -0.04904
# Poissons Ratio (z) = 0.55807 -0.06483
#
# Static dielectric constant tensor:
#      x y z
#    x 2.072240 0.000000 -0.036100 
#    y 0.000000 1.990330 0.000000 
#    z -0.036100 0.000000 1.925430 
# 
# From -- ./inp_files/28679.got.cif
#   From: 2010.05.17/outbox.cif.g08.bks.cpg/sg9_15_cif.got.tgz:28679.got - 2010.06.03 20:04:27.
