data_PCOD9138141
_publ_section_title
;
Structure prediction by ZEFSAII (Michael W. Deem and Ramdas Pophale) SiO2 
 PCOD9138141
Probable space group: C C
;
_chemical_formula_sum "Si O2"
_cell_formula_units_Z 28
_cell_length_a 16.242434
_cell_length_b 14.995468
_cell_length_c 8.193915
_cell_angle_alpha 90.000000
_cell_angle_beta 147.059809
_cell_angle_gamma 90.000000
_cell_volume 1085.206700
_symmetry_space_group_name_H-M "C C"
_symmetry_group_IT_number 9
_symmetry_cell_setting 'monoclinic'
loop_
_space_group_symop_operation_xyz
x,y,z
x,-y,1/2+z
1/2+x,1/2+y,z
1/2+x,1/2-y,1/2+z
loop_
_atom_site_type_symbol
_atom_site_label
_atom_site_fract_x
_atom_site_fract_y
_atom_site_fract_z
Si Si1 0.979920 0.745064 0.266300
Si Si2 0.472663 0.874364 0.352177
Si Si3 0.746024 0.414141 0.476731
Si Si4 0.675168 0.614645 0.238191
Si Si5 0.487109 0.694692 0.413634
Si Si6 0.117890 0.504172 0.821991
Si Si7 0.756559 0.123770 0.770296
O O1 0.020177 0.826224 0.462654
O O2 0.148467 0.702357 0.526834
O O3 0.877899 0.660513 0.156177
O O4 0.929357 0.785425 0.006086
O O5 0.573708 0.786523 0.518428
O O6 0.530171 0.937343 0.305888
O O7 0.500822 0.930893 0.560116
O O8 0.308343 0.830397 0.050359
O O9 0.725457 0.520643 0.408541
O O10 0.716299 0.402312 0.618649
O O11 0.608440 0.380812 0.140884
O O12 0.393905 0.660714 0.102890
O O13 0.166420 0.568075 0.758828
O O14 0.260534 0.451232 0.135016
#
# Coordination Sequence:
#
# PCOD9138141 Si02
#       7
#     4   4   4   4   4   4   4
#     4  11  24  45  72 105 141 186 244 296 361 444
#     4  11  20  42  67 102 134 183 230 295 361 435
#     4  11  27  48  71 107 148 187 245 304 367 444
#     4  11  24  46  74 105 144 194 243 296 375 440
#     4  11  26  43  68 102 144 182 234 302 362 431
#     4  10  23  38  72 100 136 183 236 294 370 433
#     4  11  22  44  66 103 135 179 236 295 352 439
#
# _framework density 25.801537
#
# number of rings (size 3 to 8) (size 9 to 14) (size 15 to 20)
#    0.000    1.143    2.857    3.429    4.000    2.286 
#    5.143    0.000    0.000    0.000    0.000    0.000 
#    0.000    0.000    0.000    0.000    0.000    0.000 
#
# Total GULP energy -78012.273835 kJ/mol
# GULP energy per Si atom -5572.305274 kJ/mol
# Density = 2.574281 g / cm^3
# Si number density = 25.801537 Si / 1000 Ang^3
#
#
#
# Elastic Constant Matrix: (Units=GPa)
#
#
# Indices 1 2 3 4 5 6 
#
# 1 25.3065 13.1242 31.8226 0.0000 -11.8767 0.0000
# 2 13.1242 99.2320 37.7508 0.0000 -10.5103 0.0000
# 3 31.8226 37.7508 131.7450 0.0000 -37.8716 0.0000
# 4 0.0000 0.0000 0.0000 46.7097 0.0000 -6.1109
# 5 -11.8767 -10.5103 -37.8716 0.0000 18.7260 0.0000
# 6 0.0000 0.0000 0.0000 -6.1109 0.0000 26.0480
#
#
#
# Elastic Compliance Matrix: (Units=1/GPa)
#
#
# Indices 1 2 3 4 5 6 
#
# 1 0.060689 -0.002832 -0.007739 0.000000 0.021250 0.000000
# 2 -0.002832 0.011444 -0.003022 0.000000 -0.001484 0.000000
# 3 -0.007739 -0.003022 0.020130 0.000000 0.034107 0.000000
# 4 0.000000 0.000000 0.000000 0.022087 0.000000 0.005182
# 5 0.021250 -0.001484 0.034107 0.000000 0.135024 0.000000
# 6 0.000000 0.000000 0.000000 0.005182 0.000000 0.039606
#
#
# Mechanical properties :
#
#
# Convention : Reuss Voigt Hill
#
# Bulk Modulus (GPa) = 15.36633 46.85321 31.10977
# Shear Modulus (GPa) = 14.79907 29.86913 22.33410
#
# Velocity S-wave (km/s) = 2.39754 3.40612 2.94532
# Velocity P-wave (km/s) = 3.69226 5.80236 4.86313
#
# Compressibility (1/GPa) = 0.06507737
#
# Stress axis : x y z
#
# Youngs Moduli (GPa) = 16.47748 87.37936 49.67664
#
# Poissons Ratio (x) = 0.24742 0.38447
# Poissons Ratio (y) = 0.04666 0.15013
# Poissons Ratio (z) = 0.12753 0.26406
#
# Static dielectric constant tensor:
#      x y z
#    x 2.077720 0.000000 0.044530 
#    y 0.000000 2.389510 0.000000 
#    z 0.044530 0.000000 2.104220 
# 
# From -- ./inp_files/11723.got.cif
#   From: 2010.05.17/outbox.cif.g08.bks.cpg/sg9_6_cif.got.tgz:11723.got - 2010.06.03 20:04:27.
