data_PCOD9138350
_publ_section_title
;
Structure prediction by ZEFSAII (Michael W. Deem and Ramdas Pophale) SiO2 
 PCOD9138350
Probable space group: C C
;
_chemical_formula_sum "Si O2"
_cell_formula_units_Z 24
_cell_length_a 8.100130
_cell_length_b 23.715455
_cell_length_c 5.749148
_cell_angle_alpha 90.000000
_cell_angle_beta 56.745343
_cell_angle_gamma 90.000000
_cell_volume 923.546360
_symmetry_space_group_name_H-M "C C"
_symmetry_group_IT_number 9
_symmetry_cell_setting 'monoclinic'
loop_
_space_group_symop_operation_xyz
x,y,z
x,-y,1/2+z
1/2+x,1/2+y,z
1/2+x,1/2-y,1/2+z
loop_
_atom_site_type_symbol
_atom_site_label
_atom_site_fract_x
_atom_site_fract_y
_atom_site_fract_z
Si Si1 0.473130 0.468646 0.252500
Si Si2 0.636740 0.812507 0.848419
Si Si3 0.908474 0.504315 0.911828
Si Si4 0.047024 0.797290 0.724519
Si Si5 0.798518 0.846243 0.292682
Si Si6 0.905378 0.372923 0.324615
O O1 0.424940 0.500876 0.537096
O O2 0.388750 0.404917 0.317706
O O3 0.713725 0.466013 0.064161
O O4 0.671076 0.804051 0.552445
O O5 0.864546 0.827190 0.732783
O O6 0.575459 0.761737 0.066684
O O7 0.466947 0.859250 0.011739
O O8 0.015635 0.497661 0.579342
O O9 0.823632 0.567183 0.954499
O O10 0.251608 0.828164 0.533940
O O11 0.966640 0.807819 0.045390
O O12 0.623963 0.868425 0.261035
#
# Coordination Sequence:
#
# PCOD9138350 Si02
#       6
#     4   4   4   4   4   4
#     4  10  23  45  77 111 155 203 255 320 393 465
#     4  11  26  47  73 109 149 198 259 324 384 464
#     4  10  23  42  72 109 149 202 253 316 390 466
#     4  11  24  51  71 106 149 197 258 323 390 457
#     4  11  28  46  79 112 153 207 261 324 394 473
#     4  11  26  47  74 109 153 197 264 319 391 473
#
# _framework density 25.986782999999999
#
# number of rings (size 3 to 8) (size 9 to 14) (size 15 to 20)
#    0.000    1.333    1.667    2.000   11.667    5.333 
#    0.000    0.000    0.000    0.000    0.000    0.000 
#    0.000    0.000    0.000    0.000    0.000    0.000 
#
# Total GULP energy -66901.282439 kJ/mol
# GULP energy per Si atom -5575.106870 kJ/mol
# Density = 2.592764 g / cm^3
# Si number density = 25.986783 Si / 1000 Ang^3
#
#
#
# Elastic Constant Matrix: (Units=GPa)
#
#
# Indices 1 2 3 4 5 6 
#
# 1 79.2542 39.4115 43.2013 0.0000 -2.8896 0.0000
# 2 39.4115 132.0442 63.3471 0.0000 5.7499 0.0000
# 3 43.2013 63.3471 216.6257 0.0000 12.0776 0.0000
# 4 0.0000 0.0000 0.0000 35.0667 0.0000 2.2670
# 5 -2.8896 5.7499 12.0776 0.0000 53.3782 0.0000
# 6 0.0000 0.0000 0.0000 2.2670 0.0000 25.3171
#
#
#
# Elastic Compliance Matrix: (Units=1/GPa)
#
#
# Indices 1 2 3 4 5 6 
#
# 1 0.015704 -0.003738 -0.002135 0.000000 0.001736 0.000000
# 2 -0.003738 0.009706 -0.002049 0.000000 -0.000784 0.000000
# 3 -0.002135 -0.002049 0.005707 0.000000 -0.001186 0.000000
# 4 0.000000 0.000000 0.000000 0.028683 0.000000 -0.002568
# 5 0.001736 -0.000784 -0.001186 0.000000 0.019181 0.000000
# 6 0.000000 0.000000 0.000000 -0.002568 0.000000 0.039729
#
#
# Mechanical properties :
#
#
# Convention : Reuss Voigt Hill
#
# Bulk Modulus (GPa) = 65.47966 79.98267 72.73116
# Shear Modulus (GPa) = 35.80453 41.55000 38.67726
#
# Velocity S-wave (km/s) = 3.71590 4.00295 3.86209
# Velocity P-wave (km/s) = 6.60776 7.22564 6.92360
#
# Compressibility (1/GPa) = 0.01527192
#
# Stress axis : x y z
#
# Youngs Moduli (GPa) = 63.67839 103.02699 175.20902
#
# Poissons Ratio (x) = 0.38515 0.37414
# Poissons Ratio (y) = 0.23805 0.35902
# Poissons Ratio (z) = 0.13598 0.21111
#
# Static dielectric constant tensor:
#      x y z
#    x 2.139840 0.000000 0.244020 
#    y 0.000000 2.114120 0.000000 
#    z 0.244020 0.000000 2.216640 
# 
# From -- ./inp_files/815.got.cif
#   From: 2010.05.17/outbox.cif.g08.bks.cpg/sg9_1_cif.got.tgz:815.got - 2010.06.03 20:04:27.
