data_PCOD9138321
_publ_section_title
;
Structure prediction by ZEFSAII (Michael W. Deem and Ramdas Pophale) SiO2 
 PCOD9138321
Probable space group: C C
;
_chemical_formula_sum "Si O2"
_cell_formula_units_Z 28
_cell_length_a 22.801616
_cell_length_b 5.025094
_cell_length_c 9.959478
_cell_angle_alpha 90.000000
_cell_angle_beta 85.877695
_cell_angle_gamma 90.000000
_cell_volume 1138.207292
_symmetry_space_group_name_H-M "C C"
_symmetry_group_IT_number 9
_symmetry_cell_setting 'monoclinic'
loop_
_space_group_symop_operation_xyz
x,y,z
x,-y,1/2+z
1/2+x,1/2+y,z
1/2+x,1/2-y,1/2+z
loop_
_atom_site_type_symbol
_atom_site_label
_atom_site_fract_x
_atom_site_fract_y
_atom_site_fract_z
Si Si1 0.185340 0.178317 0.615920
Si Si2 0.404340 0.229034 0.908925
Si Si3 0.004599 0.452876 0.748278
Si Si4 0.245488 0.535008 0.807340
Si Si5 0.284318 0.200609 0.036698
Si Si6 0.129698 0.674794 0.719050
Si Si7 0.949326 0.066673 0.145285
O O1 0.227712 0.259724 0.734970
O O2 0.154762 0.465979 0.603752
O O3 0.230918 0.002638 0.523723
O O4 0.133310 0.971503 0.661604
O O5 0.456914 0.027628 0.868572
O O6 0.346662 0.092745 0.977688
O O7 0.398479 0.370056 0.764033
O O8 0.424301 0.444791 0.014698
O O9 0.069157 0.549824 0.777445
O O10 0.992467 0.155183 0.703411
O O11 0.985610 0.660309 0.633842
O O12 0.273656 0.456762 0.942673
O O13 0.281936 0.701606 0.691186
O O14 0.180861 0.669990 0.822928
#
# Coordination Sequence:
#
# PCOD9138321 Si02
#       7
#     4   4   4   4   4   4   4
#     4   9  21  39  65  92 131 169 224 272 336 391
#     4  10  25  40  72  95 145 175 235 275 346 403
#     4  10  23  42  69  95 136 179 229 278 340 400
#     4   9  23  38  70  95 139 173 230 273 348 395
#     4  11  21  45  66 104 135 185 223 289 335 414
#     4   9  19  45  62  99 129 175 224 279 334 403
#     4  10  24  43  64 102 131 182 229 272 347 398
#
# _framework density 24.600088
#
# number of rings (size 3 to 8) (size 9 to 14) (size 15 to 20)
#    1.714    0.571    0.000    1.714    2.000    4.571 
#    5.143    4.286    0.000    0.000    0.000    0.000 
#    0.000    0.000    0.000    0.000    0.000    0.000 
#
# Total GULP energy -78037.191636 kJ/mol
# GULP energy per Si atom -5574.085117 kJ/mol
# Density = 2.454410 g / cm^3
# Si number density = 24.600088 Si / 1000 Ang^3
#
#
#
# Elastic Constant Matrix: (Units=GPa)
#
#
# Indices 1 2 3 4 5 6 
#
# 1 100.7014 0.6739 11.5500 0.0000 -38.8250 0.0000
# 2 0.6739 117.3220 7.4412 0.0000 -10.1535 0.0000
# 3 11.5500 7.4412 59.8079 0.0000 4.3310 0.0000
# 4 0.0000 0.0000 0.0000 28.0097 0.0000 4.6612
# 5 -38.8250 -10.1535 4.3310 0.0000 28.4671 0.0000
# 6 0.0000 0.0000 0.0000 4.6612 0.0000 25.0527
#
#
#
# Elastic Compliance Matrix: (Units=1/GPa)
#
#
# Indices 1 2 3 4 5 6 
#
# 1 0.024772 0.003490 -0.007841 0.000000 0.036223 0.000000
# 2 0.003490 0.009394 -0.002457 0.000000 0.008484 0.000000
# 3 -0.007841 -0.002457 0.019594 0.000000 -0.014552 0.000000
# 4 0.000000 0.000000 0.000000 0.036843 0.000000 -0.006855
# 5 0.036223 0.008484 -0.014552 0.000000 0.089771 0.000000
# 6 0.000000 0.000000 0.000000 -0.006855 0.000000 0.041191
#
#
# Mechanical properties :
#
#
# Convention : Reuss Voigt Hill
#
# Bulk Modulus (GPa) = 24.91111 35.24018 30.07564
# Shear Modulus (GPa) = 20.11563 33.51698 26.81630
#
# Velocity S-wave (km/s) = 2.86266 3.69517 3.30523
# Velocity P-wave (km/s) = 4.59073 5.70632 5.17865
#
# Compressibility (1/GPa) = 0.04014273
#
# Stress axis : x y z
#
# Youngs Moduli (GPa) = 40.36802 106.45568 51.03599
#
# Poissons Ratio (x) = -0.37152 0.40019
# Poissons Ratio (y) = -0.14088 0.12540
# Poissons Ratio (z) = 0.31654 0.26157
#
# Static dielectric constant tensor:
#      x y z
#    x 2.011240 0.000000 -0.014790 
#    y 0.000000 1.951500 0.000000 
#    z -0.014790 0.000000 2.029530 
# 
# From -- ./inp_files/20454.got.cif
#   From: 2010.05.17/outbox.cif.g08.bks.cpg/sg9_11_cif.got.tgz:20454.got - 2010.06.03 20:04:27.
