data_PCOD9138219
_publ_section_title
;
Structure prediction by ZEFSAII (Michael W. Deem and Ramdas Pophale) SiO2 
 PCOD9138219
Probable space group: C C
;
_chemical_formula_sum "Si O2"
_cell_formula_units_Z 32
_cell_length_a 12.404779
_cell_length_b 20.279247
_cell_length_c 5.555416
_cell_angle_alpha 90.000000
_cell_angle_beta 114.684322
_cell_angle_gamma 90.000000
_cell_volume 1269.816370
_symmetry_space_group_name_H-M "C C"
_symmetry_group_IT_number 9
_symmetry_cell_setting 'monoclinic'
loop_
_space_group_symop_operation_xyz
x,y,z
x,-y,1/2+z
1/2+x,1/2+y,z
1/2+x,1/2-y,1/2+z
loop_
_atom_site_type_symbol
_atom_site_label
_atom_site_fract_x
_atom_site_fract_y
_atom_site_fract_z
Si Si1 0.610080 0.774556 0.244410
Si Si2 0.713687 0.352549 0.782013
Si Si3 0.063461 0.541979 0.135712
Si Si4 0.397309 0.152119 0.803508
Si Si5 0.218204 0.983605 0.526576
Si Si6 0.952689 0.032734 0.222108
Si Si7 0.283909 0.365614 0.725890
Si Si8 0.776750 0.243050 0.525260
O O1 0.610325 0.695021 0.287379
O O2 0.496486 0.811974 0.234703
O O3 0.712706 0.814191 0.488558
O O4 0.642019 0.777387 0.986338
O O5 0.686560 0.406005 0.550509
O O6 0.796717 0.292394 0.762708
O O7 0.799349 0.384956 0.053473
O O8 0.053980 0.502219 0.379965
O O9 0.190322 0.579079 0.223591
O O10 0.968185 0.601571 0.038206
O O11 0.318549 0.207758 0.857762
O O12 0.278875 0.007165 0.827543
O O13 0.095110 0.024842 0.373664
O O14 0.892817 0.102963 0.189284
O O15 0.913781 0.995893 0.430118
O O16 0.331211 0.325917 0.002471
#
# Coordination Sequence:
#
# PCOD9138219 Si02
#       8
#     4   4   4   4   4   4   4   4
#     4   9  24  42  68 106 143 190 246 312 375 437
#     4  10  24  45  69 102 150 183 250 299 369 453
#     4  11  28  45  73 109 148 204 256 316 371 455
#     4  11  24  46  73 108 146 199 254 306 390 448
#     4  10  24  44  67  99 142 191 238 294 361 444
#     4  10  23  41  66 102 141 188 235 289 371 443
#     4  11  22  43  72 101 153 178 252 309 383 439
#     4  10  23  44  72 107 139 197 237 317 372 457
#
# _framework density 25.200493000000002
#
# number of rings (size 3 to 8) (size 9 to 14) (size 15 to 20)
#    0.750    1.000    1.250    0.750    8.750    4.000 
#    4.500    0.000    0.000    0.000    0.000    0.000 
#    0.000    0.000    0.000    0.000    0.000    0.000 
#
# Total GULP energy -89098.310715 kJ/mol
# GULP energy per Si atom -5568.644420 kJ/mol
# Density = 2.514314 g / cm^3
# Si number density = 25.200493 Si / 1000 Ang^3
#
#
#
# Elastic Constant Matrix: (Units=GPa)
#
#
# Indices 1 2 3 4 5 6 
#
# 1 83.3464 64.8126 27.7029 0.0000 -20.5702 0.0000
# 2 64.8126 108.7847 73.6678 0.0000 -17.5755 0.0000
# 3 27.7029 73.6678 20.7525 0.0000 -42.3336 0.0000
# 4 0.0000 0.0000 0.0000 45.0850 0.0000 -21.9428
# 5 -20.5702 -17.5755 -42.3336 0.0000 32.1976 0.0000
# 6 0.0000 0.0000 0.0000 -21.9428 0.0000 43.3012
#
#
#
# Elastic Compliance Matrix: (Units=1/GPa)
#
#
# Indices 1 2 3 4 5 6 
#
# 1 0.018880 -0.005972 -0.008294 0.000000 -0.002102 0.000000
# 2 -0.005972 0.007689 0.011023 0.000000 0.014876 0.000000
# 3 -0.008294 0.011023 -0.012837 0.000000 -0.016159 0.000000
# 4 0.000000 0.000000 0.000000 0.029442 0.000000 0.014919
# 5 -0.002102 0.014876 -0.016159 0.000000 0.016589 0.000000
# 6 0.000000 0.000000 0.000000 0.014919 0.000000 0.030654
#
#
# Mechanical properties :
#
#
# Convention : Reuss Voigt Hill
#
# Bulk Modulus (GPa) = 137.96999 60.58335 99.27667
# Shear Modulus (GPa) = 50.34466 27.23010 38.78738
#
# Velocity S-wave (km/s) = 4.47449 3.29072 3.92746
# Velocity P-wave (km/s) = 9.03119 6.20735 7.74899
#
# Compressibility (1/GPa) = 0.00724795
#
# Stress axis : x y z
#
# Youngs Moduli (GPa) = 52.96747 130.06269 -77.90068
#
# Poissons Ratio (x) = 0.77667 -0.64608
# Poissons Ratio (y) = 0.31630 0.85874
# Poissons Ratio (z) = 0.43929 -1.43374
#
# Static dielectric constant tensor:
#      x y z
#    x 2.054550 0.000000 -0.059460 
#    y 0.000000 2.029290 0.000000 
#    z -0.059460 0.000000 2.075440 
# 
# From -- ./inp_files/2702.got.cif
#   From: 2010.05.17/outbox.cif.g08.bks.cpg/sg9_2_cif.got.tgz:2702.got - 2010.06.03 20:04:27.
