data_PCOD9138090
_publ_section_title
;
Structure prediction by ZEFSAII (Michael W. Deem and Ramdas Pophale) SiO2 
 PCOD9138090
Probable space group: C C
;
_chemical_formula_sum "Si O2"
_cell_formula_units_Z 28
_cell_length_a 11.337486
_cell_length_b 8.302119
_cell_length_c 20.670651
_cell_angle_alpha 90.000000
_cell_angle_beta 141.366901
_cell_angle_gamma 90.000000
_cell_volume 1214.715991
_symmetry_space_group_name_H-M "C C"
_symmetry_group_IT_number 9
_symmetry_cell_setting 'monoclinic'
loop_
_space_group_symop_operation_xyz
x,y,z
x,-y,1/2+z
1/2+x,1/2+y,z
1/2+x,1/2-y,1/2+z
loop_
_atom_site_type_symbol
_atom_site_label
_atom_site_fract_x
_atom_site_fract_y
_atom_site_fract_z
Si Si1 0.290660 0.792405 0.555410
Si Si2 0.228259 0.206669 0.275790
Si Si3 0.856706 0.517576 0.211300
Si Si4 0.017617 0.209658 0.529703
Si Si5 0.647798 0.250348 0.875051
Si Si6 0.426922 0.488174 0.871922
Si Si7 0.306760 0.411237 0.568302
O O1 0.379683 0.873096 0.657551
O O2 0.408620 0.802094 0.539344
O O3 0.095281 0.887240 0.461722
O O4 0.275966 0.601276 0.558596
O O5 0.353984 0.117592 0.276491
O O6 0.270671 0.175572 0.369725
O O7 0.258197 0.397270 0.277350
O O8 0.016587 0.142410 0.176795
O O9 0.654738 0.426286 0.119057
O O10 0.014274 0.382404 0.285304
O O11 0.156724 0.325657 0.550335
O O12 0.891564 0.120525 0.420622
O O13 0.511474 0.376128 0.852356
O O14 0.769787 0.161435 0.981394
#
# Coordination Sequence:
#
# PCOD9138090 Si02
#       7
#     4   4   4   4   4   4   4
#     4  11  24  45  74 103 142 190 241 295 354 429
#     4  12  25  44  73 105 144 184 236 299 352 436
#     4  11  25  42  68 105 139 186 245 282 362 426
#     4  10  22  48  70 101 142 186 239 297 349 429
#     4  11  26  48  67 106 147 189 237 297 355 428
#     4  10  26  44  71 106 140 192 243 287 368 419
#     4  11  24  47  73 104 146 189 237 295 366 415
#
# _framework density 23.050656
#
# number of rings (size 3 to 8) (size 9 to 14) (size 15 to 20)
#    0.000    1.143    2.857    1.714    4.000    5.714 
#    0.000    0.000    0.000    0.000    0.000    0.000 
#    0.000    0.000    0.000    0.000    0.000    0.000 
#
# Total GULP energy -78378.253628 kJ/mol
# GULP energy per Si atom -5598.446688 kJ/mol
# Density = 2.299819 g / cm^3
# Si number density = 23.050656 Si / 1000 Ang^3
#
#
#
# Elastic Constant Matrix: (Units=GPa)
#
#
# Indices 1 2 3 4 5 6 
#
# 1 144.6740 50.9549 42.2147 0.0000 -35.7856 0.0000
# 2 50.9549 116.3896 50.5356 0.0000 -15.0315 0.0000
# 3 42.2147 50.5356 52.0925 0.0000 -22.9545 0.0000
# 4 0.0000 0.0000 0.0000 42.6191 0.0000 -6.7070
# 5 -35.7856 -15.0315 -22.9545 0.0000 38.3325 0.0000
# 6 0.0000 0.0000 0.0000 -6.7070 0.0000 36.1129
#
#
#
# Elastic Compliance Matrix: (Units=1/GPa)
#
#
# Indices 1 2 3 4 5 6 
#
# 1 0.010327 -0.002272 -0.003137 0.000000 0.006872 0.000000
# 2 -0.002272 0.015765 -0.015844 0.000000 -0.005427 0.000000
# 3 -0.003137 -0.015844 0.044940 0.000000 0.017769 0.000000
# 4 0.000000 0.000000 0.000000 0.024170 0.000000 0.004489
# 5 0.006872 -0.005427 0.017769 0.000000 0.041015 0.000000
# 6 0.000000 0.000000 0.000000 0.004489 0.000000 0.028525
#
#
# Mechanical properties :
#
#
# Convention : Reuss Voigt Hill
#
# Bulk Modulus (GPa) = 35.05613 66.72962 50.89287
# Shear Modulus (GPa) = 23.06737 34.70962 28.88849
#
# Velocity S-wave (km/s) = 3.16686 3.88467 3.54398
# Velocity P-wave (km/s) = 5.34914 7.00948 6.23483
#
# Compressibility (1/GPa) = 0.02852568
#
# Stress axis : x y z
#
# Youngs Moduli (GPa) = 96.83031 63.43208 22.25213
#
# Poissons Ratio (x) = 0.14409 0.06981
# Poissons Ratio (y) = 0.21996 0.35256
# Poissons Ratio (z) = 0.30379 1.00502
#
# Static dielectric constant tensor:
#      x y z
#    x 1.884000 0.000000 0.003870 
#    y 0.000000 1.838450 0.000000 
#    z 0.003870 0.000000 1.868270 
# 
# From -- ./inp_files/33237.got.cif
#   From: 2010.05.17/outbox.cif.g08.bks.cpg/sg9_17_cif.got.tgz:33237.got - 2010.06.03 20:04:27.
