data_PCOD9138225
_publ_section_title
;
Structure prediction by ZEFSAII (Michael W. Deem and Ramdas Pophale) SiO2 
 PCOD9138225
Probable space group: C C
;
_chemical_formula_sum "Si O2"
_cell_formula_units_Z 32
_cell_length_a 22.356131
_cell_length_b 9.144868
_cell_length_c 13.515823
_cell_angle_alpha 90.000000
_cell_angle_beta 152.200112
_cell_angle_gamma 90.000000
_cell_volume 1288.727435
_symmetry_space_group_name_H-M "C C"
_symmetry_group_IT_number 9
_symmetry_cell_setting 'monoclinic'
loop_
_space_group_symop_operation_xyz
x,y,z
x,-y,1/2+z
1/2+x,1/2+y,z
1/2+x,1/2-y,1/2+z
loop_
_atom_site_type_symbol
_atom_site_label
_atom_site_fract_x
_atom_site_fract_y
_atom_site_fract_z
Si Si1 0.026970 0.638129 0.225950
Si Si2 0.761494 0.722949 0.172625
Si Si3 0.975580 0.353271 0.263317
Si Si4 0.259357 0.685272 0.896012
Si Si5 0.609878 0.038174 0.146029
Si Si6 0.386779 0.601943 0.461689
Si Si7 0.897947 0.978544 0.264261
Si Si8 0.601424 0.537950 0.415401
O O1 0.121451 0.707305 0.444197
O O2 0.000844 0.475224 0.219618
O O3 0.095855 0.637374 0.220733
O O4 0.902477 0.735307 0.026188
O O5 0.797314 0.767287 0.337715
O O6 0.849063 0.819377 0.226391
O O7 0.736393 0.550719 0.112237
O O8 0.010749 0.415119 0.420496
O O9 0.067456 0.211607 0.374461
O O10 0.824394 0.319595 0.045366
O O11 0.113007 0.633691 0.679161
O O12 0.318064 0.558816 0.059152
O O13 0.747545 0.049144 0.292797
O O14 0.391481 0.578901 0.351946
O O15 0.508026 0.517697 0.689281
O O16 0.039270 0.977390 0.426670
#
# Coordination Sequence:
#
# PCOD9138225 Si02
#       8
#     4   4   4   4   4   4   4   4
#     4  11  23  40  71 100 134 185 232 287 357 421
#     4  11  21  41  67  96 134 183 226 282 352 411
#     4  11  23  44  69 100 138 177 240 286 346 426
#     4  11  22  41  66  97 132 184 225 284 342 416
#     4  12  22  44  70  98 141 186 223 289 359 404
#     4  11  22  42  69  98 134 185 231 286 353 425
#     4  11  18  41  67  94 135 184 221 280 348 405
#     4  10  23  41  67 101 134 176 234 286 345 418
#
# _framework density 24.830698000000002
#
# number of rings (size 3 to 8) (size 9 to 14) (size 15 to 20)
#    0.000    1.000    6.250    1.500    0.000    1.000 
#    4.500    1.250    8.250    0.000    0.000    0.000 
#    0.000    0.000    0.000    0.000    0.000    0.000 
#
# Total GULP energy -89159.921827 kJ/mol
# GULP energy per Si atom -5572.495114 kJ/mol
# Density = 2.477418 g / cm^3
# Si number density = 24.830698 Si / 1000 Ang^3
#
#
#
# Elastic Constant Matrix: (Units=GPa)
#
#
# Indices 1 2 3 4 5 6 
#
# 1 66.1364 19.7334 33.9747 0.0000 -34.3718 0.0000
# 2 19.7334 131.7872 39.0578 0.0000 1.5732 0.0000
# 3 33.9747 39.0578 99.4465 0.0000 -39.6485 0.0000
# 4 0.0000 0.0000 0.0000 43.0019 0.0000 -1.2790
# 5 -34.3718 1.5732 -39.6485 0.0000 31.9074 0.0000
# 6 0.0000 0.0000 0.0000 -1.2790 0.0000 24.3567
#
#
#
# Elastic Compliance Matrix: (Units=1/GPa)
#
#
# Indices 1 2 3 4 5 6 
#
# 1 0.051876 -0.015094 0.021368 0.000000 0.083179 0.000000
# 2 -0.015094 0.014576 -0.014541 0.000000 -0.035047 0.000000
# 3 0.021368 -0.014541 0.035534 0.000000 0.067891 0.000000
# 4 0.000000 0.000000 0.000000 0.023291 0.000000 0.001223
# 5 0.083179 -0.035047 0.067891 0.000000 0.207034 0.000000
# 6 0.000000 0.000000 0.000000 0.001223 0.000000 0.041121
#
#
# Mechanical properties :
#
#
# Convention : Reuss Voigt Hill
#
# Bulk Modulus (GPa) = 11.70239 53.65575 32.67907
# Shear Modulus (GPa) = 11.94886 33.49347 22.72117
#
# Velocity S-wave (km/s) = 2.19604 3.67669 3.02825
# Velocity P-wave (km/s) = 3.33964 6.29917 5.04147
#
# Compressibility (1/GPa) = 0.08545266
#
# Stress axis : x y z
#
# Youngs Moduli (GPa) = 19.27676 68.60584 28.14202
#
# Poissons Ratio (x) = 1.03551 -0.60134
# Poissons Ratio (y) = 0.29095 0.40922
# Poissons Ratio (z) = -0.41191 0.99762
#
# Static dielectric constant tensor:
#      x y z
#    x 1.965970 0.000000 0.041510 
#    y 0.000000 2.263940 0.000000 
#    z 0.041510 0.000000 2.022680 
# 
# From -- ./inp_files/28032.got.cif
#   From: 2010.05.17/outbox.cif.g08.bks.cpg/sg9_15_cif.got.tgz:28032.got - 2010.06.03 20:04:27.
