data_PCOD9138186
_publ_section_title
;
Structure prediction by ZEFSAII (Michael W. Deem and Ramdas Pophale) SiO2 
 PCOD9138186
Probable space group: C C
;
_chemical_formula_sum "Si O2"
_cell_formula_units_Z 32
_cell_length_a 12.993813
_cell_length_b 9.063720
_cell_length_c 11.190423
_cell_angle_alpha 90.000000
_cell_angle_beta 104.253489
_cell_angle_gamma 90.000000
_cell_volume 1277.350654
_symmetry_space_group_name_H-M "C C"
_symmetry_group_IT_number 9
_symmetry_cell_setting 'monoclinic'
loop_
_space_group_symop_operation_xyz
x,y,z
x,-y,1/2+z
1/2+x,1/2+y,z
1/2+x,1/2-y,1/2+z
loop_
_atom_site_type_symbol
_atom_site_label
_atom_site_fract_x
_atom_site_fract_y
_atom_site_fract_z
Si Si1 0.165420 0.992763 0.556000
Si Si2 0.867162 0.760315 0.458871
Si Si3 0.687351 0.758935 0.219051
Si Si4 0.106215 0.683344 0.132762
Si Si5 0.989620 0.004321 0.346165
Si Si6 0.015199 0.660528 0.862730
Si Si7 0.794388 0.976446 0.639445
Si Si8 0.911332 0.496288 0.645219
O O1 0.133987 0.148809 0.607230
O O2 0.289720 0.958044 0.586904
O O3 0.125568 0.870576 0.636157
O O4 0.114317 0.988022 0.409198
O O5 0.782957 0.709582 0.334114
O O6 0.942805 0.876095 0.415201
O O7 0.801671 0.864344 0.531957
O O8 0.922666 0.630108 0.550415
O O9 0.601361 0.833260 0.281373
O O10 0.736802 0.866398 0.132478
O O11 0.216420 0.612326 0.209550
O O12 0.998758 0.635344 0.170138
O O13 0.074741 0.607115 0.996888
O O14 0.916679 0.995293 0.209211
O O15 0.972220 0.175430 0.378317
O O16 0.922020 0.565901 0.779987
#
# Coordination Sequence:
#
# PCOD9138186 Si02
#       8
#     4   4   4   4   4   4   4   4
#     4  11  25  46  66 110 154 184 249 314 371 459
#     4  11  22  44  73 105 145 194 251 312 375 450
#     4  11  24  41  76 100 144 196 241 310 385 438
#     4  11  24  44  75 104 145 194 247 305 382 445
#     4  10  23  40  71 100 138 201 233 300 385 435
#     4  11  21  43  67 101 144 185 238 307 369 440
#     4  11  21  44  74 103 140 194 255 298 375 455
#     4  12  24  44  74 103 146 196 242 316 374 450
#
# _framework density 25.051852
#
# number of rings (size 3 to 8) (size 9 to 14) (size 15 to 20)
#    0.000    1.000    5.000    1.500    1.750    2.000 
#    2.250    0.000   13.750    0.000    0.000    0.000 
#    0.000    0.000    0.000    0.000    0.000    0.000 
#
# Total GULP energy -89231.212104 kJ/mol
# GULP energy per Si atom -5576.950756 kJ/mol
# Density = 2.499483 g / cm^3
# Si number density = 25.051852 Si / 1000 Ang^3
#
#
#
# Elastic Constant Matrix: (Units=GPa)
#
#
# Indices 1 2 3 4 5 6 
#
# 1 86.3434 31.6005 7.5917 0.0000 24.0680 0.0000
# 2 31.6005 99.6191 19.2882 0.0000 -0.5787 0.0000
# 3 7.5917 19.2882 72.5098 0.0000 24.7516 0.0000
# 4 0.0000 0.0000 0.0000 19.3504 0.0000 -6.1222
# 5 24.0680 -0.5787 24.7516 0.0000 36.5442 0.0000
# 6 0.0000 0.0000 0.0000 -6.1222 0.0000 39.6344
#
#
#
# Elastic Compliance Matrix: (Units=1/GPa)
#
#
# Indices 1 2 3 4 5 6 
#
# 1 0.017899 -0.006772 0.005187 0.000000 -0.015409 0.000000
# 2 -0.006772 0.013354 -0.005772 0.000000 0.008581 0.000000
# 3 0.005187 -0.005772 0.020787 0.000000 -0.017587 0.000000
# 4 0.000000 0.000000 0.000000 0.054334 0.000000 0.008393
# 5 -0.015409 0.008581 -0.017587 0.000000 0.049560 0.000000
# 6 0.000000 0.000000 0.000000 0.008393 0.000000 0.026527
#
#
# Mechanical properties :
#
#
# Convention : Reuss Voigt Hill
#
# Bulk Modulus (GPa) = 26.79078 41.71479 34.25278
# Shear Modulus (GPa) = 23.85302 32.43857 28.14580
#
# Velocity S-wave (km/s) = 3.08903 3.60232 3.35550
# Velocity P-wave (km/s) = 4.84151 5.83007 5.35864
#
# Compressibility (1/GPa) = 0.03732627
#
# Stress axis : x y z
#
# Youngs Moduli (GPa) = 55.86854 74.88499 48.10688
#
# Poissons Ratio (x) = 0.50710 -0.24954
# Poissons Ratio (y) = 0.37833 0.27769
# Poissons Ratio (z) = -0.28980 0.43227
#
# Static dielectric constant tensor:
#      x y z
#    x 2.094280 0.000000 -0.006540 
#    y 0.000000 2.050770 0.000000 
#    z -0.006540 0.000000 2.007810 
# 
# From -- ./inp_files/17952.got.cif
#   From: 2010.05.17/outbox.cif.g08.bks.cpg/sg9_9_cif.got.tgz:17952.got - 2010.06.03 20:04:27.
