data_PCOD9138753
_publ_section_title
;
Structure prediction by ZEFSAII (Michael W. Deem and Ramdas Pophale) SiO2 
 PCOD9138753
Probable space group: C C
;
_chemical_formula_sum "Si O2"
_cell_formula_units_Z 28
_cell_length_a 21.429571
_cell_length_b 9.600443
_cell_length_c 10.737908
_cell_angle_alpha 90.000000
_cell_angle_beta 148.948418
_cell_angle_gamma 90.000000
_cell_volume 1139.498638
_symmetry_space_group_name_H-M "C C"
_symmetry_group_IT_number 9
_symmetry_cell_setting 'monoclinic'
loop_
_space_group_symop_operation_xyz
x,y,z
x,-y,1/2+z
1/2+x,1/2+y,z
1/2+x,1/2-y,1/2+z
loop_
_atom_site_type_symbol
_atom_site_label
_atom_site_fract_x
_atom_site_fract_y
_atom_site_fract_z
Si Si1 0.242310 0.836906 0.049230
Si Si2 0.376050 0.710657 0.935126
Si Si3 0.925001 0.088462 0.439948
Si Si4 0.778256 0.134624 0.421387
Si Si5 0.151523 0.361211 0.202956
Si Si6 0.382754 0.899950 0.733917
Si Si7 0.581915 0.322623 0.988691
O O1 0.337054 0.715417 0.247427
O O2 0.173018 0.902204 0.049909
O O3 0.314697 0.956312 0.102786
O O4 0.146006 0.759663 0.796651
O O5 0.462010 0.700846 0.202264
O O6 0.400379 0.577117 0.886413
O O7 0.238712 0.692344 0.743991
O O8 0.392254 0.856798 0.894907
O O9 0.897642 0.101806 0.542396
O O10 0.042615 0.116820 0.555498
O O11 0.809875 0.272818 0.549862
O O12 0.660055 0.182664 0.140458
O O13 0.725440 0.992433 0.387590
O O14 0.021181 0.400660 0.928659
#
# Coordination Sequence:
#
# PCOD9138753 Si02
#       7
#     4   4   4   4   4   4   4
#     4  11  24  46  71 110 147 189 237 309 365 431
#     4  11  25  44  78 107 144 200 246 299 370 432
#     4  10  23  46  72  99 145 194 240 293 369 431
#     4  10  26  47  73 109 144 197 243 299 373 436
#     4  11  24  49  73 102 151 191 239 300 363 430
#     4  12  27  46  73 117 144 188 250 299 369 442
#     4  11  23  46  74 106 151 189 245 307 361 432
#
# _framework density 24.572209000000001
#
# number of rings (size 3 to 8) (size 9 to 14) (size 15 to 20)
#    0.000    1.143    2.857    1.714    4.000    4.571 
#    0.000    0.000    0.000    0.000    0.000    0.000 
#    0.000    0.000    0.000    0.000    0.000    0.000 
#
# Total GULP energy -78139.624928 kJ/mol
# GULP energy per Si atom -5581.401781 kJ/mol
# Density = 2.451628 g / cm^3
# Si number density = 24.572209 Si / 1000 Ang^3
#
#
#
# Elastic Constant Matrix: (Units=GPa)
#
#
# Indices 1 2 3 4 5 6 
#
# 1 107.6059 30.1565 25.3081 0.0000 42.9732 0.0000
# 2 30.1565 106.3114 33.7509 0.0000 0.1983 0.0000
# 3 25.3081 33.7509 85.5749 0.0000 21.6841 0.0000
# 4 0.0000 0.0000 0.0000 22.0996 0.0000 8.0664
# 5 42.9732 0.1983 21.6841 0.0000 32.8094 0.0000
# 6 0.0000 0.0000 0.0000 8.0664 0.0000 34.3487
#
#
#
# Elastic Compliance Matrix: (Units=1/GPa)
#
#
# Indices 1 2 3 4 5 6 
#
# 1 0.024805 -0.008600 0.005135 0.000000 -0.035831 0.000000
# 2 -0.008600 0.014038 -0.006998 0.000000 0.015804 0.000000
# 3 0.005135 -0.006998 0.017562 0.000000 -0.018290 0.000000
# 4 0.000000 0.000000 0.000000 0.049492 0.000000 -0.011623
# 5 -0.035831 0.015804 -0.018290 0.000000 0.089403 0.000000
# 6 0.000000 0.000000 0.000000 -0.011623 0.000000 0.031843
#
#
# Mechanical properties :
#
#
# Convention : Reuss Voigt Hill
#
# Bulk Modulus (GPa) = 28.18515 53.10257 40.64386
# Shear Modulus (GPa) = 19.23872 31.86998 25.55435
#
# Velocity S-wave (km/s) = 2.80115 3.60529 3.22835
# Velocity P-wave (km/s) = 4.68585 6.24408 5.52022
#
# Compressibility (1/GPa) = 0.03547968
#
# Stress axis : x y z
#
# Youngs Moduli (GPa) = 40.31484 71.23590 56.94232
#
# Poissons Ratio (x) = 0.61260 -0.29241
# Poissons Ratio (y) = 0.34669 0.39848
# Poissons Ratio (z) = -0.20702 0.49850
#
# Static dielectric constant tensor:
#      x y z
#    x 2.047990 0.000000 -0.077700 
#    y 0.000000 1.931090 0.000000 
#    z -0.077700 0.000000 1.992390 
# 
# From -- ./inp_files/20848.got.cif
#   From: 2010.05.17/outbox.cif.g08.bks.cpg/sg9_11_cif.got.tgz:20848.got - 2010.06.03 20:04:27.
