data_PCOD9138244
_publ_section_title
;
Structure prediction by ZEFSAII (Michael W. Deem and Ramdas Pophale) SiO2 
 PCOD9138244
Probable space group: C C
;
_chemical_formula_sum "Si O2"
_cell_formula_units_Z 32
_cell_length_a 10.588687
_cell_length_b 27.471632
_cell_length_c 6.209295
_cell_angle_alpha 90.000000
_cell_angle_beta 124.788879
_cell_angle_gamma 90.000000
_cell_volume 1483.370092
_symmetry_space_group_name_H-M "C C"
_symmetry_group_IT_number 9
_symmetry_cell_setting 'monoclinic'
loop_
_space_group_symop_operation_xyz
x,y,z
x,-y,1/2+z
1/2+x,1/2+y,z
1/2+x,1/2-y,1/2+z
loop_
_atom_site_type_symbol
_atom_site_label
_atom_site_fract_x
_atom_site_fract_y
_atom_site_fract_z
Si Si1 0.107420 0.791180 0.385280
Si Si2 0.951572 0.016944 0.510202
Si Si3 0.671592 0.400886 0.311309
Si Si4 0.464107 0.888463 0.312060
Si Si5 0.581482 0.787215 0.475827
Si Si6 0.095922 0.528090 0.157131
Si Si7 0.422051 0.935069 0.866596
Si Si8 0.341005 0.262452 0.422142
O O1 0.143568 0.844515 0.333860
O O2 0.234341 0.773600 0.680345
O O3 0.945823 0.791148 0.354797
O O4 0.104084 0.750886 0.191345
O O5 0.017253 0.071487 0.597104
O O6 0.767657 0.009167 0.332528
O O7 0.998431 0.003481 0.301875
O O8 0.800000 0.403485 0.249375
O O9 0.758232 0.427995 0.593820
O O10 0.522156 0.840193 0.482701
O O11 0.581286 0.933070 0.453677
O O12 0.443200 0.888160 0.036803
O O13 0.732616 0.792942 0.475976
O O14 0.453046 0.766318 0.190351
O O15 0.958251 0.488011 0.008760
O O16 0.054797 0.561946 0.318377
#
# Coordination Sequence:
#
# PCOD9138244 Si02
#       8
#     4   4   4   4   4   4   4   4
#     4  11  23  47  66 100 144 179 239 297 360 440
#     4  12  28  48  70 106 147 190 242 308 373 441
#     4  11  28  40  69 101 138 188 237 298 371 429
#     4  11  24  41  70  99 133 181 243 285 363 444
#     4  11  23  43  70 102 137 183 232 299 361 436
#     4  11  23  43  70  97 136 187 231 297 359 432
#     4  11  22  43  68  96 135 178 238 291 355 437
#     4  10  23  41  71  97 136 182 230 293 370 419
#
# _framework density 21.572500000000002
#
# number of rings (size 3 to 8) (size 9 to 14) (size 15 to 20)
#    0.000    1.000    2.500    3.000    5.250    7.000 
#    0.000    0.000    0.000    0.000    0.000    0.000 
#    0.000    0.000    0.000    0.000    0.000    0.000 
#
# Total GULP energy -89118.759374 kJ/mol
# GULP energy per Si atom -5569.922461 kJ/mol
# Density = 2.152340 g / cm^3
# Si number density = 21.572500 Si / 1000 Ang^3
#
#
#
# Elastic Constant Matrix: (Units=GPa)
#
#
# Indices 1 2 3 4 5 6 
#
# 1 67.6756 9.4344 23.8666 0.0000 -2.6733 0.0000
# 2 9.4344 89.6260 34.9838 0.0000 3.1396 0.0000
# 3 23.8666 34.9838 85.9298 0.0000 -14.5111 0.0000
# 4 0.0000 0.0000 0.0000 23.0029 0.0000 -2.7484
# 5 -2.6733 3.1396 -14.5111 0.0000 29.6846 0.0000
# 6 0.0000 0.0000 0.0000 -2.7484 0.0000 29.0538
#
#
#
# Elastic Compliance Matrix: (Units=1/GPa)
#
#
# Indices 1 2 3 4 5 6 
#
# 1 0.016401 0.000166 -0.004770 0.000000 -0.000872 0.000000
# 2 0.000166 0.013818 -0.006448 0.000000 -0.004599 0.000000
# 3 -0.004770 -0.006448 0.017037 0.000000 0.008581 0.000000
# 4 0.000000 0.000000 0.000000 0.043970 0.000000 0.004159
# 5 -0.000872 -0.004599 0.008581 0.000000 0.038290 0.000000
# 6 0.000000 0.000000 0.000000 0.004159 0.000000 0.034812
#
#
# Mechanical properties :
#
#
# Convention : Reuss Voigt Hill
#
# Bulk Modulus (GPa) = 39.76031 42.20009 40.98020
# Shear Modulus (GPa) = 25.66520 28.01139 26.83829
#
# Velocity S-wave (km/s) = 3.45297 3.60735 3.53100
# Velocity P-wave (km/s) = 5.86246 6.07907 5.97174
#
# Compressibility (1/GPa) = 0.02515071
#
# Stress axis : x y z
#
# Youngs Moduli (GPa) = 60.97170 72.36894 58.69708
#
# Poissons Ratio (x) = -0.01202 0.28000
# Poissons Ratio (y) = -0.01013 0.37850
# Poissons Ratio (z) = 0.29085 0.46666
#
# Static dielectric constant tensor:
#      x y z
#    x 1.811330 0.000000 -0.061830 
#    y 0.000000 1.783280 0.000000 
#    z -0.061830 0.000000 1.910050 
# 
# From -- ./inp_files/2276.got.cif
#   From: 2010.05.17/outbox.cif.g08.bks.cpg/sg9_2_cif.got.tgz:2276.got - 2010.06.03 20:04:27.
