data_PCOD9138074
_publ_section_title
;
Structure prediction by ZEFSAII (Michael W. Deem and Ramdas Pophale) SiO2 
 PCOD9138074
Probable space group: C C
;
_chemical_formula_sum "Si O2"
_cell_formula_units_Z 32
_cell_length_a 5.401732
_cell_length_b 18.212753
_cell_length_c 13.499167
_cell_angle_alpha 90.000000
_cell_angle_beta 79.222187
_cell_angle_gamma 90.000000
_cell_volume 1304.626380
_symmetry_space_group_name_H-M "C C"
_symmetry_group_IT_number 9
_symmetry_cell_setting 'monoclinic'
loop_
_space_group_symop_operation_xyz
x,y,z
x,-y,1/2+z
1/2+x,1/2+y,z
1/2+x,1/2-y,1/2+z
loop_
_atom_site_type_symbol
_atom_site_label
_atom_site_fract_x
_atom_site_fract_y
_atom_site_fract_z
Si Si1 0.592870 0.083827 0.655720
Si Si2 0.392120 0.223260 0.568747
Si Si3 0.546017 0.079764 0.160318
Si Si4 0.145566 0.073928 0.854950
Si Si5 0.978186 0.078197 0.292880
Si Si6 0.943838 0.188656 0.739459
Si Si7 0.601504 0.720983 0.384647
Si Si8 0.805867 0.658761 0.012412
O O1 0.514243 0.143944 0.581796
O O2 0.387377 0.077535 0.761727
O O3 0.842362 0.121119 0.681391
O O4 0.612396 0.001614 0.615490
O O5 0.178252 0.224375 0.668566
O O6 0.277626 0.217805 0.467827
O O7 0.579710 0.291434 0.570581
O O8 0.256482 0.080289 0.221444
O O9 0.750342 0.089501 0.232413
O O10 0.524335 0.137710 0.073172
O O11 0.221649 0.084633 0.963087
O O12 0.995385 0.147537 0.838213
O O13 0.982939 0.002011 0.843249
O O14 0.974077 0.143777 0.371939
O O15 0.748467 0.252315 0.776693
O O16 0.413366 0.786635 0.421790
#
# Coordination Sequence:
#
# PCOD9138074 Si02
#       8
#     4   4   4   4   4   4   4   4
#     4  10  22  48  75 108 151 206 255 328 401 469
#     4  11  27  45  73 118 155 205 262 328 400 481
#     4  11  28  49  79 115 157 206 265 333 399 477
#     4  10  22  47  77 107 153 203 258 320 397 468
#     4  11  28  50  77 114 157 207 261 328 404 474
#     4  11  22  47  79 104 161 203 260 326 399 471
#     4  12  28  45  77 114 154 204 263 326 395 480
#     4  12  27  47  75 120 158 206 268 331 397 484
#
# _framework density 24.528096000000001
#
# number of rings (size 3 to 8) (size 9 to 14) (size 15 to 20)
#    0.000    1.000    3.750    0.750    8.750    0.000 
#    0.000    2.500    0.000    0.000    0.000    0.000 
#    0.000    0.000    0.000    0.000    0.000    0.000 
#
# Total GULP energy -89557.569781 kJ/mol
# GULP energy per Si atom -5597.348111 kJ/mol
# Density = 2.447227 g / cm^3
# Si number density = 24.528096 Si / 1000 Ang^3
#
#
#
# Elastic Constant Matrix: (Units=GPa)
#
#
# Indices 1 2 3 4 5 6 
#
# 1 115.9997 46.4633 47.8132 0.0000 25.8941 0.0000
# 2 46.4633 165.0561 66.9987 0.0000 31.0338 0.0000
# 3 47.8132 66.9987 82.1277 0.0000 22.9341 0.0000
# 4 0.0000 0.0000 0.0000 42.8539 0.0000 11.3503
# 5 25.8941 31.0338 22.9341 0.0000 52.4664 0.0000
# 6 0.0000 0.0000 0.0000 11.3503 0.0000 38.5796
#
#
#
# Elastic Compliance Matrix: (Units=1/GPa)
#
#
# Indices 1 2 3 4 5 6 
#
# 1 0.011822 -0.000453 -0.005648 0.000000 -0.003098 0.000000
# 2 -0.000453 0.009354 -0.006703 0.000000 -0.002380 0.000000
# 3 -0.005648 -0.006703 0.021695 0.000000 -0.002731 0.000000
# 4 0.000000 0.000000 0.000000 0.025307 0.000000 -0.007445
# 5 -0.003098 -0.002380 -0.002731 0.000000 0.023190 0.000000
# 6 0.000000 0.000000 0.000000 -0.007445 0.000000 0.028111
#
#
# Mechanical properties :
#
#
# Convention : Reuss Voigt Hill
#
# Bulk Modulus (GPa) = 57.92521 76.19264 67.05893
# Shear Modulus (GPa) = 33.14756 40.24054 36.69405
#
# Velocity S-wave (km/s) = 3.68014 4.05481 3.87201
# Velocity P-wave (km/s) = 6.45949 7.28374 6.88396
#
# Compressibility (1/GPa) = 0.01726364
#
# Stress axis : x y z
#
# Youngs Moduli (GPa) = 84.59152 106.90333 46.09340
#
# Poissons Ratio (x) = 0.04840 0.26033
# Poissons Ratio (y) = 0.03830 0.30896
# Poissons Ratio (z) = 0.47776 0.71657
#
# Static dielectric constant tensor:
#      x y z
#    x 2.063170 0.000000 0.009580 
#    y 0.000000 1.924180 0.000000 
#    z 0.009580 0.000000 2.013990 
# 
# From -- ./inp_files/21959.got.cif
#   From: 2010.05.17/outbox.cif.g08.bks.cpg/sg9_11_cif.got.tgz:21959.got - 2010.06.03 20:04:27.
