data_PCOD9138810
_publ_section_title
;
Structure prediction by ZEFSAII (Michael W. Deem and Ramdas Pophale) SiO2 
 PCOD9138810
Probable space group: C C
;
_chemical_formula_sum "Si O2"
_cell_formula_units_Z 32
_cell_length_a 11.366506
_cell_length_b 7.759878
_cell_length_c 22.954297
_cell_angle_alpha 90.000000
_cell_angle_beta 43.684550
_cell_angle_gamma 90.000000
_cell_volume 1398.387171
_symmetry_space_group_name_H-M "C C"
_symmetry_group_IT_number 9
_symmetry_cell_setting 'monoclinic'
loop_
_space_group_symop_operation_xyz
x,y,z
x,-y,1/2+z
1/2+x,1/2+y,z
1/2+x,1/2-y,1/2+z
loop_
_atom_site_type_symbol
_atom_site_label
_atom_site_fract_x
_atom_site_fract_y
_atom_site_fract_z
Si Si1 0.593010 0.808615 0.521300
Si Si2 0.464632 0.144569 0.818385
Si Si3 0.537743 0.343406 0.161701
Si Si4 0.950034 0.831881 0.627358
Si Si5 0.601288 0.466150 0.454378
Si Si6 0.565679 0.763043 0.774244
Si Si7 0.697577 0.313935 0.635251
Si Si8 0.897449 0.969799 0.913246
O O1 0.604486 0.775501 0.586417
O O2 0.667641 0.645222 0.459484
O O3 0.396511 0.795779 0.573488
O O4 0.700926 0.979684 0.471563
O O5 0.587462 0.230484 0.726411
O O6 0.449561 0.277945 0.876787
O O7 0.267903 0.125564 0.868368
O O8 0.529486 0.954569 0.810766
O O9 0.418981 0.480772 0.170182
O O10 0.481465 0.244064 0.239375
O O11 0.671787 0.481200 0.138478
O O12 0.769455 0.742728 0.695887
O O13 0.103793 0.749143 0.609863
O O14 0.015281 0.867091 0.539244
O O15 0.461720 0.497098 0.455227
O O16 0.495396 0.607489 0.837452
#
# Coordination Sequence:
#
# PCOD9138810 Si02
#       8
#     4   4   4   4   4   4   4   4
#     4  11  24  48  72 107 146 192 242 302 358 433
#     4  12  26  47  72 111 142 190 243 296 362 437
#     4   9  22  45  71 102 142 184 244 293 360 417
#     4   9  22  45  73 104 142 187 240 298 353 434
#     4  11  25  46  70 108 144 191 242 290 378 420
#     4  12  23  48  77 102 148 190 239 301 361 431
#     4  10  23  47  73 104 143 188 243 295 357 427
#     4  12  27  46  72 108 145 192 239 297 369 427
#
# _framework density 22.883507999999999
#
# number of rings (size 3 to 8) (size 9 to 14) (size 15 to 20)
#    0.750    0.500    2.500    3.000    1.750    4.000 
#    6.750    0.000    0.000    0.000    0.000    0.000 
#    0.000    0.000    0.000    0.000    0.000    0.000 
#
# Total GULP energy -89312.624763 kJ/mol
# GULP energy per Si atom -5582.039048 kJ/mol
# Density = 2.283142 g / cm^3
# Si number density = 22.883508 Si / 1000 Ang^3
#
#
#
# Elastic Constant Matrix: (Units=GPa)
#
#
# Indices 1 2 3 4 5 6 
#
# 1 110.6518 28.9421 64.6193 0.0000 -10.1911 0.0000
# 2 28.9421 77.0482 34.6595 0.0000 -1.1914 0.0000
# 3 64.6193 34.6595 96.1975 0.0000 -5.3800 0.0000
# 4 0.0000 0.0000 0.0000 19.5315 0.0000 6.9131
# 5 -10.1911 -1.1914 -5.3800 0.0000 39.7666 0.0000
# 6 0.0000 0.0000 0.0000 6.9131 0.0000 3.3280
#
#
#
# Elastic Compliance Matrix: (Units=1/GPa)
#
#
# Indices 1 2 3 4 5 6 
#
# 1 0.015237 -0.001366 -0.009600 0.000000 0.002565 0.000000
# 2 -0.001366 0.015615 -0.004738 0.000000 -0.000523 0.000000
# 3 -0.009600 -0.004738 0.018546 0.000000 -0.000093 0.000000
# 4 0.000000 0.000000 0.000000 0.193381 0.000000 -0.401703
# 5 0.002565 -0.000523 -0.000093 0.000000 0.025776 0.000000
# 6 0.000000 0.000000 0.000000 -0.401703 0.000000 1.134921
#
#
# Mechanical properties :
#
#
# Convention : Reuss Voigt Hill
#
# Bulk Modulus (GPa) = 55.58302 60.03767 57.81034
# Shear Modulus (GPa) = 3.47010 22.90367 13.18689
#
# Velocity S-wave (km/s) = 1.23277 3.16710 2.40315
# Velocity P-wave (km/s) = 5.13503 6.29819 5.74612
#
# Compressibility (1/GPa) = 0.01799111
#
# Stress axis : x y z
#
# Youngs Moduli (GPa) = 65.63019 64.04059 53.92102
#
# Poissons Ratio (x) = 0.08745 0.51763
# Poissons Ratio (y) = 0.08962 0.25548
# Poissons Ratio (z) = 0.63003 0.30343
#
# Static dielectric constant tensor:
#      x y z
#    x 1.834000 0.000000 -0.016750 
#    y 0.000000 1.944020 0.000000 
#    z -0.016750 0.000000 1.887890 
# 
# From -- ./inp_files/33211.got.cif
#   From: 2010.05.17/outbox.cif.g08.bks.cpg/sg9_17_cif.got.tgz:33211.got - 2010.06.03 20:04:27.
