data_PCOD9138105
_publ_section_title
;
Structure prediction by ZEFSAII (Michael W. Deem and Ramdas Pophale) SiO2 
 PCOD9138105
Probable space group: C C
;
_chemical_formula_sum "Si O2"
_cell_formula_units_Z 24
_cell_length_a 9.485821
_cell_length_b 21.739490
_cell_length_c 5.324742
_cell_angle_alpha 90.000000
_cell_angle_beta 120.387724
_cell_angle_gamma 90.000000
_cell_volume 947.203757
_symmetry_space_group_name_H-M "C C"
_symmetry_group_IT_number 9
_symmetry_cell_setting 'monoclinic'
loop_
_space_group_symop_operation_xyz
x,y,z
x,-y,1/2+z
1/2+x,1/2+y,z
1/2+x,1/2-y,1/2+z
loop_
_atom_site_type_symbol
_atom_site_label
_atom_site_fract_x
_atom_site_fract_y
_atom_site_fract_z
Si Si1 0.948860 0.674214 0.482080
Si Si2 0.199706 0.145275 0.613088
Si Si3 0.107527 0.280438 0.638505
Si Si4 0.673084 0.053611 0.689067
Si Si5 0.855111 0.527952 0.927186
Si Si6 0.837195 0.100150 0.343900
O O1 0.763865 0.657185 0.387823
O O2 0.990597 0.711497 0.272473
O O3 0.046655 0.610523 0.550621
O O4 0.017567 0.709528 0.790296
O O5 0.177680 0.212261 0.707721
O O6 0.334367 0.100085 0.860094
O O7 0.028595 0.111308 0.485811
O O8 0.245058 0.333770 0.776398
O O9 0.542466 0.002920 0.100749
O O10 0.793194 0.063326 0.559186
O O11 0.772630 0.067260 0.033429
O O12 0.779431 0.505869 0.118377
#
# Coordination Sequence:
#
# PCOD9138105 Si02
#       6
#     4   4   4   4   4   4
#     4  10  23  43  74 100 153 203 247 298 386 467
#     4  12  26  46  79 118 156 195 264 323 383 449
#     4  10  24  44  71 113 153 203 241 313 389 468
#     4  10  22  49  70  98 149 203 254 300 381 455
#     4  12  27  47  77 109 147 210 265 304 377 472
#     4  10  24  45  75 112 148 190 257 322 376 441
#
# _framework density 25.337737000000001
#
# number of rings (size 3 to 8) (size 9 to 14) (size 15 to 20)
#    0.000    1.333    1.667    2.000    4.667   10.667 
#    0.000    5.000    0.000    0.000    0.000    0.000 
#    0.000    0.000    0.000    0.000    0.000    0.000 
#
# Total GULP energy -67214.221884 kJ/mol
# GULP energy per Si atom -5601.185157 kJ/mol
# Density = 2.528007 g / cm^3
# Si number density = 25.337737 Si / 1000 Ang^3
#
#
#
# Elastic Constant Matrix: (Units=GPa)
#
#
# Indices 1 2 3 4 5 6 
#
# 1 193.3432 66.0388 75.1067 0.0000 -18.4265 0.0000
# 2 66.0388 191.0167 50.0295 0.0000 2.0998 0.0000
# 3 75.1067 50.0295 133.3778 0.0000 -24.5255 0.0000
# 4 0.0000 0.0000 0.0000 23.9306 0.0000 4.2148
# 5 -18.4265 2.0998 -24.5255 0.0000 41.3275 0.0000
# 6 0.0000 0.0000 0.0000 4.2148 0.0000 44.5812
#
#
#
# Elastic Compliance Matrix: (Units=1/GPa)
#
#
# Indices 1 2 3 4 5 6 
#
# 1 0.007076 -0.001647 -0.003111 0.000000 0.001392 0.000000
# 2 -0.001647 0.006308 -0.001833 0.000000 -0.002142 0.000000
# 3 -0.003111 -0.001833 0.010887 0.000000 0.005167 0.000000
# 4 0.000000 0.000000 0.000000 0.042495 0.000000 -0.004018
# 5 0.001392 -0.002142 0.005167 0.000000 0.027993 0.000000
# 6 0.000000 0.000000 0.000000 -0.004018 0.000000 0.022811
#
#
# Mechanical properties :
#
#
# Convention : Reuss Voigt Hill
#
# Bulk Modulus (GPa) = 90.17103 100.00974 95.09039
# Shear Modulus (GPa) = 37.18956 43.73870 40.46413
#
# Velocity S-wave (km/s) = 3.83528 4.15930 4.00057
# Velocity P-wave (km/s) = 7.43488 7.91345 7.67789
#
# Compressibility (1/GPa) = 0.01109004
#
# Stress axis : x y z
#
# Youngs Moduli (GPa) = 141.32806 158.52755 91.85544
#
# Poissons Ratio (x) = 0.26107 0.28573
# Poissons Ratio (y) = 0.23274 0.16834
# Poissons Ratio (z) = 0.43962 0.29054
#
# Static dielectric constant tensor:
#      x y z
#    x 1.994760 0.000000 -0.044020 
#    y 0.000000 2.018040 0.000000 
#    z -0.044020 0.000000 2.119000 
# 
# From -- ./inp_files/777.got.cif
#   From: 2010.05.17/outbox.cif.g08.bks.cpg/sg9_1_cif.got.tgz:777.got - 2010.06.03 20:04:27.
