data_PCOD9138297
_publ_section_title
;
Structure prediction by ZEFSAII (Michael W. Deem and Ramdas Pophale) SiO2 
 PCOD9138297
Probable space group: C C
;
_chemical_formula_sum "Si O2"
_cell_formula_units_Z 28
_cell_length_a 10.580964
_cell_length_b 15.438898
_cell_length_c 11.923497
_cell_angle_alpha 90.000000
_cell_angle_beta 35.870565
_cell_angle_gamma 90.000000
_cell_volume 1141.327506
_symmetry_space_group_name_H-M "C C"
_symmetry_group_IT_number 9
_symmetry_cell_setting 'monoclinic'
loop_
_space_group_symop_operation_xyz
x,y,z
x,-y,1/2+z
1/2+x,1/2+y,z
1/2+x,1/2-y,1/2+z
loop_
_atom_site_type_symbol
_atom_site_label
_atom_site_fract_x
_atom_site_fract_y
_atom_site_fract_z
Si Si1 0.187210 0.206628 0.988930
Si Si2 0.457994 0.564916 0.737224
Si Si3 0.888046 0.333783 0.871258
Si Si4 0.062942 0.901083 0.764798
Si Si5 0.609864 0.888851 0.112973
Si Si6 0.859743 0.155781 0.031883
Si Si7 0.491727 0.071721 0.081710
O O1 0.405816 0.151480 0.821674
O O2 0.028587 0.170940 0.007700
O O3 0.119787 0.189473 0.166115
O O4 0.168117 0.310313 0.984794
O O5 0.670251 0.612562 0.544093
O O6 0.496869 0.462969 0.708417
O O7 0.436179 0.586526 0.885912
O O8 0.223511 0.589171 0.857617
O O9 0.849788 0.243499 0.962430
O O10 0.121089 0.365993 0.749166
O O11 0.937410 0.347662 0.703546
O O12 0.279921 0.938342 0.660902
O O13 0.848810 0.898524 0.995349
O O14 0.535316 0.981402 0.116985
#
# Coordination Sequence:
#
# PCOD9138297 Si02
#       7
#     4   4   4   4   4   4   4
#     4  12  24  42  70 104 135 179 229 290 350 406
#     4  10  23  42  67  97 134 178 229 285 346 402
#     4  11  22  41  66 100 133 178 227 287 346 402
#     4  11  25  45  68  97 143 183 222 289 350 411
#     4  11  24  45  68 102 139 181 234 283 342 414
#     4  11  23  38  69 104 130 172 236 292 337 410
#     4  10  25  45  66 100 138 183 235 280 343 425
#
# _framework density 24.532834999999999
#
# number of rings (size 3 to 8) (size 9 to 14) (size 15 to 20)
#    0.000    1.143    2.857    2.571    2.000    2.286 
#    5.143    0.000    0.000    0.000    0.000    0.000 
#    0.000    0.000    0.000    0.000    0.000    0.000 
#
# Total GULP energy -78065.726989 kJ/mol
# GULP energy per Si atom -5576.123356 kJ/mol
# Density = 2.447700 g / cm^3
# Si number density = 24.532835 Si / 1000 Ang^3
#
#
#
# Elastic Constant Matrix: (Units=GPa)
#
#
# Indices 1 2 3 4 5 6 
#
# 1 55.9834 16.2266 51.0700 -0.0012 -28.2607 -0.0003
# 2 16.2266 80.1780 21.3656 0.0017 -0.1240 0.0009
# 3 51.0700 21.3656 183.3955 -0.0102 -42.3460 0.0048
# 4 -0.0012 0.0017 -0.0102 37.8972 0.0043 -5.2389
# 5 -28.2607 -0.1240 -42.3460 0.0043 38.9321 -0.0013
# 6 -0.0003 0.0009 0.0048 -5.2389 -0.0013 21.0549
#
#
#
# Elastic Compliance Matrix: (Units=1/GPa)
#
#
# Indices 1 2 3 4 5 6 
#
# 1 0.033043 -0.005584 -0.004028 -0.000002 0.019586 0.000002
# 2 -0.005584 0.013948 -0.001330 -0.000001 -0.005455 -0.000001
# 3 -0.004028 -0.001330 0.008083 0.000001 0.005864 -0.000001
# 4 -0.000002 -0.000001 0.000001 0.027327 -0.000003 0.006800
# 5 0.019586 -0.005455 0.005864 -0.000003 0.046264 0.000001
# 6 0.000002 -0.000001 -0.000001 0.006800 0.000001 0.049187
#
#
# Mechanical properties :
#
#
# Convention : Reuss Voigt Hill
#
# Bulk Modulus (GPa) = 30.12853 55.20903 42.66878
# Shear Modulus (GPa) = 23.71924 34.96981 29.34452
#
# Velocity S-wave (km/s) = 3.11277 3.77958 3.46227
# Velocity P-wave (km/s) = 5.02262 6.44980 5.78043
#
# Compressibility (1/GPa) = 0.03319113
#
# Stress axis : x y z
#
# Youngs Moduli (GPa) = 30.26360 71.69413 123.71140
#
# Poissons Ratio (x) = 0.40031 0.49837
# Poissons Ratio (y) = 0.16898 0.16449
# Poissons Ratio (z) = 0.12192 0.09533
#
# Static dielectric constant tensor:
#      x y z
#    x 1.943470 0.000000 -0.009740 
#    y 0.000000 1.991320 0.000000 
#    z -0.009740 0.000000 2.071230 
# 
# From -- ./inp_files/24894.got.cif
#   From: 2010.05.17/outbox.cif.g08.bks.cpg/sg9_13_cif.got.tgz:24894.got - 2010.06.03 20:04:27.
