data_PCOD9138806
_publ_section_title
;
Structure prediction by ZEFSAII (Michael W. Deem and Ramdas Pophale) SiO2 
 PCOD9138806
Probable space group: C C
;
_chemical_formula_sum "Si O2"
_cell_formula_units_Z 20
_cell_length_a 6.410108
_cell_length_b 13.854283
_cell_length_c 9.784354
_cell_angle_alpha 90.000000
_cell_angle_beta 124.525537
_cell_angle_gamma 90.000000
_cell_volume 715.883207
_symmetry_space_group_name_H-M "C C"
_symmetry_group_IT_number 9
_symmetry_cell_setting 'monoclinic'
loop_
_space_group_symop_operation_xyz
x,y,z
x,-y,1/2+z
1/2+x,1/2+y,z
1/2+x,1/2-y,1/2+z
loop_
_atom_site_type_symbol
_atom_site_label
_atom_site_fract_x
_atom_site_fract_y
_atom_site_fract_z
Si Si1 0.611170 0.348064 0.558950
Si Si2 0.112811 0.034052 0.724178
Si Si3 0.369992 0.791876 0.193213
Si Si4 0.073025 0.557110 0.559945
Si Si5 0.638911 0.214539 0.343974
O O1 0.611234 0.458037 0.599170
O O2 0.443534 0.290480 0.609563
O O3 0.530944 0.308407 0.383776
O O4 0.907065 0.318232 0.663186
O O5 0.348660 0.008151 0.912078
O O6 0.145954 0.140027 0.671757
O O7 0.841416 0.008935 0.689322
O O8 0.390302 0.732375 0.345924
O O9 0.506883 0.882121 0.169858
O O10 0.128498 0.632805 0.457303
#
# Coordination Sequence:
#
# PCOD9138806 Si02
#       5
#     4   4   4   4   4
#     4  10  25  44  74 110 152 207 263 318 401 473
#     4  11  26  47  76 114 159 200 274 319 398 480
#     4  11  24  45  78 104 164 201 255 331 390 468
#     4  10  26  49  76 120 151 207 265 325 400 481
#     4  10  23  47  72 110 148 203 263 319 397 474
#
# _framework density 27.937518000000001
#
# number of rings (size 3 to 8) (size 9 to 14) (size 15 to 20)
#    0.000    1.600    0.000    2.400    5.600   14.400 
#    0.000    0.000    0.000    0.000    0.000    0.000 
#    0.000    0.000    0.000    0.000    0.000    0.000 
#
# Total GULP energy -55756.860716 kJ/mol
# GULP energy per Si atom -5575.686072 kJ/mol
# Density = 2.787393 g / cm^3
# Si number density = 27.937518 Si / 1000 Ang^3
#
#
#
# Elastic Constant Matrix: (Units=GPa)
#
#
# Indices 1 2 3 4 5 6 
#
# 1 180.5368 29.8184 78.4781 0.0000 -40.4335 0.0000
# 2 29.8184 102.2895 20.4863 0.0000 -13.1885 0.0000
# 3 78.4781 20.4863 95.0484 0.0000 -1.8026 0.0000
# 4 0.0000 0.0000 0.0000 28.6446 0.0000 -7.7887
# 5 -40.4335 -13.1885 -1.8026 0.0000 75.5803 0.0000
# 6 0.0000 0.0000 0.0000 -7.7887 0.0000 42.1336
#
#
#
# Elastic Compliance Matrix: (Units=1/GPa)
#
#
# Indices 1 2 3 4 5 6 
#
# 1 0.010499 -0.000692 -0.008419 0.000000 0.005295 0.000000
# 2 -0.000692 0.010494 -0.001664 0.000000 0.001422 0.000000
# 3 -0.008419 -0.001664 0.017748 0.000000 -0.004371 0.000000
# 4 0.000000 0.000000 0.000000 0.036758 0.000000 0.006795
# 5 0.005295 0.001422 -0.004371 0.000000 0.016208 0.000000
# 6 0.000000 0.000000 0.000000 0.006795 0.000000 0.024990
#
#
# Mechanical properties :
#
#
# Convention : Reuss Voigt Hill
#
# Bulk Modulus (GPa) = 58.16642 70.60448 64.38545
# Shear Modulus (GPa) = 34.72777 45.87783 40.30280
#
# Velocity S-wave (km/s) = 3.52952 4.05675 3.80228
# Velocity P-wave (km/s) = 6.12171 6.87533 6.50944
#
# Compressibility (1/GPa) = 0.01719205
#
# Stress axis : x y z
#
# Youngs Moduli (GPa) = 95.24807 95.28966 56.34433
#
# Poissons Ratio (x) = 0.06591 0.47437
# Poissons Ratio (y) = 0.06588 0.09375
# Poissons Ratio (z) = 0.80190 0.15855
#
# Static dielectric constant tensor:
#      x y z
#    x 2.227060 0.000000 0.022920 
#    y 0.000000 2.186840 0.000000 
#    z 0.022920 0.000000 2.344010 
# 
# From -- ./inp_files/13034.got.cif
#   From: 2010.05.17/outbox.cif.g08.bks.cpg/sg9_7_cif.got.tgz:13034.got - 2010.06.03 20:04:27.
