data_PCOD9138966
_publ_section_title
;
Structure prediction by ZEFSAII (Michael W. Deem and Ramdas Pophale) SiO2 
 PCOD9138966
Probable space group: C C
;
_chemical_formula_sum "Si O2"
_cell_formula_units_Z 28
_cell_length_a 11.802831
_cell_length_b 9.143478
_cell_length_c 11.976592
_cell_angle_alpha 90.000000
_cell_angle_beta 67.144824
_cell_angle_gamma 90.000000
_cell_volume 1191.026105
_symmetry_space_group_name_H-M "C C"
_symmetry_group_IT_number 9
_symmetry_cell_setting 'monoclinic'
loop_
_space_group_symop_operation_xyz
x,y,z
x,-y,1/2+z
1/2+x,1/2+y,z
1/2+x,1/2-y,1/2+z
loop_
_atom_site_type_symbol
_atom_site_label
_atom_site_fract_x
_atom_site_fract_y
_atom_site_fract_z
Si Si1 0.674570 0.546752 0.000000
Si Si2 0.480523 0.628339 0.693250
Si Si3 0.201589 0.782149 0.261697
Si Si4 0.753593 0.210168 0.645841
Si Si5 0.333484 0.545691 0.949332
Si Si6 0.380046 0.138967 0.512641
Si Si7 0.131430 0.524944 0.864679
O O1 0.547629 0.465381 0.073093
O O2 0.708059 0.653794 0.090920
O O3 0.782935 0.428275 0.962805
O O4 0.673604 0.634203 0.886232
O O5 0.589506 0.710999 0.716249
O O6 0.370645 0.726275 0.684616
O O7 0.422701 0.522453 0.809647
O O8 0.316970 0.859379 0.158292
O O9 0.211681 0.612151 0.287907
O O10 0.642466 0.144409 0.762947
O O11 0.804086 0.089953 0.538865
O O12 0.201329 0.585803 0.945703
O O13 0.389271 0.689103 0.985015
O O14 0.502739 0.045494 0.449568
#
# Coordination Sequence:
#
# PCOD9138966 Si02
#       7
#     4   4   4   4   4   4   4
#     4  11  26  46  71 109 141 189 244 298 362 432
#     4  10  24  42  72  98 146 185 235 299 356 420
#     4  11  22  46  70 101 142 189 235 295 369 418
#     4  11  24  44  69 105 141 189 245 288 365 432
#     4  11  22  41  72  99 141 190 238 290 365 424
#     4  11  26  44  70 107 145 186 239 308 358 432
#     4  11  24  43  72 105 142 190 238 298 361 436
#
# _framework density 23.509138
#
# number of rings (size 3 to 8) (size 9 to 14) (size 15 to 20)
#    0.000    1.143    4.286    0.857    0.000    9.143 
#    0.000    0.000    0.000    0.000    0.000    0.000 
#    0.000    0.000    0.000    0.000    0.000    0.000 
#
# Total GULP energy -78285.784324 kJ/mol
# GULP energy per Si atom -5591.841737 kJ/mol
# Density = 2.345563 g / cm^3
# Si number density = 23.509138 Si / 1000 Ang^3
#
#
#
# Elastic Constant Matrix: (Units=GPa)
#
#
# Indices 1 2 3 4 5 6 
#
# 1 96.0030 23.6948 37.9487 0.0000 -14.7830 0.0000
# 2 23.6948 52.1972 4.2588 0.0000 3.1409 0.0000
# 3 37.9487 4.2588 87.6030 0.0000 -5.6719 0.0000
# 4 0.0000 0.0000 0.0000 13.2120 0.0000 -7.0643
# 5 -14.7830 3.1409 -5.6719 0.0000 38.4433 0.0000
# 6 0.0000 0.0000 0.0000 -7.0643 0.0000 14.7668
#
#
#
# Elastic Compliance Matrix: (Units=1/GPa)
#
#
# Indices 1 2 3 4 5 6 
#
# 1 0.015296 -0.006794 -0.005936 0.000000 0.005561 0.000000
# 2 -0.006794 0.022366 0.001583 0.000000 -0.004206 0.000000
# 3 -0.005936 0.001583 0.013886 0.000000 -0.000363 0.000000
# 4 0.000000 0.000000 0.000000 0.101704 0.000000 0.048654
# 5 0.005561 -0.004206 -0.000363 0.000000 0.028441 0.000000
# 6 0.000000 0.000000 0.000000 0.048654 0.000000 0.090995
#
#
# Mechanical properties :
#
#
# Convention : Reuss Voigt Hill
#
# Bulk Modulus (GPa) = 34.18156 40.84531 37.51343
# Shear Modulus (GPa) = 16.40786 24.61115 20.50950
#
# Velocity S-wave (km/s) = 2.64471 3.23906 2.95686
# Velocity P-wave (km/s) = 4.88848 5.60362 5.25822
#
# Compressibility (1/GPa) = 0.02925554
#
# Stress axis : x y z
#
# Youngs Moduli (GPa) = 65.37766 44.71059 72.01558
#
# Poissons Ratio (x) = 0.30376 0.42746
# Poissons Ratio (y) = 0.44416 -0.11403
# Poissons Ratio (z) = 0.38806 -0.07079
#
# Static dielectric constant tensor:
#      x y z
#    x 1.923600 0.000000 -0.005260 
#    y 0.000000 1.865900 0.000000 
#    z -0.005260 0.000000 1.956450 
# 
# From -- ./inp_files/17884.got.cif
#   From: 2010.05.17/outbox.cif.g08.bks.cpg/sg9_9_cif.got.tgz:17884.got - 2010.06.03 20:04:27.
