data_PCOD9138278
_publ_section_title
;
Structure prediction by ZEFSAII (Michael W. Deem and Ramdas Pophale) SiO2 
 PCOD9138278
Probable space group: C C
;
_chemical_formula_sum "Si O2"
_cell_formula_units_Z 32
_cell_length_a 5.105408
_cell_length_b 35.605240
_cell_length_c 8.600924
_cell_angle_alpha 90.000000
_cell_angle_beta 120.354213
_cell_angle_gamma 90.000000
_cell_volume 1349.145847
_symmetry_space_group_name_H-M "C C"
_symmetry_group_IT_number 9
_symmetry_cell_setting 'monoclinic'
loop_
_space_group_symop_operation_xyz
x,y,z
x,-y,1/2+z
1/2+x,1/2+y,z
1/2+x,1/2-y,1/2+z
loop_
_atom_site_type_symbol
_atom_site_label
_atom_site_fract_x
_atom_site_fract_y
_atom_site_fract_z
Si Si1 0.517670 0.708108 0.707760
Si Si2 0.545952 0.789793 0.598435
Si Si3 0.777203 0.982673 0.834516
Si Si4 0.623762 0.666065 0.183881
Si Si5 0.216155 0.640068 0.810364
Si Si6 0.899993 0.919366 0.118567
Si Si7 0.870027 0.530164 0.919291
Si Si8 0.104311 0.851365 0.015572
O O1 0.453422 0.751770 0.660436
O O2 0.330418 0.679121 0.761561
O O3 0.474345 0.688680 0.526942
O O4 0.850897 0.710742 0.882593
O O5 0.890800 0.799492 0.654652
O O6 0.403979 0.822657 0.661250
O O7 0.592265 0.965207 0.634052
O O8 0.575189 0.016768 0.837355
O O9 0.106600 0.999174 0.883270
O O10 0.790471 0.955679 0.989987
O O11 0.727324 0.650770 0.380092
O O12 0.414209 0.637415 0.023870
O O13 0.233034 0.604460 0.701664
O O14 0.860187 0.644391 0.725235
O O15 0.193179 0.933861 0.301423
O O16 0.918707 0.888607 0.986571
#
# Coordination Sequence:
#
# PCOD9138278 Si02
#       8
#     4   4   4   4   4   4   4   4
#     4  10  23  42  66 100 136 182 231 298 339 416
#     4  11  24  42  70 100 134 180 239 288 358 390
#     4  12  25  48  75 108 141 179 229 287 348 412
#     4  11  26  45  68 102 137 184 234 292 336 417
#     4  10  25  46  65  99 146 182 234 281 345 420
#     4  11  27  45  72 105 140 190 226 286 351 417
#     4  12  25  48  76 106 144 176 230 288 345 415
#     4  11  25  44  70  96 146 183 233 280 350 415
#
# _framework density 23.718713000000001
#
# number of rings (size 3 to 8) (size 9 to 14) (size 15 to 20)
#    0.000    1.000    3.750    0.750   10.500    3.000 
#    0.000    0.000    0.000    0.000    0.000    0.000 
#    0.000    0.000    0.000    0.000    0.000    0.000 
#
# Total GULP energy -89262.701886 kJ/mol
# GULP energy per Si atom -5578.918868 kJ/mol
# Density = 2.366473 g / cm^3
# Si number density = 23.718713 Si / 1000 Ang^3
#
#
#
# Elastic Constant Matrix: (Units=GPa)
#
#
# Indices 1 2 3 4 5 6 
#
# 1 58.5527 -3.2275 -1.5288 0.0000 1.8851 0.0000
# 2 -3.2275 62.2572 7.5915 0.0000 -1.2959 0.0000
# 3 -1.5288 7.5915 131.1019 0.0000 -1.4885 0.0000
# 4 0.0000 0.0000 0.0000 29.4766 0.0000 1.6994
# 5 1.8851 -1.2959 -1.4885 0.0000 35.0492 0.0000
# 6 0.0000 0.0000 0.0000 1.6994 0.0000 12.4107
#
#
#
# Elastic Compliance Matrix: (Units=1/GPa)
#
#
# Indices 1 2 3 4 5 6 
#
# 1 0.017158 0.000854 0.000141 0.000000 -0.000885 0.000000
# 2 0.000854 0.016230 -0.000924 0.000000 0.000515 0.000000
# 3 0.000141 -0.000924 0.007686 0.000000 0.000285 0.000000
# 4 0.000000 0.000000 0.000000 0.034195 0.000000 -0.004682
# 5 -0.000885 0.000515 0.000285 0.000000 0.028610 0.000000
# 6 0.000000 0.000000 0.000000 -0.004682 0.000000 0.081217
#
#
# Mechanical properties :
#
#
# Convention : Reuss Voigt Hill
#
# Bulk Modulus (GPa) = 24.26303 28.62024 26.44164
# Shear Modulus (GPa) = 25.16444 31.99239 28.57842
#
# Velocity S-wave (km/s) = 3.26076 3.67662 3.47492
# Velocity P-wave (km/s) = 4.94251 5.48781 5.22229
#
# Compressibility (1/GPa) = 0.04121496
#
# Stress axis : x y z
#
# Youngs Moduli (GPa) = 58.28223 61.61413 130.10613
#
# Poissons Ratio (x) = -0.05261 -0.01829
# Poissons Ratio (y) = -0.04977 0.12022
# Poissons Ratio (z) = -0.00819 0.05693
#
# Static dielectric constant tensor:
#      x y z
#    x 1.925300 0.000000 0.027430 
#    y 0.000000 1.971090 0.000000 
#    z 0.027430 0.000000 1.892180 
# 
# From -- ./inp_files/4556.got.cif
#   From: 2010.05.17/outbox.cif.g08.bks.cpg/sg9_3_cif.got.tgz:4556.got - 2010.06.03 20:04:27.
