data_PCOD9138813
_publ_section_title
;
Structure prediction by ZEFSAII (Michael W. Deem and Ramdas Pophale) SiO2 
 PCOD9138813
Probable space group: C C
;
_chemical_formula_sum "Si O2"
_cell_formula_units_Z 24
_cell_length_a 21.443810
_cell_length_b 5.084131
_cell_length_c 15.652793
_cell_angle_alpha 90.000000
_cell_angle_beta 36.535618
_cell_angle_gamma 90.000000
_cell_volume 1015.927559
_symmetry_space_group_name_H-M "C C"
_symmetry_group_IT_number 9
_symmetry_cell_setting 'monoclinic'
loop_
_space_group_symop_operation_xyz
x,y,z
x,-y,1/2+z
1/2+x,1/2+y,z
1/2+x,1/2-y,1/2+z
loop_
_atom_site_type_symbol
_atom_site_label
_atom_site_fract_x
_atom_site_fract_y
_atom_site_fract_z
Si Si1 0.811590 0.359307 0.431110
Si Si2 0.200443 0.496845 0.669699
Si Si3 0.971367 0.105056 0.136785
Si Si4 0.584828 0.616540 0.677600
Si Si5 0.011634 0.607198 0.985919
Si Si6 0.895362 0.278124 0.971926
O O1 0.862520 0.211228 0.295890
O O2 0.694294 0.462526 0.550454
O O3 0.885188 0.585890 0.388907
O O4 0.795139 0.158939 0.526075
O O5 0.130366 0.390373 0.667395
O O6 0.125145 0.642176 0.817561
O O7 0.273864 0.274887 0.630774
O O8 0.033672 0.960207 0.144109
O O9 0.022934 0.372384 0.043602
O O10 0.964825 0.877025 0.073408
O O11 0.491462 0.571266 0.849821
O O12 0.938360 0.475383 0.995567
#
# Coordination Sequence:
#
# PCOD9138813 Si02
#       6
#     4   4   4   4   4   4
#     4  11  25  45  81 102 137 203 257 292 362 454
#     4  10  24  45  75 103 137 202 254 290 362 456
#     4  12  27  49  70 113 153 188 235 321 376 428
#     4  10  24  45  75 104 143 193 251 302 357 446
#     4  11  29  45  72 110 156 187 240 313 384 424
#     4  10  23  47  75 106 144 199 253 306 357 454
#
# _framework density 23.623729999999998
#
# number of rings (size 3 to 8) (size 9 to 14) (size 15 to 20)
#    0.000    1.333    1.667    1.000   18.667    1.333 
#    0.000    0.000    0.000    0.000    0.000    0.000 
#    0.000    0.000    0.000    0.000    0.000    0.000 
#
# Total GULP energy -66866.840926 kJ/mol
# GULP energy per Si atom -5572.236744 kJ/mol
# Density = 2.356996 g / cm^3
# Si number density = 23.623730 Si / 1000 Ang^3
#
#
#
# Elastic Constant Matrix: (Units=GPa)
#
#
# Indices 1 2 3 4 5 6 
#
# 1 51.1528 -0.7069 24.3420 -0.1175 -9.9683 -0.0874
# 2 -0.7069 74.4725 54.3502 -0.1103 1.3747 -0.1782
# 3 24.3420 54.3502 148.9651 -0.0972 -4.9145 -0.0293
# 4 -0.1175 -0.1103 -0.0972 48.6979 -0.0264 9.4556
# 5 -9.9683 1.3747 -4.9145 -0.0264 24.4904 -0.0085
# 6 -0.0874 -0.1782 -0.0293 9.4556 -0.0085 11.7069
#
#
#
# Elastic Compliance Matrix: (Units=1/GPa)
#
#
# Indices 1 2 3 4 5 6 
#
# 1 0.023573 0.003650 -0.004906 0.000019 0.008405 0.000210
# 2 0.003650 0.019006 -0.007567 -0.000025 -0.001100 0.000317
# 3 -0.004906 -0.007567 0.010292 0.000019 0.000493 -0.000141
# 4 0.000019 -0.000025 0.000019 0.024354 0.000033 -0.019671
# 5 0.008405 -0.001100 0.000493 0.000033 0.044414 0.000053
# 6 0.000210 0.000317 -0.000141 -0.019671 0.000053 0.101314
#
#
# Mechanical properties :
#
#
# Convention : Reuss Voigt Hill
#
# Bulk Modulus (GPa) = 28.39019 47.84013 38.11516
# Shear Modulus (GPa) = 19.81443 30.08605 24.95024
#
# Velocity S-wave (km/s) = 2.89926 3.57256 3.25337
# Velocity P-wave (km/s) = 4.82197 6.10839 5.50290
#
# Compressibility (1/GPa) = 0.03522344
#
# Stress axis : x y z
#
# Youngs Moduli (GPa) = 42.42178 52.61553 97.16528
#
# Poissons Ratio (x) = -0.19203 0.47671
# Poissons Ratio (y) = -0.15483 0.73524
# Poissons Ratio (z) = 0.20813 0.39814
#
# Static dielectric constant tensor:
#      x y z
#    x 1.963920 0.000600 0.056320 
#    y 0.000600 3.324540 0.000320 
#    z 0.056320 0.000320 1.910920 
# 
# From -- ./inp_files/18740.got.cif
#   From: 2010.05.17/outbox.cif.g08.bks.cpg/sg9_10_cif.got.tgz:18740.got - 2010.06.03 20:04:27.
