data_PCOD9138479
_publ_section_title
;
Structure prediction by ZEFSAII (Michael W. Deem and Ramdas Pophale) SiO2 
 PCOD9138479
Probable space group: C C
;
_chemical_formula_sum "Si O2"
_cell_formula_units_Z 28
_cell_length_a 14.949532
_cell_length_b 14.149175
_cell_length_c 8.739071
_cell_angle_alpha 90.000000
_cell_angle_beta 33.897225
_cell_angle_gamma 90.000000
_cell_volume 1030.928272
_symmetry_space_group_name_H-M "C C"
_symmetry_group_IT_number 9
_symmetry_cell_setting 'monoclinic'
loop_
_space_group_symop_operation_xyz
x,y,z
x,-y,1/2+z
1/2+x,1/2+y,z
1/2+x,1/2-y,1/2+z
loop_
_atom_site_type_symbol
_atom_site_label
_atom_site_fract_x
_atom_site_fract_y
_atom_site_fract_z
Si Si1 0.029260 0.802691 0.936110
Si Si2 0.741408 0.789575 0.589327
Si Si3 0.448240 0.871276 0.835924
Si Si4 0.355008 0.379850 0.711601
Si Si5 0.383982 0.802127 0.383826
Si Si6 0.865246 0.507791 0.712595
Si Si7 0.999934 0.987694 0.768018
O O1 0.214683 0.795609 0.715294
O O2 0.003222 0.897639 0.875307
O O3 0.009514 0.720274 0.837504
O O4 0.899698 0.803755 0.256197
O O5 0.593161 0.807846 0.689524
O O6 0.781895 0.685078 0.593307
O O7 0.721032 0.851417 0.774079
O O8 0.443062 0.915974 0.676727
O O9 0.452750 0.962336 0.936201
O O10 0.395746 0.282910 0.742213
O O11 0.365895 0.459902 0.830173
O O12 0.473412 0.423936 0.416494
O O13 0.378375 0.900823 0.304199
O O14 0.675779 0.497631 0.947645
#
# Coordination Sequence:
#
# PCOD9138479 Si02
#       7
#     4   4   4   4   4   4   4
#     4  10  23  46  70 111 149 205 259 325 398 481
#     4  12  28  48  78 114 157 213 268 332 400 482
#     4  12  30  49  80 110 165 207 274 329 409 475
#     4  11  23  44  78 116 158 204 273 324 396 487
#     4  10  23  45  78 106 156 205 257 328 404 475
#     4  11  26  47  74 115 157 207 260 335 398 476
#     4  10  23  43  78 114 152 209 263 325 401 490
#
# _framework density 27.159991000000002
#
# number of rings (size 3 to 8) (size 9 to 14) (size 15 to 20)
#    0.000    1.143    1.429    2.571    8.000    3.429 
#    2.571    0.000    0.000    0.000    0.000    0.000 
#    0.000    0.000    0.000    0.000    0.000    0.000 
#
# Total GULP energy -78317.174333 kJ/mol
# GULP energy per Si atom -5594.083881 kJ/mol
# Density = 2.709817 g / cm^3
# Si number density = 27.159991 Si / 1000 Ang^3
#
#
#
# Elastic Constant Matrix: (Units=GPa)
#
#
# Indices 1 2 3 4 5 6 
#
# 1 140.2800 76.2711 39.5220 0.0001 6.7797 0.0000
# 2 76.2711 95.2836 33.4978 0.0000 3.6434 0.0000
# 3 39.5220 33.4978 73.7924 0.0000 13.5793 0.0000
# 4 0.0001 0.0000 0.0000 48.9173 0.0000 30.7897
# 5 6.7797 3.6434 13.5793 0.0000 38.6696 0.0000
# 6 0.0000 0.0000 0.0000 30.7897 0.0000 59.2463
#
#
#
# Elastic Compliance Matrix: (Units=1/GPa)
#
#
# Indices 1 2 3 4 5 6 
#
# 1 0.013059 -0.009528 -0.002580 0.000000 -0.000486 0.000000
# 2 -0.009528 0.019467 -0.003960 0.000000 0.001227 0.000000
# 3 -0.002580 -0.003960 0.017724 0.000000 -0.005399 0.000000
# 4 0.000000 0.000000 0.000000 0.030380 0.000000 -0.015788
# 5 -0.000486 0.001227 -0.005399 0.000000 0.027726 0.000000
# 6 0.000000 0.000000 0.000000 -0.015788 0.000000 0.025084
#
#
# Mechanical properties :
#
#
# Convention : Reuss Voigt Hill
#
# Bulk Modulus (GPa) = 55.20104 67.54865 61.37485
# Shear Modulus (GPa) = 29.13529 40.03764 34.58647
#
# Velocity S-wave (km/s) = 3.27881 3.84362 3.57239
# Velocity P-wave (km/s) = 5.89089 6.68001 6.29782
#
# Compressibility (1/GPa) = 0.01811560
#
# Stress axis : x y z
#
# Youngs Moduli (GPa) = 76.57358 51.36907 56.42031
#
# Poissons Ratio (x) = 0.48945 0.14555
# Poissons Ratio (y) = 0.72959 0.22341
# Poissons Ratio (z) = 0.19754 0.20340
#
# Static dielectric constant tensor:
#      x y z
#    x 2.081090 0.000000 -0.008000 
#    y 0.000000 2.144410 0.000000 
#    z -0.008000 0.000000 2.127660 
# 
# From -- ./inp_files/9749.got.cif
#   From: 2010.05.17/outbox.cif.g08.bks.cpg/sg9_5_cif.got.tgz:9749.got - 2010.06.03 20:04:27.
