data_PCOD9138872
_publ_section_title
;
Structure prediction by ZEFSAII (Michael W. Deem and Ramdas Pophale) SiO2 
 PCOD9138872
Probable space group: C C
;
_chemical_formula_sum "Si O2"
_cell_formula_units_Z 28
_cell_length_a 13.971318
_cell_length_b 6.880835
_cell_length_c 14.027705
_cell_angle_alpha 90.000000
_cell_angle_beta 47.223451
_cell_angle_gamma 90.000000
_cell_volume 989.842001
_symmetry_space_group_name_H-M "C C"
_symmetry_group_IT_number 9
_symmetry_cell_setting 'monoclinic'
loop_
_space_group_symop_operation_xyz
x,y,z
x,-y,1/2+z
1/2+x,1/2+y,z
1/2+x,1/2-y,1/2+z
loop_
_atom_site_type_symbol
_atom_site_label
_atom_site_fract_x
_atom_site_fract_y
_atom_site_fract_z
Si Si1 0.481510 0.837931 0.085540
Si Si2 0.542653 0.385231 0.028537
Si Si3 0.371817 0.790107 0.340135
Si Si4 0.195570 0.497399 0.079117
Si Si5 0.417084 0.829537 0.926342
Si Si6 0.097515 0.031689 0.702005
Si Si7 0.237591 0.746753 0.728066
O O1 0.354136 0.805134 0.238454
O O2 0.567888 0.977940 0.096398
O O3 0.530696 0.620250 0.024341
O O4 0.462060 0.921113 0.995017
O O5 0.643481 0.290211 0.883448
O O6 0.391738 0.305347 0.137108
O O7 0.603508 0.385178 0.092286
O O8 0.271388 0.673851 0.471375
O O9 0.497407 0.649647 0.262671
O O10 0.383718 0.001029 0.375949
O O11 0.298692 0.674339 0.016175
O O12 0.182750 0.425199 0.196964
O O13 0.532561 0.700741 0.805548
O O14 0.216741 0.937438 0.676431
#
# Coordination Sequence:
#
# PCOD9138872 Si02
#       7
#     4   4   4   4   4   4   4
#     4  11  23  51  83 118 166 228 291 366 452 530
#     4  11  24  45  89 129 178 240 292 381 456 538
#     4  10  24  50  75 117 167 224 293 364 442 536
#     4  11  24  49  82 120 172 221 293 377 427 546
#     4  11  24  54  79 121 171 227 289 363 460 522
#     4  10  23  51  81 122 180 225 297 374 437 558
#     4  12  22  48  91 123 178 237 297 373 458 536
#
# _framework density 28.287341000000001
#
# number of rings (size 3 to 8) (size 9 to 14) (size 15 to 20)
#    0.000    1.143    5.714    0.857    0.000    1.143 
#   20.571    1.429    0.000    0.000    0.000    0.000 
#    0.000    0.000    0.000    0.000    0.000    0.000 
#
# Total GULP energy -78388.421707 kJ/mol
# GULP energy per Si atom -5599.172979 kJ/mol
# Density = 2.822296 g / cm^3
# Si number density = 28.287341 Si / 1000 Ang^3
#
#
#
# Elastic Constant Matrix: (Units=GPa)
#
#
# Indices 1 2 3 4 5 6 
#
# 1 161.3862 60.9254 97.0904 0.0000 -0.1034 0.0000
# 2 60.9254 170.4867 65.0701 0.0000 -1.1781 0.0000
# 3 97.0904 65.0701 252.8991 0.0000 25.5563 0.0000
# 4 0.0000 0.0000 0.0000 48.1837 0.0000 -5.8171
# 5 -0.1034 -1.1781 25.5563 0.0000 49.3859 0.0000
# 6 0.0000 0.0000 0.0000 -5.8171 0.0000 45.3427
#
#
#
# Elastic Compliance Matrix: (Units=1/GPa)
#
#
# Indices 1 2 3 4 5 6 
#
# 1 0.008749 -0.001969 -0.003007 0.000000 0.001527 0.000000
# 2 -0.001969 0.007002 -0.001121 0.000000 0.000743 0.000000
# 3 -0.003007 -0.001121 0.005698 0.000000 -0.002982 0.000000
# 4 0.000000 0.000000 0.000000 0.021080 0.000000 0.002704
# 5 0.001527 0.000743 -0.002982 0.000000 0.021813 0.000000
# 6 0.000000 0.000000 0.000000 0.002704 0.000000 0.022401
#
#
# Mechanical properties :
#
#
# Convention : Reuss Voigt Hill
#
# Bulk Modulus (GPa) = 108.02587 114.54930 111.28758
# Shear Modulus (GPa) = 49.00905 52.69488 50.85196
#
# Velocity S-wave (km/s) = 4.16690 4.32075 4.24452
# Velocity P-wave (km/s) = 7.83724 8.09164 7.96546
#
# Compressibility (1/GPa) = 0.00925704
#
# Stress axis : x y z
#
# Youngs Moduli (GPa) = 114.29440 142.81644 175.49336
#
# Poissons Ratio (x) = 0.28113 0.52767
# Poissons Ratio (y) = 0.22499 0.19672
# Poissons Ratio (z) = 0.34366 0.16009
#
# Static dielectric constant tensor:
#      x y z
#    x 2.257710 0.000000 -0.069520 
#    y 0.000000 2.280910 0.000000 
#    z -0.069520 0.000000 2.254160 
# 
# From -- ./inp_files/17703.got.cif
#   From: 2010.05.17/outbox.cif.g08.bks.cpg/sg9_9_cif.got.tgz:17703.got - 2010.06.03 20:04:27.
