data_PCOD9138564
_publ_section_title
;
Structure prediction by ZEFSAII (Michael W. Deem and Ramdas Pophale) SiO2 
 PCOD9138564
Probable space group: C C
;
_chemical_formula_sum "Si O2"
_cell_formula_units_Z 32
_cell_length_a 11.973148
_cell_length_b 7.912228
_cell_length_c 23.888573
_cell_angle_alpha 90.000000
_cell_angle_beta 143.926171
_cell_angle_gamma 90.000000
_cell_volume 1332.555290
_symmetry_space_group_name_H-M "C C"
_symmetry_group_IT_number 9
_symmetry_cell_setting 'monoclinic'
loop_
_space_group_symop_operation_xyz
x,y,z
x,-y,1/2+z
1/2+x,1/2+y,z
1/2+x,1/2-y,1/2+z
loop_
_atom_site_type_symbol
_atom_site_label
_atom_site_fract_x
_atom_site_fract_y
_atom_site_fract_z
Si Si1 0.738000 0.982910 0.039050
Si Si2 0.127670 0.109442 0.325132
Si Si3 0.975153 0.321068 0.350191
Si Si4 0.337037 0.970135 0.686572
Si Si5 0.688387 0.999771 0.639779
Si Si6 0.031542 0.713123 0.679727
Si Si7 0.205259 0.736386 0.332293
Si Si8 0.962436 0.148382 0.534754
O O1 0.678051 0.912803 0.074696
O O2 0.898343 0.127568 0.112275
O O3 0.570561 0.069829 0.937154
O O4 0.832325 0.849304 0.036672
O O5 0.141491 0.210397 0.388575
O O6 0.168064 0.218150 0.285370
O O7 0.902504 0.065651 0.234843
O O8 0.221924 0.929158 0.359181
O O9 0.895024 0.436065 0.267978
O O10 0.802504 0.223109 0.310744
O O11 0.401815 0.078011 0.659126
O O12 0.110994 0.992648 0.595230
O O13 0.484410 0.814702 0.744049
O O14 0.572877 0.825866 0.582812
O O15 0.625296 0.122221 0.664509
O O16 0.329017 0.632087 0.426585
#
# Coordination Sequence:
#
# PCOD9138564 Si02
#       8
#     4   4   4   4   4   4   4   4
#     4  11  24  43  70 104 147 193 241 302 373 436
#     4  10  25  43  68 105 136 191 245 297 376 437
#     4  11  22  45  68 103 151 184 240 311 360 443
#     4  11  24  46  73 105 143 198 245 299 376 435
#     4  11  23  46  67 100 144 191 240 306 363 436
#     4  10  23  44  72  98 141 190 241 304 367 434
#     4  12  26  45  74 107 148 192 246 310 371 442
#     4  12  25  48  68 108 152 191 248 305 368 441
#
# _framework density 24.014014
#
# number of rings (size 3 to 8) (size 9 to 14) (size 15 to 20)
#    0.000    1.000    6.250    0.750    7.000    0.000 
#    0.000    0.000    0.000    0.000    0.000    0.000 
#    0.000    0.000    0.000    0.000    0.000    0.000 
#
# Total GULP energy -89461.776569 kJ/mol
# GULP energy per Si atom -5591.361036 kJ/mol
# Density = 2.395936 g / cm^3
# Si number density = 24.014014 Si / 1000 Ang^3
#
#
#
# Elastic Constant Matrix: (Units=GPa)
#
#
# Indices 1 2 3 4 5 6 
#
# 1 192.0243 43.8934 51.3470 0.0000 -31.0800 0.0000
# 2 43.8934 55.3953 21.0892 0.0000 4.5304 0.0000
# 3 51.3470 21.0892 65.7658 0.0000 -8.3866 0.0000
# 4 0.0000 0.0000 0.0000 16.3526 0.0000 -6.9597
# 5 -31.0800 4.5304 -8.3866 0.0000 32.6807 0.0000
# 6 0.0000 0.0000 0.0000 -6.9597 0.0000 53.2927
#
#
#
# Elastic Compliance Matrix: (Units=1/GPa)
#
#
# Indices 1 2 3 4 5 6 
#
# 1 0.009118 -0.006410 -0.003974 0.000000 0.008540 0.000000
# 2 -0.006410 0.025790 -0.004651 0.000000 -0.010865 0.000000
# 3 -0.003974 -0.004651 0.020056 0.000000 0.002012 0.000000
# 4 0.000000 0.000000 0.000000 0.064751 0.000000 0.008456
# 5 0.008540 -0.010865 0.002012 0.000000 0.040743 0.000000
# 6 0.000000 0.000000 0.000000 0.008456 0.000000 0.019869
#
#
# Mechanical properties :
#
#
# Convention : Reuss Voigt Hill
#
# Bulk Modulus (GPa) = 40.17039 60.64940 50.40989
# Shear Modulus (GPa) = 22.86272 33.58894 28.22583
#
# Velocity S-wave (km/s) = 3.08889 3.74401 3.43212
# Velocity P-wave (km/s) = 5.43009 6.63331 6.06163
#
# Compressibility (1/GPa) = 0.02489396
#
# Stress axis : x y z
#
# Youngs Moduli (GPa) = 109.67484 38.77399 49.85934
#
# Poissons Ratio (x) = 0.24855 0.19815
# Poissons Ratio (y) = 0.70303 0.23190
# Poissons Ratio (z) = 0.43587 0.18034
#
# Static dielectric constant tensor:
#      x y z
#    x 1.938800 0.000000 0.010080 
#    y 0.000000 1.969440 0.000000 
#    z 0.010080 0.000000 1.916380 
# 
# From -- ./inp_files/24435.got.cif
#   From: 2010.05.17/outbox.cif.g08.bks.cpg/sg9_13_cif.got.tgz:24435.got - 2010.06.03 20:04:27.
