data_PCOD9138143
_publ_section_title
;
Structure prediction by ZEFSAII (Michael W. Deem and Ramdas Pophale) SiO2 
 PCOD9138143
Probable space group: C C
;
_chemical_formula_sum "Si O2"
_cell_formula_units_Z 32
_cell_length_a 24.956248
_cell_length_b 8.351917
_cell_length_c 19.758489
_cell_angle_alpha 90.000000
_cell_angle_beta 162.438371
_cell_angle_gamma 90.000000
_cell_volume 1242.624185
_symmetry_space_group_name_H-M "C C"
_symmetry_group_IT_number 9
_symmetry_cell_setting 'monoclinic'
loop_
_space_group_symop_operation_xyz
x,y,z
x,-y,1/2+z
1/2+x,1/2+y,z
1/2+x,1/2-y,1/2+z
loop_
_atom_site_type_symbol
_atom_site_label
_atom_site_fract_x
_atom_site_fract_y
_atom_site_fract_z
Si Si1 0.436910 0.430826 0.277210
Si Si2 0.674700 0.764356 0.247135
Si Si3 0.649073 0.421412 0.847756
Si Si4 0.327299 0.594904 0.502469
Si Si5 0.003519 0.272476 0.292816
Si Si6 0.827468 0.406546 0.804635
Si Si7 0.809639 0.923337 0.745001
Si Si8 0.592606 0.185136 0.110236
O O1 0.429778 0.613151 0.239327
O O2 0.645958 0.398351 0.543286
O O3 0.328494 0.426719 0.216911
O O4 0.340565 0.352514 0.096551
O O5 0.628050 0.630051 0.245672
O O6 0.739236 0.921949 0.369000
O O7 0.799514 0.675612 0.343979
O O8 0.507461 0.815872 0.000333
O O9 0.530922 0.571896 0.724953
O O10 0.563431 0.278886 0.790475
O O11 0.856903 0.411272 0.115632
O O12 0.213081 0.714653 0.320340
O O13 0.173506 0.315658 0.539770
O O14 0.911864 0.585202 0.908949
O O15 0.718673 0.913265 0.709259
O O16 0.007773 0.850666 0.983459
#
# Coordination Sequence:
#
# PCOD9138143 Si02
#       8
#     4   4   4   4   4   4   4   4
#     4  11  22  39  64  96 126 163 214 259 317 376
#     4  11  20  38  60  88 128 164 202 258 317 364
#     4  11  18  33  58  91 127 158 195 260 316 362
#     4  10  23  39  62  95 128 162 210 258 318 383
#     4  11  18  32  59  94 124 155 200 257 325 347
#     4  11  24  38  62  93 127 164 212 259 313 387
#     4  12  21  40  66  93 130 168 201 275 313 372
#     4  11  24  41  63  98 128 164 218 256 327 379
#
# _framework density 25.751953
#
# number of rings (size 3 to 8) (size 9 to 14) (size 15 to 20)
#    0.000    1.000    7.500    0.000    3.500    1.000 
#    0.000    1.250    0.000    0.000    0.000    0.000 
#    0.000    0.000    0.000    0.000    0.000    0.000 
#
# Total GULP energy -89275.238949 kJ/mol
# GULP energy per Si atom -5579.702434 kJ/mol
# Density = 2.569334 g / cm^3
# Si number density = 25.751953 Si / 1000 Ang^3
#
#
#
# Elastic Constant Matrix: (Units=GPa)
#
#
# Indices 1 2 3 4 5 6 
#
# 1 120.5848 21.3634 58.5050 0.0000 2.1484 0.0000
# 2 21.3634 34.5943 12.7923 0.0000 -2.6051 0.0000
# 3 58.5050 12.7923 174.9338 0.0000 -23.0200 0.0000
# 4 0.0000 0.0000 0.0000 33.4741 0.0000 9.0194
# 5 2.1484 -2.6051 -23.0200 0.0000 42.8386 0.0000
# 6 0.0000 0.0000 0.0000 9.0194 0.0000 18.4609
#
#
#
# Elastic Compliance Matrix: (Units=1/GPa)
#
#
# Indices 1 2 3 4 5 6 
#
# 1 0.011152 -0.005740 -0.003690 0.000000 -0.002891 0.000000
# 2 -0.005740 0.032683 -0.000184 0.000000 0.002177 0.000000
# 3 -0.003690 -0.000184 0.007519 0.000000 0.004214 0.000000
# 4 0.000000 0.000000 0.000000 0.034403 0.000000 -0.016808
# 5 -0.002891 0.002177 0.004214 0.000000 0.025885 0.000000
# 6 0.000000 0.000000 0.000000 -0.016808 0.000000 0.062380
#
#
# Mechanical properties :
#
#
# Convention : Reuss Voigt Hill
#
# Bulk Modulus (GPa) = 31.12823 57.27046 44.19935
# Shear Modulus (GPa) = 24.51479 34.78487 29.64983
#
# Velocity S-wave (km/s) = 3.08873 3.67926 3.39685
# Velocity P-wave (km/s) = 4.98340 6.35113 5.70838
#
# Compressibility (1/GPa) = 0.03212518
#
# Stress axis : x y z
#
# Youngs Moduli (GPa) = 89.67148 30.59697 133.00238
#
# Poissons Ratio (x) = 0.17562 0.49083
# Poissons Ratio (y) = 0.51470 0.02447
# Poissons Ratio (z) = 0.33092 0.00563
#
# Static dielectric constant tensor:
#      x y z
#    x 2.139330 0.000000 -0.003850 
#    y 0.000000 2.102940 0.000000 
#    z -0.003850 0.000000 2.030500 
# 
# From -- ./inp_files/31615.got.cif
#   From: 2010.05.17/outbox.cif.g08.bks.cpg/sg9_16_cif.got.tgz:31615.got - 2010.06.03 20:04:27.
