data_PCOD9138227
_publ_section_title
;
Structure prediction by ZEFSAII (Michael W. Deem and Ramdas Pophale) SiO2 
 PCOD9138227
Probable space group: C C
;
_chemical_formula_sum "Si O2"
_cell_formula_units_Z 32
_cell_length_a 15.656219
_cell_length_b 10.624766
_cell_length_c 18.076192
_cell_angle_alpha 90.000000
_cell_angle_beta 27.338732
_cell_angle_gamma 90.000000
_cell_volume 1380.900921
_symmetry_space_group_name_H-M "C C"
_symmetry_group_IT_number 9
_symmetry_cell_setting 'monoclinic'
loop_
_space_group_symop_operation_xyz
x,y,z
x,-y,1/2+z
1/2+x,1/2+y,z
1/2+x,1/2-y,1/2+z
loop_
_atom_site_type_symbol
_atom_site_label
_atom_site_fract_x
_atom_site_fract_y
_atom_site_fract_z
Si Si1 0.760700 0.867945 0.718100
Si Si2 0.490805 0.857929 0.634318
Si Si3 0.579536 0.299968 0.926530
Si Si4 0.031378 0.391083 0.182844
Si Si5 0.111542 0.129876 0.646968
Si Si6 0.946652 0.802406 0.426335
Si Si7 0.116837 0.126097 0.048452
Si Si8 0.166838 0.608033 0.744606
O O1 0.827259 0.869164 0.581166
O O2 0.633138 0.745985 0.822698
O O3 0.933868 0.872908 0.638606
O O4 0.629079 0.989046 0.825947
O O5 0.576454 0.806220 0.492657
O O6 0.518111 0.742495 0.670987
O O7 0.577555 0.986119 0.598470
O O8 0.270058 0.874812 0.790967
O O9 0.389326 0.374700 0.079900
O O10 0.581240 0.232459 0.846198
O O11 0.808197 0.380600 0.356317
O O12 0.116432 0.260010 0.090271
O O13 0.095324 0.410828 0.217676
O O14 0.320374 0.183783 0.497814
O O15 0.008937 0.123896 0.805204
O O16 0.109779 0.997202 0.606400
#
# Coordination Sequence:
#
# PCOD9138227 Si02
#       8
#     4   4   4   4   4   4   4   4
#     4  11  23  42  64  91 127 167 209 258 315 375
#     4  11  22  42  70  97 124 164 217 265 311 375
#     4  10  23  41  67  95 122 164 215 262 311 374
#     4  12  26  43  63  95 133 169 209 261 318 376
#     4  11  22  42  70  97 124 164 217 265 311 375
#     4  10  23  41  67  95 122 164 215 262 311 374
#     4  12  26  43  63  95 133 169 209 261 318 376
#     4  11  23  42  64  91 127 167 209 258 315 375
#
# _framework density 23.173278
#
# number of rings (size 3 to 8) (size 9 to 14) (size 15 to 20)
#    0.000    1.000    0.000    8.250    0.000    6.000 
#    0.000    6.250    0.000    0.000    0.000    0.000 
#    0.000    0.000    0.000    0.000    0.000    0.000 
#
# Total GULP energy -89553.184386 kJ/mol
# GULP energy per Si atom -5597.074024 kJ/mol
# Density = 2.312053 g / cm^3
# Si number density = 23.173278 Si / 1000 Ang^3
#
#
#
# Elastic Constant Matrix: (Units=GPa)
#
#
# Indices 1 2 3 4 5 6 
#
# 1 104.7182 29.6420 1.5836 0.0007 -11.8166 -0.0008
# 2 29.6420 124.6751 7.0416 -0.0041 3.0402 0.0017
# 3 1.5836 7.0416 53.0865 -0.0028 -8.1343 0.0016
# 4 0.0007 -0.0041 -0.0028 6.1702 0.0014 11.7201
# 5 -11.8166 3.0402 -8.1343 0.0014 25.3505 -0.0004
# 6 -0.0008 0.0017 0.0016 11.7201 -0.0004 39.6688
#
#
#
# Elastic Compliance Matrix: (Units=1/GPa)
#
#
# Indices 1 2 3 4 5 6 
#
# 1 0.010978 -0.002802 0.000925 -0.000011 0.005750 0.000004
# 2 -0.002802 0.008843 -0.001527 0.000016 -0.002857 -0.000005
# 3 0.000925 -0.001527 0.020094 0.000017 0.007062 -0.000006
# 4 -0.000011 0.000016 0.000017 0.369348 -0.000024 -0.109123
# 5 0.005750 -0.002857 0.007062 -0.000024 0.044736 0.000007
# 6 0.000004 -0.000005 -0.000006 -0.109123 0.000007 0.057449
#
#
# Mechanical properties :
#
#
# Convention : Reuss Voigt Hill
#
# Bulk Modulus (GPa) = 30.20568 39.89047 35.04808
# Shear Modulus (GPa) = 9.44659 30.51872 19.98266
#
# Velocity S-wave (km/s) = 2.02123 3.63296 2.93971
# Velocity P-wave (km/s) = 4.30234 5.90332 5.16524
#
# Compressibility (1/GPa) = 0.03310635
#
# Stress axis : x y z
#
# Youngs Moduli (GPa) = 91.09503 113.08315 49.76549
#
# Poissons Ratio (x) = 0.31691 -0.04605
# Poissons Ratio (y) = 0.25529 0.07600
# Poissons Ratio (z) = -0.08429 0.17269
#
# Static dielectric constant tensor:
#      x y z
#    x 1.849910 0.000000 0.000700 
#    y 0.000000 1.994340 0.000000 
#    z 0.000700 0.000000 1.840530 
# 
# From -- ./inp_files/9128.got.cif
#   From: 2010.05.17/outbox.cif.g08.bks.cpg/sg9_5_cif.got.tgz:9128.got - 2010.06.03 20:04:27.
