data_PCOD9138887
_publ_section_title
;
Structure prediction by ZEFSAII (Michael W. Deem and Ramdas Pophale) SiO2 
 PCOD9138887
Probable space group: C C
;
_chemical_formula_sum "Si O2"
_cell_formula_units_Z 28
_cell_length_a 9.122011
_cell_length_b 5.156396
_cell_length_c 29.853614
_cell_angle_alpha 90.000000
_cell_angle_beta 119.062930
_cell_angle_gamma 90.000000
_cell_volume 1227.406101
_symmetry_space_group_name_H-M "C C"
_symmetry_group_IT_number 9
_symmetry_cell_setting 'monoclinic'
loop_
_space_group_symop_operation_xyz
x,y,z
x,-y,1/2+z
1/2+x,1/2+y,z
1/2+x,1/2-y,1/2+z
loop_
_atom_site_type_symbol
_atom_site_label
_atom_site_fract_x
_atom_site_fract_y
_atom_site_fract_z
Si Si1 0.348810 0.187197 0.707380
Si Si2 0.481451 0.526185 0.997984
Si Si3 0.243658 0.686279 0.746842
Si Si4 0.631026 0.207971 0.087594
Si Si5 0.442577 0.661900 0.866934
Si Si6 0.834936 0.342997 0.405254
Si Si7 0.814948 0.366177 0.030452
O O1 0.312790 0.418498 0.736756
O O2 0.544748 0.170579 0.724889
O O3 0.243748 0.251750 0.647170
O O4 0.287185 0.918409 0.719483
O O5 0.414611 0.276310 0.962278
O O6 0.529647 0.461953 0.056668
O O7 0.663382 0.577480 0.003844
O O8 0.341212 0.737644 0.985838
O O9 0.334751 0.736420 0.807428
O O10 0.742254 0.180469 0.058959
O O11 0.486907 0.997046 0.071427
O O12 0.635999 0.634799 0.881931
O O13 0.375875 0.389532 0.876364
O O14 0.414246 0.890479 0.899025
#
# Coordination Sequence:
#
# PCOD9138887 Si02
#       7
#     4   4   4   4   4   4   4
#     4  12  26  43  74  98 137 177 228 272 345 399
#     4  10  26  40  66  95 137 172 220 267 326 397
#     4  12  26  48  69 102 133 176 226 288 338 396
#     4  10  26  40  66  95 135 174 220 267 326 397
#     4  12  26  47  71 100 135 174 228 286 337 400
#     4  12  26  43  74 100 135 179 226 272 345 399
#     4  10  24  39  64  88 138 170 216 266 321 382
#
# _framework density 22.812335999999998
#
# number of rings (size 3 to 8) (size 9 to 14) (size 15 to 20)
#    0.857    0.000    0.000    6.000   10.000    0.000 
#    0.000    0.000    0.000    0.000    0.000    0.000 
#    0.000    0.000    0.000    0.000    0.000    0.000 
#
# Total GULP energy -78267.022432 kJ/mol
# GULP energy per Si atom -5590.501602 kJ/mol
# Density = 2.276041 g / cm^3
# Si number density = 22.812336 Si / 1000 Ang^3
#
#
#
# Elastic Constant Matrix: (Units=GPa)
#
#
# Indices 1 2 3 4 5 6 
#
# 1 167.8162 19.3858 13.2474 0.0000 5.0538 0.0000
# 2 19.3858 40.5011 -26.8365 0.0000 -8.5517 0.0000
# 3 13.2474 -26.8365 92.6904 0.0000 5.9501 0.0000
# 4 0.0000 0.0000 0.0000 32.9460 0.0000 -9.8545
# 5 5.0538 -8.5517 5.9501 0.0000 26.8603 0.0000
# 6 0.0000 0.0000 0.0000 -9.8545 0.0000 20.0268
#
#
#
# Elastic Compliance Matrix: (Units=1/GPa)
#
#
# Indices 1 2 3 4 5 6 
#
# 1 0.006841 -0.005369 -0.002374 0.000000 -0.002471 0.000000
# 2 -0.005369 0.036503 0.010677 0.000000 0.010267 0.000000
# 3 -0.002374 0.010677 0.014174 0.000000 0.000706 0.000000
# 4 0.000000 0.000000 0.000000 0.035591 0.000000 0.017513
# 5 -0.002471 0.010267 0.000706 0.000000 0.040807 0.000000
# 6 0.000000 0.000000 0.000000 0.017513 0.000000 0.058551
#
#
# Mechanical properties :
#
#
# Convention : Reuss Voigt Hill
#
# Bulk Modulus (GPa) = 15.77621 34.73347 25.25484
# Shear Modulus (GPa) = 24.07019 35.64733 29.85876
#
# Velocity S-wave (km/s) = 3.25181 3.95730 3.62178
# Velocity P-wave (km/s) = 4.58582 6.01158 5.34644
#
# Compressibility (1/GPa) = 0.06338657
#
# Stress axis : x y z
#
# Youngs Moduli (GPa) = 146.18048 27.39518 70.55292
#
# Poissons Ratio (x) = 0.14708 0.16746
# Poissons Ratio (y) = 0.78481 -0.75328
# Poissons Ratio (z) = 0.34696 -0.29249
#
# Static dielectric constant tensor:
#      x y z
#    x 1.873770 0.000000 -0.021450 
#    y 0.000000 1.888380 0.000000 
#    z -0.021450 0.000000 1.854370 
# 
# From -- ./inp_files/36275.got.cif
#   From: 2010.05.17/outbox.cif.g08.bks.cpg/sg9_19_cif.got.tgz:36275.got - 2010.06.03 20:04:27.
