data_PCOD9138356
_publ_section_title
;
Structure prediction by ZEFSAII (Michael W. Deem and Ramdas Pophale) SiO2 
 PCOD9138356
Probable space group: C C
;
_chemical_formula_sum "Si O2"
_cell_formula_units_Z 32
_cell_length_a 10.168151
_cell_length_b 10.809906
_cell_length_c 12.676932
_cell_angle_alpha 90.000000
_cell_angle_beta 121.701554
_cell_angle_gamma 90.000000
_cell_volume 1185.506507
_symmetry_space_group_name_H-M "C C"
_symmetry_group_IT_number 9
_symmetry_cell_setting 'monoclinic'
loop_
_space_group_symop_operation_xyz
x,y,z
x,-y,1/2+z
1/2+x,1/2+y,z
1/2+x,1/2-y,1/2+z
loop_
_atom_site_type_symbol
_atom_site_label
_atom_site_fract_x
_atom_site_fract_y
_atom_site_fract_z
Si Si1 0.867740 0.837174 0.001750
Si Si2 0.872741 0.349932 0.667815
Si Si3 0.929415 0.149863 0.863054
Si Si4 0.166866 0.943449 0.880436
Si Si5 0.634191 0.990374 0.280894
Si Si6 0.682953 0.747857 0.566683
Si Si7 0.448260 0.403316 0.611012
Si Si8 0.841227 0.573318 0.780881
O O1 0.795874 0.743136 0.054859
O O2 0.747054 0.911558 0.883117
O O3 0.955009 0.948513 0.099703
O O4 0.998466 0.764176 0.992271
O O5 0.012290 0.423550 0.668568
O O6 0.940976 0.269358 0.793647
O O7 0.776801 0.459908 0.678870
O O8 0.957448 0.161221 0.000494
O O9 0.751049 0.103154 0.775772
O O10 0.042792 0.040064 0.874688
O O11 0.228529 0.850422 0.994087
O O12 0.297628 0.023567 0.876826
O O13 0.071783 0.867281 0.751478
O O14 0.519370 0.926427 0.318124
O O15 0.777879 0.870445 0.582941
O O16 0.752821 0.694175 0.705358
#
# Coordination Sequence:
#
# PCOD9138356 Si02
#       8
#     4   4   4   4   4   4   4   4
#     4  11  22  47  69 105 148 186 245 299 364 433
#     4  10  23  42  73  99 144 189 236 301 360 418
#     4  11  21  47  74 101 146 195 237 297 369 431
#     4  12  22  46  72 102 146 188 238 312 357 428
#     4   9  24  44  65 102 150 180 247 293 361 436
#     4  12  25  44  76 108 141 194 245 298 363 438
#     4  11  25  41  73 102 143 187 245 292 365 429
#     4  10  24  47  66 113 140 181 251 290 365 437
#
# _framework density 26.992681999999999
#
# number of rings (size 3 to 8) (size 9 to 14) (size 15 to 20)
#    0.750    0.500    5.000    0.750    1.750    5.000 
#    2.250    5.000    0.000    0.000    0.000    0.000 
#    0.000    0.000    0.000    0.000    0.000    0.000 
#
# Total GULP energy -89607.026578 kJ/mol
# GULP energy per Si atom -5600.439161 kJ/mol
# Density = 2.693125 g / cm^3
# Si number density = 26.992682 Si / 1000 Ang^3
#
#
#
# Elastic Constant Matrix: (Units=GPa)
#
#
# Indices 1 2 3 4 5 6 
#
# 1 148.1523 39.8860 -5.5504 0.0000 10.9492 0.0000
# 2 39.8860 85.7415 19.1545 0.0000 -4.9896 0.0000
# 3 -5.5504 19.1545 88.6741 0.0000 -4.9048 0.0000
# 4 0.0000 0.0000 0.0000 33.9770 0.0000 5.2883
# 5 10.9492 -4.9896 -4.9048 0.0000 37.3856 0.0000
# 6 0.0000 0.0000 0.0000 5.2883 0.0000 55.2979
#
#
#
# Elastic Compliance Matrix: (Units=1/GPa)
#
#
# Indices 1 2 3 4 5 6 
#
# 1 0.008143 -0.004234 0.001270 0.000000 -0.002783 0.000000
# 2 -0.004234 0.014518 -0.003249 0.000000 0.002751 0.000000
# 3 0.001270 -0.003249 0.012102 0.000000 0.000782 0.000000
# 4 0.000000 0.000000 0.000000 0.029876 0.000000 -0.002857
# 5 -0.002783 0.002751 0.000782 0.000000 0.028033 0.000000
# 6 0.000000 0.000000 0.000000 -0.002857 0.000000 0.018357
#
#
# Mechanical properties :
#
#
# Convention : Reuss Voigt Hill
#
# Bulk Modulus (GPa) = 44.76614 47.72757 46.24686
# Shear Modulus (GPa) = 38.19689 43.27061 40.73375
#
# Velocity S-wave (km/s) = 3.76584 4.00815 3.88888
# Velocity P-wave (km/s) = 5.96064 6.25623 6.11023
#
# Compressibility (1/GPa) = 0.02233831
#
# Stress axis : x y z
#
# Youngs Moduli (GPa) = 122.80621 68.87830 82.63223
#
# Poissons Ratio (x) = 0.29161 -0.10497
# Poissons Ratio (y) = 0.51993 0.26847
# Poissons Ratio (z) = -0.15600 0.22378
#
# Static dielectric constant tensor:
#      x y z
#    x 2.136370 0.000000 -0.006470 
#    y 0.000000 2.051930 0.000000 
#    z -0.006470 0.000000 2.141360 
# 
# From -- ./inp_files/24732.got.cif
#   From: 2010.05.17/outbox.cif.g08.bks.cpg/sg9_13_cif.got.tgz:24732.got - 2010.06.03 20:04:27.
