data_PCOD9138933
_publ_section_title
;
Structure prediction by ZEFSAII (Michael W. Deem and Ramdas Pophale) SiO2 
 PCOD9138933
Probable space group: C C
;
_chemical_formula_sum "Si O2"
_cell_formula_units_Z 32
_cell_length_a 15.005532
_cell_length_b 18.783788
_cell_length_c 5.316741
_cell_angle_alpha 90.000000
_cell_angle_beta 125.332194
_cell_angle_gamma 90.000000
_cell_volume 1222.561114
_symmetry_space_group_name_H-M "C C"
_symmetry_group_IT_number 9
_symmetry_cell_setting 'monoclinic'
loop_
_space_group_symop_operation_xyz
x,y,z
x,-y,1/2+z
1/2+x,1/2+y,z
1/2+x,1/2-y,1/2+z
loop_
_atom_site_type_symbol
_atom_site_label
_atom_site_fract_x
_atom_site_fract_y
_atom_site_fract_z
Si Si1 0.845150 0.956101 0.212390
Si Si2 0.112342 0.601570 0.437017
Si Si3 0.173738 0.735659 0.795067
Si Si4 0.549487 0.234930 0.997831
Si Si5 0.874098 0.414815 0.465881
Si Si6 0.015957 0.149733 0.763691
Si Si7 0.639995 0.532763 0.632369
Si Si8 0.366289 0.822669 0.940665
O O1 0.715554 0.939099 0.993001
O O2 0.921688 0.889802 0.261202
O O3 0.867931 0.986356 0.528429
O O4 0.161056 0.649090 0.746776
O O5 0.073185 0.668952 0.210425
O O6 0.997341 0.557978 0.241759
O O7 0.099159 0.799173 0.548116
O O8 0.165066 0.757353 0.074200
O O9 0.287141 0.757534 0.858292
O O10 0.471596 0.291829 0.996223
O O11 0.488044 0.207888 0.650773
O O12 0.771281 0.466634 0.329151
O O13 0.863774 0.377664 0.174280
O O14 0.851181 0.359005 0.651203
O O15 0.086329 0.097276 0.699101
O O16 0.607948 0.528910 0.284205
#
# Coordination Sequence:
#
# PCOD9138933 Si02
#       8
#     4   4   4   4   4   4   4   4
#     4  12  31  51  75 104 149 209 249 295 346 440
#     4  10  26  45  71 105 144 183 249 288 364 421
#     4  11  23  40  73 107 143 185 225 309 364 431
#     4  10  24  41  73 109 142 186 224 311 362 432
#     4  11  23  46  64 101 137 179 230 297 347 424
#     4  11  26  45  70 107 147 186 242 289 369 423
#     4  12  26  44  70  97 133 184 237 290 343 412
#     4  11  23  40  68 102 145 170 226 281 377 423
#
# _framework density 26.17456
#
# number of rings (size 3 to 8) (size 9 to 14) (size 15 to 20)
#    0.000    1.000    2.500    2.250   10.500    1.000 
#    0.000    0.000    0.000    0.000    0.000    0.000 
#    0.000    0.000    0.000    0.000    0.000    0.000 
#
# Total GULP energy -89254.822614 kJ/mol
# GULP energy per Si atom -5578.426413 kJ/mol
# Density = 2.611499 g / cm^3
# Si number density = 26.174560 Si / 1000 Ang^3
#
#
#
# Elastic Constant Matrix: (Units=GPa)
#
#
# Indices 1 2 3 4 5 6 
#
# 1 126.1660 13.9409 12.7276 0.0000 -0.5197 0.0000
# 2 13.9409 38.8953 3.8127 0.0000 -11.7727 0.0000
# 3 12.7276 3.8127 54.2839 0.0000 -16.4621 0.0000
# 4 0.0000 0.0000 0.0000 24.3757 0.0000 -9.8454
# 5 -0.5197 -11.7727 -16.4621 0.0000 49.1839 0.0000
# 6 0.0000 0.0000 0.0000 -9.8454 0.0000 23.6860
#
#
#
# Elastic Compliance Matrix: (Units=1/GPa)
#
#
# Indices 1 2 3 4 5 6 
#
# 1 0.008502 -0.003264 -0.002197 0.000000 -0.001427 0.000000
# 2 -0.003264 0.028971 0.000916 0.000000 0.007207 0.000000
# 3 -0.002197 0.000916 0.021071 0.000000 0.007248 0.000000
# 4 0.000000 0.000000 0.000000 0.049302 0.000000 0.020493
# 5 -0.001427 0.007207 0.007248 0.000000 0.024468 0.000000
# 6 0.000000 0.000000 0.000000 0.020493 0.000000 0.050737
#
#
# Mechanical properties :
#
#
# Convention : Reuss Voigt Hill
#
# Bulk Modulus (GPa) = 20.22060 31.14529 25.68295
# Shear Modulus (GPa) = 23.96635 32.04006 28.00320
#
# Velocity S-wave (km/s) = 3.02923 3.50250 3.27443
# Velocity P-wave (km/s) = 4.46957 5.31804 4.91216
#
# Compressibility (1/GPa) = 0.04945451
#
# Stress axis : x y z
#
# Youngs Moduli (GPa) = 117.61285 34.51681 47.45949
#
# Poissons Ratio (x) = 0.11266 0.10427
# Poissons Ratio (y) = 0.38388 -0.04347
# Poissons Ratio (z) = 0.25839 -0.03161
#
# Static dielectric constant tensor:
#      x y z
#    x 2.141160 0.000000 0.019730 
#    y 0.000000 2.174610 0.000000 
#    z 0.019730 0.000000 2.192740 
# 
# From -- ./inp_files/2570.got.cif
#   From: 2010.05.17/outbox.cif.g08.bks.cpg/sg9_2_cif.got.tgz:2570.got - 2010.06.03 20:04:27.
