data_PCOD9138262
_publ_section_title
;
Structure prediction by ZEFSAII (Michael W. Deem and Ramdas Pophale) SiO2 
 PCOD9138262
Probable space group: C C
;
_chemical_formula_sum "Si O2"
_cell_formula_units_Z 32
_cell_length_a 9.525942
_cell_length_b 31.754062
_cell_length_c 7.972785
_cell_angle_alpha 90.000000
_cell_angle_beta 33.495680
_cell_angle_gamma 90.000000
_cell_volume 1330.936375
_symmetry_space_group_name_H-M "C C"
_symmetry_group_IT_number 9
_symmetry_cell_setting 'monoclinic'
loop_
_space_group_symop_operation_xyz
x,y,z
x,-y,1/2+z
1/2+x,1/2+y,z
1/2+x,1/2-y,1/2+z
loop_
_atom_site_type_symbol
_atom_site_label
_atom_site_fract_x
_atom_site_fract_y
_atom_site_fract_z
Si Si1 0.522900 0.772162 0.587660
Si Si2 0.461269 0.131613 0.114169
Si Si3 0.328762 0.925270 0.178731
Si Si4 0.229166 0.517800 0.170721
Si Si5 0.089812 0.729725 0.614703
Si Si6 0.159713 0.364478 0.046562
Si Si7 0.973808 0.090040 0.749354
Si Si8 0.450932 0.556464 0.290581
O O1 0.438270 0.820263 0.701440
O O2 0.558121 0.767433 0.349518
O O3 0.801932 0.758856 0.372148
O O4 0.215221 0.102833 0.396189
O O5 0.494733 0.134686 0.881080
O O6 0.720222 0.113658 0.940672
O O7 0.523065 0.888735 0.031792
O O8 0.099897 0.902382 0.308096
O O9 0.241339 0.946006 0.442306
O O10 0.443987 0.963162 0.951056
O O11 0.313181 0.536562 0.265116
O O12 0.383918 0.542280 0.871975
O O13 0.318178 0.469884 0.068437
O O14 0.303371 0.762251 0.339413
O O15 0.200280 0.683811 0.465416
O O16 0.393947 0.394272 0.861960
#
# Coordination Sequence:
#
# PCOD9138262 Si02
#       8
#     4   4   4   4   4   4   4   4
#     4   9  17  33  55  89 131 163 204 266 332 383
#     4  11  23  37  68  99 127 170 222 275 319 396
#     4  10  23  45  64  92 134 178 214 274 329 389
#     4  10  23  42  62  96 127 179 218 271 324 385
#     4   9  19  35  61  92 131 168 207 269 332 386
#     4  10  24  39  66 103 132 166 229 273 329 383
#     4  11  23  42  63  93 129 176 217 261 334 385
#     4  10  24  39  67  94 133 176 219 275 323 391
#
# _framework density 24.043223999999999
#
# number of rings (size 3 to 8) (size 9 to 14) (size 15 to 20)
#    0.000    2.000    1.250    0.750    5.250    7.000 
#    0.000    0.000    0.000    4.500    0.000    0.000 
#    0.000    0.000    0.000    0.000    0.000    0.000 
#
# Total GULP energy -89190.541168 kJ/mol
# GULP energy per Si atom -5574.408823 kJ/mol
# Density = 2.398850 g / cm^3
# Si number density = 24.043224 Si / 1000 Ang^3
#
#
#
# Elastic Constant Matrix: (Units=GPa)
#
#
# Indices 1 2 3 4 5 6 
#
# 1 59.4179 -6.3983 13.1725 0.0000 -8.8785 0.0000
# 2 -6.3983 73.8489 40.3764 0.0000 -6.7122 0.0000
# 3 13.1725 40.3764 107.6526 0.0000 -23.7988 0.0000
# 4 0.0000 0.0000 0.0000 16.5466 0.0000 0.0772
# 5 -8.8785 -6.7122 -23.7988 0.0000 39.8014 0.0000
# 6 0.0000 0.0000 0.0000 0.0772 0.0000 14.1619
#
#
#
# Elastic Compliance Matrix: (Units=1/GPa)
#
#
# Indices 1 2 3 4 5 6 
#
# 1 0.018273 0.003419 -0.002869 0.000000 0.002937 0.000000
# 2 0.003419 0.017715 -0.007183 0.000000 -0.000545 0.000000
# 3 -0.002869 -0.007183 0.013741 0.000000 0.006365 0.000000
# 4 0.000000 0.000000 0.000000 0.060437 0.000000 -0.000329
# 5 0.002937 -0.000545 0.006365 0.000000 0.029494 0.000000
# 6 0.000000 0.000000 0.000000 -0.000329 0.000000 0.070614
#
#
# Mechanical properties :
#
#
# Convention : Reuss Voigt Hill
#
# Bulk Modulus (GPa) = 27.42492 37.24675 32.33583
# Shear Modulus (GPa) = 21.21387 27.01990 24.11688
#
# Velocity S-wave (km/s) = 2.97361 3.35596 3.17055
# Velocity P-wave (km/s) = 4.81883 5.52646 5.18473
#
# Compressibility (1/GPa) = 0.03646319
#
# Stress axis : x y z
#
# Youngs Moduli (GPa) = 54.72564 56.44897 72.77273
#
# Poissons Ratio (x) = -0.19298 0.20877
# Poissons Ratio (y) = -0.18709 0.52273
# Poissons Ratio (z) = 0.15699 0.40547
#
# Static dielectric constant tensor:
#      x y z
#    x 1.984960 0.000000 0.002910 
#    y 0.000000 1.919890 0.000000 
#    z 0.002910 0.000000 2.077110 
# 
# From -- ./inp_files/8612.got.cif
#   From: 2010.05.17/outbox.cif.g08.bks.cpg/sg9_5_cif.got.tgz:8612.got - 2010.06.03 20:04:27.
