data_PCOD9138174
_publ_section_title
;
Structure prediction by ZEFSAII (Michael W. Deem and Ramdas Pophale) SiO2 
 PCOD9138174
Probable space group: C C
;
_chemical_formula_sum "Si O2"
_cell_formula_units_Z 32
_cell_length_a 8.906927
_cell_length_b 16.461095
_cell_length_c 20.639556
_cell_angle_alpha 90.000000
_cell_angle_beta 30.111900
_cell_angle_gamma 90.000000
_cell_volume 1518.178256
_symmetry_space_group_name_H-M "C C"
_symmetry_group_IT_number 9
_symmetry_cell_setting 'monoclinic'
loop_
_space_group_symop_operation_xyz
x,y,z
x,-y,1/2+z
1/2+x,1/2+y,z
1/2+x,1/2-y,1/2+z
loop_
_atom_site_type_symbol
_atom_site_label
_atom_site_fract_x
_atom_site_fract_y
_atom_site_fract_z
Si Si1 0.275550 0.667465 0.380840
Si Si2 0.182761 0.379426 0.683082
Si Si3 0.181060 0.154187 0.102566
Si Si4 0.406426 0.984192 0.994441
Si Si5 0.797851 0.793978 0.510253
Si Si6 0.694585 0.962941 0.250586
Si Si7 0.271821 0.734359 0.879612
Si Si8 0.718707 0.789289 0.260717
O O1 0.463533 0.657929 0.244506
O O2 0.500746 0.711590 0.345943
O O3 0.106814 0.582820 0.456027
O O4 0.030740 0.735026 0.457206
O O5 0.483580 0.356457 0.611463
O O6 0.223195 0.361898 0.591731
O O7 0.121566 0.473019 0.721834
O O8 0.929092 0.321228 0.809512
O O9 0.411434 0.228087 0.014085
O O10 0.381833 0.073061 0.035181
O O11 0.554838 0.999125 0.868358
O O12 0.057957 0.957340 0.118710
O O13 0.889051 0.807485 0.401713
O O14 0.497224 0.740735 0.615702
O O15 0.577007 0.871391 0.286161
O O16 0.342633 0.689012 0.785715
#
# Coordination Sequence:
#
# PCOD9138174 Si02
#       8
#     4   4   4   4   4   4   4   4
#     4  12  22  39  66 101 133 176 227 281 336 404
#     4  10  23  40  67  99 133 175 229 284 334 412
#     4  11  21  38  66  98 134 173 231 273 339 402
#     4  11  21  38  67 100 131 176 227 285 328 413
#     4  11  22  39  65  95 136 172 216 284 339 397
#     4  11  22  41  67 103 127 177 231 280 340 409
#     4  11  21  41  64  97 128 178 221 277 340 404
#     4  11  24  38  70  95 128 179 228 270 342 409
#
# _framework density 21.077894000000001
#
# number of rings (size 3 to 8) (size 9 to 14) (size 15 to 20)
#    0.000    1.000    7.500    0.750    1.750    0.000 
#    0.000    0.000    8.250    0.000    0.000    0.000 
#    0.000    0.000    0.000    0.000    0.000    0.000 
#
# Total GULP energy -89198.892132 kJ/mol
# GULP energy per Si atom -5574.930758 kJ/mol
# Density = 2.102992 g / cm^3
# Si number density = 21.077894 Si / 1000 Ang^3
#
#
#
# Elastic Constant Matrix: (Units=GPa)
#
#
# Indices 1 2 3 4 5 6 
#
# 1 62.2710 33.3825 6.9325 -0.0642 18.0136 -0.0803
# 2 33.3825 122.1126 35.9246 0.0700 1.7123 -0.0145
# 3 6.9325 35.9246 90.6620 0.1574 -0.9461 0.0289
# 4 -0.0642 0.0700 0.1574 34.1151 0.0203 -11.2607
# 5 18.0136 1.7123 -0.9461 0.0203 40.9509 -0.0015
# 6 -0.0803 -0.0145 0.0289 -11.2607 -0.0015 29.5784
#
#
#
# Elastic Compliance Matrix: (Units=1/GPa)
#
#
# Indices 1 2 3 4 5 6 
#
# 1 0.021950 -0.006052 0.000621 0.000086 -0.009388 0.000088
# 2 -0.006052 0.010947 -0.003853 -0.000023 0.002115 -0.000016
# 3 0.000621 -0.003853 0.012511 -0.000060 0.000177 -0.000035
# 4 0.000086 -0.000023 -0.000060 0.033526 -0.000054 0.012764
# 5 -0.009388 0.002115 0.000177 -0.000054 0.028465 -0.000044
# 6 0.000088 -0.000016 -0.000035 0.012764 -0.000044 0.038668
#
#
# Mechanical properties :
#
#
# Convention : Reuss Voigt Hill
#
# Bulk Modulus (GPa) = 37.25531 47.50276 42.37904
# Shear Modulus (GPa) = 28.80493 34.18261 31.49377
#
# Velocity S-wave (km/s) = 3.70076 4.03144 3.86963
# Velocity P-wave (km/s) = 5.99785 6.65249 6.33364
#
# Compressibility (1/GPa) = 0.02684181
#
# Stress axis : x y z
#
# Youngs Moduli (GPa) = 45.55835 91.34551 79.92846
#
# Poissons Ratio (x) = 0.55280 -0.04967
# Poissons Ratio (y) = 0.27571 0.30797
# Poissons Ratio (z) = -0.02831 0.35196
#
# Static dielectric constant tensor:
#      x y z
#    x 1.776610 -0.000030 -0.009270 
#    y -0.000030 1.794710 0.000040 
#    z -0.009270 0.000040 1.820990 
# 
# From -- ./inp_files/32841.got.cif
#   From: 2010.05.17/outbox.cif.g08.bks.cpg/sg9_17_cif.got.tgz:32841.got - 2010.06.03 20:04:27.
