data_PCOD9138527
_publ_section_title
;
Structure prediction by ZEFSAII (Michael W. Deem and Ramdas Pophale) SiO2 
 PCOD9138527
Probable space group: C C
;
_chemical_formula_sum "Si O2"
_cell_formula_units_Z 32
_cell_length_a 14.710178
_cell_length_b 7.600799
_cell_length_c 22.062776
_cell_angle_alpha 90.000000
_cell_angle_beta 32.205101
_cell_angle_gamma 90.000000
_cell_volume 1314.695299
_symmetry_space_group_name_H-M "C C"
_symmetry_group_IT_number 9
_symmetry_cell_setting 'monoclinic'
loop_
_space_group_symop_operation_xyz
x,y,z
x,-y,1/2+z
1/2+x,1/2+y,z
1/2+x,1/2-y,1/2+z
loop_
_atom_site_type_symbol
_atom_site_label
_atom_site_fract_x
_atom_site_fract_y
_atom_site_fract_z
Si Si1 0.399060 0.703701 0.906210
Si Si2 0.863300 0.757532 0.802856
Si Si3 0.719586 0.072748 0.579973
Si Si4 0.243962 0.668557 0.186461
Si Si5 0.014776 0.351812 0.964666
Si Si6 0.869840 0.928635 0.225529
Si Si7 0.563774 0.262428 0.928066
Si Si8 0.688001 0.527248 0.467081
O O1 0.597955 0.684609 0.778498
O O2 0.409664 0.815658 0.963094
O O3 0.331183 0.825646 0.891923
O O4 0.270134 0.547761 0.994239
O O5 0.690423 0.740877 0.860640
O O6 0.881750 0.967452 0.783429
O O7 0.792243 0.655110 0.901855
O O8 0.038517 0.672286 0.680693
O O9 0.891615 0.189783 0.489553
O O10 0.709271 0.950988 0.646527
O O11 0.269706 0.538542 0.228857
O O12 0.417601 0.771393 0.076421
O O13 0.039458 0.558731 0.960678
O O14 0.756532 0.752165 0.291842
O O15 0.062419 0.937937 0.093728
O O16 0.577001 0.407164 0.972778
#
# Coordination Sequence:
#
# PCOD9138527 Si02
#       8
#     4   4   4   4   4   4   4   4
#     4  11  24  44  69  97 135 183 223 280 351 404
#     4  11  23  44  70 100 136 179 234 276 342 421
#     4  11  25  45  69 103 137 178 231 287 339 424
#     4  11  20  45  69  94 137 185 221 281 350 399
#     4  10  23  44  69  97 134 180 230 278 337 421
#     4  11  25  43  73  98 140 186 224 291 349 400
#     4  11  25  44  65 104 136 177 238 279 337 423
#     4  12  25  45  68 101 143 180 229 292 343 408
#
# _framework density 24.340239
#
# number of rings (size 3 to 8) (size 9 to 14) (size 15 to 20)
#    0.000    1.000    6.250    0.750    3.500    2.000 
#    2.250    0.000    0.000    0.000    0.000    0.000 
#    0.000    0.000    0.000    0.000    0.000    0.000 
#
# Total GULP energy -89098.566099 kJ/mol
# GULP energy per Si atom -5568.660381 kJ/mol
# Density = 2.428484 g / cm^3
# Si number density = 24.340239 Si / 1000 Ang^3
#
#
#
# Elastic Constant Matrix: (Units=GPa)
#
#
# Indices 1 2 3 4 5 6 
#
# 1 42.8553 6.5033 9.1114 0.0000 -8.6752 0.0000
# 2 6.5033 69.3240 25.0115 0.0000 4.2983 0.0000
# 3 9.1114 25.0115 158.0161 -0.0002 -19.4618 0.0000
# 4 0.0000 0.0000 -0.0002 47.8874 0.0000 1.5759
# 5 -8.6752 4.2983 -19.4618 0.0000 32.0430 0.0000
# 6 0.0000 0.0000 0.0000 1.5759 0.0000 30.7725
#
#
#
# Elastic Compliance Matrix: (Units=1/GPa)
#
#
# Indices 1 2 3 4 5 6 
#
# 1 0.025222 -0.002756 -0.000142 0.000000 0.007112 0.000000
# 2 -0.002756 0.016042 -0.002959 0.000000 -0.004695 0.000000
# 3 -0.000142 -0.002959 0.007403 0.000000 0.004855 0.000000
# 4 0.000000 0.000000 0.000000 0.020918 0.000000 -0.001071
# 5 0.007112 -0.004695 0.004855 0.000000 0.036712 0.000000
# 6 0.000000 0.000000 0.000000 -0.001071 0.000000 0.032551
#
#
# Mechanical properties :
#
#
# Convention : Reuss Voigt Hill
#
# Bulk Modulus (GPa) = 27.06048 39.04976 33.05512
# Shear Modulus (GPa) = 30.69757 37.44518 34.07137
#
# Velocity S-wave (km/s) = 3.55517 3.92651 3.74544
# Velocity P-wave (km/s) = 5.29094 6.05266 5.68457
#
# Compressibility (1/GPa) = 0.03695425
#
# Stress axis : x y z
#
# Youngs Moduli (GPa) = 39.64727 62.33615 135.08264
#
# Poissons Ratio (x) = 0.17178 0.01921
# Poissons Ratio (y) = 0.10926 0.39965
# Poissons Ratio (z) = 0.00564 0.18442
#
# Static dielectric constant tensor:
#      x y z
#    x 1.961510 0.000000 0.015600 
#    y 0.000000 1.979930 0.000000 
#    z 0.015600 0.000000 2.069180 
# 
# From -- ./inp_files/35571.got.cif
#   From: 2010.05.17/outbox.cif.g08.bks.cpg/sg9_18_cif.got.tgz:35571.got - 2010.06.03 20:04:27.
