data_PCOD9138314
_publ_section_title
;
Structure prediction by ZEFSAII (Michael W. Deem and Ramdas Pophale) SiO2 
 PCOD9138314
Probable space group: C C
;
_chemical_formula_sum "Si O2"
_cell_formula_units_Z 32
_cell_length_a 6.138494
_cell_length_b 18.322654
_cell_length_c 14.951448
_cell_angle_alpha 90.000000
_cell_angle_beta 128.696654
_cell_angle_gamma 90.000000
_cell_volume 1312.465726
_symmetry_space_group_name_H-M "C C"
_symmetry_group_IT_number 9
_symmetry_cell_setting 'monoclinic'
loop_
_space_group_symop_operation_xyz
x,y,z
x,-y,1/2+z
1/2+x,1/2+y,z
1/2+x,1/2-y,1/2+z
loop_
_atom_site_type_symbol
_atom_site_label
_atom_site_fract_x
_atom_site_fract_y
_atom_site_fract_z
Si Si1 0.548100 0.682124 0.876480
Si Si2 0.014588 0.408198 0.853394
Si Si3 0.334876 0.196647 0.441346
Si Si4 0.258984 0.636239 0.251506
Si Si5 0.402868 0.535111 0.153074
Si Si6 0.630582 0.622985 0.707463
Si Si7 0.752930 0.064788 0.914592
Si Si8 0.655583 0.251731 0.074066
O O1 0.338471 0.739111 0.869033
O O2 0.517872 0.667318 0.764113
O O3 0.483979 0.606295 0.913791
O O4 0.855839 0.717362 0.968912
O O5 0.040043 0.362926 0.951031
O O6 0.701218 0.437154 0.765002
O O7 0.041861 0.356083 0.774803
O O8 0.218252 0.477239 0.892345
O O9 0.359381 0.236227 0.542354
O O10 0.048815 0.151765 0.375862
O O11 0.208413 0.560734 0.185035
O O12 0.259117 0.695279 0.174173
O O13 0.449265 0.449995 0.153279
O O14 0.316479 0.571036 0.036886
O O15 0.633264 0.671952 0.620238
O O16 0.950271 0.598990 0.813200
#
# Coordination Sequence:
#
# PCOD9138314 Si02
#       8
#     4   4   4   4   4   4   4   4
#     4  12  24  43  70  98 140 185 231 297 355 420
#     4  10  23  44  68  99 136 185 232 290 357 422
#     4  11  25  42  66  97 135 179 233 287 351 427
#     4  11  22  44  66  95 135 179 231 289 349 425
#     4  10  23  42  69 101 138 182 233 286 357 422
#     4  11  26  46  67 108 142 183 240 297 354 429
#     4  11  24  45  69 104 144 182 239 294 357 427
#     4  12  25  42  71 100 140 185 239 292 360 424
#
# _framework density 24.381589000000002
#
# number of rings (size 3 to 8) (size 9 to 14) (size 15 to 20)
#    0.000    1.000    0.000    6.750    3.500    4.000 
#    4.500    0.000    0.000    0.000    0.000    0.000 
#    0.000    0.000    0.000    0.000    0.000    0.000 
#
# Total GULP energy -89463.532430 kJ/mol
# GULP energy per Si atom -5591.470777 kJ/mol
# Density = 2.432609 g / cm^3
# Si number density = 24.381589 Si / 1000 Ang^3
#
#
#
# Elastic Constant Matrix: (Units=GPa)
#
#
# Indices 1 2 3 4 5 6 
#
# 1 92.5412 51.6046 42.0091 0.0000 -44.5061 0.0000
# 2 51.6046 127.6233 22.7543 0.0000 -13.5088 0.0000
# 3 42.0091 22.7543 61.3407 0.0000 -14.4023 0.0000
# 4 0.0000 0.0000 0.0000 45.7478 0.0000 -5.2926
# 5 -44.5061 -13.5088 -14.4023 0.0000 45.8412 0.0000
# 6 0.0000 0.0000 0.0000 -5.2926 0.0000 46.7617
#
#
#
# Elastic Compliance Matrix: (Units=1/GPa)
#
#
# Indices 1 2 3 4 5 6 
#
# 1 0.035489 -0.008859 -0.014620 0.000000 0.027251 0.000000
# 2 -0.008859 0.010714 0.000879 0.000000 -0.005167 0.000000
# 3 -0.014620 0.000879 0.024526 0.000000 -0.006229 0.000000
# 4 0.000000 0.000000 0.000000 0.022149 0.000000 0.002507
# 5 0.027251 -0.005167 -0.006229 0.000000 0.044792 0.000000
# 6 0.000000 0.000000 0.000000 0.002507 0.000000 0.021669
#
#
# Mechanical properties :
#
#
# Convention : Reuss Voigt Hill
#
# Bulk Modulus (GPa) = 39.16945 57.13791 48.15368
# Shear Modulus (GPa) = 23.46896 38.67926 31.07411
#
# Velocity S-wave (km/s) = 3.10590 3.98730 3.57387
# Velocity P-wave (km/s) = 5.38165 6.68460 6.06820
#
# Compressibility (1/GPa) = 0.02553010
#
# Stress axis : x y z
#
# Youngs Moduli (GPa) = 28.17791 93.33686 40.77303
#
# Poissons Ratio (x) = 0.82685 0.59610
# Poissons Ratio (y) = 0.24962 -0.03585
# Poissons Ratio (z) = 0.41196 -0.08208
#
# Static dielectric constant tensor:
#      x y z
#    x 1.918990 0.000000 0.027000 
#    y 0.000000 2.016170 0.000000 
#    z 0.027000 0.000000 1.956660 
# 
# From -- ./inp_files/22037.got.cif
#   From: 2010.05.17/outbox.cif.g08.bks.cpg/sg9_12_cif.got.tgz:22037.got - 2010.06.03 20:04:27.
