data_PCOD9138973
_publ_section_title
;
Structure prediction by ZEFSAII (Michael W. Deem and Ramdas Pophale) SiO2 
 PCOD9138973
Probable space group: C C
;
_chemical_formula_sum "Si O2"
_cell_formula_units_Z 20
_cell_length_a 5.307463
_cell_length_b 17.697189
_cell_length_c 8.705983
_cell_angle_alpha 90.000000
_cell_angle_beta 89.879194
_cell_angle_gamma 90.000000
_cell_volume 817.726578
_symmetry_space_group_name_H-M "C C"
_symmetry_group_IT_number 9
_symmetry_cell_setting 'monoclinic'
loop_
_space_group_symop_operation_xyz
x,y,z
x,-y,1/2+z
1/2+x,1/2+y,z
1/2+x,1/2-y,1/2+z
loop_
_atom_site_type_symbol
_atom_site_label
_atom_site_fract_x
_atom_site_fract_y
_atom_site_fract_z
Si Si1 0.616120 0.753414 0.955190
Si Si2 0.584454 0.081553 0.595806
Si Si3 0.265922 0.011648 0.856678
Si Si4 0.615093 0.191468 0.107684
Si Si5 0.424154 0.451817 0.627700
O O1 0.627369 0.766963 0.772544
O O2 0.626608 0.834762 0.039305
O O3 0.346360 0.719786 0.002620
O O4 0.851484 0.706790 0.024045
O O5 0.472280 0.030780 0.458515
O O6 0.396922 0.068453 0.738119
O O7 0.838725 0.038753 0.640068
O O8 0.115938 0.944948 0.768029
O O9 0.075172 0.053771 0.970010
O O10 0.689140 0.103974 0.136309
#
# Coordination Sequence:
#
# PCOD9138973 Si02
#       5
#     4   4   4   4   4
#     4  12  30  50  77 111 156 202 255 315 385 456
#     4  11  25  46  76 107 149 192 259 307 384 447
#     4  10  24  42  80 110 144 194 254 320 376 452
#     4  12  30  50  77 111 156 202 255 315 385 456
#     4  11  25  46  76 107 149 192 259 307 384 447
#
# _framework density 24.458054000000001
#
# number of rings (size 3 to 8) (size 9 to 14) (size 15 to 20)
#    0.000    0.800    0.000    4.800   19.600    3.200 
#    0.000    0.000    0.000    0.000    0.000    0.000 
#    0.000    0.000    0.000    0.000    0.000    0.000 
#
# Total GULP energy -56084.369492 kJ/mol
# GULP energy per Si atom -5608.436949 kJ/mol
# Density = 2.440239 g / cm^3
# Si number density = 24.458054 Si / 1000 Ang^3
#
#
#
# Elastic Constant Matrix: (Units=GPa)
#
#
# Indices 1 2 3 4 5 6 
#
# 1 124.5123 18.6378 54.3571 0.0000 -10.2693 0.0000
# 2 18.6378 71.6847 13.2476 0.0000 -4.2855 0.0000
# 3 54.3571 13.2476 138.8296 0.0000 -3.8165 0.0000
# 4 0.0000 0.0000 0.0000 26.9556 0.0000 -5.6527
# 5 -10.2693 -4.2855 -3.8165 0.0000 42.3073 0.0000
# 6 0.0000 0.0000 0.0000 -5.6527 0.0000 46.0673
#
#
#
# Elastic Compliance Matrix: (Units=1/GPa)
#
#
# Indices 1 2 3 4 5 6 
#
# 1 0.010088 -0.001820 -0.003723 0.000000 0.001929 0.000000
# 2 -0.001820 0.014602 -0.000654 0.000000 0.000978 0.000000
# 3 -0.003723 -0.000654 0.008718 0.000000 -0.000184 0.000000
# 4 0.000000 0.000000 0.000000 0.038078 0.000000 0.004672
# 5 0.001929 0.000978 -0.000184 0.000000 0.024187 0.000000
# 6 0.000000 0.000000 0.000000 0.004672 0.000000 0.022281
#
#
# Mechanical properties :
#
#
# Convention : Reuss Voigt Hill
#
# Bulk Modulus (GPa) = 47.58493 56.39019 51.98756
# Shear Modulus (GPa) = 36.40244 39.65165 38.02705
#
# Velocity S-wave (km/s) = 3.86212 4.03079 3.94736
# Velocity P-wave (km/s) = 6.27582 6.69096 6.48671
#
# Compressibility (1/GPa) = 0.02101506
#
# Stress axis : x y z
#
# Youngs Moduli (GPa) = 99.12589 68.48177 114.70195
#
# Poissons Ratio (x) = 0.12460 0.42707
# Poissons Ratio (y) = 0.18036 0.07503
# Poissons Ratio (z) = 0.36907 0.04479
#
# Static dielectric constant tensor:
#      x y z
#    x 1.888800 0.000000 -0.011740 
#    y 0.000000 1.949920 0.000000 
#    z -0.011740 0.000000 1.918810 
# 
# From -- ./inp_files/3588.got.cif
#   From: 2010.05.17/outbox.cif.g08.bks.cpg/sg9_2_cif.got.tgz:3588.got - 2010.06.03 20:04:27.
