data_PCOD9138906
_publ_section_title
;
Structure prediction by ZEFSAII (Michael W. Deem and Ramdas Pophale) SiO2 
 PCOD9138906
Probable space group: C C
;
_chemical_formula_sum "Si O2"
_cell_formula_units_Z 20
_cell_length_a 12.201329
_cell_length_b 10.343684
_cell_length_c 8.381681
_cell_angle_alpha 90.000000
_cell_angle_beta 133.333090
_cell_angle_gamma 90.000000
_cell_volume 769.436544
_symmetry_space_group_name_H-M "C C"
_symmetry_group_IT_number 9
_symmetry_cell_setting 'monoclinic'
loop_
_space_group_symop_operation_xyz
x,y,z
x,-y,1/2+z
1/2+x,1/2+y,z
1/2+x,1/2-y,1/2+z
loop_
_atom_site_type_symbol
_atom_site_label
_atom_site_fract_x
_atom_site_fract_y
_atom_site_fract_z
Si Si1 0.904330 0.796854 0.344580
Si Si2 0.721224 0.968630 0.350326
Si Si3 0.516979 0.781523 0.629879
Si Si4 0.036086 0.742789 0.804734
Si Si5 0.061375 0.971344 0.300842
O O1 0.751926 0.877190 0.225956
O O2 0.917030 0.718251 0.192741
O O3 0.939379 0.726804 0.545567
O O4 0.038492 0.902794 0.450222
O O5 0.653964 0.872484 0.413644
O O6 0.887200 0.011998 0.568636
O O7 0.614589 0.089714 0.224436
O O8 0.448783 0.764231 0.385201
O O9 0.616637 0.649488 0.751957
O O10 0.115525 0.883521 0.871267
#
# Coordination Sequence:
#
# PCOD9138906 Si02
#       5
#     4   4   4   4   4
#     4   9  23  40  65  95 134 174 227 280 337 406
#     4  11  22  42  73  96 136 188 223 283 354 397
#     4  10  24  40  67 100 133 181 229 281 344 411
#     4  11  21  39  68  97 132 180 229 277 346 410
#     4   9  22  45  65  94 137 173 226 283 335 408
#
# _framework density 25.993044999999999
#
# number of rings (size 3 to 8) (size 9 to 14) (size 15 to 20)
#    1.200    0.800    0.000    3.600    5.600    1.600 
#    0.000    4.000   13.200    0.000    0.000    0.000 
#    0.000    0.000    0.000    0.000    0.000    0.000 
#
# Total GULP energy -55763.449019 kJ/mol
# GULP energy per Si atom -5576.344902 kJ/mol
# Density = 2.593388 g / cm^3
# Si number density = 25.993045 Si / 1000 Ang^3
#
#
#
# Elastic Constant Matrix: (Units=GPa)
#
#
# Indices 1 2 3 4 5 6 
#
# 1 133.2121 67.2379 73.6652 0.0000 -56.3681 0.0000
# 2 67.2379 146.5252 45.3711 0.0000 -3.1249 0.0000
# 3 73.6652 45.3711 131.0191 0.0000 -44.3801 0.0000
# 4 0.0000 0.0000 0.0000 31.7415 0.0000 3.8101
# 5 -56.3681 -3.1249 -44.3801 0.0000 52.4123 0.0000
# 6 0.0000 0.0000 0.0000 3.8101 0.0000 56.2607
#
#
#
# Elastic Compliance Matrix: (Units=1/GPa)
#
#
# Indices 1 2 3 4 5 6 
#
# 1 0.022701 -0.009312 -0.002043 0.000000 0.022129 0.000000
# 2 -0.009312 0.011707 -0.002768 0.000000 -0.011661 0.000000
# 3 -0.002043 -0.002768 0.012535 0.000000 0.008252 0.000000
# 4 0.000000 0.000000 0.000000 0.031763 0.000000 -0.002151
# 5 0.022129 -0.011661 0.008252 0.000000 0.049171 0.000000
# 6 0.000000 0.000000 0.000000 -0.002151 0.000000 0.017920
#
#
# Mechanical properties :
#
#
# Convention : Reuss Voigt Hill
#
# Bulk Modulus (GPa) = 53.48897 87.03388 70.26143
# Shear Modulus (GPa) = 27.73563 43.04839 35.39201
#
# Velocity S-wave (km/s) = 3.27010 4.07400 3.69398
# Velocity P-wave (km/s) = 5.90601 7.46232 6.72931
#
# Compressibility (1/GPa) = 0.01869544
#
# Stress axis : x y z
#
# Youngs Moduli (GPa) = 44.05147 85.42258 79.77875
#
# Poissons Ratio (x) = 0.79550 0.16297
# Poissons Ratio (y) = 0.41023 0.22082
# Poissons Ratio (z) = 0.08999 0.23644
#
# Static dielectric constant tensor:
#      x y z
#    x 2.071830 0.000000 -0.062300 
#    y 0.000000 2.091940 0.000000 
#    z -0.062300 0.000000 2.085530 
# 
# From -- ./inp_files/9012.got.cif
#   From: 2010.05.17/outbox.cif.g08.bks.cpg/sg9_5_cif.got.tgz:9012.got - 2010.06.03 20:04:27.
