data_PCOD9138967
_publ_section_title
;
Structure prediction by ZEFSAII (Michael W. Deem and Ramdas Pophale) SiO2 
 PCOD9138967
Probable space group: C C
;
_chemical_formula_sum "Si O2"
_cell_formula_units_Z 24
_cell_length_a 5.101859
_cell_length_b 20.802270
_cell_length_c 9.779111
_cell_angle_alpha 90.000000
_cell_angle_beta 63.044682
_cell_angle_gamma 90.000000
_cell_volume 925.106734
_symmetry_space_group_name_H-M "C C"
_symmetry_group_IT_number 9
_symmetry_cell_setting 'monoclinic'
loop_
_space_group_symop_operation_xyz
x,y,z
x,-y,1/2+z
1/2+x,1/2+y,z
1/2+x,1/2-y,1/2+z
loop_
_atom_site_type_symbol
_atom_site_label
_atom_site_fract_x
_atom_site_fract_y
_atom_site_fract_z
Si Si1 0.466570 0.253535 0.502350
Si Si2 0.958596 0.181041 0.720393
Si Si3 0.365339 0.144123 0.970683
Si Si4 0.919003 0.585929 0.239546
Si Si5 0.771535 0.882276 0.925119
Si Si6 0.314149 0.938194 0.228684
O O1 0.546665 0.285223 0.340837
O O2 0.593616 0.309023 0.570777
O O3 0.642993 0.188279 0.477803
O O4 0.130225 0.229191 0.580264
O O5 0.610307 0.177932 0.816651
O O6 0.089018 0.108389 0.698674
O O7 0.278805 0.084483 0.894346
O O8 0.513983 0.119024 0.074887
O O9 0.619431 0.620351 0.356013
O O10 0.802430 0.514576 0.232545
O O11 0.152448 0.590450 0.307463
O O12 0.623808 0.923483 0.081050
#
# Coordination Sequence:
#
# PCOD9138967 Si02
#       6
#     4   4   4   4   4   4
#     4  10  24  46  67 108 143 188 250 300 375 438
#     4  10  24  42  74 100 145 190 240 309 363 437
#     4  11  26  46  77 107 145 199 245 309 373 440
#     4  12  28  46  77 108 149 195 255 301 372 444
#     4  11  28  47  73 109 146 200 243 312 371 439
#     4  10  26  47  70 108 148 192 249 305 374 436
#
# _framework density 25.94295
#
# number of rings (size 3 to 8) (size 9 to 14) (size 15 to 20)
#    0.000    1.333    0.000    2.000   18.667    2.667 
#    0.000    0.000    0.000    0.000    0.000    0.000 
#    0.000    0.000    0.000    0.000    0.000    0.000 
#
# Total GULP energy -67142.076744 kJ/mol
# GULP energy per Si atom -5595.173062 kJ/mol
# Density = 2.588390 g / cm^3
# Si number density = 25.942950 Si / 1000 Ang^3
#
#
#
# Elastic Constant Matrix: (Units=GPa)
#
#
# Indices 1 2 3 4 5 6 
#
# 1 107.4367 14.9974 34.2442 0.0000 0.6866 0.0000
# 2 14.9974 128.3546 31.6446 0.0000 3.3895 0.0000
# 3 34.2442 31.6446 95.1260 0.0000 6.2504 0.0000
# 4 0.0000 0.0000 0.0000 21.1816 0.0000 -3.9458
# 5 0.6866 3.3895 6.2504 0.0000 52.7010 0.0000
# 6 0.0000 0.0000 0.0000 -3.9458 0.0000 16.8347
#
#
#
# Elastic Compliance Matrix: (Units=1/GPa)
#
#
# Indices 1 2 3 4 5 6 
#
# 1 0.010532 -0.000326 -0.003704 0.000000 0.000323 0.000000
# 2 -0.000326 0.008499 -0.002695 0.000000 -0.000223 0.000000
# 3 -0.003704 -0.002695 0.012828 0.000000 -0.001300 0.000000
# 4 0.000000 0.000000 0.000000 0.049366 0.000000 0.011571
# 5 0.000323 -0.000223 -0.001300 0.000000 0.019139 0.000000
# 6 0.000000 0.000000 0.000000 0.011571 0.000000 0.062113
#
#
# Mechanical properties :
#
#
# Convention : Reuss Voigt Hill
#
# Bulk Modulus (GPa) = 54.32371 54.74330 54.53350
# Shear Modulus (GPa) = 27.46272 34.81219 31.13746
#
# Velocity S-wave (km/s) = 3.25711 3.66714 3.46819
# Velocity P-wave (km/s) = 5.92707 6.25122 6.09130
#
# Compressibility (1/GPa) = 0.01840817
#
# Stress axis : x y z
#
# Youngs Moduli (GPa) = 94.94966 117.65509 77.95499
#
# Poissons Ratio (x) = 0.03834 0.28876
# Poissons Ratio (y) = 0.03094 0.21013
# Poissons Ratio (z) = 0.35171 0.31714
#
# Static dielectric constant tensor:
#      x y z
#    x 2.060870 0.000000 0.026260 
#    y 0.000000 2.029490 0.000000 
#    z 0.026260 0.000000 2.051150 
# 
# From -- ./inp_files/3703.got.cif
#   From: 2010.05.17/outbox.cif.g08.bks.cpg/sg9_2_cif.got.tgz:3703.got - 2010.06.03 20:04:27.
