data_PCOD9138768
_publ_section_title
;
Structure prediction by ZEFSAII (Michael W. Deem and Ramdas Pophale) SiO2 
 PCOD9138768
Probable space group: C C
;
_chemical_formula_sum "Si O2"
_cell_formula_units_Z 24
_cell_length_a 12.137479
_cell_length_b 9.276679
_cell_length_c 12.982050
_cell_angle_alpha 90.000000
_cell_angle_beta 144.064845
_cell_angle_gamma 90.000000
_cell_volume 857.838755
_symmetry_space_group_name_H-M "C C"
_symmetry_group_IT_number 9
_symmetry_cell_setting 'monoclinic'
loop_
_space_group_symop_operation_xyz
x,y,z
x,-y,1/2+z
1/2+x,1/2+y,z
1/2+x,1/2-y,1/2+z
loop_
_atom_site_type_symbol
_atom_site_label
_atom_site_fract_x
_atom_site_fract_y
_atom_site_fract_z
Si Si1 0.336360 0.928737 0.896150
Si Si2 0.581624 0.044181 0.768794
Si Si3 0.254443 0.301419 0.006327
Si Si4 0.054670 0.869633 0.066315
Si Si5 0.941827 0.136581 0.851821
Si Si6 0.731514 0.729881 0.502551
O O1 0.234309 0.054609 0.756516
O O2 0.379361 0.785212 0.861502
O O3 0.191359 0.879984 0.876796
O O4 0.525006 0.962336 0.105693
O O5 0.755791 0.122371 0.957993
O O6 0.424234 0.156774 0.688005
O O7 0.586287 0.889119 0.823450
O O8 0.417434 0.298658 0.045391
O O9 0.319596 0.381667 0.158069
O O10 0.155106 0.158029 0.972302
O O11 0.943122 0.000792 0.927169
O O12 0.111466 0.767599 0.014920
#
# Coordination Sequence:
#
# PCOD9138768 Si02
#       6
#     4   4   4   4   4   4
#     4  10  23  46  75 108 147 202 254 310 385 455
#     4  10  25  45  76 108 145 198 255 306 381 463
#     4  12  29  47  78 115 151 201 259 311 394 454
#     4  12  25  47  75 110 157 196 246 334 375 454
#     4  12  26  48  79 111 155 199 263 314 386 462
#     4  10  24  45  73 108 149 198 257 303 393 456
#
# _framework density 27.977287
#
# number of rings (size 3 to 8) (size 9 to 14) (size 15 to 20)
#    1.000    0.000    1.667    4.000    7.000    1.333 
#    0.000    1.667    0.000    0.000    0.000    0.000 
#    0.000    0.000    0.000    0.000    0.000    0.000 
#
# Total GULP energy -67143.490547 kJ/mol
# GULP energy per Si atom -5595.290879 kJ/mol
# Density = 2.791361 g / cm^3
# Si number density = 27.977287 Si / 1000 Ang^3
#
#
#
# Elastic Constant Matrix: (Units=GPa)
#
#
# Indices 1 2 3 4 5 6 
#
# 1 196.2909 39.7166 48.6761 0.0000 -30.7466 0.0000
# 2 39.7166 75.2824 41.9063 0.0000 -18.9033 0.0000
# 3 48.6761 41.9063 182.9181 0.0000 -37.7080 0.0000
# 4 0.0000 0.0000 0.0000 57.2941 0.0000 -18.4781
# 5 -30.7466 -18.9033 -37.7080 0.0000 49.3539 0.0000
# 6 0.0000 0.0000 0.0000 -18.4781 0.0000 31.3332
#
#
#
# Elastic Compliance Matrix: (Units=1/GPa)
#
#
# Indices 1 2 3 4 5 6 
#
# 1 0.006086 -0.002260 -0.000592 0.000000 0.002474 0.000000
# 2 -0.002260 0.016675 -0.002602 0.000000 0.002991 0.000000
# 3 -0.000592 -0.002602 0.007049 0.000000 0.004021 0.000000
# 4 0.000000 0.000000 0.000000 0.021553 0.000000 0.012711
# 5 0.002474 0.002991 0.004021 0.000000 0.026020 0.000000
# 6 0.000000 0.000000 0.000000 0.012711 0.000000 0.039411
#
#
# Mechanical properties :
#
#
# Convention : Reuss Voigt Hill
#
# Bulk Modulus (GPa) = 52.90446 79.45439 66.17942
# Shear Modulus (GPa) = 37.31226 49.20906 43.26066
#
# Velocity S-wave (km/s) = 3.65590 4.19847 3.93654
# Velocity P-wave (km/s) = 6.06396 7.20861 6.66092
#
# Compressibility (1/GPa) = 0.01890200
#
# Stress axis : x y z
#
# Youngs Moduli (GPa) = 164.31086 59.96908 141.85542
#
# Poissons Ratio (x) = 0.13554 0.08395
# Poissons Ratio (y) = 0.37138 0.36915
# Poissons Ratio (z) = 0.09724 0.15606
#
# Static dielectric constant tensor:
#      x y z
#    x 2.212020 0.000000 0.189890 
#    y 0.000000 2.224290 0.000000 
#    z 0.189890 0.000000 2.285460 
# 
# From -- ./inp_files/16546.got.cif
#   From: 2010.05.17/outbox.cif.g08.bks.cpg/sg9_9_cif.got.tgz:16546.got - 2010.06.03 20:04:27.
