data_PCOD9138140
_publ_section_title
;
Structure prediction by ZEFSAII (Michael W. Deem and Ramdas Pophale) SiO2 
 PCOD9138140
Probable space group: C C
;
_chemical_formula_sum "Si O2"
_cell_formula_units_Z 24
_cell_length_a 10.702526
_cell_length_b 12.229752
_cell_length_c 18.799531
_cell_angle_alpha 90.000000
_cell_angle_beta 157.566023
_cell_angle_gamma 90.000000
_cell_volume 939.032151
_symmetry_space_group_name_H-M "C C"
_symmetry_group_IT_number 9
_symmetry_cell_setting 'monoclinic'
loop_
_space_group_symop_operation_xyz
x,y,z
x,-y,1/2+z
1/2+x,1/2+y,z
1/2+x,1/2-y,1/2+z
loop_
_atom_site_type_symbol
_atom_site_label
_atom_site_fract_x
_atom_site_fract_y
_atom_site_fract_z
Si Si1 0.584270 0.444043 0.672260
Si Si2 0.337047 0.329150 0.069473
Si Si3 0.626398 0.216342 0.706618
Si Si4 0.166508 0.617642 0.219030
Si Si5 0.591837 0.062420 0.565608
Si Si6 0.069949 0.044802 0.004458
O O1 0.364867 0.551577 0.551293
O O2 0.426370 0.327741 0.612853
O O3 0.695725 0.437521 0.649183
O O4 0.836389 0.466074 0.869574
O O5 0.980848 0.272815 0.873903
O O6 0.609484 0.246415 0.184315
O O7 0.358238 0.361726 0.164720
O O8 0.467460 0.146055 0.560225
O O9 0.753937 0.126428 0.829856
O O10 0.200363 0.545302 0.165255
O O11 0.453573 0.576080 0.421730
O O12 0.335333 0.079711 0.085688
#
# Coordination Sequence:
#
# PCOD9138140 Si02
#       6
#     4   4   4   4   4   4
#     4  11  22  35  65 104 128 173 238 295 339 424
#     4  10  23  38  71  96 139 175 237 288 359 419
#     4   9  20  44  63  90 130 188 223 279 358 422
#     4  10  23  45  68 100 135 192 236 286 364 433
#     4  10  23  41  70  96 133 188 236 286 351 431
#     4  10  23  41  71  96 137 182 238 292 355 427
#
# _framework density 25.558229000000001
#
# number of rings (size 3 to 8) (size 9 to 14) (size 15 to 20)
#    0.000    2.000    0.000    3.000   14.000    0.000 
#    0.000   10.000    3.667    0.000    0.000    0.000 
#    0.000    0.000    0.000    0.000    0.000    0.000 
#
# Total GULP energy -66895.523818 kJ/mol
# GULP energy per Si atom -5574.626985 kJ/mol
# Density = 2.550006 g / cm^3
# Si number density = 25.558229 Si / 1000 Ang^3
#
#
#
# Elastic Constant Matrix: (Units=GPa)
#
#
# Indices 1 2 3 4 5 6 
#
# 1 32.1626 27.1583 32.1784 0.0086 -15.1802 -0.0048
# 2 27.1583 149.1938 50.1122 0.0161 -0.9039 0.0142
# 3 32.1784 50.1122 146.8595 0.0184 -27.1328 0.0125
# 4 0.0086 0.0161 0.0184 35.1961 0.0087 1.8329
# 5 -15.1802 -0.9039 -27.1328 0.0087 38.4498 0.0012
# 6 -0.0048 0.0142 0.0125 1.8329 0.0012 37.2370
#
#
#
# Elastic Compliance Matrix: (Units=1/GPa)
#
#
# Indices 1 2 3 4 5 6 
#
# 1 0.050169 -0.007133 -0.005669 -0.000011 0.015639 0.000011
# 2 -0.007133 0.008706 -0.002174 0.000000 -0.004146 -0.000003
# 3 -0.005669 -0.002174 0.009625 -0.000004 0.004503 -0.000003
# 4 -0.000011 0.000000 -0.000004 0.028485 -0.000013 -0.001402
# 5 0.015639 -0.004146 0.004503 -0.000013 0.035262 0.000002
# 6 0.000011 -0.000003 -0.000003 -0.001402 0.000002 0.026924
#
#
# Mechanical properties :
#
#
# Convention : Reuss Voigt Hill
#
# Bulk Modulus (GPa) = 25.94203 60.79041 43.36622
# Shear Modulus (GPa) = 24.75581 36.76106 30.75844
#
# Velocity S-wave (km/s) = 3.11562 3.79664 3.47286
# Velocity P-wave (km/s) = 4.80780 6.56171 5.75200
#
# Compressibility (1/GPa) = 0.03854748
#
# Stress axis : x y z
#
# Youngs Moduli (GPa) = 19.93279 114.86051 103.89623
#
# Poissons Ratio (x) = 0.81935 0.58899
# Poissons Ratio (y) = 0.14219 0.22584
# Poissons Ratio (z) = 0.11300 0.24967
#
# Static dielectric constant tensor:
#      x y z
#    x 2.213070 -0.000010 0.076560 
#    y -0.000010 2.172130 -0.000010 
#    z 0.076560 -0.000010 1.975320 
# 
# From -- ./inp_files/24748.got.cif
#   From: 2010.05.17/outbox.cif.g08.bks.cpg/sg9_13_cif.got.tgz:24748.got - 2010.06.03 20:04:27.
