data_PCOD9138812
_publ_section_title
;
Structure prediction by ZEFSAII (Michael W. Deem and Ramdas Pophale) SiO2 
 PCOD9138812
Probable space group: C C
;
_chemical_formula_sum "Si O2"
_cell_formula_units_Z 32
_cell_length_a 26.931096
_cell_length_b 11.049440
_cell_length_c 14.939314
_cell_angle_alpha 90.000000
_cell_angle_beta 162.569516
_cell_angle_gamma 90.000000
_cell_volume 1331.655932
_symmetry_space_group_name_H-M "C C"
_symmetry_group_IT_number 9
_symmetry_cell_setting 'monoclinic'
loop_
_space_group_symop_operation_xyz
x,y,z
x,-y,1/2+z
1/2+x,1/2+y,z
1/2+x,1/2-y,1/2+z
loop_
_atom_site_type_symbol
_atom_site_label
_atom_site_fract_x
_atom_site_fract_y
_atom_site_fract_z
Si Si1 0.476780 0.391033 0.825260
Si Si2 0.159970 0.521854 0.208435
Si Si3 0.413947 0.919073 0.043352
Si Si4 0.541295 0.859138 0.851329
Si Si5 0.591433 0.656191 0.067559
Si Si6 0.537686 0.765899 0.603047
Si Si7 0.206362 0.709599 0.131507
Si Si8 0.822433 0.261301 0.725549
O O1 0.300389 0.430899 0.483501
O O2 0.547472 0.516788 0.982777
O O3 0.482323 0.299102 0.917049
O O4 0.595651 0.328471 0.957467
O O5 0.075767 0.594724 0.144121
O O6 0.220292 0.627337 0.244474
O O7 0.047048 0.441328 0.950251
O O8 0.599175 0.869837 0.377576
O O9 0.422937 0.059952 0.085462
O O10 0.290689 0.846553 0.900051
O O11 0.350348 0.876383 0.837400
O O12 0.516243 0.727481 0.852055
O O13 0.716308 0.838261 0.100254
O O14 0.497481 0.710236 0.991504
O O15 0.387232 0.740612 0.409797
O O16 0.703348 0.715352 0.935602
#
# Coordination Sequence:
#
# PCOD9138812 Si02
#       8
#     4   4   4   4   4   4   4   4
#     4  11  24  44  74 103 148 191 236 311 369 434
#     4  10  23  47  75 103 145 195 238 315 362 435
#     4  10  25  46  74 104 145 193 241 306 365 441
#     4  10  25  47  71 105 144 187 245 299 373 436
#     4  11  25  43  72 104 147 191 239 298 377 437
#     4  11  26  45  77 111 145 196 256 300 371 447
#     4  10  25  47  74 108 145 190 252 298 373 443
#     4  11  25  45  71 108 147 191 247 305 364 445
#
# _framework density 24.030232000000002
#
# number of rings (size 3 to 8) (size 9 to 14) (size 15 to 20)
#    0.000    1.500    1.250    1.500   10.500    5.000 
#    2.250    0.000    2.750    0.000    0.000    0.000 
#    0.000    0.000    0.000    0.000    0.000    0.000 
#
# Total GULP energy -89442.609047 kJ/mol
# GULP energy per Si atom -5590.163065 kJ/mol
# Density = 2.397554 g / cm^3
# Si number density = 24.030232 Si / 1000 Ang^3
#
#
#
# Elastic Constant Matrix: (Units=GPa)
#
#
# Indices 1 2 3 4 5 6 
#
# 1 60.3226 16.2371 12.1949 0.0000 9.0800 0.0000
# 2 16.2371 95.5129 33.3925 0.0000 1.9968 0.0000
# 3 12.1949 33.3925 99.7897 0.0000 -3.6014 0.0000
# 4 0.0000 0.0000 0.0000 52.0323 0.0000 -14.0808
# 5 9.0800 1.9968 -3.6014 0.0000 45.1863 0.0000
# 6 0.0000 0.0000 0.0000 -14.0808 0.0000 32.9271
#
#
#
# Elastic Compliance Matrix: (Units=1/GPa)
#
#
# Indices 1 2 3 4 5 6 
#
# 1 0.018098 -0.002470 -0.001517 0.000000 -0.003649 0.000000
# 2 -0.002470 0.012226 -0.003802 0.000000 -0.000347 0.000000
# 3 -0.001517 -0.003802 0.011529 0.000000 0.001392 0.000000
# 4 0.000000 0.000000 0.000000 0.021734 0.000000 0.009294
# 5 -0.003649 -0.000347 0.001392 0.000000 0.022990 0.000000
# 6 0.000000 0.000000 0.000000 0.009294 0.000000 0.034345
#
#
# Mechanical properties :
#
#
# Convention : Reuss Voigt Hill
#
# Bulk Modulus (GPa) = 38.05802 42.14157 40.09980
# Shear Modulus (GPa) = 34.42148 38.94917 36.68533
#
# Velocity S-wave (km/s) = 3.78884 4.03033 3.91145
# Velocity P-wave (km/s) = 5.91713 6.26363 6.09284
#
# Compressibility (1/GPa) = 0.02627567
#
# Stress axis : x y z
#
# Youngs Moduli (GPa) = 55.25397 81.79200 86.73867
#
# Poissons Ratio (x) = 0.20203 0.13157
# Poissons Ratio (y) = 0.13648 0.32977
# Poissons Ratio (z) = 0.08381 0.31096
#
# Static dielectric constant tensor:
#      x y z
#    x 1.972580 0.000000 -0.024250 
#    y 0.000000 1.894600 0.000000 
#    z -0.024250 0.000000 1.966750 
# 
# From -- ./inp_files/28107.got.cif
#   From: 2010.05.17/outbox.cif.g08.bks.cpg/sg9_15_cif.got.tgz:28107.got - 2010.06.03 20:04:27.
