data_PCOD9138624
_publ_section_title
;
Structure prediction by ZEFSAII (Michael W. Deem and Ramdas Pophale) SiO2 
 PCOD9138624
Probable space group: C C
;
_chemical_formula_sum "Si O2"
_cell_formula_units_Z 28
_cell_length_a 11.971513
_cell_length_b 13.296762
_cell_length_c 7.874275
_cell_angle_alpha 90.000000
_cell_angle_beta 65.835157
_cell_angle_gamma 90.000000
_cell_volume 1143.608076
_symmetry_space_group_name_H-M "C C"
_symmetry_group_IT_number 9
_symmetry_cell_setting 'monoclinic'
loop_
_space_group_symop_operation_xyz
x,y,z
x,-y,1/2+z
1/2+x,1/2+y,z
1/2+x,1/2-y,1/2+z
loop_
_atom_site_type_symbol
_atom_site_label
_atom_site_fract_x
_atom_site_fract_y
_atom_site_fract_z
Si Si1 0.555790 0.145092 0.636790
Si Si2 0.200743 0.696206 0.223186
Si Si3 0.798538 0.411221 0.164292
Si Si4 0.959748 0.864270 0.696936
Si Si5 0.742994 0.376073 0.834676
Si Si6 0.477169 0.570378 0.557398
Si Si7 0.234237 0.653918 0.820418
O O1 0.621347 0.139716 0.413402
O O2 0.420422 0.099660 0.701814
O O3 0.536908 0.264494 0.676251
O O4 0.640600 0.109754 0.739699
O O5 0.207258 0.816898 0.256739
O O6 0.340538 0.665512 0.168081
O O7 0.175752 0.665640 0.044024
O O8 0.750154 0.524796 0.215165
O O9 0.826760 0.392583 0.947825
O O10 0.018510 0.956650 0.562289
O O11 0.927274 0.906027 0.902174
O O12 0.771631 0.267809 0.738951
O O13 0.603316 0.369560 0.990062
O O14 0.362847 0.595814 0.747749
#
# Coordination Sequence:
#
# PCOD9138624 Si02
#       7
#     4   4   4   4   4   4   4
#     4  11  23  49  68 103 143 185 223 299 351 413
#     4  10  23  45  69 103 140 182 231 292 341 423
#     4  10  25  43  69 103 139 180 237 277 357 411
#     4  11  23  41  69 103 139 180 234 286 350 415
#     4  11  24  44  67 104 134 190 228 289 340 428
#     4  12  23  42  72 103 139 186 234 293 345 420
#     4  11  25  44  74 103 136 183 241 282 360 404
#
# _framework density 24.483912
#
# number of rings (size 3 to 8) (size 9 to 14) (size 15 to 20)
#    0.000    1.143    2.857    2.571    2.000    8.000 
#    5.143    0.000    0.000    0.000    0.000    0.000 
#    0.000    0.000    0.000    0.000    0.000    0.000 
#
# Total GULP energy -78266.364831 kJ/mol
# GULP energy per Si atom -5590.454631 kJ/mol
# Density = 2.442819 g / cm^3
# Si number density = 24.483912 Si / 1000 Ang^3
#
#
#
# Elastic Constant Matrix: (Units=GPa)
#
#
# Indices 1 2 3 4 5 6 
#
# 1 113.7446 20.7191 23.7553 0.0000 11.8276 0.0000
# 2 20.7191 58.2490 10.8578 0.0000 3.6014 0.0000
# 3 23.7553 10.8578 82.0877 0.0000 13.4383 0.0000
# 4 0.0000 0.0000 0.0000 34.3366 0.0000 -1.1455
# 5 11.8276 3.6014 13.4383 0.0000 29.2719 0.0000
# 6 0.0000 0.0000 0.0000 -1.1455 0.0000 15.0411
#
#
#
# Elastic Compliance Matrix: (Units=1/GPa)
#
#
# Indices 1 2 3 4 5 6 
#
# 1 0.010058 -0.003024 -0.002061 0.000000 -0.002746 0.000000
# 2 -0.003024 0.018549 -0.001519 0.000000 -0.000363 0.000000
# 3 -0.002061 -0.001519 0.013854 0.000000 -0.005340 0.000000
# 4 0.000000 0.000000 0.000000 0.029198 0.000000 0.002224
# 5 -0.002746 -0.000363 -0.005340 0.000000 0.037768 0.000000
# 6 0.000000 0.000000 0.000000 0.002224 0.000000 0.066654
#
#
# Mechanical properties :
#
#
# Convention : Reuss Voigt Hill
#
# Bulk Modulus (GPa) = 34.18472 40.52732 37.35602
# Shear Modulus (GPa) = 25.12060 28.97987 27.05023
#
# Velocity S-wave (km/s) = 3.20661 3.44412 3.32748
# Velocity P-wave (km/s) = 5.26329 5.69250 5.48209
#
# Compressibility (1/GPa) = 0.02925283
#
# Stress axis : x y z
#
# Youngs Moduli (GPa) = 99.41890 53.91183 72.18247
#
# Poissons Ratio (x) = 0.16302 0.14879
# Poissons Ratio (y) = 0.30062 0.10964
# Poissons Ratio (z) = 0.20494 0.08189
#
# Static dielectric constant tensor:
#      x y z
#    x 1.901240 0.000000 0.009760 
#    y 0.000000 1.977720 0.000000 
#    z 0.009760 0.000000 1.975940 
# 
# From -- ./inp_files/7342.got.cif
#   From: 2010.05.17/outbox.cif.g08.bks.cpg/sg9_4_cif.got.tgz:7342.got - 2010.06.03 20:04:27.
