data_PCOD9138791
_publ_section_title
;
Structure prediction by ZEFSAII (Michael W. Deem and Ramdas Pophale) SiO2 
 PCOD9138791
Probable space group: C C
;
_chemical_formula_sum "Si O2"
_cell_formula_units_Z 28
_cell_length_a 18.302162
_cell_length_b 5.255864
_cell_length_c 13.356821
_cell_angle_alpha 90.000000
_cell_angle_beta 51.919052
_cell_angle_gamma 90.000000
_cell_volume 1011.350487
_symmetry_space_group_name_H-M "C C"
_symmetry_group_IT_number 9
_symmetry_cell_setting 'monoclinic'
loop_
_space_group_symop_operation_xyz
x,y,z
x,-y,1/2+z
1/2+x,1/2+y,z
1/2+x,1/2-y,1/2+z
loop_
_atom_site_type_symbol
_atom_site_label
_atom_site_fract_x
_atom_site_fract_y
_atom_site_fract_z
Si Si1 0.705440 0.996021 0.058920
Si Si2 0.728454 0.293497 0.848043
Si Si3 0.548628 0.305527 0.591579
Si Si4 0.121491 0.560146 0.321643
Si Si5 0.922865 0.366411 0.959426
Si Si6 0.349637 0.145063 0.845507
Si Si7 0.914763 0.129509 0.601326
O O1 0.627069 0.772862 0.106142
O O2 0.699262 0.121155 0.173454
O O3 0.802914 0.862426 0.951574
O O4 0.688575 0.201780 0.987036
O O5 0.774114 0.566432 0.825910
O O6 0.653202 0.224147 0.828199
O O7 0.819513 0.127224 0.743936
O O8 0.594076 0.199060 0.448941
O O9 0.450345 0.187815 0.712552
O O10 0.504351 0.579626 0.596438
O O11 0.029237 0.603042 0.336052
O O12 0.861345 0.415081 0.914663
O O13 0.914348 0.104010 0.024675
O O14 0.913795 0.605525 0.043007
#
# Coordination Sequence:
#
# PCOD9138791 Si02
#       7
#     4   4   4   4   4   4   4
#     4  11  24  47  70 112 153 202 265 327 394 478
#     4  11  25  42  77 106 156 199 264 322 397 471
#     4  10  23  47  75 108 158 204 264 328 402 476
#     4  10  23  47  69 108 153 202 258 325 395 467
#     4  11  26  46  78 106 153 202 263 316 400 468
#     4  12  25  47  74 115 150 211 264 333 396 485
#     4  11  24  48  75 109 149 204 256 321 390 475
#
# _framework density 27.685755
#
# number of rings (size 3 to 8) (size 9 to 14) (size 15 to 20)
#    0.000    1.143    2.857    2.571    6.000    0.000 
#    5.143    0.000    0.000    0.000    0.000    0.000 
#    0.000    0.000    0.000    0.000    0.000    0.000 
#
# Total GULP energy -78270.279141 kJ/mol
# GULP energy per Si atom -5590.734224 kJ/mol
# Density = 2.762274 g / cm^3
# Si number density = 27.685755 Si / 1000 Ang^3
#
#
#
# Elastic Constant Matrix: (Units=GPa)
#
#
# Indices 1 2 3 4 5 6 
#
# 1 115.6855 24.4374 25.3719 0.0080 -18.4307 0.0005
# 2 24.4374 103.7550 45.0400 0.0338 -15.2591 0.0240
# 3 25.3719 45.0400 192.2642 0.0117 -10.6910 0.0017
# 4 0.0080 0.0338 0.0117 47.5468 0.0044 -4.3881
# 5 -18.4307 -15.2591 -10.6910 0.0044 38.0886 0.0028
# 6 0.0005 0.0240 0.0017 -4.3881 0.0028 48.6055
#
#
#
# Elastic Compliance Matrix: (Units=1/GPa)
#
#
# Indices 1 2 3 4 5 6 
#
# 1 0.009728 -0.001391 -0.000739 -0.000001 0.003943 0.000000
# 2 -0.001391 0.011452 -0.002318 -0.000008 0.003264 -0.000006
# 3 -0.000739 -0.002318 0.005862 0.000000 0.000359 0.000001
# 4 -0.000001 -0.000008 0.000000 0.021209 -0.000006 0.001915
# 5 0.003943 0.003264 0.000359 -0.000006 0.029571 -0.000004
# 6 0.000000 -0.000006 0.000001 0.001915 -0.000004 0.020747
#
#
# Mechanical properties :
#
#
# Convention : Reuss Voigt Hill
#
# Bulk Modulus (GPa) = 55.10467 66.82259 60.96363
# Shear Modulus (GPa) = 44.04852 47.97187 46.01020
#
# Velocity S-wave (km/s) = 3.99308 4.16712 4.08103
# Velocity P-wave (km/s) = 6.41922 6.88053 6.65388
#
# Compressibility (1/GPa) = 0.01814728
#
# Stress axis : x y z
#
# Youngs Moduli (GPa) = 102.79524 87.32225 170.60245
#
# Poissons Ratio (x) = 0.12144 0.12603
# Poissons Ratio (y) = 0.14296 0.39540
# Poissons Ratio (z) = 0.07594 0.20238
#
# Static dielectric constant tensor:
#      x y z
#    x 2.176910 0.000010 -0.042830 
#    y 0.000010 2.263370 0.000000 
#    z -0.042830 0.000000 2.142970 
# 
# From -- ./inp_files/27106.got.cif
#   From: 2010.05.17/outbox.cif.g08.bks.cpg/sg9_14_cif.got.tgz:27106.got - 2010.06.03 20:04:27.
