data_PCOD9138098
_publ_section_title
;
Structure prediction by ZEFSAII (Michael W. Deem and Ramdas Pophale) SiO2 
 PCOD9138098
Probable space group: C C
;
_chemical_formula_sum "Si O2"
_cell_formula_units_Z 28
_cell_length_a 12.526650
_cell_length_b 7.401356
_cell_length_c 15.919611
_cell_angle_alpha 90.000000
_cell_angle_beta 50.365312
_cell_angle_gamma 90.000000
_cell_volume 1136.687664
_symmetry_space_group_name_H-M "C C"
_symmetry_group_IT_number 9
_symmetry_cell_setting 'monoclinic'
loop_
_space_group_symop_operation_xyz
x,y,z
x,-y,1/2+z
1/2+x,1/2+y,z
1/2+x,1/2-y,1/2+z
loop_
_atom_site_type_symbol
_atom_site_label
_atom_site_fract_x
_atom_site_fract_y
_atom_site_fract_z
Si Si1 0.955170 0.065399 0.789890
Si Si2 0.726563 0.669871 0.361574
Si Si3 0.932066 0.346768 0.256730
Si Si4 0.974344 0.973067 0.472517
Si Si5 0.127992 0.547614 0.811581
Si Si6 0.220232 0.735325 0.143746
Si Si7 0.492972 0.100542 0.542036
O O1 0.826085 0.202149 0.866347
O O2 0.008983 0.026052 0.856711
O O3 0.077519 0.178991 0.682690
O O4 0.918367 0.872002 0.767000
O O5 0.797324 0.474018 0.323148
O O6 0.564964 0.635452 0.463713
O O7 0.730724 0.783886 0.272090
O O8 0.828924 0.397937 0.101414
O O9 0.014166 0.400104 0.299909
O O10 0.011157 0.410976 0.132273
O O11 0.808896 0.930243 0.557831
O O12 0.027777 0.805405 0.499490
O O13 0.188599 0.360517 0.748052
O O14 0.072060 0.512447 0.932980
#
# Coordination Sequence:
#
# PCOD9138098 Si02
#       7
#     4   4   4   4   4   4   4
#     4  12  24  50  81 111 161 211 265 338 401 481
#     4  12  27  48  78 114 163 208 267 332 401 478
#     4  12  27  50  80 119 157 217 268 328 413 480
#     4  10  24  46  77 109 158 204 261 327 399 474
#     4  12  25  51  77 115 165 209 269 340 397 487
#     4  10  22  48  77 114 159 205 265 337 396 482
#     4  10  25  47  78 112 159 208 263 330 403 476
#
# _framework density 24.632974999999998
#
# number of rings (size 3 to 8) (size 9 to 14) (size 15 to 20)
#    0.857    0.000    4.286    1.714    2.000    3.429 
#    0.000    0.000    0.000    0.000    0.000    0.000 
#    0.000    0.000    0.000    0.000    0.000    0.000 
#
# Total GULP energy -77979.629565 kJ/mol
# GULP energy per Si atom -5569.973540 kJ/mol
# Density = 2.457691 g / cm^3
# Si number density = 24.632975 Si / 1000 Ang^3
#
#
#
# Elastic Constant Matrix: (Units=GPa)
#
#
# Indices 1 2 3 4 5 6 
#
# 1 68.6675 16.4984 21.4254 0.0000 -20.0643 0.0000
# 2 16.4984 80.7806 43.6377 0.0000 -11.9159 0.0000
# 3 21.4254 43.6377 90.0549 0.0000 -2.0294 0.0000
# 4 0.0000 0.0000 0.0000 19.9909 0.0000 3.1208
# 5 -20.0643 -11.9159 -2.0294 0.0000 27.8366 0.0000
# 6 0.0000 0.0000 0.0000 3.1208 0.0000 45.3508
#
#
#
# Elastic Compliance Matrix: (Units=1/GPa)
#
#
# Indices 1 2 3 4 5 6 
#
# 1 0.020110 0.000577 -0.004739 0.000000 0.014396 0.000000
# 2 0.000577 0.018088 -0.008733 0.000000 0.007522 0.000000
# 3 -0.004739 -0.008733 0.016329 0.000000 -0.005964 0.000000
# 4 0.000000 0.000000 0.000000 0.050566 0.000000 -0.003480
# 5 0.014396 0.007522 -0.005964 0.000000 0.049086 0.000000
# 6 0.000000 0.000000 0.000000 -0.003480 0.000000 0.022290
#
#
# Mechanical properties :
#
#
# Convention : Reuss Voigt Hill
#
# Bulk Modulus (GPa) = 34.79929 44.73622 39.76776
# Shear Modulus (GPa) = 23.60289 29.16508 26.38398
#
# Velocity S-wave (km/s) = 3.09881 3.44464 3.27629
# Velocity P-wave (km/s) = 5.19243 5.83278 5.52189
#
# Compressibility (1/GPa) = 0.02873621
#
# Stress axis : x y z
#
# Youngs Moduli (GPa) = 49.72745 55.28377 61.24014
#
# Poissons Ratio (x) = -0.03188 0.29024
# Poissons Ratio (y) = -0.02868 0.53480
# Poissons Ratio (z) = 0.23568 0.48278
#
# Static dielectric constant tensor:
#      x y z
#    x 2.042960 0.000000 -0.019690 
#    y 0.000000 1.967520 0.000000 
#    z -0.019690 0.000000 2.077650 
# 
# From -- ./inp_files/24137.got.cif
#   From: 2010.05.17/outbox.cif.g08.bks.cpg/sg9_13_cif.got.tgz:24137.got - 2010.06.03 20:04:27.
