data_PCOD9138472
_publ_section_title
;
Structure prediction by ZEFSAII (Michael W. Deem and Ramdas Pophale) SiO2 
 PCOD9138472
Probable space group: C C
;
_chemical_formula_sum "Si O2"
_cell_formula_units_Z 28
_cell_length_a 8.319478
_cell_length_b 13.571901
_cell_length_c 15.024379
_cell_angle_alpha 90.000000
_cell_angle_beta 37.565450
_cell_angle_gamma 90.000000
_cell_volume 1034.251569
_symmetry_space_group_name_H-M "C C"
_symmetry_group_IT_number 9
_symmetry_cell_setting 'monoclinic'
loop_
_space_group_symop_operation_xyz
x,y,z
x,-y,1/2+z
1/2+x,1/2+y,z
1/2+x,1/2-y,1/2+z
loop_
_atom_site_type_symbol
_atom_site_label
_atom_site_fract_x
_atom_site_fract_y
_atom_site_fract_z
Si Si1 0.326090 0.339591 0.257330
Si Si2 0.148132 0.832949 0.344891
Si Si3 0.399918 0.121703 0.496300
Si Si4 0.009268 0.182243 0.094636
Si Si5 0.885339 0.679641 0.084372
Si Si6 0.690184 0.996745 0.518839
Si Si7 0.587318 0.015763 0.260863
O O1 0.615484 0.364244 0.164486
O O2 0.327561 0.266913 0.174751
O O3 0.214512 0.441626 0.273650
O O4 0.136176 0.294224 0.413893
O O5 0.213233 0.835803 0.423384
O O6 0.386158 0.787556 0.180159
O O7 0.970962 0.732726 0.433879
O O8 0.968962 0.932116 0.401304
O O9 0.351846 0.058889 0.425732
O O10 0.619260 0.071337 0.467059
O O11 0.153335 0.149848 0.120647
O O12 0.768409 0.113021 0.173723
O O13 0.970455 0.586485 0.102691
O O14 0.610484 0.032950 0.653135
#
# Coordination Sequence:
#
# PCOD9138472 Si02
#       7
#     4   4   4   4   4   4   4
#     4  12  27  47  75 113 160 208 273 331 406 492
#     4  10  23  43  75 108 148 200 259 323 397 479
#     4  11  24  46  75 109 157 200 260 340 396 483
#     4  10  23  46  72 108 154 201 259 331 399 484
#     4  12  26  46  76 110 160 215 259 330 409 486
#     4  11  24  47  76 110 150 208 266 324 418 475
#     4  10  25  47  73 110 149 202 270 341 395 489
#
# _framework density 27.072716
#
# number of rings (size 3 to 8) (size 9 to 14) (size 15 to 20)
#    0.000    1.143    2.857    1.714    6.000    0.000 
#    2.571    0.000    0.000    0.000    0.000    0.000 
#    0.000    0.000    0.000    0.000    0.000    0.000 
#
# Total GULP energy -78147.200907 kJ/mol
# GULP energy per Si atom -5581.942922 kJ/mol
# Density = 2.701110 g / cm^3
# Si number density = 27.072716 Si / 1000 Ang^3
#
#
#
# Elastic Constant Matrix: (Units=GPa)
#
#
# Indices 1 2 3 4 5 6 
#
# 1 96.7294 6.0563 8.3952 -0.0099 14.6965 -0.0051
# 2 6.0563 90.2736 24.8122 -0.0137 10.1370 -0.0042
# 3 8.3952 24.8122 136.1406 -0.0075 22.6864 0.0034
# 4 -0.0099 -0.0137 -0.0075 3.8750 0.0008 -21.9641
# 5 14.6965 10.1370 22.6864 0.0008 39.1560 -0.0025
# 6 -0.0051 -0.0042 0.0034 -21.9641 -0.0025 20.7056
#
#
#
# Elastic Compliance Matrix: (Units=1/GPa)
#
#
# Indices 1 2 3 4 5 6 
#
# 1 0.010971 -0.000294 0.000056 -0.000008 -0.004074 -0.000006
# 2 -0.000294 0.011810 -0.001819 -0.000010 -0.001893 -0.000008
# 3 0.000056 -0.001819 0.008410 0.000000 -0.004423 -0.000002
# 4 -0.000008 -0.000010 0.000000 -0.051482 0.000003 -0.054611
# 5 -0.004074 -0.001893 -0.004423 0.000003 0.030121 0.000006
# 6 -0.000006 -0.000008 -0.000002 -0.054611 0.000006 -0.009635
#
#
# Mechanical properties :
#
#
# Convention : Reuss Voigt Hill
#
# Bulk Modulus (GPa) = 36.93130 44.63012 40.78071
# Shear Modulus (GPa) = 374.98881 31.67263 203.33072
#
# Velocity S-wave (km/s) = 11.78187 3.42410 8.67574
# Velocity P-wave (km/s) = 14.09803 5.67042 10.74495
#
# Compressibility (1/GPa) = 0.02707730
#
# Stress axis : x y z
#
# Youngs Moduli (GPa) = 91.15244 84.67650 118.90007
#
# Poissons Ratio (x) = 0.02489 -0.00665
# Poissons Ratio (y) = 0.02679 0.21625
# Poissons Ratio (z) = -0.00510 0.15400
#
# Static dielectric constant tensor:
#      x y z
#    x 2.180280 0.000010 0.052740 
#    y 0.000010 2.140260 0.000010 
#    z 0.052740 0.000010 2.239330 
# 
# From -- ./inp_files/23321.got.cif
#   From: 2010.05.17/outbox.cif.g08.bks.cpg/sg9_12_cif.got.tgz:23321.got - 2010.06.03 20:04:27.
