data_PCOD9138538
_publ_section_title
;
Structure prediction by ZEFSAII (Michael W. Deem and Ramdas Pophale) SiO2 
 PCOD9138538
Probable space group: C C
;
_chemical_formula_sum "Si O2"
_cell_formula_units_Z 28
_cell_length_a 12.762351
_cell_length_b 9.218623
_cell_length_c 17.706992
_cell_angle_alpha 90.000000
_cell_angle_beta 31.326882
_cell_angle_gamma 90.000000
_cell_volume 1083.123583
_symmetry_space_group_name_H-M "C C"
_symmetry_group_IT_number 9
_symmetry_cell_setting 'monoclinic'
loop_
_space_group_symop_operation_xyz
x,y,z
x,-y,1/2+z
1/2+x,1/2+y,z
1/2+x,1/2-y,1/2+z
loop_
_atom_site_type_symbol
_atom_site_label
_atom_site_fract_x
_atom_site_fract_y
_atom_site_fract_z
Si Si1 0.347090 0.434543 0.588450
Si Si2 0.048060 0.097189 0.585437
Si Si3 0.937325 0.562243 0.989447
Si Si4 0.983864 0.892236 0.767168
Si Si5 0.219106 0.379599 0.457455
Si Si6 0.559563 0.250115 0.345820
Si Si7 0.945444 0.419605 0.313547
O O1 0.399180 0.569208 0.608765
O O2 0.521476 0.380736 0.426662
O O3 0.141296 0.485096 0.676142
O O4 0.277642 0.300375 0.684409
O O5 0.990326 0.999435 0.691538
O O6 0.251457 0.020815 0.429245
O O7 0.071956 0.265336 0.589836
O O8 0.710821 0.589759 0.159615
O O9 0.104607 0.611000 0.946661
O O10 0.951298 0.636267 0.898095
O O11 0.942686 0.728128 0.769371
O O12 0.790684 0.956438 0.930078
O O13 0.428665 0.298447 0.353371
O O14 0.469866 0.106087 0.442900
#
# Coordination Sequence:
#
# PCOD9138538 Si02
#       7
#     4   4   4   4   4   4   4
#     4  11  24  47  73 107 159 198 262 320 397 464
#     4  11  25  43  72 106 152 202 252 320 390 468
#     4  10  23  44  70 102 148 194 255 314 390 454
#     4  11  23  44  70 105 150 192 259 325 372 469
#     4  12  24  44  75 103 144 208 246 311 400 450
#     4  11  24  47  71 112 153 195 254 331 372 472
#     4  10  23  45  69 107 152 193 256 327 381 473
#
# _framework density 25.851158999999999
#
# number of rings (size 3 to 8) (size 9 to 14) (size 15 to 20)
#    0.000    1.143    4.286    3.429    4.000    3.429 
#    0.000    2.857    0.000    0.000    0.000    0.000 
#    0.000    0.000    0.000    0.000    0.000    0.000 
#
# Total GULP energy -78099.786513 kJ/mol
# GULP energy per Si atom -5578.556180 kJ/mol
# Density = 2.579232 g / cm^3
# Si number density = 25.851159 Si / 1000 Ang^3
#
#
#
# Elastic Constant Matrix: (Units=GPa)
#
#
# Indices 1 2 3 4 5 6 
#
# 1 99.9793 16.8910 26.8693 -0.0013 -7.6834 0.0000
# 2 16.8910 107.4328 18.5460 -0.0020 8.4847 0.0001
# 3 26.8693 18.5460 84.0205 -0.0044 0.7604 0.0010
# 4 -0.0013 -0.0020 -0.0044 37.5532 0.0010 5.2089
# 5 -7.6834 8.4847 0.7604 0.0010 34.4254 -0.0001
# 6 0.0000 0.0001 0.0010 5.2089 -0.0001 43.7227
#
#
#
# Elastic Compliance Matrix: (Units=1/GPa)
#
#
# Indices 1 2 3 4 5 6 
#
# 1 0.011373 -0.001445 -0.003345 0.000000 0.002968 0.000000
# 2 -0.001445 0.010052 -0.001732 0.000000 -0.002762 0.000000
# 3 -0.003345 -0.001732 0.013359 0.000001 -0.000615 0.000000
# 4 0.000000 0.000000 0.000001 0.027076 -0.000001 -0.003226
# 5 0.002968 -0.002762 -0.000615 -0.000001 0.030405 0.000000
# 6 0.000000 0.000000 0.000000 -0.003226 0.000000 0.023256
#
#
# Mechanical properties :
#
#
# Convention : Reuss Voigt Hill
#
# Bulk Modulus (GPa) = 45.99534 46.22725 46.11129
# Shear Modulus (GPa) = 36.81529 38.41537 37.61533
#
# Velocity S-wave (km/s) = 3.77785 3.85908 3.81868
# Velocity P-wave (km/s) = 6.07129 6.14634 6.10893
#
# Compressibility (1/GPa) = 0.02174134
#
# Stress axis : x y z
#
# Youngs Moduli (GPa) = 87.92515 99.47843 74.85376
#
# Poissons Ratio (x) = 0.14376 0.25039
# Poissons Ratio (y) = 0.12707 0.12963
# Poissons Ratio (z) = 0.29411 0.17227
#
# Static dielectric constant tensor:
#      x y z
#    x 2.075260 0.000000 0.077230 
#    y 0.000000 2.007190 0.000000 
#    z 0.077230 0.000000 2.164050 
# 
# From -- ./inp_files/17633.got.cif
#   From: 2010.05.17/outbox.cif.g08.bks.cpg/sg9_9_cif.got.tgz:17633.got - 2010.06.03 20:04:27.
