data_PCOD9138786
_publ_section_title
;
Structure prediction by ZEFSAII (Michael W. Deem and Ramdas Pophale) SiO2 
 PCOD9138786
Probable space group: C C
;
_chemical_formula_sum "Si O2"
_cell_formula_units_Z 32
_cell_length_a 7.861953
_cell_length_b 16.794997
_cell_length_c 15.290186
_cell_angle_alpha 90.000000
_cell_angle_beta 142.278507
_cell_angle_gamma 90.000000
_cell_volume 1235.234782
_symmetry_space_group_name_H-M "C C"
_symmetry_group_IT_number 9
_symmetry_cell_setting 'monoclinic'
loop_
_space_group_symop_operation_xyz
x,y,z
x,-y,1/2+z
1/2+x,1/2+y,z
1/2+x,1/2-y,1/2+z
loop_
_atom_site_type_symbol
_atom_site_label
_atom_site_fract_x
_atom_site_fract_y
_atom_site_fract_z
Si Si1 0.824520 0.186840 0.225830
Si Si2 0.631632 0.106860 0.302214
Si Si3 0.816622 0.210054 0.983915
Si Si4 0.314072 0.405493 0.179084
Si Si5 0.735043 0.456004 0.877545
Si Si6 0.058065 0.447196 0.357360
Si Si7 0.067876 0.153765 0.597346
Si Si8 0.348703 0.751890 0.798312
O O1 0.616063 0.133171 0.197607
O O2 0.604655 0.252168 0.100864
O O3 0.023292 0.243491 0.366891
O O4 0.049956 0.122826 0.279550
O O5 0.947158 0.114857 0.462198
O O6 0.483786 0.171320 0.306100
O O7 0.575280 0.015919 0.294079
O O8 0.803756 0.113086 0.984931
O O9 0.920731 0.236471 0.929068
O O10 0.019976 0.239154 0.142944
O O11 0.492744 0.478344 0.291166
O O12 0.396291 0.380301 0.111951
O O13 0.410612 0.328875 0.272403
O O14 0.984091 0.425892 0.042583
O O15 0.920610 0.504614 0.881311
O O16 0.864761 0.382548 0.234834
#
# Coordination Sequence:
#
# PCOD9138786 Si02
#       8
#     4   4   4   4   4   4   4   4
#     4  11  25  44  69 106 142 196 244 313 373 457
#     4  12  25  43  74 104 148 189 255 312 379 455
#     4  11  27  48  78 107 149 194 257 308 389 460
#     4  11  23  47  73 112 149 201 255 324 380 466
#     4  11  24  45  72 104 156 193 261 310 393 452
#     4  10  25  45  71 107 144 200 242 324 377 458
#     4  10  23  47  68 103 149 192 253 311 383 456
#     4  12  26  49  77 107 153 203 253 314 386 466
#
# _framework density 25.906006000000001
#
# number of rings (size 3 to 8) (size 9 to 14) (size 15 to 20)
#    0.000    1.000    3.750    1.500    7.000    2.000 
#    0.000    0.000    0.000    0.000    0.000    0.000 
#    0.000    0.000    0.000    0.000    0.000    0.000 
#
# Total GULP energy -89263.709140 kJ/mol
# GULP energy per Si atom -5578.981821 kJ/mol
# Density = 2.584704 g / cm^3
# Si number density = 25.906006 Si / 1000 Ang^3
#
#
#
# Elastic Constant Matrix: (Units=GPa)
#
#
# Indices 1 2 3 4 5 6 
#
# 1 59.3540 35.2195 -2.0820 0.0001 3.5001 0.0002
# 2 35.2195 210.3996 19.2067 -0.0004 5.1088 0.0000
# 3 -2.0820 19.2067 64.9762 -0.0021 6.8526 -0.0005
# 4 0.0001 -0.0004 -0.0021 41.4087 -0.0006 4.1756
# 5 3.5001 5.1088 6.8526 -0.0006 20.3233 -0.0001
# 6 0.0002 0.0000 -0.0005 4.1756 -0.0001 29.4703
#
#
#
# Elastic Compliance Matrix: (Units=1/GPa)
#
#
# Indices 1 2 3 4 5 6 
#
# 1 0.019049 -0.003288 0.001909 0.000000 -0.003098 0.000000
# 2 -0.003288 0.005464 -0.001696 0.000000 -0.000236 0.000000
# 3 0.001909 -0.001696 0.016530 0.000001 -0.005476 0.000000
# 4 0.000000 0.000000 0.000001 0.024500 0.000000 -0.003471
# 5 -0.003098 -0.000236 -0.005476 0.000000 0.051644 0.000000
# 6 0.000000 0.000000 0.000000 -0.003471 0.000000 0.034424
#
#
# Mechanical properties :
#
#
# Convention : Reuss Voigt Hill
#
# Bulk Modulus (GPa) = 28.65845 48.82423 38.74134
# Shear Modulus (GPa) = 29.51774 37.06618 33.29196
#
# Velocity S-wave (km/s) = 3.37919 3.78669 3.58873
# Velocity P-wave (km/s) = 5.12949 6.16492 5.67089
#
# Compressibility (1/GPa) = 0.03489373
#
# Stress axis : x y z
#
# Youngs Moduli (GPa) = 52.49750 183.02655 60.49561
#
# Poissons Ratio (x) = 0.60172 -0.11548
# Poissons Ratio (y) = 0.17259 0.10257
# Poissons Ratio (z) = -0.10021 0.31033
#
# Static dielectric constant tensor:
#      x y z
#    x 2.309670 0.000000 -0.021930 
#    y 0.000000 2.142650 0.000000 
#    z -0.021930 0.000000 2.080150 
# 
# From -- ./inp_files/29444.got.cif
#   From: 2010.05.17/outbox.cif.g08.bks.cpg/sg9_15_cif.got.tgz:29444.got - 2010.06.03 20:04:27.
