data_PCOD9138017
_publ_section_title
;
Structure prediction by ZEFSAII (Michael W. Deem and Ramdas Pophale) SiO2 
 PCOD9138017
Probable space group: C C
;
_chemical_formula_sum "Si O2"
_cell_formula_units_Z 32
_cell_length_a 4.967526
_cell_length_b 28.525717
_cell_length_c 9.073055
_cell_angle_alpha 90.000000
_cell_angle_beta 78.706023
_cell_angle_gamma 90.000000
_cell_volume 1260.775505
_symmetry_space_group_name_H-M "C C"
_symmetry_group_IT_number 9
_symmetry_cell_setting 'monoclinic'
loop_
_space_group_symop_operation_xyz
x,y,z
x,-y,1/2+z
1/2+x,1/2+y,z
1/2+x,1/2-y,1/2+z
loop_
_atom_site_type_symbol
_atom_site_label
_atom_site_fract_x
_atom_site_fract_y
_atom_site_fract_z
Si Si1 0.981240 0.381089 0.901270
Si Si2 0.656591 0.233333 0.829286
Si Si3 0.918211 0.547555 0.981174
Si Si4 0.087439 0.456780 0.141159
Si Si5 0.860590 0.901251 0.592573
Si Si6 0.543451 0.387880 0.121283
Si Si7 0.263883 0.301729 0.022496
Si Si8 0.641868 0.326348 0.391080
O O1 0.142953 0.412196 0.486586
O O2 0.167574 0.401861 0.756063
O O3 0.653667 0.383265 0.935905
O O4 0.977892 0.415440 0.046201
O O5 0.525868 0.278791 0.918180
O O6 0.644791 0.235585 0.652179
O O7 0.438890 0.193106 0.896315
O O8 0.955798 0.217044 0.852447
O O9 0.616847 0.562870 0.067130
O O10 0.047542 0.503820 0.054172
O O11 0.919947 0.537171 0.808540
O O12 0.391333 0.437840 0.148632
O O13 0.568938 0.828280 0.928447
O O14 0.995712 0.851418 0.543254
O O15 0.668054 0.366650 0.261137
O O16 0.327411 0.344906 0.124937
#
# Coordination Sequence:
#
# PCOD9138017 Si02
#       8
#     4   4   4   4   4   4   4   4
#     4  11  25  46  76 104 154 194 250 300 380 444
#     4  11  25  42  70 103 142 187 249 299 365 429
#     4  12  28  48  76 109 144 189 250 302 370 435
#     4  11  26  48  76 105 148 191 243 309 365 447
#     4  12  28  46  74 109 144 193 245 302 368 443
#     4  10  22  46  74 101 145 202 236 302 379 438
#     4  10  25  42  67 106 144 194 243 309 365 433
#     4  11  23  46  71 101 141 194 240 299 366 439
#
# _framework density 25.381202999999999
#
# number of rings (size 3 to 8) (size 9 to 14) (size 15 to 20)
#    0.000    1.000    2.500    2.250   10.500    2.000 
#    0.000    0.000    0.000    0.000    0.000    0.000 
#    0.000    0.000    0.000    0.000    0.000    0.000 
#
# Total GULP energy -89328.766386 kJ/mol
# GULP energy per Si atom -5583.047899 kJ/mol
# Density = 2.532343 g / cm^3
# Si number density = 25.381203 Si / 1000 Ang^3
#
#
#
# Elastic Constant Matrix: (Units=GPa)
#
#
# Indices 1 2 3 4 5 6 
#
# 1 90.9204 15.6160 16.9767 0.0000 -14.1407 0.0000
# 2 15.6160 96.8340 40.4597 0.0000 -7.4881 0.0000
# 3 16.9767 40.4597 129.8864 0.0000 -36.5962 0.0000
# 4 0.0000 0.0000 0.0000 30.8597 0.0000 -9.4556
# 5 -14.1407 -7.4881 -36.5962 0.0000 42.9516 0.0000
# 6 0.0000 0.0000 0.0000 -9.4556 0.0000 39.0209
#
#
#
# Elastic Compliance Matrix: (Units=1/GPa)
#
#
# Indices 1 2 3 4 5 6 
#
# 1 0.011841 -0.001618 -0.000032 0.000000 0.003589 0.000000
# 2 -0.001618 0.012160 -0.004118 0.000000 -0.001921 0.000000
# 3 -0.000032 -0.004118 0.011554 0.000000 0.009116 0.000000
# 4 0.000000 0.000000 0.000000 0.035004 0.000000 0.008482
# 5 0.003589 -0.001921 0.009116 0.000000 0.031896 0.000000
# 6 0.000000 0.000000 0.000000 0.008482 0.000000 0.027683
#
#
# Mechanical properties :
#
#
# Convention : Reuss Voigt Hill
#
# Bulk Modulus (GPa) = 41.63514 51.52726 46.58120
# Shear Modulus (GPa) = 33.40454 38.87234 36.13844
#
# Velocity S-wave (km/s) = 3.63176 3.91774 3.77746
# Velocity P-wave (km/s) = 5.83316 6.38829 6.11703
#
# Compressibility (1/GPa) = 0.02401817
#
# Stress axis : x y z
#
# Youngs Moduli (GPa) = 84.45391 82.23812 86.54676
#
# Poissons Ratio (x) = 0.13310 0.00280
# Poissons Ratio (y) = 0.13669 0.35636
# Poissons Ratio (z) = 0.00274 0.33862
#
# Static dielectric constant tensor:
#      x y z
#    x 1.155160 0.000000 0.359650 
#    y 0.000000 1.948600 0.000000 
#    z 0.359650 0.000000 1.952990 
# 
# From -- ./inp_files/4304.got.cif
#   From: 2010.05.17/outbox.cif.g08.bks.cpg/sg9_3_cif.got.tgz:4304.got - 2010.06.03 20:04:27.
