data_PCOD9138981
_publ_section_title
;
Structure prediction by ZEFSAII (Michael W. Deem and Ramdas Pophale) SiO2 
 PCOD9138981
Probable space group: C C
;
_chemical_formula_sum "Si O2"
_cell_formula_units_Z 32
_cell_length_a 9.700358
_cell_length_b 22.916151
_cell_length_c 15.219350
_cell_angle_alpha 90.000000
_cell_angle_beta 156.755411
_cell_angle_gamma 90.000000
_cell_volume 1335.197300
_symmetry_space_group_name_H-M "C C"
_symmetry_group_IT_number 9
_symmetry_cell_setting 'monoclinic'
loop_
_space_group_symop_operation_xyz
x,y,z
x,-y,1/2+z
1/2+x,1/2+y,z
1/2+x,1/2-y,1/2+z
loop_
_atom_site_type_symbol
_atom_site_label
_atom_site_fract_x
_atom_site_fract_y
_atom_site_fract_z
Si Si1 0.739280 0.593582 0.847480
Si Si2 0.231314 0.526663 0.434414
Si Si3 0.825574 0.892100 0.827635
Si Si4 0.192540 0.804640 0.945957
Si Si5 0.505044 0.408246 0.560306
Si Si6 0.879981 0.317179 0.697166
Si Si7 0.203195 0.316686 0.081064
Si Si8 0.684098 0.826409 0.510450
O O1 0.523281 0.540010 0.680240
O O2 0.481101 0.632145 0.755340
O O3 0.089430 0.581470 0.108924
O O4 0.832118 0.637769 0.820922
O O5 0.354086 0.558400 0.417473
O O6 0.219810 0.459048 0.401993
O O7 0.867026 0.555562 0.254208
O O8 0.606024 0.843279 0.751839
O O9 0.179434 0.857589 0.007433
O O10 0.806292 0.811963 0.680125
O O11 0.447977 0.815333 0.014754
O O12 0.212569 0.737137 0.984107
O O13 0.527859 0.356344 0.501149
O O14 0.437095 0.371636 0.609437
O O15 0.843561 0.249068 0.661263
O O16 0.044992 0.325398 0.890904
#
# Coordination Sequence:
#
# PCOD9138981 Si02
#       8
#     4   4   4   4   4   4   4   4
#     4  11  23  42  71 100 137 183 223 285 344 403
#     4  11  24  47  72  94 137 185 231 285 340 404
#     4  10  24  43  66 104 135 177 233 276 342 413
#     4  11  22  39  63 102 140 173 224 279 339 409
#     4  11  22  46  69  96 135 184 231 282 344 406
#     4  11  22  40  67  97 141 176 227 272 346 411
#     4  12  20  40  67 103 139 182 217 283 349 407
#     4  11  23  39  65 100 138 178 228 276 344 411
#
# _framework density 23.966495999999999
#
# number of rings (size 3 to 8) (size 9 to 14) (size 15 to 20)
#    0.000    1.000    5.000    2.250    1.750    2.000 
#    0.000    7.500    0.000    0.000    0.000    0.000 
#    0.000    0.000    0.000    0.000    0.000    0.000 
#
# Total GULP energy -89265.189381 kJ/mol
# GULP energy per Si atom -5579.074336 kJ/mol
# Density = 2.391195 g / cm^3
# Si number density = 23.966496 Si / 1000 Ang^3
#
#
#
# Elastic Constant Matrix: (Units=GPa)
#
#
# Indices 1 2 3 4 5 6 
#
# 1 94.3911 -1.9109 8.1275 -0.0202 -8.7258 -0.0077
# 2 -1.9109 75.6891 -10.7396 -0.0123 -16.1626 -0.0048
# 3 8.1275 -10.7396 40.4240 -0.0711 -10.0738 -0.0270
# 4 -0.0202 -0.0123 -0.0711 24.5480 -0.0265 4.8698
# 5 -8.7258 -16.1626 -10.0738 -0.0265 22.8321 -0.0190
# 6 -0.0077 -0.0048 -0.0270 4.8698 -0.0190 38.6419
#
#
#
# Elastic Compliance Matrix: (Units=1/GPa)
#
#
# Indices 1 2 3 4 5 6 
#
# 1 0.011123 0.001198 -0.000727 0.000012 0.004778 0.000003
# 2 0.001198 0.018189 0.008892 0.000052 0.017257 0.000011
# 3 -0.000727 0.008892 0.032297 0.000116 0.020267 0.000019
# 4 0.000012 0.000052 0.000116 0.041781 0.000137 -0.005265
# 5 0.004778 0.017257 0.020267 0.000137 0.066782 0.000033
# 6 0.000003 0.000011 0.000019 -0.005265 0.000033 0.026542
#
#
# Mechanical properties :
#
#
# Convention : Reuss Voigt Hill
#
# Bulk Modulus (GPa) = 12.44802 22.38422 17.41612
# Shear Modulus (GPa) = 24.41794 31.53955 27.97874
#
# Velocity S-wave (km/s) = 3.19538 3.63159 3.42045
# Velocity P-wave (km/s) = 4.33811 5.19082 4.78350
#
# Compressibility (1/GPa) = 0.08033409
#
# Stress axis : x y z
#
# Youngs Moduli (GPa) = 89.90552 54.97850 30.96245
#
# Poissons Ratio (x) = -0.06586 0.02252
# Poissons Ratio (y) = -0.10770 -0.27532
# Poissons Ratio (z) = 0.06539 -0.48887
#
# Static dielectric constant tensor:
#      x y z
#    x 1.922290 -0.000020 -0.005840 
#    y -0.000020 2.026010 -0.000020 
#    z -0.005840 -0.000020 2.048100 
# 
# From -- ./inp_files/23846.got.cif
#   From: 2010.05.17/outbox.cif.g08.bks.cpg/sg9_12_cif.got.tgz:23846.got - 2010.06.03 20:04:27.
