data_PCOD9138501
_publ_section_title
;
Structure prediction by ZEFSAII (Michael W. Deem and Ramdas Pophale) SiO2 
 PCOD9138501
Probable space group: C C
;
_chemical_formula_sum "Si O2"
_cell_formula_units_Z 28
_cell_length_a 7.267933
_cell_length_b 17.024193
_cell_length_c 13.828495
_cell_angle_alpha 90.000000
_cell_angle_beta 37.172929
_cell_angle_gamma 90.000000
_cell_volume 1033.830657
_symmetry_space_group_name_H-M "C C"
_symmetry_group_IT_number 9
_symmetry_cell_setting 'monoclinic'
loop_
_space_group_symop_operation_xyz
x,y,z
x,-y,1/2+z
1/2+x,1/2+y,z
1/2+x,1/2-y,1/2+z
loop_
_atom_site_type_symbol
_atom_site_label
_atom_site_fract_x
_atom_site_fract_y
_atom_site_fract_z
Si Si1 0.286060 0.773475 0.482000
Si Si2 0.119198 0.086507 0.586757
Si Si3 0.552540 0.867466 0.187346
Si Si4 0.164255 0.587299 0.069189
Si Si5 0.621719 0.498907 0.772387
Si Si6 0.405113 0.284343 0.326613
Si Si7 0.754817 0.126637 0.237018
O O1 0.377325 0.812096 0.340597
O O2 0.127129 0.689075 0.564794
O O3 0.598960 0.758393 0.404240
O O4 0.087253 0.839334 0.622825
O O5 0.081147 0.012628 0.674940
O O6 0.472996 0.086282 0.408968
O O7 0.857214 0.099341 0.614635
O O8 0.064726 0.159247 0.682376
O O9 0.326076 0.935325 0.244076
O O10 0.290422 0.514659 0.953663
O O11 0.290127 0.664844 0.965720
O O12 0.292044 0.580044 0.122079
O O13 0.800814 0.579919 0.221488
O O14 0.596175 0.209386 0.273418
#
# Coordination Sequence:
#
# PCOD9138501 Si02
#       7
#     4   4   4   4   4   4   4
#     4  11  24  39  72 101 146 183 240 303 370 427
#     4  10  24  44  68 101 142 189 239 300 357 434
#     4  11  24  46  69 109 145 190 240 302 366 442
#     4  11  26  47  72 100 143 196 240 298 363 435
#     4  11  26  51  67 101 149 194 245 294 358 448
#     4  10  23  44  67 105 141 179 241 302 364 438
#     4  12  23  43  71 109 140 187 243 307 370 428
#
# _framework density 27.083739000000001
#
# number of rings (size 3 to 8) (size 9 to 14) (size 15 to 20)
#    0.000    1.143    2.857    2.571    8.000    1.143 
#   10.286    0.000    0.000    0.000    0.000    0.000 
#    0.000    0.000    0.000    0.000    0.000    0.000 
#
# Total GULP energy -78348.986826 kJ/mol
# GULP energy per Si atom -5596.356202 kJ/mol
# Density = 2.702210 g / cm^3
# Si number density = 27.083739 Si / 1000 Ang^3
#
#
#
# Elastic Constant Matrix: (Units=GPa)
#
#
# Indices 1 2 3 4 5 6 
#
# 1 102.9703 27.3963 -14.3687 -0.0074 2.2077 0.0008
# 2 27.3963 76.9590 25.2778 -0.0040 8.0703 0.0010
# 3 -14.3687 25.2778 102.7456 -0.0208 10.0822 0.0069
# 4 -0.0074 -0.0040 -0.0208 36.6111 0.0082 -1.4274
# 5 2.2077 8.0703 10.0822 0.0082 31.5263 -0.0019
# 6 0.0008 0.0010 0.0069 -1.4274 -0.0019 38.3799
#
#
#
# Elastic Compliance Matrix: (Units=1/GPa)
#
#
# Indices 1 2 3 4 5 6 
#
# 1 0.011443 -0.004968 0.002866 0.000003 -0.000446 -0.000001
# 2 -0.004968 0.016501 -0.004516 -0.000001 -0.002432 0.000000
# 3 0.002866 -0.004516 0.011512 0.000007 -0.002726 -0.000002
# 4 0.000003 -0.000001 0.000007 0.027354 -0.000009 0.001017
# 5 -0.000446 -0.002432 -0.002726 -0.000009 0.033245 0.000002
# 6 -0.000001 0.000000 -0.000002 0.001017 0.000002 0.026093
#
#
# Mechanical properties :
#
#
# Convention : Reuss Voigt Hill
#
# Bulk Modulus (GPa) = 38.13785 39.92064 39.02925
# Shear Modulus (GPa) = 33.75562 37.59474 35.67518
#
# Velocity S-wave (km/s) = 3.53419 3.72975 3.63329
# Velocity P-wave (km/s) = 5.54671 5.77233 5.66064
#
# Compressibility (1/GPa) = 0.02622067
#
# Stress axis : x y z
#
# Youngs Moduli (GPa) = 87.39022 60.60315 86.86483
#
# Poissons Ratio (x) = 0.30109 -0.24898
# Poissons Ratio (y) = 0.43417 0.39226
# Poissons Ratio (z) = -0.25049 0.27367
#
# Static dielectric constant tensor:
#      x y z
#    x 2.095840 0.000000 0.000730 
#    y 0.000000 2.139980 0.000000 
#    z 0.000730 0.000000 2.158450 
# 
# From -- ./inp_files/5547.got.cif
#   From: 2010.05.17/outbox.cif.g08.bks.cpg/sg9_3_cif.got.tgz:5547.got - 2010.06.03 20:04:27.
