data_PCOD9138102
_publ_section_title
;
Structure prediction by ZEFSAII (Michael W. Deem and Ramdas Pophale) SiO2 
 PCOD9138102
Probable space group: C C
;
_chemical_formula_sum "Si O2"
_cell_formula_units_Z 24
_cell_length_a 18.711097
_cell_length_b 6.524202
_cell_length_c 8.126414
_cell_angle_alpha 90.000000
_cell_angle_beta 73.818135
_cell_angle_gamma 90.000000
_cell_volume 952.729425
_symmetry_space_group_name_H-M "C C"
_symmetry_group_IT_number 9
_symmetry_cell_setting 'monoclinic'
loop_
_space_group_symop_operation_xyz
x,y,z
x,-y,1/2+z
1/2+x,1/2+y,z
1/2+x,1/2-y,1/2+z
loop_
_atom_site_type_symbol
_atom_site_label
_atom_site_fract_x
_atom_site_fract_y
_atom_site_fract_z
Si Si1 0.091890 0.380786 0.199980
Si Si2 0.360715 0.413479 0.688284
Si Si3 0.575086 0.703685 0.860834
Si Si4 0.211380 0.950159 0.696667
Si Si5 0.290817 0.748626 0.908080
Si Si6 0.962321 0.847476 0.910724
O O1 0.096105 0.621886 0.217915
O O2 0.170026 0.261971 0.173348
O O3 0.029238 0.311791 0.371767
O O4 0.060917 0.304777 0.045968
O O5 0.289862 0.521082 0.823423
O O6 0.346214 0.298141 0.526095
O O7 0.405638 0.295106 0.799650
O O8 0.413059 0.605617 0.601518
O O9 0.646254 0.559839 0.840115
O O10 0.507487 0.559917 0.850169
O O11 0.286010 0.892440 0.748532
O O12 0.230548 0.120129 0.549024
#
# Coordination Sequence:
#
# PCOD9138102 Si02
#       6
#     4   4   4   4   4   4
#     4  11  25  42  75 105 142 185 236 311 370 432
#     4  10  24  47  74  99 148 195 244 298 355 439
#     4  11  25  42  75 107 139 188 234 312 373 429
#     4  11  26  47  71 105 150 182 250 300 366 437
#     4  11  26  47  72 105 144 202 240 299 362 435
#     4  10  22  49  67 105 145 180 244 308 362 428
#
# _framework density 25.190785000000002
#
# number of rings (size 3 to 8) (size 9 to 14) (size 15 to 20)
#    0.000    1.333    3.333    0.000    7.000    2.667 
#   12.000    0.000    0.000    0.000    0.000    0.000 
#    0.000    0.000    0.000    0.000    0.000    0.000 
#
# Total GULP energy -66835.836678 kJ/mol
# GULP energy per Si atom -5569.653056 kJ/mol
# Density = 2.513345 g / cm^3
# Si number density = 25.190785 Si / 1000 Ang^3
#
#
#
# Elastic Constant Matrix: (Units=GPa)
#
#
# Indices 1 2 3 4 5 6 
#
# 1 94.6508 53.6263 29.3895 0.0000 11.2223 0.0000
# 2 53.6263 94.5690 14.5786 0.0000 1.4947 0.0000
# 3 29.3895 14.5786 53.4487 0.0000 12.5083 0.0000
# 4 0.0000 0.0000 0.0000 21.5771 0.0000 5.9519
# 5 11.2223 1.4947 12.5083 0.0000 33.5629 0.0000
# 6 0.0000 0.0000 0.0000 5.9519 0.0000 35.7725
#
#
#
# Elastic Compliance Matrix: (Units=1/GPa)
#
#
# Indices 1 2 3 4 5 6 
#
# 1 0.018313 -0.009287 -0.006793 0.000000 -0.003178 0.000000
# 2 -0.009287 0.015763 0.000268 0.000000 0.002303 0.000000
# 3 -0.006793 0.000268 0.023930 0.000000 -0.006659 0.000000
# 4 0.000000 0.000000 0.000000 0.048575 0.000000 -0.008082
# 5 -0.003178 0.002303 -0.006659 0.000000 0.033237 0.000000
# 6 0.000000 0.000000 0.000000 -0.008082 0.000000 0.029299
#
#
# Mechanical properties :
#
#
# Convention : Reuss Voigt Hill
#
# Bulk Modulus (GPa) = 37.90431 48.65080 43.27755
# Shear Modulus (GPa) = 23.86251 27.85410 25.85831
#
# Velocity S-wave (km/s) = 3.08112 3.32885 3.20738
# Velocity P-wave (km/s) = 5.26662 5.84208 5.56180
#
# Compressibility (1/GPa) = 0.02638223
#
# Stress axis : x y z
#
# Youngs Moduli (GPa) = 54.60612 63.43998 41.78891
#
# Poissons Ratio (x) = 0.58918 0.28386
# Poissons Ratio (y) = 0.50714 -0.01121
# Poissons Ratio (z) = 0.37092 -0.01701
#
# Static dielectric constant tensor:
#      x y z
#    x 2.015080 0.000000 -0.003180 
#    y 0.000000 1.987240 0.000000 
#    z -0.003180 0.000000 2.038570 
# 
# From -- ./inp_files/11116.got.cif
#   From: 2010.05.17/outbox.cif.g08.bks.cpg/sg9_6_cif.got.tgz:11116.got - 2010.06.03 20:04:27.
