data_PCOD9138562
_publ_section_title
;
Structure prediction by ZEFSAII (Michael W. Deem and Ramdas Pophale) SiO2 
 PCOD9138562
Probable space group: C C
;
_chemical_formula_sum "Si O2"
_cell_formula_units_Z 28
_cell_length_a 20.188455
_cell_length_b 8.527702
_cell_length_c 10.625557
_cell_angle_alpha 90.000000
_cell_angle_beta 137.982865
_cell_angle_gamma 90.000000
_cell_volume 1224.452393
_symmetry_space_group_name_H-M "C C"
_symmetry_group_IT_number 9
_symmetry_cell_setting 'monoclinic'
loop_
_space_group_symop_operation_xyz
x,y,z
x,-y,1/2+z
1/2+x,1/2+y,z
1/2+x,1/2-y,1/2+z
loop_
_atom_site_type_symbol
_atom_site_label
_atom_site_fract_x
_atom_site_fract_y
_atom_site_fract_z
Si Si1 0.031130 0.501892 0.733740
Si Si2 0.342226 0.842401 0.375933
Si Si3 0.152901 0.722608 0.766401
Si Si4 0.488322 0.763698 0.385949
Si Si5 0.821472 0.075044 0.179603
Si Si6 0.210291 0.719632 0.563828
Si Si7 0.153827 0.923447 0.263485
O O1 0.067907 0.589705 0.657886
O O2 0.926273 0.414637 0.583853
O O3 0.032753 0.643037 0.835214
O O4 0.113062 0.379373 0.890710
O O5 0.401189 0.869278 0.327032
O O6 0.326567 0.655253 0.326995
O O7 0.238832 0.911184 0.275893
O O8 0.205624 0.732737 0.706062
O O9 0.116043 0.900448 0.731816
O O10 0.234295 0.666134 0.982908
O O11 0.424399 0.612585 0.257017
O O12 0.568629 0.697167 0.597295
O O13 0.800219 0.892909 0.154414
O O14 0.203551 0.868066 0.464078
#
# Coordination Sequence:
#
# PCOD9138562 Si02
#       7
#     4   4   4   4   4   4   4
#     4  11  22  45  73  99 140 189 237 289 361 424
#     4  10  23  44  72  98 139 184 237 297 358 409
#     4  11  26  43  71 103 142 187 239 290 361 421
#     4  10  23  45  69 102 140 180 236 295 351 417
#     4   9  23  44  69  98 136 185 230 292 351 422
#     4  11  24  43  74 100 140 189 236 289 362 415
#     4  12  25  46  68 104 145 184 241 298 350 428
#
# _framework density 22.867366000000001
#
# number of rings (size 3 to 8) (size 9 to 14) (size 15 to 20)
#    0.857    0.571    1.429    3.429   10.000    0.000 
#   10.286    0.000    0.000    0.000    0.000    0.000 
#    0.000    0.000    0.000    0.000    0.000    0.000 
#
# Total GULP energy -77996.377880 kJ/mol
# GULP energy per Si atom -5571.169849 kJ/mol
# Density = 2.281532 g / cm^3
# Si number density = 22.867366 Si / 1000 Ang^3
#
#
#
# Elastic Constant Matrix: (Units=GPa)
#
#
# Indices 1 2 3 4 5 6 
#
# 1 72.8005 -6.2859 14.8501 0.0000 2.5737 0.0000
# 2 -6.2859 56.1817 25.1516 0.0000 -1.7665 0.0000
# 3 14.8501 25.1516 65.3166 0.0000 -0.6388 0.0000
# 4 0.0000 0.0000 0.0000 31.8891 0.0000 -3.1590
# 5 2.5737 -1.7665 -0.6388 0.0000 33.3431 0.0000
# 6 0.0000 0.0000 0.0000 -3.1590 0.0000 25.4264
#
#
#
# Elastic Compliance Matrix: (Units=1/GPa)
#
#
# Indices 1 2 3 4 5 6 
#
# 1 0.015114 0.003868 -0.004936 0.000000 -0.001056 0.000000
# 2 0.003868 0.022529 -0.009548 0.000000 0.000712 0.000000
# 3 -0.004936 -0.009548 0.020111 0.000000 0.000260 0.000000
# 4 0.000000 0.000000 0.000000 0.031749 0.000000 0.003945
# 5 -0.001056 0.000712 0.000260 0.000000 0.030115 0.000000
# 6 0.000000 0.000000 0.000000 0.003945 0.000000 0.039819
#
#
# Mechanical properties :
#
#
# Convention : Reuss Voigt Hill
#
# Bulk Modulus (GPa) = 27.38035 29.08117 28.23076
# Shear Modulus (GPa) = 25.92759 28.83725 27.38242
#
# Velocity S-wave (km/s) = 3.37088 3.55500 3.46417
# Velocity P-wave (km/s) = 5.21057 5.44019 5.32662
#
# Compressibility (1/GPa) = 0.03652255
#
# Stress axis : x y z
#
# Youngs Moduli (GPa) = 66.16240 44.38761 49.72319
#
# Poissons Ratio (x) = -0.17167 0.24543
# Poissons Ratio (y) = -0.25589 0.47474
# Poissons Ratio (z) = 0.32658 0.42379
#
# Static dielectric constant tensor:
#      x y z
#    x 1.843400 0.000000 -0.002600 
#    y 0.000000 1.911460 0.000000 
#    z -0.002600 0.000000 1.881510 
# 
# From -- ./inp_files/11433.got.cif
#   From: 2010.05.17/outbox.cif.g08.bks.cpg/sg9_6_cif.got.tgz:11433.got - 2010.06.03 20:04:27.
