data_PCOD9138630
_publ_section_title
;
Structure prediction by ZEFSAII (Michael W. Deem and Ramdas Pophale) SiO2 
 PCOD9138630
Probable space group: C C
;
_chemical_formula_sum "Si O2"
_cell_formula_units_Z 32
_cell_length_a 27.613244
_cell_length_b 9.342650
_cell_length_c 16.350351
_cell_angle_alpha 90.000000
_cell_angle_beta 19.411637
_cell_angle_gamma 90.000000
_cell_volume 1401.889548
_symmetry_space_group_name_H-M "C C"
_symmetry_group_IT_number 9
_symmetry_cell_setting 'monoclinic'
loop_
_space_group_symop_operation_xyz
x,y,z
x,-y,1/2+z
1/2+x,1/2+y,z
1/2+x,1/2-y,1/2+z
loop_
_atom_site_type_symbol
_atom_site_label
_atom_site_fract_x
_atom_site_fract_y
_atom_site_fract_z
Si Si1 0.051220 0.191460 0.040840
Si Si2 0.765280 0.336006 0.057496
Si Si3 0.435817 0.601562 0.693834
Si Si4 0.249169 0.231652 0.198188
Si Si5 0.291465 0.529261 0.764133
Si Si6 0.799472 0.357146 0.443340
Si Si7 0.823631 0.705233 0.716849
Si Si8 0.977865 0.523201 0.349673
O O1 0.973831 0.341298 0.181392
O O2 0.123866 0.193497 0.836394
O O3 0.175974 0.158855 0.906316
O O4 0.936401 0.062288 0.222304
O O5 0.817296 0.202657 0.923197
O O6 0.746695 0.480822 0.035356
O O7 0.890693 0.378406 0.923042
O O8 0.595032 0.659141 0.465169
O O9 0.406247 0.600465 0.643877
O O10 0.268327 0.374199 0.220713
O O11 0.238157 0.234664 0.116692
O O12 0.385012 0.124663 0.000122
O O13 0.345529 0.370213 0.657264
O O14 0.142343 0.513280 0.055310
O O15 0.789371 0.304893 0.367161
O O16 0.950619 0.603571 0.479458
#
# Coordination Sequence:
#
# PCOD9138630 Si02
#       8
#     4   4   4   4   4   4   4   4
#     4  11  24  48  67 101 145 179 240 298 347 435
#     4  10  23  45  69  96 143 187 228 298 360 418
#     4  12  24  44  73 108 140 186 249 293 355 440
#     4  11  25  50  71 104 153 190 234 313 362 427
#     4  12  27  46  72 110 141 192 255 287 363 450
#     4  11  24  46  70 104 142 185 238 299 363 426
#     4  11  24  45  74 102 139 192 237 298 365 426
#     4  10  23  48  70  99 145 187 241 296 365 428
#
# _framework density 22.826335
#
# number of rings (size 3 to 8) (size 9 to 14) (size 15 to 20)
#    0.000    1.000    6.250    1.500    3.500    4.000 
#    0.000    0.000    0.000    0.000    0.000    0.000 
#    0.000    0.000    0.000    0.000    0.000    0.000 
#
# Total GULP energy -89416.623417 kJ/mol
# GULP energy per Si atom -5588.538964 kJ/mol
# Density = 2.277438 g / cm^3
# Si number density = 22.826335 Si / 1000 Ang^3
#
#
#
# Elastic Constant Matrix: (Units=GPa)
#
#
# Indices 1 2 3 4 5 6 
#
# 1 103.0597 60.3744 9.5498 0.0000 15.5770 0.0000
# 2 60.3744 103.2317 51.6685 0.0000 35.1199 0.0000
# 3 9.5498 51.6685 95.6759 0.0000 13.5457 0.0000
# 4 0.0000 0.0000 0.0000 24.7647 0.0000 10.7134
# 5 15.5770 35.1199 13.5457 0.0000 33.3028 0.0000
# 6 0.0000 0.0000 0.0000 10.7134 0.0000 37.0542
#
#
#
# Elastic Compliance Matrix: (Units=1/GPa)
#
#
# Indices 1 2 3 4 5 6 
#
# 1 0.016712 -0.014048 0.005229 0.000000 0.004871 0.000000
# 2 -0.014048 0.031534 -0.012574 0.000000 -0.021570 0.000000
# 3 0.005229 -0.012574 0.016117 0.000000 0.004258 0.000000
# 4 0.000000 0.000000 0.000000 0.046153 0.000000 -0.013344
# 5 0.004871 -0.021570 0.004258 0.000000 0.048764 0.000000
# 6 0.000000 0.000000 0.000000 -0.013344 0.000000 0.030846
#
#
# Mechanical properties :
#
#
# Convention : Reuss Voigt Hill
#
# Bulk Modulus (GPa) = 46.34407 60.57250 53.45828
# Shear Modulus (GPa) = 20.82428 31.04931 25.93680
#
# Velocity S-wave (km/s) = 3.02369 3.69215 3.37451
# Velocity P-wave (km/s) = 5.70414 6.69102 6.21719
#
# Compressibility (1/GPa) = 0.02157774
#
# Stress axis : x y z
#
# Youngs Moduli (GPa) = 59.83719 31.71158 62.04483
#
# Poissons Ratio (x) = 0.44549 -0.32442
# Poissons Ratio (y) = 0.84060 0.78013
# Poissons Ratio (z) = -0.31287 0.39873
#
# Static dielectric constant tensor:
#      x y z
#    x 1.884580 0.000000 -0.017390 
#    y 0.000000 1.837220 0.000000 
#    z -0.017390 0.000000 1.872560 
# 
# From -- ./inp_files/24181.got.cif
#   From: 2010.05.17/outbox.cif.g08.bks.cpg/sg9_13_cif.got.tgz:24181.got - 2010.06.03 20:04:27.
