data_PCOD9138013
_publ_section_title
;
Structure prediction by ZEFSAII (Michael W. Deem and Ramdas Pophale) SiO2 
 PCOD9138013
Probable space group: C C
;
_chemical_formula_sum "Si O2"
_cell_formula_units_Z 32
_cell_length_a 11.117501
_cell_length_b 9.908200
_cell_length_c 13.980724
_cell_angle_alpha 90.000000
_cell_angle_beta 124.050974
_cell_angle_gamma 90.000000
_cell_volume 1275.983190
_symmetry_space_group_name_H-M "C C"
_symmetry_group_IT_number 9
_symmetry_cell_setting 'monoclinic'
loop_
_space_group_symop_operation_xyz
x,y,z
x,-y,1/2+z
1/2+x,1/2+y,z
1/2+x,1/2-y,1/2+z
loop_
_atom_site_type_symbol
_atom_site_label
_atom_site_fract_x
_atom_site_fract_y
_atom_site_fract_z
Si Si1 0.040250 0.971027 0.850960
Si Si2 0.739001 0.887525 0.169125
Si Si3 0.465089 0.772813 0.102271
Si Si4 0.893709 0.683234 0.778131
Si Si5 0.666696 0.878871 0.756190
Si Si6 0.890372 0.731764 0.090769
Si Si7 0.930057 0.991061 0.997042
Si Si8 0.846850 0.498496 0.916665
O O1 0.173661 0.979871 0.839370
O O2 0.000441 0.811796 0.838095
O O3 0.049242 0.012451 0.966748
O O4 0.905153 0.064869 0.758715
O O5 0.639116 0.792076 0.190824
O O6 0.752988 0.802078 0.078959
O O7 0.660821 0.030088 0.156645
O O8 0.388933 0.832619 0.162451
O O9 0.422789 0.619535 0.062243
O O10 0.416932 0.863126 0.990607
O O11 0.750556 0.745337 0.762525
O O12 0.920495 0.550754 0.852298
O O13 0.505939 0.837450 0.713807
O O14 0.773310 0.960313 0.875270
O O15 0.964262 0.855156 0.067822
O O16 0.856768 0.618620 0.998790
#
# Coordination Sequence:
#
# PCOD9138013 Si02
#       8
#     4   4   4   4   4   4   4   4
#     4  10  23  47  73 109 150 198 265 333 392 473
#     4  10  23  43  69 111 152 192 265 326 387 472
#     4  12  26  48  72 116 159 208 265 337 408 480
#     4  10  24  48  72 105 154 201 260 332 397 467
#     4  10  22  46  73 110 149 204 262 330 398 472
#     4  12  22  46  79 106 152 208 262 321 407 476
#     4  10  23  46  75 113 157 203 261 331 400 482
#     4  12  25  48  77 114 145 210 274 318 409 488
#
# _framework density 25.078699
#
# number of rings (size 3 to 8) (size 9 to 14) (size 15 to 20)
#    0.000    1.500    3.750    3.000    1.750    2.000 
#   13.500    0.000    0.000    0.000    0.000    0.000 
#    0.000    0.000    0.000    0.000    0.000    0.000 
#
# Total GULP energy -89305.655413 kJ/mol
# GULP energy per Si atom -5581.603463 kJ/mol
# Density = 2.502162 g / cm^3
# Si number density = 25.078699 Si / 1000 Ang^3
#
#
#
# Elastic Constant Matrix: (Units=GPa)
#
#
# Indices 1 2 3 4 5 6 
#
# 1 72.1505 27.8526 32.6508 0.0000 5.3820 0.0000
# 2 27.8526 113.9094 35.8475 0.0000 4.0067 0.0000
# 3 32.6508 35.8475 65.8209 0.0000 -3.7234 0.0000
# 4 0.0000 0.0000 0.0000 50.4460 0.0000 -12.4042
# 5 5.3820 4.0067 -3.7234 0.0000 30.9626 0.0000
# 6 0.0000 0.0000 0.0000 -12.4042 0.0000 35.6972
#
#
#
# Elastic Compliance Matrix: (Units=1/GPa)
#
#
# Indices 1 2 3 4 5 6 
#
# 1 0.018709 -0.001737 -0.008564 0.000000 -0.004057 0.000000
# 2 -0.001737 0.010891 -0.005168 0.000000 -0.001729 0.000000
# 3 -0.008564 -0.005168 0.022531 0.000000 0.004867 0.000000
# 4 0.000000 0.000000 0.000000 0.021675 0.000000 0.007532
# 5 -0.004057 -0.001729 0.004867 0.000000 0.033811 0.000000
# 6 0.000000 0.000000 0.000000 0.007532 0.000000 0.030631
#
#
# Mechanical properties :
#
#
# Convention : Reuss Voigt Hill
#
# Bulk Modulus (GPa) = 47.18521 49.39807 48.29164
# Shear Modulus (GPa) = 28.36915 33.78984 31.07949
#
# Velocity S-wave (km/s) = 3.36699 3.67461 3.52416
# Velocity P-wave (km/s) = 5.82848 6.14359 5.98811
#
# Compressibility (1/GPa) = 0.02119308
#
# Stress axis : x y z
#
# Youngs Moduli (GPa) = 53.45150 91.82230 44.38395
#
# Poissons Ratio (x) = 0.15947 0.38011
# Poissons Ratio (y) = 0.09283 0.22936
# Poissons Ratio (z) = 0.45777 0.47450
#
# Static dielectric constant tensor:
#      x y z
#    x 2.026250 0.000000 0.045100 
#    y 0.000000 1.959360 0.000000 
#    z 0.045100 0.000000 2.120230 
# 
# From -- ./inp_files/24401.got.cif
#   From: 2010.05.17/outbox.cif.g08.bks.cpg/sg9_13_cif.got.tgz:24401.got - 2010.06.03 20:04:27.
