data_PCOD9138578
_publ_section_title
;
Structure prediction by ZEFSAII (Michael W. Deem and Ramdas Pophale) SiO2 
 PCOD9138578
Probable space group: C C
;
_chemical_formula_sum "Si O2"
_cell_formula_units_Z 28
_cell_length_a 18.377288
_cell_length_b 6.466814
_cell_length_c 11.502611
_cell_angle_alpha 90.000000
_cell_angle_beta 116.598520
_cell_angle_gamma 90.000000
_cell_volume 1222.323835
_symmetry_space_group_name_H-M "C C"
_symmetry_group_IT_number 9
_symmetry_cell_setting 'monoclinic'
loop_
_space_group_symop_operation_xyz
x,y,z
x,-y,1/2+z
1/2+x,1/2+y,z
1/2+x,1/2-y,1/2+z
loop_
_atom_site_type_symbol
_atom_site_label
_atom_site_fract_x
_atom_site_fract_y
_atom_site_fract_z
Si Si1 0.897970 0.144270 0.805410
Si Si2 0.972716 0.406054 0.039618
Si Si3 0.615153 0.858598 0.554770
Si Si4 0.806387 0.731386 0.449675
Si Si5 0.033539 0.122928 0.287673
Si Si6 0.680867 0.390429 0.302851
Si Si7 0.749282 0.899333 0.048620
O O1 0.847002 0.105908 0.887748
O O2 0.826803 0.202511 0.665708
O O3 0.957609 0.322759 0.896994
O O4 0.953301 0.964075 0.793682
O O5 0.035691 0.589845 0.074730
O O6 0.011054 0.236120 0.152102
O O7 0.881188 0.427742 0.022629
O O8 0.582301 0.771362 0.409985
O O9 0.667218 0.693926 0.664297
O O10 0.670527 0.061210 0.573124
O O11 0.733652 0.599366 0.344421
O O12 0.776752 0.867382 0.534813
O O13 0.094254 0.939654 0.298535
O O14 0.723307 0.222492 0.415669
#
# Coordination Sequence:
#
# PCOD9138578 Si02
#       7
#     4   4   4   4   4   4   4
#     4  10  23  44  74  98 144 185 236 292 360 418
#     4  10  25  45  69 106 146 179 248 292 354 438
#     4  12  27  43  74 105 146 193 239 297 369 419
#     4  10  25  48  69 109 140 186 247 288 353 437
#     4  12  24  45  71 103 147 190 235 297 369 420
#     4  12  28  44  73 105 148 186 245 298 354 440
#     4  12  24  47  74 104 145 191 236 302 359 428
#
# _framework density 22.907184000000001
#
# number of rings (size 3 to 8) (size 9 to 14) (size 15 to 20)
#    0.857    0.000    2.857    3.429    4.000    4.571 
#    0.000    0.000    0.000    0.000    0.000    0.000 
#    0.000    0.000    0.000    0.000    0.000    0.000 
#
# Total GULP energy -78163.875984 kJ/mol
# GULP energy per Si atom -5583.133999 kJ/mol
# Density = 2.285505 g / cm^3
# Si number density = 22.907184 Si / 1000 Ang^3
#
#
#
# Elastic Constant Matrix: (Units=GPa)
#
#
# Indices 1 2 3 4 5 6 
#
# 1 97.7248 24.7463 41.3257 0.0000 4.6720 0.0000
# 2 24.7463 41.9683 33.0849 0.0000 2.4509 0.0000
# 3 41.3257 33.0849 113.1895 0.0000 36.5183 0.0000
# 4 0.0000 0.0000 0.0000 37.0712 0.0000 -3.0874
# 5 4.6720 2.4509 36.5183 0.0000 25.8344 0.0000
# 6 0.0000 0.0000 0.0000 -3.0874 0.0000 42.9972
#
#
#
# Elastic Compliance Matrix: (Units=1/GPa)
#
#
# Indices 1 2 3 4 5 6 
#
# 1 0.013298 -0.003676 -0.005731 0.000000 0.006045 0.000000
# 2 -0.003676 0.037399 -0.015919 0.000000 0.019619 0.000000
# 3 -0.005731 -0.015919 0.027132 0.000000 -0.035806 0.000000
# 4 0.000000 0.000000 0.000000 0.027137 0.000000 0.001949
# 5 0.006045 0.019619 -0.035806 0.000000 0.086368 0.000000
# 6 0.000000 0.000000 0.000000 0.001949 0.000000 0.023397
#
#
# Mechanical properties :
#
#
# Convention : Reuss Voigt Hill
#
# Bulk Modulus (GPa) = 36.79586 50.13294 43.46440
# Shear Modulus (GPa) = 18.21863 31.42893 24.82378
#
# Velocity S-wave (km/s) = 2.82321 3.70809 3.29548
# Velocity P-wave (km/s) = 5.16965 6.34555 5.78754
#
# Compressibility (1/GPa) = 0.02717697
#
# Stress axis : x y z
#
# Youngs Moduli (GPa) = 75.19798 26.73859 36.85631
#
# Poissons Ratio (x) = 0.09830 0.21121
# Poissons Ratio (y) = 0.27646 0.58672
# Poissons Ratio (z) = 0.43094 0.42566
#
# Static dielectric constant tensor:
#      x y z
#    x 1.838960 0.000000 0.016160 
#    y 0.000000 1.814420 0.000000 
#    z 0.016160 0.000000 1.853540 
# 
# From -- ./inp_files/19641.got.cif
#   From: 2010.05.17/outbox.cif.g08.bks.cpg/sg9_10_cif.got.tgz:19641.got - 2010.06.03 20:04:27.
