data_PCOD9138131
_publ_section_title
;
Structure prediction by ZEFSAII (Michael W. Deem and Ramdas Pophale) SiO2 
 PCOD9138131
Probable space group: C C
;
_chemical_formula_sum "Si O2"
_cell_formula_units_Z 28
_cell_length_a 6.363109
_cell_length_b 26.335830
_cell_length_c 9.721055
_cell_angle_alpha 90.000000
_cell_angle_beta 131.686243
_cell_angle_gamma 90.000000
_cell_volume 1216.558095
_symmetry_space_group_name_H-M "C C"
_symmetry_group_IT_number 9
_symmetry_cell_setting 'monoclinic'
loop_
_space_group_symop_operation_xyz
x,y,z
x,-y,1/2+z
1/2+x,1/2+y,z
1/2+x,1/2-y,1/2+z
loop_
_atom_site_type_symbol
_atom_site_label
_atom_site_fract_x
_atom_site_fract_y
_atom_site_fract_z
Si Si1 0.500000 0.210317 0.902240
Si Si2 0.519802 0.541766 0.237344
Si Si3 0.578693 0.903051 0.034143
Si Si4 0.416084 0.233937 0.149317
Si Si5 0.141934 0.601794 0.859193
Si Si6 0.851112 0.297281 0.903494
Si Si7 0.016066 0.941888 0.055566
O O1 0.589095 0.161634 0.856301
O O2 0.666292 0.259286 0.914791
O O3 0.174119 0.226117 0.766906
O O4 0.537827 0.199177 0.080374
O O5 0.852944 0.555121 0.387577
O O6 0.467200 0.488935 0.137062
O O7 0.449403 0.543294 0.369169
O O8 0.341382 0.581256 0.066891
O O9 0.388642 0.853157 0.976033
O O10 0.746427 0.910043 0.250011
O O11 0.805128 0.897825 0.012645
O O12 0.277603 0.200404 0.210559
O O13 0.154228 0.271426 0.013606
O O14 0.835671 0.575229 0.719842
#
# Coordination Sequence:
#
# PCOD9138131 Si02
#       7
#     4   4   4   4   4   4   4
#     4  11  23  41  64  94 141 179 229 290 332 411
#     4  11  26  44  73 102 134 180 230 288 351 410
#     4  11  25  43  70 100 139 180 230 281 344 416
#     4  10  23  38  62  92 132 183 230 274 345 397
#     4  11  25  43  70 101 136 184 228 279 352 406
#     4  11  23  41  63  97 137 182 231 282 341 408
#     4  11  25  48  68 102 139 176 230 292 347 418
#
# _framework density 23.015751000000002
#
# number of rings (size 3 to 8) (size 9 to 14) (size 15 to 20)
#    0.000    1.143    0.000    5.143    6.000    8.000 
#    0.000    0.000    0.000    0.000    0.000    0.000 
#    0.000    0.000    0.000    0.000    0.000    0.000 
#
# Total GULP energy -78064.118900 kJ/mol
# GULP energy per Si atom -5576.008493 kJ/mol
# Density = 2.296337 g / cm^3
# Si number density = 23.015751 Si / 1000 Ang^3
#
#
#
# Elastic Constant Matrix: (Units=GPa)
#
#
# Indices 1 2 3 4 5 6 
#
# 1 78.4959 4.6278 21.7064 0.0000 -15.9822 0.0000
# 2 4.6278 43.8360 13.7332 0.0000 -8.5599 0.0000
# 3 21.7064 13.7332 113.9950 0.0000 -25.0567 0.0000
# 4 0.0000 0.0000 0.0000 42.8662 0.0000 1.5014
# 5 -15.9822 -8.5599 -25.0567 0.0000 38.3200 0.0000
# 6 0.0000 0.0000 0.0000 1.5014 0.0000 28.4547
#
#
#
# Elastic Compliance Matrix: (Units=1/GPa)
#
#
# Indices 1 2 3 4 5 6 
#
# 1 0.014178 -0.000041 -0.001631 0.000000 0.004837 0.000000
# 2 -0.000041 0.024245 -0.002016 0.000000 0.004080 0.000000
# 3 -0.001631 -0.002016 0.010601 0.000000 0.005801 0.000000
# 4 0.000000 0.000000 0.000000 0.023372 0.000000 -0.001233
# 5 0.004837 0.004080 0.005801 0.000000 0.032818 0.000000
# 6 0.000000 0.000000 0.000000 -0.001233 0.000000 0.035209
#
#
# Mechanical properties :
#
#
# Convention : Reuss Voigt Hill
#
# Bulk Modulus (GPa) = 24.01159 35.16241 29.58700
# Shear Modulus (GPa) = 30.92491 35.01215 32.96853
#
# Velocity S-wave (km/s) = 3.66955 3.90452 3.78886
# Velocity P-wave (km/s) = 5.33005 5.96974 5.65894
#
# Compressibility (1/GPa) = 0.04164655
#
# Stress axis : x y z
#
# Youngs Moduli (GPa) = 70.53180 41.24554 94.33123
#
# Poissons Ratio (x) = 0.00169 0.15390
# Poissons Ratio (y) = 0.00290 0.19019
# Poissons Ratio (z) = 0.11507 0.08316
#
# Static dielectric constant tensor:
#      x y z
#    x 1.847950 0.000000 -0.089410 
#    y 0.000000 1.852620 0.000000 
#    z -0.089410 0.000000 2.249050 
# 
# From -- ./inp_files/4532.got.cif
#   From: 2010.05.17/outbox.cif.g08.bks.cpg/sg9_3_cif.got.tgz:4532.got - 2010.06.03 20:04:27.
