data_PCOD9138922
_publ_section_title
;
Structure prediction by ZEFSAII (Michael W. Deem and Ramdas Pophale) SiO2 
 PCOD9138922
Probable space group: C C
;
_chemical_formula_sum "Si O2"
_cell_formula_units_Z 32
_cell_length_a 14.676017
_cell_length_b 12.166874
_cell_length_c 8.849405
_cell_angle_alpha 90.000000
_cell_angle_beta 111.201741
_cell_angle_gamma 90.000000
_cell_volume 1473.204174
_symmetry_space_group_name_H-M "C C"
_symmetry_group_IT_number 9
_symmetry_cell_setting 'monoclinic'
loop_
_space_group_symop_operation_xyz
x,y,z
x,-y,1/2+z
1/2+x,1/2+y,z
1/2+x,1/2-y,1/2+z
loop_
_atom_site_type_symbol
_atom_site_label
_atom_site_fract_x
_atom_site_fract_y
_atom_site_fract_z
Si Si1 0.834260 0.608353 0.232000
Si Si2 0.900283 0.975455 0.296927
Si Si3 0.692679 0.225789 0.475994
Si Si4 0.873621 0.612996 0.598720
Si Si5 0.476259 0.288806 0.839087
Si Si6 0.494546 0.261242 0.202665
Si Si7 0.767422 0.000472 0.966833
Si Si8 0.595036 0.135059 0.720424
O O1 0.822662 0.622239 0.405416
O O2 0.830292 0.482364 0.177214
O O3 0.939029 0.661126 0.251018
O O4 0.758404 0.679310 0.087723
O O5 0.968409 0.080752 0.332803
O O6 0.863631 0.950808 0.442877
O O7 0.945029 0.871279 0.240750
O O8 0.797064 0.008538 0.158717
O O9 0.607811 0.264717 0.314536
O O10 0.755954 0.130337 0.435070
O O11 0.639752 0.168354 0.587519
O O12 0.887034 0.726498 0.699290
O O13 0.988049 0.581240 0.635599
O O14 0.569310 0.243039 0.803495
O O15 0.480259 0.252398 0.015260
O O16 0.670236 0.060926 0.858097
#
# Coordination Sequence:
#
# PCOD9138922 Si02
#       8
#     4   4   4   4   4   4   4   4
#     4  12  23  47  69 101 139 182 234 287 354 411
#     4  12  25  44  71  99 142 181 228 287 360 409
#     4  12  26  44  70 104 137 186 232 289 351 421
#     4  10  25  43  73  96 140 184 227 289 350 416
#     4  10  25  44  70 101 131 190 229 282 357 411
#     4  12  24  46  71 100 145 180 233 291 352 418
#     4  12  24  41  70 106 133 178 235 289 340 420
#     4  10  24  41  66 103 131 179 230 286 342 406
#
# _framework density 21.721361000000002
#
# number of rings (size 3 to 8) (size 9 to 14) (size 15 to 20)
#    0.750    0.000    5.000    1.500    7.000    0.000 
#    4.500    0.000    0.000    0.000    0.000    0.000 
#    0.000    0.000    0.000    0.000    0.000    0.000 
#
# Total GULP energy -89377.555866 kJ/mol
# GULP energy per Si atom -5586.097242 kJ/mol
# Density = 2.167192 g / cm^3
# Si number density = 21.721361 Si / 1000 Ang^3
#
#
#
# Elastic Constant Matrix: (Units=GPa)
#
#
# Indices 1 2 3 4 5 6 
#
# 1 38.2587 2.0560 14.7255 0.0000 3.5382 0.0000
# 2 2.0560 64.0753 6.3224 0.0000 -1.9194 0.0000
# 3 14.7255 6.3224 73.0280 0.0000 -10.9615 0.0000
# 4 0.0000 0.0000 0.0000 33.5272 0.0000 0.2799
# 5 3.5382 -1.9194 -10.9615 0.0000 35.9442 0.0000
# 6 0.0000 0.0000 0.0000 0.2799 0.0000 36.4294
#
#
#
# Elastic Compliance Matrix: (Units=1/GPa)
#
#
# Indices 1 2 3 4 5 6 
#
# 1 0.029144 -0.000433 -0.006574 0.000000 -0.004897 0.000000
# 2 -0.000433 0.015754 -0.001199 0.000000 0.000518 0.000000
# 3 -0.006574 -0.001199 0.015940 0.000000 0.005444 0.000000
# 4 0.000000 0.000000 0.000000 0.029828 0.000000 -0.000229
# 5 -0.004897 0.000518 0.005444 0.000000 0.029991 0.000000
# 6 0.000000 0.000000 0.000000 -0.000229 0.000000 0.027452
#
#
# Mechanical properties :
#
#
# Convention : Reuss Voigt Hill
#
# Bulk Modulus (GPa) = 22.50919 24.61888 23.56404
# Shear Modulus (GPa) = 27.88135 31.33069 29.60602
#
# Velocity S-wave (km/s) = 3.58661 3.80200 3.69588
# Velocity P-wave (km/s) = 5.24756 5.53464 5.39301
#
# Compressibility (1/GPa) = 0.04442630
#
# Stress axis : x y z
#
# Youngs Moduli (GPa) = 34.31191 63.47450 62.73539
#
# Poissons Ratio (x) = 0.02749 0.41244
# Poissons Ratio (y) = 0.01486 0.07521
# Poissons Ratio (z) = 0.22558 0.07609
#
# Static dielectric constant tensor:
#      x y z
#    x 1.788120 0.000000 0.014910 
#    y 0.000000 1.780540 0.000000 
#    z 0.014910 0.000000 1.773370 
# 
# From -- ./inp_files/10759.got.cif
#   From: 2010.05.17/outbox.cif.g08.bks.cpg/sg9_6_cif.got.tgz:10759.got - 2010.06.03 20:04:27.
