data_PCOD9138045
_publ_section_title
;
Structure prediction by ZEFSAII (Michael W. Deem and Ramdas Pophale) SiO2 
 PCOD9138045
Probable space group: C C
;
_chemical_formula_sum "Si O2"
_cell_formula_units_Z 28
_cell_length_a 19.755867
_cell_length_b 9.930997
_cell_length_c 13.599806
_cell_angle_alpha 90.000000
_cell_angle_beta 156.079095
_cell_angle_gamma 90.000000
_cell_volume 1081.896922
_symmetry_space_group_name_H-M "C C"
_symmetry_group_IT_number 9
_symmetry_cell_setting 'monoclinic'
loop_
_space_group_symop_operation_xyz
x,y,z
x,-y,1/2+z
1/2+x,1/2+y,z
1/2+x,1/2-y,1/2+z
loop_
_atom_site_type_symbol
_atom_site_label
_atom_site_fract_x
_atom_site_fract_y
_atom_site_fract_z
Si Si1 0.938200 0.861704 0.909000
Si Si2 0.065789 0.055381 0.364868
Si Si3 0.421529 0.832555 0.634002
Si Si4 0.666075 0.870897 0.687334
Si Si5 0.755116 0.159574 0.822251
Si Si6 0.748978 0.728358 0.101856
Si Si7 0.191588 0.068140 0.338780
O O1 0.011914 0.903237 0.901677
O O2 0.743937 0.869071 0.679585
O O3 0.003446 0.709819 0.001901
O O4 0.040504 0.961545 0.118421
O O5 0.207488 0.103450 0.475462
O O6 0.908752 0.110464 0.093336
O O7 0.130212 0.901590 0.462408
O O8 0.314853 0.714779 0.438950
O O9 0.616719 0.827228 0.873478
O O10 0.386669 0.809767 0.704505
O O11 0.346806 0.977922 0.510165
O O12 0.641936 0.027210 0.675750
O O13 0.802158 0.201259 0.773108
O O14 0.678973 0.294215 0.765194
#
# Coordination Sequence:
#
# PCOD9138045 Si02
#       7
#     4   4   4   4   4   4   4
#     4  11  24  48  70  98 151 189 235 305 368 429
#     4  11  24  46  67  99 150 187 232 306 359 426
#     4  10  22  47  70 100 143 190 237 299 369 434
#     4  11  24  46  72 103 138 197 243 292 373 436
#     4  12  25  42  72 107 136 188 245 292 363 441
#     4  11  24  44  75 102 141 193 237 298 368 432
#     4  10  23  45  70 103 139 190 239 302 366 436
#
# _framework density 25.880469000000002
#
# number of rings (size 3 to 8) (size 9 to 14) (size 15 to 20)
#    0.000    1.143    4.286    1.714    6.000    1.143 
#   10.286    0.000    0.000    0.000    0.000    0.000 
#    0.000    0.000    0.000    0.000    0.000    0.000 
#
# Total GULP energy -78214.885327 kJ/mol
# GULP energy per Si atom -5586.777523 kJ/mol
# Density = 2.582156 g / cm^3
# Si number density = 25.880469 Si / 1000 Ang^3
#
#
#
# Elastic Constant Matrix: (Units=GPa)
#
#
# Indices 1 2 3 4 5 6 
#
# 1 106.6339 49.9802 4.3514 0.0000 -15.0340 0.0000
# 2 49.9802 192.8844 19.5395 0.0000 1.5184 0.0000
# 3 4.3514 19.5395 58.7279 0.0000 -3.9265 0.0000
# 4 0.0000 0.0000 0.0000 21.3099 0.0000 -6.8529
# 5 -15.0340 1.5184 -3.9265 0.0000 44.4780 0.0000
# 6 0.0000 0.0000 0.0000 -6.8529 0.0000 45.0430
#
#
#
# Elastic Compliance Matrix: (Units=1/GPa)
#
#
# Indices 1 2 3 4 5 6 
#
# 1 0.011331 -0.003011 0.000428 0.000000 0.003971 0.000000
# 2 -0.003011 0.006170 -0.001923 0.000000 -0.001398 0.000000
# 3 0.000428 -0.001923 0.017755 0.000000 0.001778 0.000000
# 4 0.000000 0.000000 0.000000 0.049341 0.000000 0.007507
# 5 0.003971 -0.001398 0.001778 0.000000 0.024030 0.000000
# 6 0.000000 0.000000 0.000000 0.007507 0.000000 0.023343
#
#
# Mechanical properties :
#
#
# Convention : Reuss Voigt Hill
#
# Bulk Modulus (GPa) = 38.10459 56.22092 47.16276
# Shear Modulus (GPa) = 33.39318 41.12451 37.25885
#
# Velocity S-wave (km/s) = 3.59595 3.99057 3.79839
# Velocity P-wave (km/s) = 5.65654 6.55769 6.12371
#
# Compressibility (1/GPa) = 0.02624356
#
# Stress axis : x y z
#
# Youngs Moduli (GPa) = 88.25015 162.06269 56.32285
#
# Poissons Ratio (x) = 0.48793 -0.02408
# Poissons Ratio (y) = 0.26570 0.10833
# Poissons Ratio (z) = -0.03774 0.31171
#
# Static dielectric constant tensor:
#      x y z
#    x 2.075300 0.000000 -0.024770 
#    y 0.000000 2.030510 0.000000 
#    z -0.024770 0.000000 2.091640 
# 
# From -- ./inp_files/17726.got.cif
#   From: 2010.05.17/outbox.cif.g08.bks.cpg/sg9_9_cif.got.tgz:17726.got - 2010.06.03 20:04:27.
