data_PCOD9138042
_publ_section_title
;
Structure prediction by ZEFSAII (Michael W. Deem and Ramdas Pophale) SiO2 
 PCOD9138042
Probable space group: C C
;
_chemical_formula_sum "Si O2"
_cell_formula_units_Z 28
_cell_length_a 22.318219
_cell_length_b 7.028722
_cell_length_c 12.028132
_cell_angle_alpha 90.000000
_cell_angle_beta 145.939777
_cell_angle_gamma 90.000000
_cell_volume 1056.748730
_symmetry_space_group_name_H-M "C C"
_symmetry_group_IT_number 9
_symmetry_cell_setting 'monoclinic'
loop_
_space_group_symop_operation_xyz
x,y,z
x,-y,1/2+z
1/2+x,1/2+y,z
1/2+x,1/2-y,1/2+z
loop_
_atom_site_type_symbol
_atom_site_label
_atom_site_fract_x
_atom_site_fract_y
_atom_site_fract_z
Si Si1 0.401230 0.716185 0.757020
Si Si2 0.690614 0.382914 0.427806
Si Si3 0.544677 0.097947 0.100688
Si Si4 0.429394 0.298916 0.738897
Si Si5 0.127694 0.380030 0.037057
Si Si6 0.676378 0.695146 0.552489
Si Si7 0.867483 0.428030 0.936490
O O1 0.301870 0.819852 0.547692
O O2 0.384605 0.492661 0.718305
O O3 0.394169 0.786774 0.873353
O O4 0.510502 0.784245 0.869868
O O5 0.599649 0.297488 0.211660
O O6 0.687016 0.604305 0.446906
O O7 0.678965 0.273193 0.530089
O O8 0.627669 0.955895 0.168144
O O9 0.450669 0.145138 0.868095
O O10 0.483681 0.031788 0.116792
O O11 0.363099 0.206818 0.536708
O O12 0.552232 0.347654 0.892151
O O13 0.174644 0.577769 0.058676
O O14 0.771562 0.580547 0.765069
#
# Coordination Sequence:
#
# PCOD9138042 Si02
#       7
#     4   4   4   4   4   4   4
#     4  10  24  44  76 112 151 204 265 320 410 472
#     4  11  23  45  73 109 147 198 263 323 387 483
#     4  10  23  43  68 108 150 200 258 326 389 475
#     4  11  23  46  71 112 153 207 262 335 397 479
#     4  10  22  47  69 106 154 196 261 320 393 474
#     4  10  23  45  71 103 148 204 254 326 391 461
#     4  10  24  48  72 110 159 205 271 332 391 484
#
# _framework density 26.496365000000001
#
# number of rings (size 3 to 8) (size 9 to 14) (size 15 to 20)
#    0.000    1.714    1.429    1.714    4.000    2.286 
#   25.714    0.000    0.000    0.000    0.000    0.000 
#    0.000    0.000    0.000    0.000    0.000    0.000 
#
# Total GULP energy -78058.457479 kJ/mol
# GULP energy per Si atom -5575.604106 kJ/mol
# Density = 2.643606 g / cm^3
# Si number density = 26.496365 Si / 1000 Ang^3
#
#
#
# Elastic Constant Matrix: (Units=GPa)
#
#
# Indices 1 2 3 4 5 6 
#
# 1 100.8027 46.1678 40.9527 0.0000 4.0712 0.0000
# 2 46.1678 149.1167 34.2724 0.0000 -5.5353 0.0000
# 3 40.9527 34.2724 73.3420 0.0000 11.4300 0.0000
# 4 0.0000 0.0000 0.0000 35.8531 0.0000 4.9058
# 5 4.0712 -5.5353 11.4300 0.0000 50.5919 0.0000
# 6 0.0000 0.0000 0.0000 4.9058 0.0000 55.9850
#
#
#
# Elastic Compliance Matrix: (Units=1/GPa)
#
#
# Indices 1 2 3 4 5 6 
#
# 1 0.013803 -0.002801 -0.006403 0.000000 0.000029 0.000000
# 2 -0.002801 0.008221 -0.002542 0.000000 0.001699 0.000000
# 3 -0.006403 -0.002542 0.019031 0.000000 -0.004063 0.000000
# 4 0.000000 0.000000 0.000000 0.028230 0.000000 -0.002474
# 5 0.000029 0.001699 -0.004063 0.000000 0.020867 0.000000
# 6 0.000000 0.000000 0.000000 -0.002474 0.000000 0.018079
#
#
# Mechanical properties :
#
#
# Convention : Reuss Voigt Hill
#
# Bulk Modulus (GPa) = 56.93966 62.89415 59.91690
# Shear Modulus (GPa) = 36.34275 41.94390 39.14332
#
# Velocity S-wave (km/s) = 3.70755 3.98302 3.84775
# Velocity P-wave (km/s) = 6.31381 6.70380 6.51172
#
# Compressibility (1/GPa) = 0.01756245
#
# Stress axis : x y z
#
# Youngs Moduli (GPa) = 72.44575 121.64367 52.54468
#
# Poissons Ratio (x) = 0.34071 0.33646
# Poissons Ratio (y) = 0.20291 0.13359
# Poissons Ratio (z) = 0.46389 0.30926
#
# Static dielectric constant tensor:
#      x y z
#    x 2.170580 0.000000 -0.037140 
#    y 0.000000 2.113890 0.000000 
#    z -0.037140 0.000000 2.191380 
# 
# From -- ./inp_files/27685.got.cif
#   From: 2010.05.17/outbox.cif.g08.bks.cpg/sg9_14_cif.got.tgz:27685.got - 2010.06.03 20:04:27.
