data_PCOD9138876
_publ_section_title
;
Structure prediction by ZEFSAII (Michael W. Deem and Ramdas Pophale) SiO2 
 PCOD9138876
Probable space group: C C
;
_chemical_formula_sum "Si O2"
_cell_formula_units_Z 16
_cell_length_a 4.884224
_cell_length_b 13.674300
_cell_length_c 8.665267
_cell_angle_alpha 90.000000
_cell_angle_beta 83.519476
_cell_angle_gamma 90.000000
_cell_volume 575.040855
_symmetry_space_group_name_H-M "C C"
_symmetry_group_IT_number 9
_symmetry_cell_setting 'monoclinic'
loop_
_space_group_symop_operation_xyz
x,y,z
x,-y,1/2+z
1/2+x,1/2+y,z
1/2+x,1/2-y,1/2+z
loop_
_atom_site_type_symbol
_atom_site_label
_atom_site_fract_x
_atom_site_fract_y
_atom_site_fract_z
Si Si1 0.116420 0.183502 0.119200
Si Si2 0.331124 0.132433 0.544986
Si Si3 0.364772 0.547662 0.374235
Si Si4 0.091336 0.645005 0.842870
O O1 0.996690 0.089234 0.210294
O O2 0.204811 0.257144 0.253225
O O3 0.362022 0.164563 0.986494
O O4 0.877775 0.250855 0.057755
O O5 0.044290 0.093566 0.501247
O O6 0.562176 0.092856 0.414120
O O7 0.819964 0.932192 0.379422
O O8 0.923930 0.404061 0.208489
#
# Coordination Sequence:
#
# PCOD9138876 Si02
#       4
#     4   4   4   4
#     4  10  23  57  87 130 186 231 306 372 455 537
#     4  10  26  52  84 128 176 234 296 370 453 521
#     4  12  26  53  88 132 176 239 305 369 453 544
#     4  10  25  54  91 134 184 236 301 379 455 540
#
# _framework density 27.824110999999998
#
# number of rings (size 3 to 8) (size 9 to 14) (size 15 to 20)
#    1.500    0.000    2.500    0.000    0.000   10.000 
#    9.000    5.000    0.000    0.000    0.000    0.000 
#    0.000    0.000    0.000    0.000    0.000    0.000 
#
# Total GULP energy -44928.705929 kJ/mol
# GULP energy per Si atom -5616.088241 kJ/mol
# Density = 2.776078 g / cm^3
# Si number density = 27.824111 Si / 1000 Ang^3
#
#
#
# Elastic Constant Matrix: (Units=GPa)
#
#
# Indices 1 2 3 4 5 6 
#
# 1 133.9031 68.0060 48.2650 0.0000 -9.0445 0.0000
# 2 68.0060 203.0707 72.9572 0.0000 -19.3058 0.0000
# 3 48.2650 72.9572 202.7426 0.0000 -32.5453 0.0000
# 4 0.0000 0.0000 0.0000 45.7514 0.0000 3.1809
# 5 -9.0445 -19.3058 -32.5453 0.0000 56.8125 0.0000
# 6 0.0000 0.0000 0.0000 3.1809 0.0000 50.4468
#
#
#
# Elastic Compliance Matrix: (Units=1/GPa)
#
#
# Indices 1 2 3 4 5 6 
#
# 1 0.009268 -0.002661 -0.001274 0.000000 -0.000159 0.000000
# 2 -0.002661 0.006456 -0.001548 0.000000 0.000883 0.000000
# 3 -0.001274 -0.001548 0.006250 0.000000 0.002852 0.000000
# 4 0.000000 0.000000 0.000000 0.021953 0.000000 -0.001384
# 5 -0.000159 0.000883 0.002852 0.000000 0.019510 0.000000
# 6 0.000000 0.000000 0.000000 -0.001384 0.000000 0.019910
#
#
# Mechanical properties :
#
#
# Convention : Reuss Voigt Hill
#
# Bulk Modulus (GPa) = 90.84284 102.01919 96.43102
# Shear Modulus (GPa) = 51.02885 53.96802 52.49844
#
# Velocity S-wave (km/s) = 4.28714 4.40888 4.34844
# Velocity P-wave (km/s) = 7.56479 7.91600 7.74238
#
# Compressibility (1/GPa) = 0.01100802
#
# Stress axis : x y z
#
# Youngs Moduli (GPa) = 107.89616 154.90407 159.98827
#
# Poissons Ratio (x) = 0.41221 0.20387
# Poissons Ratio (y) = 0.28712 0.24762
# Poissons Ratio (z) = 0.13749 0.23975
#
# Static dielectric constant tensor:
#      x y z
#    x 2.109020 0.000000 0.150000 
#    y 0.000000 2.207900 0.000000 
#    z 0.150000 0.000000 2.202500 
# 
# From -- ./inp_files/3551.got.cif
#   From: 2010.05.17/outbox.cif.g08.bks.cpg/sg9_2_cif.got.tgz:3551.got - 2010.06.03 20:04:27.
