data_PCOD9138690
_publ_section_title
;
Structure prediction by ZEFSAII (Michael W. Deem and Ramdas Pophale) SiO2 
 PCOD9138690
Probable space group: C C
;
_chemical_formula_sum "Si O2"
_cell_formula_units_Z 28
_cell_length_a 17.368542
_cell_length_b 7.188751
_cell_length_c 14.522428
_cell_angle_alpha 90.000000
_cell_angle_beta 140.496228
_cell_angle_gamma 90.000000
_cell_volume 1153.456560
_symmetry_space_group_name_H-M "C C"
_symmetry_group_IT_number 9
_symmetry_cell_setting 'monoclinic'
loop_
_space_group_symop_operation_xyz
x,y,z
x,-y,1/2+z
1/2+x,1/2+y,z
1/2+x,1/2-y,1/2+z
loop_
_atom_site_type_symbol
_atom_site_label
_atom_site_fract_x
_atom_site_fract_y
_atom_site_fract_z
Si Si1 0.000000 0.833754 0.957960
Si Si2 0.952301 0.782295 0.512313
Si Si3 0.305939 0.536534 0.027125
Si Si4 0.674105 0.384207 0.984556
Si Si5 0.335084 0.002294 0.782736
Si Si6 0.097173 0.442259 0.693001
Si Si7 0.378489 0.134249 0.132834
O O1 0.882557 0.700999 0.857563
O O2 0.035533 0.849864 0.882270
O O3 0.971514 0.033955 0.971805
O O4 0.090383 0.712181 0.107110
O O5 0.848952 0.652322 0.372217
O O6 0.065883 0.644102 0.621828
O O7 0.913340 0.852283 0.576417
O O8 0.232569 0.684355 0.019882
O O9 0.217042 0.462455 0.863751
O O10 0.350659 0.351091 0.117001
O O11 0.708530 0.475845 0.115387
O O12 0.751200 0.525098 0.991329
O O13 0.415581 0.941048 0.767872
O O14 0.984269 0.398555 0.657622
#
# Coordination Sequence:
#
# PCOD9138690 Si02
#       7
#     4   4   4   4   4   4   4
#     4  11  24  42  69  96 131 176 215 270 332 376
#     4  11  24  44  69  96 131 179 216 271 333 383
#     4  12  25  42  72  93 136 180 212 270 342 377
#     4  10  25  43  64 100 130 168 222 268 322 392
#     4   9  24  42  66  93 136 157 233 265 312 399
#     4  11  25  43  65 103 134 167 231 266 314 411
#     4  10  23  46  63  99 134 169 223 270 319 398
#
# _framework density 24.274863
#
# number of rings (size 3 to 8) (size 9 to 14) (size 15 to 20)
#    0.857    0.571    2.857    0.857    6.000    4.571 
#    0.000    0.000    0.000    0.000    0.000    0.000 
#    0.000    0.000    0.000    0.000    0.000    0.000 
#
# Total GULP energy -78144.441888 kJ/mol
# GULP energy per Si atom -5581.745849 kJ/mol
# Density = 2.421961 g / cm^3
# Si number density = 24.274863 Si / 1000 Ang^3
#
#
#
# Elastic Constant Matrix: (Units=GPa)
#
#
# Indices 1 2 3 4 5 6 
#
# 1 106.6783 35.9887 -15.6959 0.0000 -1.2503 0.0000
# 2 35.9887 168.7478 4.1119 0.0000 -0.7925 0.0000
# 3 -15.6959 4.1119 44.3346 0.0000 -15.7069 0.0000
# 4 0.0000 0.0000 0.0000 25.1961 0.0000 -11.1190
# 5 -1.2503 -0.7925 -15.7069 0.0000 22.1188 0.0000
# 6 0.0000 0.0000 0.0000 -11.1190 0.0000 38.3874
#
#
#
# Elastic Compliance Matrix: (Units=1/GPa)
#
#
# Indices 1 2 3 4 5 6 
#
# 1 0.011127 -0.002493 0.005828 0.000000 0.004678 0.000000
# 2 -0.002493 0.006499 -0.001941 0.000000 -0.001287 0.000000
# 3 0.005828 -0.001941 0.033258 0.000000 0.023877 0.000000
# 4 0.000000 0.000000 0.000000 0.045505 0.000000 0.013181
# 5 0.004678 -0.001287 0.023877 0.000000 0.062385 0.000000
# 6 0.000000 0.000000 0.000000 0.013181 0.000000 0.029868
#
#
# Mechanical properties :
#
#
# Convention : Reuss Voigt Hill
#
# Bulk Modulus (GPa) = 18.63157 40.95222 29.79189
# Shear Modulus (GPa) = 24.54036 36.83085 30.68561
#
# Velocity S-wave (km/s) = 3.18297 3.89941 3.55926
# Velocity P-wave (km/s) = 4.60438 6.09759 5.40282
#
# Compressibility (1/GPa) = 0.05367234
#
# Stress axis : x y z
#
# Youngs Moduli (GPa) = 89.86807 153.87029 30.06756
#
# Poissons Ratio (x) = 0.38363 -0.17524
# Poissons Ratio (y) = 0.22406 0.05837
# Poissons Ratio (z) = -0.52377 0.29870
#
# Static dielectric constant tensor:
#      x y z
#    x 1.974230 0.000000 0.077890 
#    y 0.000000 1.892330 0.000000 
#    z 0.077890 0.000000 2.070050 
# 
# From -- ./inp_files/19767.got.cif
#   From: 2010.05.17/outbox.cif.g08.bks.cpg/sg9_10_cif.got.tgz:19767.got - 2010.06.03 20:04:27.
