data_PCOD9138881
_publ_section_title
;
Structure prediction by ZEFSAII (Michael W. Deem and Ramdas Pophale) SiO2 
 PCOD9138881
Probable space group: C C
;
_chemical_formula_sum "Si O2"
_cell_formula_units_Z 20
_cell_length_a 16.390132
_cell_length_b 7.915614
_cell_length_c 15.405011
_cell_angle_alpha 90.000000
_cell_angle_beta 20.213730
_cell_angle_gamma 90.000000
_cell_volume 690.567506
_symmetry_space_group_name_H-M "C C"
_symmetry_group_IT_number 9
_symmetry_cell_setting 'monoclinic'
loop_
_space_group_symop_operation_xyz
x,y,z
x,-y,1/2+z
1/2+x,1/2+y,z
1/2+x,1/2-y,1/2+z
loop_
_atom_site_type_symbol
_atom_site_label
_atom_site_fract_x
_atom_site_fract_y
_atom_site_fract_z
Si Si1 0.292430 0.138884 0.661260
Si Si2 0.366359 0.348290 0.848306
Si Si3 0.862450 0.790864 0.402292
Si Si4 0.633104 0.290535 0.780854
Si Si5 0.669114 0.016248 0.373084
O O1 0.108927 0.985257 0.828687
O O2 0.372014 0.178552 0.481037
O O3 0.390859 0.058503 0.655841
O O4 0.188718 0.320777 0.788998
O O5 0.625576 0.263505 0.591416
O O6 0.330433 0.447331 0.792178
O O7 0.352633 0.508807 0.926453
O O8 0.613384 0.745428 0.606262
O O9 0.894273 0.281539 0.476659
O O10 0.677591 0.162230 0.816856
#
# Coordination Sequence:
#
# PCOD9138881 Si02
#       5
#     4   4   4   4   4
#     4  11  22  46  77 114 152 197 258 331 386 462
#     4  12  28  52  79 115 161 216 267 327 403 489
#     4  12  28  51  78 109 162 215 261 328 409 473
#     4  10  24  38  66 113 143 184 245 318 384 453
#     4  11  22  45  82 111 152 196 263 328 390 461
#
# _framework density 28.961687999999999
#
# number of rings (size 3 to 8) (size 9 to 14) (size 15 to 20)
#    0.000    0.800    4.000    2.400    0.000    3.200 
#    7.200    0.000    0.000    0.000    0.000    0.000 
#    0.000    0.000    0.000    0.000    0.000    0.000 
#
# Total GULP energy -55767.469237 kJ/mol
# GULP energy per Si atom -5576.746924 kJ/mol
# Density = 2.889577 g / cm^3
# Si number density = 28.961688 Si / 1000 Ang^3
#
#
#
# Elastic Constant Matrix: (Units=GPa)
#
#
# Indices 1 2 3 4 5 6 
#
# 1 114.0928 33.5994 46.1946 0.0004 -41.1899 -0.0006
# 2 33.5994 207.1240 27.3198 -0.0153 -1.9430 0.0058
# 3 46.1946 27.3198 156.7695 -0.0135 -34.5156 0.0050
# 4 0.0004 -0.0153 -0.0135 67.9415 0.0052 2.4350
# 5 -41.1899 -1.9430 -34.5156 0.0052 55.3425 -0.0005
# 6 -0.0006 0.0058 0.0050 2.4350 -0.0005 44.2160
#
#
#
# Elastic Compliance Matrix: (Units=1/GPa)
#
#
# Indices 1 2 3 4 5 6 
#
# 1 0.013090 -0.001827 -0.001632 -0.000002 0.008661 0.000001
# 2 -0.001827 0.005205 -0.000728 0.000001 -0.001631 -0.000001
# 3 -0.001632 -0.000728 0.007782 0.000001 0.003613 -0.000001
# 4 -0.000002 0.000001 0.000001 0.014748 -0.000002 -0.000812
# 5 0.008661 -0.001631 0.003613 -0.000002 0.026711 0.000000
# 6 0.000001 -0.000001 -0.000001 -0.000812 0.000000 0.022661
#
#
# Mechanical properties :
#
#
# Convention : Reuss Voigt Hill
#
# Bulk Modulus (GPa) = 56.48518 76.91265 66.69892
# Shear Modulus (GPa) = 47.85945 58.22483 53.04214
#
# Velocity S-wave (km/s) = 4.06952 4.48862 4.28420
# Velocity P-wave (km/s) = 6.45190 7.31286 6.89583
#
# Compressibility (1/GPa) = 0.01770376
#
# Stress axis : x y z
#
# Youngs Moduli (GPa) = 76.39219 192.11939 128.50084
#
# Poissons Ratio (x) = 0.35100 0.20972
# Poissons Ratio (y) = 0.13957 0.09352
# Poissons Ratio (z) = 0.12468 0.13983
#
# Static dielectric constant tensor:
#      x y z
#    x 2.549890 0.000000 -0.410660 
#    y 0.000000 2.190440 0.000000 
#    z -0.410660 0.000000 3.284060 
# 
# From -- ./inp_files/30963.got.cif
#   From: 2010.05.17/outbox.cif.g08.bks.cpg/sg9_16_cif.got.tgz:30963.got - 2010.06.03 20:04:27.
