data_PCOD9138349
_publ_section_title
;
Structure prediction by ZEFSAII (Michael W. Deem and Ramdas Pophale) SiO2 
 PCOD9138349
Probable space group: C C
;
_chemical_formula_sum "Si O2"
_cell_formula_units_Z 28
_cell_length_a 10.316981
_cell_length_b 17.373639
_cell_length_c 9.468724
_cell_angle_alpha 90.000000
_cell_angle_beta 138.932670
_cell_angle_gamma 90.000000
_cell_volume 1114.972602
_symmetry_space_group_name_H-M "C C"
_symmetry_group_IT_number 9
_symmetry_cell_setting 'monoclinic'
loop_
_space_group_symop_operation_xyz
x,y,z
x,-y,1/2+z
1/2+x,1/2+y,z
1/2+x,1/2-y,1/2+z
loop_
_atom_site_type_symbol
_atom_site_label
_atom_site_fract_x
_atom_site_fract_y
_atom_site_fract_z
Si Si1 0.707330 0.912150 0.467750
Si Si2 0.024901 0.327422 0.095732
Si Si3 0.142156 0.087850 0.661145
Si Si4 0.324586 0.827421 0.533162
Si Si5 0.179640 0.566822 0.274512
Si Si6 0.424743 0.311084 0.314447
Si Si7 0.669846 0.566821 0.354384
O O1 0.595343 0.837270 0.315415
O O2 0.654788 0.931964 0.584952
O O3 0.944086 0.906155 0.647553
O O4 0.651634 0.984023 0.322457
O O5 0.224468 0.355887 0.180659
O O6 0.974117 0.245535 0.986158
O O7 0.754142 0.337270 0.313479
O O8 0.194698 0.068036 0.543943
O O9 0.905400 0.093845 0.481343
O O10 0.197851 0.015978 0.806440
O O11 0.519086 0.877188 0.709477
O O12 0.125020 0.855886 0.448239
O O13 0.330401 0.877190 0.919419
O O14 0.375367 0.745532 0.642731
#
# Coordination Sequence:
#
# PCOD9138349 Si02
#       7
#     4   4   4   4   4   4   4
#     4  10  23  42  72 107 137 178 225 285 355 418
#     4  11  24  45  67  97 137 179 242 286 330 408
#     4  10  23  42  72 107 137 178 225 285 355 418
#     4  11  24  45  67  97 137 179 242 286 330 408
#     4  10  23  43  71 107 141 175 225 290 354 410
#     4  10  28  44  68 100 132 196 242 272 342 406
#     4  10  23  43  71 107 141 175 225 290 354 410
#
# _framework density 25.112724
#
# number of rings (size 3 to 8) (size 9 to 14) (size 15 to 20)
#    0.000    1.714    0.000    1.714   12.000    2.286 
#    0.000    5.714    0.000    0.000    0.000    0.000 
#    0.000    0.000    0.000    0.000    0.000    0.000 
#
# Total GULP energy -78413.663084 kJ/mol
# GULP energy per Si atom -5600.975935 kJ/mol
# Density = 2.505557 g / cm^3
# Si number density = 25.112724 Si / 1000 Ang^3
#
#
#
# Elastic Constant Matrix: (Units=GPa)
#
#
# Indices 1 2 3 4 5 6 
#
# 1 177.3515 64.5917 59.8317 0.0000 30.8620 0.0000
# 2 64.5917 74.0183 46.5516 0.0000 -11.7060 0.0000
# 3 59.8317 46.5516 151.1879 0.0000 -20.2267 0.0000
# 4 0.0000 0.0000 0.0000 41.9415 0.0000 -1.9510
# 5 30.8620 -11.7060 -20.2267 0.0000 54.9290 0.0000
# 6 0.0000 0.0000 0.0000 -1.9510 0.0000 51.9850
#
#
#
# Elastic Compliance Matrix: (Units=1/GPa)
#
#
# Indices 1 2 3 4 5 6 
#
# 1 0.012190 -0.010362 -0.002993 0.000000 -0.010159 0.000000
# 2 -0.010362 0.025726 -0.002428 0.000000 0.010410 0.000000
# 3 -0.002993 -0.002428 0.009153 0.000000 0.004534 0.000000
# 4 0.000000 0.000000 0.000000 0.023884 0.000000 0.000896
# 5 -0.010159 0.010410 0.004534 0.000000 0.027802 0.000000
# 6 0.000000 0.000000 0.000000 0.000896 0.000000 0.019270
#
#
# Mechanical properties :
#
#
# Convention : Reuss Voigt Hill
#
# Bulk Modulus (GPa) = 64.50070 82.72310 73.61190
# Shear Modulus (GPa) = 32.30880 45.20995 38.75937
#
# Velocity S-wave (km/s) = 3.59074 4.24757 3.93289
# Velocity P-wave (km/s) = 6.55221 7.55434 7.07105
#
# Compressibility (1/GPa) = 0.01550371
#
# Stress axis : x y z
#
# Youngs Moduli (GPa) = 82.03567 38.87170 109.25657
#
# Poissons Ratio (x) = 0.40278 0.32697
# Poissons Ratio (y) = 0.85004 0.26524
# Poissons Ratio (z) = 0.24551 0.09437
#
# Static dielectric constant tensor:
#      x y z
#    x 1.989060 0.000000 -0.019790 
#    y 0.000000 1.939310 0.000000 
#    z -0.019790 0.000000 2.044230 
# 
# From -- ./inp_files/5402.got.cif
#   From: 2010.05.17/outbox.cif.g08.bks.cpg/sg9_3_cif.got.tgz:5402.got - 2010.06.03 20:04:27.
