data_PCOD9138491
_publ_section_title
;
Structure prediction by ZEFSAII (Michael W. Deem and Ramdas Pophale) SiO2 
 PCOD9138491
Probable space group: C C
;
_chemical_formula_sum "Si O2"
_cell_formula_units_Z 32
_cell_length_a 6.489104
_cell_length_b 24.544981
_cell_length_c 9.420698
_cell_angle_alpha 90.000000
_cell_angle_beta 73.643728
_cell_angle_gamma 90.000000
_cell_volume 1439.755353
_symmetry_space_group_name_H-M "C C"
_symmetry_group_IT_number 9
_symmetry_cell_setting 'monoclinic'
loop_
_space_group_symop_operation_xyz
x,y,z
x,-y,1/2+z
1/2+x,1/2+y,z
1/2+x,1/2-y,1/2+z
loop_
_atom_site_type_symbol
_atom_site_label
_atom_site_fract_x
_atom_site_fract_y
_atom_site_fract_z
Si Si1 0.040760 0.971792 0.887930
Si Si2 0.294940 0.685069 0.807158
Si Si3 0.366505 0.875505 0.852215
Si Si4 0.752145 0.002143 0.678196
Si Si5 0.484727 0.845194 0.115975
Si Si6 0.837148 0.572697 0.847993
Si Si7 0.171569 0.221881 0.538383
Si Si8 0.613531 0.106355 0.044264
O O1 0.235610 0.929367 0.837208
O O2 0.887368 0.977466 0.782130
O O3 0.145165 0.030863 0.894176
O O4 0.904332 0.959341 0.054751
O O5 0.167344 0.663951 0.694264
O O6 0.495531 0.714996 0.695143
O O7 0.168336 0.727857 0.932467
O O8 0.301093 0.634115 0.915063
O O9 0.525850 0.859741 0.695088
O O10 0.512727 0.879523 0.965998
O O11 0.188615 0.831228 0.932735
O O12 0.679197 0.952195 0.592661
O O13 0.546152 0.036421 0.765369
O O14 0.308958 0.880655 0.235909
O O15 0.397020 0.786917 0.078635
O O16 0.908847 0.599661 0.980698
#
# Coordination Sequence:
#
# PCOD9138491 Si02
#       8
#     4   4   4   4   4   4   4   4
#     4  12  25  39  66  94 142 181 232 270 337 400
#     4  11  24  49  72  98 136 171 225 284 351 405
#     4  10  23  44  66 101 133 177 226 276 334 400
#     4  12  26  38  62 102 133 190 227 276 335 401
#     4   9  25  42  73  97 136 174 222 277 345 397
#     4  11  24  44  63  97 144 182 226 280 329 404
#     4  10  25  45  73 102 128 171 226 281 341 415
#     4  11  24  43  67  97 138 178 226 284 332 404
#
# _framework density 22.225998000000001
#
# number of rings (size 3 to 8) (size 9 to 14) (size 15 to 20)
#    0.750    0.500    2.500    2.250    8.750    1.000 
#    2.250    0.000    0.000    0.000    0.000    0.000 
#    0.000    0.000    0.000    0.000    0.000    0.000 
#
# Total GULP energy -89243.147686 kJ/mol
# GULP energy per Si atom -5577.696730 kJ/mol
# Density = 2.217541 g / cm^3
# Si number density = 22.225998 Si / 1000 Ang^3
#
#
#
# Elastic Constant Matrix: (Units=GPa)
#
#
# Indices 1 2 3 4 5 6 
#
# 1 37.9502 6.7954 40.4198 0.0000 4.3911 0.0000
# 2 6.7954 61.6824 17.4726 0.0000 8.2634 0.0000
# 3 40.4198 17.4726 155.0199 0.0000 5.8119 0.0000
# 4 0.0000 0.0000 0.0000 35.7253 0.0000 1.7688
# 5 4.3911 8.2634 5.8119 0.0000 39.2617 0.0000
# 6 0.0000 0.0000 0.0000 1.7688 0.0000 21.8750
#
#
#
# Elastic Compliance Matrix: (Units=1/GPa)
#
#
# Indices 1 2 3 4 5 6 
#
# 1 0.036831 -0.001062 -0.009390 0.000000 -0.002506 0.000000
# 2 -0.001062 0.017204 -0.001539 0.000000 -0.003274 0.000000
# 3 -0.009390 -0.001539 0.009071 0.000000 0.000031 0.000000
# 4 0.000000 0.000000 0.000000 0.028104 0.000000 -0.002272
# 5 -0.002506 -0.003274 0.000031 0.000000 0.026435 0.000000
# 6 0.000000 0.000000 0.000000 -0.002272 0.000000 0.045898
#
#
# Mechanical properties :
#
#
# Convention : Reuss Voigt Hill
#
# Bulk Modulus (GPa) = 25.55979 42.66980 34.11479
# Shear Modulus (GPa) = 24.92936 32.03672 28.48304
#
# Velocity S-wave (km/s) = 3.35271 3.80071 3.58371
# Velocity P-wave (km/s) = 5.14902 6.20486 5.70144
#
# Compressibility (1/GPa) = 0.03912395
#
# Stress axis : x y z
#
# Youngs Moduli (GPa) = 27.15094 58.12677 110.23682
#
# Poissons Ratio (x) = 0.06174 1.03509
# Poissons Ratio (y) = 0.02884 0.16970
# Poissons Ratio (z) = 0.25494 0.08948
#
# Static dielectric constant tensor:
#      x y z
#    x 1.816040 0.000000 -0.026590 
#    y 0.000000 1.866570 0.000000 
#    z -0.026590 0.000000 1.837380 
# 
# From -- ./inp_files/4348.got.cif
#   From: 2010.05.17/outbox.cif.g08.bks.cpg/sg9_3_cif.got.tgz:4348.got - 2010.06.03 20:04:27.
