data_PCOD9138354
_publ_section_title
;
Structure prediction by ZEFSAII (Michael W. Deem and Ramdas Pophale) SiO2 
 PCOD9138354
Probable space group: C C
;
_chemical_formula_sum "Si O2"
_cell_formula_units_Z 28
_cell_length_a 7.557698
_cell_length_b 17.806974
_cell_length_c 14.455078
_cell_angle_alpha 90.000000
_cell_angle_beta 142.422552
_cell_angle_gamma 90.000000
_cell_volume 1186.345560
_symmetry_space_group_name_H-M "C C"
_symmetry_group_IT_number 9
_symmetry_cell_setting 'monoclinic'
loop_
_space_group_symop_operation_xyz
x,y,z
x,-y,1/2+z
1/2+x,1/2+y,z
1/2+x,1/2-y,1/2+z
loop_
_atom_site_type_symbol
_atom_site_label
_atom_site_fract_x
_atom_site_fract_y
_atom_site_fract_z
Si Si1 0.850800 0.789192 0.204880
Si Si2 0.224645 0.166331 0.018902
Si Si3 0.322547 0.892852 0.923152
Si Si4 0.464013 0.001243 0.811555
Si Si5 0.931099 0.669010 0.834030
Si Si6 0.056678 0.005673 0.475468
Si Si7 0.299371 0.712127 0.144121
O O1 0.776244 0.706067 0.138179
O O2 0.974479 0.789568 0.359369
O O3 0.126188 0.820542 0.260425
O O4 0.587498 0.844127 0.072732
O O5 0.526878 0.179111 0.089984
O O6 0.123426 0.080844 0.978470
O O7 0.066816 0.841572 0.775866
O O8 0.424077 0.946009 0.880600
O O9 0.198894 0.942635 0.956525
O O10 0.536303 0.084145 0.878276
O O11 0.717004 0.977108 0.845872
O O12 0.183907 0.014089 0.631506
O O13 0.875163 0.705269 0.711818
O O14 0.174995 0.715280 0.989757
#
# Coordination Sequence:
#
# PCOD9138354 Si02
#       7
#     4   4   4   4   4   4   4
#     4  10  23  42  73 100 143 185 235 291 355 414
#     4  10  23  44  68 104 141 186 236 290 349 427
#     4  12  26  46  74 106 144 186 236 298 354 418
#     4  12  27  45  73 105 144 187 239 290 358 422
#     4  10  23  44  68 104 141 186 236 290 349 427
#     4  12  27  45  73 105 144 187 239 290 358 422
#     4  10  23  42  73 100 143 185 235 291 355 414
#
# _framework density 23.601894000000001
#
# number of rings (size 3 to 8) (size 9 to 14) (size 15 to 20)
#    0.000    1.143    0.000    5.143    6.000    4.571 
#    0.000    0.000    0.000    0.000    0.000    0.000 
#    0.000    0.000    0.000    0.000    0.000    0.000 
#
# Total GULP energy -78449.774965 kJ/mol
# GULP energy per Si atom -5603.555355 kJ/mol
# Density = 2.354818 g / cm^3
# Si number density = 23.601894 Si / 1000 Ang^3
#
#
#
# Elastic Constant Matrix: (Units=GPa)
#
#
# Indices 1 2 3 4 5 6 
#
# 1 102.0286 32.6124 14.7540 0.0011 25.9060 0.0005
# 2 32.6124 81.3531 22.1932 0.0003 9.8639 0.0000
# 3 14.7540 22.1932 128.1909 0.0031 10.7035 0.0015
# 4 0.0011 0.0003 0.0031 36.1665 0.0009 -1.0936
# 5 25.9060 9.8639 10.7035 0.0009 35.0529 0.0004
# 6 0.0005 0.0000 0.0015 -1.0936 0.0004 28.8950
#
#
#
# Elastic Compliance Matrix: (Units=1/GPa)
#
#
# Indices 1 2 3 4 5 6 
#
# 1 0.013384 -0.004295 -0.000074 0.000000 -0.008660 0.000000
# 2 -0.004295 0.014600 -0.002006 0.000000 -0.000322 0.000000
# 3 -0.000074 -0.002006 0.008317 -0.000001 -0.001921 0.000000
# 4 0.000000 0.000000 -0.000001 0.027682 0.000000 0.001048
# 5 -0.008660 -0.000322 -0.001921 0.000000 0.035605 0.000000
# 6 0.000000 0.000000 0.000000 0.001048 0.000000 0.034648
#
#
# Mechanical properties :
#
#
# Convention : Reuss Voigt Hill
#
# Bulk Modulus (GPa) = 42.46208 50.07687 46.26948
# Shear Modulus (GPa) = 32.29219 36.15707 34.22463
#
# Velocity S-wave (km/s) = 3.70294 3.91827 3.81212
# Velocity P-wave (km/s) = 6.02597 6.46017 6.24684
#
# Compressibility (1/GPa) = 0.02355043
#
# Stress axis : x y z
#
# Youngs Moduli (GPa) = 74.71863 68.49218 120.23444
#
# Poissons Ratio (x) = 0.29417 0.00886
# Poissons Ratio (y) = 0.32092 0.24125
# Poissons Ratio (z) = 0.00551 0.13743
#
# Static dielectric constant tensor:
#      x y z
#    x 1.930880 0.000000 -0.006870 
#    y 0.000000 1.854780 0.000000 
#    z -0.006870 0.000000 1.854370 
# 
# From -- ./inp_files/23797.got.cif
#   From: 2010.05.17/outbox.cif.g08.bks.cpg/sg9_12_cif.got.tgz:23797.got - 2010.06.03 20:04:27.
