data_PCOD9138221
_publ_section_title
;
Structure prediction by ZEFSAII (Michael W. Deem and Ramdas Pophale) SiO2 
 PCOD9138221
Probable space group: C C
;
_chemical_formula_sum "Si O2"
_cell_formula_units_Z 28
_cell_length_a 14.012724
_cell_length_b 17.156406
_cell_length_c 4.992331
_cell_angle_alpha 90.000000
_cell_angle_beta 84.010684
_cell_angle_gamma 90.000000
_cell_volume 1193.644794
_symmetry_space_group_name_H-M "C C"
_symmetry_group_IT_number 9
_symmetry_cell_setting 'monoclinic'
loop_
_space_group_symop_operation_xyz
x,y,z
x,-y,1/2+z
1/2+x,1/2+y,z
1/2+x,1/2-y,1/2+z
loop_
_atom_site_type_symbol
_atom_site_label
_atom_site_fract_x
_atom_site_fract_y
_atom_site_fract_z
Si Si1 0.458690 0.311031 0.608370
Si Si2 0.573830 0.554782 0.239836
Si Si3 0.842775 0.766855 0.132847
Si Si4 0.545498 0.050942 0.610753
Si Si5 0.717698 0.327804 0.984547
Si Si6 0.142518 0.709562 0.401158
Si Si7 0.320465 0.052146 0.775426
O O1 0.475769 0.395673 0.734567
O O2 0.395124 0.313722 0.356969
O O3 0.559837 0.271298 0.506281
O O4 0.410313 0.260854 0.857055
O O5 0.582654 0.484216 0.446497
O O6 0.644247 0.620111 0.341668
O O7 0.813550 0.687009 0.285874
O O8 0.740394 0.793727 0.044867
O O9 0.594793 0.126018 0.465178
O O10 0.431742 0.068518 0.676991
O O11 0.568809 0.020436 0.901619
O O12 0.752805 0.375771 0.230457
O O13 0.675230 0.245607 0.104313
O O14 0.299865 0.016420 0.068666
#
# Coordination Sequence:
#
# PCOD9138221 Si02
#       7
#     4   4   4   4   4   4   4
#     4  12  27  49  74 107 155 200 253 309 370 455
#     4  12  26  46  74 109 158 206 247 310 386 456
#     4  12  27  45  75 110 142 194 262 305 377 436
#     4  10  25  45  70 101 143 192 238 303 384 440
#     4  12  25  45  75 115 145 191 251 318 383 444
#     4  12  27  49  76 112 149 196 256 319 375 453
#     4  10  23  41  66 104 146 183 231 296 375 450
#
# _framework density 23.457567000000001
#
# number of rings (size 3 to 8) (size 9 to 14) (size 15 to 20)
#    0.000    0.571    2.857    4.286    4.000    2.286 
#    0.000    4.286    0.000    0.000    0.000    0.000 
#    0.000    0.000    0.000    0.000    0.000    0.000 
#
# Total GULP energy -78258.481103 kJ/mol
# GULP energy per Si atom -5589.891507 kJ/mol
# Density = 2.340418 g / cm^3
# Si number density = 23.457567 Si / 1000 Ang^3
#
#
#
# Elastic Constant Matrix: (Units=GPa)
#
#
# Indices 1 2 3 4 5 6 
#
# 1 85.0269 14.7139 32.4813 0.0000 12.4959 0.0000
# 2 14.7139 67.4781 15.9611 0.0000 1.6372 0.0000
# 3 32.4813 15.9611 140.7903 0.0000 -1.3449 0.0000
# 4 0.0000 0.0000 0.0000 41.7566 0.0000 1.1279
# 5 12.4959 1.6372 -1.3449 0.0000 39.8433 0.0000
# 6 0.0000 0.0000 0.0000 1.1279 0.0000 37.2036
#
#
#
# Elastic Compliance Matrix: (Units=1/GPa)
#
#
# Indices 1 2 3 4 5 6 
#
# 1 0.013937 -0.002222 -0.003005 0.000000 -0.004381 0.000000
# 2 -0.002222 0.015601 -0.001256 0.000000 0.000013 0.000000
# 3 -0.003005 -0.001256 0.007951 0.000000 0.001263 0.000000
# 4 0.000000 0.000000 0.000000 0.023968 0.000000 -0.000727
# 5 -0.004381 0.000013 0.001263 0.000000 0.026514 0.000000
# 6 0.000000 0.000000 0.000000 -0.000727 0.000000 0.026901
#
#
# Mechanical properties :
#
#
# Convention : Reuss Voigt Hill
#
# Bulk Modulus (GPa) = 40.77902 46.62310 43.70106
# Shear Modulus (GPa) = 36.76115 39.10330 37.93223
#
# Velocity S-wave (km/s) = 3.96300 4.08730 4.02563
# Velocity P-wave (km/s) = 6.19374 6.49564 6.34648
#
# Compressibility (1/GPa) = 0.02452241
#
# Stress axis : x y z
#
# Youngs Moduli (GPa) = 71.74890 64.09899 125.77713
#
# Poissons Ratio (x) = 0.14242 0.37801
# Poissons Ratio (y) = 0.15942 0.15796
# Poissons Ratio (z) = 0.21564 0.08050
#
# Static dielectric constant tensor:
#      x y z
#    x 1.903350 0.000000 0.020500 
#    y 0.000000 1.898540 0.000000 
#    z 0.020500 0.000000 1.901530 
# 
# From -- ./inp_files/2393.got.cif
#   From: 2010.05.17/outbox.cif.g08.bks.cpg/sg9_2_cif.got.tgz:2393.got - 2010.06.03 20:04:27.
