data_PCOD9138987
_publ_section_title
;
Structure prediction by ZEFSAII (Michael W. Deem and Ramdas Pophale) SiO2 
 PCOD9138987
Probable space group: C C
;
_chemical_formula_sum "Si O2"
_cell_formula_units_Z 28
_cell_length_a 5.310205
_cell_length_b 21.198545
_cell_length_c 11.112191
_cell_angle_alpha 90.000000
_cell_angle_beta 54.925641
_cell_angle_gamma 90.000000
_cell_volume 1023.732176
_symmetry_space_group_name_H-M "C C"
_symmetry_group_IT_number 9
_symmetry_cell_setting 'monoclinic'
loop_
_space_group_symop_operation_xyz
x,y,z
x,-y,1/2+z
1/2+x,1/2+y,z
1/2+x,1/2-y,1/2+z
loop_
_atom_site_type_symbol
_atom_site_label
_atom_site_fract_x
_atom_site_fract_y
_atom_site_fract_z
Si Si1 0.459290 0.893997 0.536240
Si Si2 0.895290 0.490773 0.346679
Si Si3 0.665891 0.123447 0.620979
Si Si4 0.737040 0.302268 0.952280
Si Si5 0.267516 0.310654 0.629490
Si Si6 0.393232 0.570730 0.332073
Si Si7 0.457120 0.207237 0.863275
O O1 0.378272 0.957268 0.483446
O O2 0.685416 0.876468 0.584248
O O3 0.139291 0.886613 0.695992
O O4 0.622791 0.849892 0.390004
O O5 0.008566 0.435798 0.226694
O O6 0.181336 0.536213 0.293787
O O7 0.600794 0.524127 0.363070
O O8 0.491162 0.186003 0.716837
O O9 0.028962 0.137911 0.543877
O O10 0.664537 0.108769 0.481457
O O11 0.579310 0.272694 0.875345
O O12 0.082486 0.307292 0.805635
O O13 0.671312 0.249320 0.071279
O O14 0.629005 0.303570 0.513450
#
# Coordination Sequence:
#
# PCOD9138987 Si02
#       7
#     4   4   4   4   4   4   4
#     4  10  24  43  68  98 143 184 234 299 366 423
#     4  11  27  46  71 106 148 187 252 309 365 430
#     4  11  24  47  74 105 149 196 244 309 377 441
#     4  11  23  46  65 110 144 189 245 292 367 452
#     4  11  24  43  72 100 147 189 237 301 362 451
#     4  12  25  48  73 108 141 193 250 310 363 440
#     4  10  25  45  69 105 148 188 240 300 366 451
#
# _framework density 27.350904
#
# number of rings (size 3 to 8) (size 9 to 14) (size 15 to 20)
#    0.000    1.143    2.857    1.714    8.000    0.000 
#   10.286    0.000    0.000    0.000    0.000    0.000 
#    0.000    0.000    0.000    0.000    0.000    0.000 
#
# Total GULP energy -78169.928279 kJ/mol
# GULP energy per Si atom -5583.566306 kJ/mol
# Density = 2.728865 g / cm^3
# Si number density = 27.350904 Si / 1000 Ang^3
#
#
#
# Elastic Constant Matrix: (Units=GPa)
#
#
# Indices 1 2 3 4 5 6 
#
# 1 92.4840 29.1814 34.5678 0.0000 3.5118 0.0000
# 2 29.1814 65.9632 58.6212 0.0000 27.1995 0.0000
# 3 34.5678 58.6212 174.5523 0.0000 -11.3770 0.0000
# 4 0.0000 0.0000 0.0000 29.4176 0.0000 2.9361
# 5 3.5118 27.1995 -11.3770 0.0000 32.7642 0.0000
# 6 0.0000 0.0000 0.0000 2.9361 0.0000 37.4619
#
#
#
# Elastic Compliance Matrix: (Units=1/GPa)
#
#
# Indices 1 2 3 4 5 6 
#
# 1 0.013202 -0.009753 0.001122 0.000000 0.007071 0.000000
# 2 -0.009753 0.068833 -0.025417 0.000000 -0.064922 0.000000
# 3 0.001122 -0.025417 0.015767 0.000000 0.026454 0.000000
# 4 0.000000 0.000000 0.000000 0.034261 0.000000 -0.002685
# 5 0.007071 -0.064922 0.026454 0.000000 0.092845 0.000000
# 6 0.000000 0.000000 0.000000 -0.002685 0.000000 0.026904
#
#
# Mechanical properties :
#
#
# Convention : Reuss Voigt Hill
#
# Bulk Modulus (GPa) = 33.66368 64.19335 48.92851
# Shear Modulus (GPa) = 15.16024 33.97070 24.56547
#
# Velocity S-wave (km/s) = 2.35688 3.52807 3.00018
# Velocity P-wave (km/s) = 4.44312 6.33385 5.47078
#
# Compressibility (1/GPa) = 0.02970561
#
# Stress axis : x y z
#
# Youngs Moduli (GPa) = 75.74428 14.52800 63.42431
#
# Poissons Ratio (x) = 0.14170 -0.07116
# Poissons Ratio (y) = 0.73877 1.61203
# Poissons Ratio (z) = -0.08498 0.36925
#
# Static dielectric constant tensor:
#      x y z
#    x 2.325340 0.000000 0.039160 
#    y 0.000000 2.439820 0.000000 
#    z 0.039160 0.000000 2.114640 
# 
# From -- ./inp_files/13710.got.cif
#   From: 2010.05.17/outbox.cif.g08.bks.cpg/sg9_7_cif.got.tgz:13710.got - 2010.06.03 20:04:27.
