data_PCOD9138991
_publ_section_title
;
Structure prediction by ZEFSAII (Michael W. Deem and Ramdas Pophale) SiO2 
 PCOD9138991
Probable space group: C C
;
_chemical_formula_sum "Si O2"
_cell_formula_units_Z 32
_cell_length_a 10.687504
_cell_length_b 8.870106
_cell_length_c 26.573304
_cell_angle_alpha 90.000000
_cell_angle_beta 33.064745
_cell_angle_gamma 90.000000
_cell_volume 1374.403299
_symmetry_space_group_name_H-M "C C"
_symmetry_group_IT_number 9
_symmetry_cell_setting 'monoclinic'
loop_
_space_group_symop_operation_xyz
x,y,z
x,-y,1/2+z
1/2+x,1/2+y,z
1/2+x,1/2-y,1/2+z
loop_
_atom_site_type_symbol
_atom_site_label
_atom_site_fract_x
_atom_site_fract_y
_atom_site_fract_z
Si Si1 0.333480 0.834406 0.338340
Si Si2 0.983741 0.118160 0.212824
Si Si3 0.509794 0.688836 0.039952
Si Si4 0.824369 0.749552 0.019892
Si Si5 0.341013 0.682686 0.712288
Si Si6 0.321093 0.807170 0.833056
Si Si7 0.634803 0.949877 0.605745
Si Si8 0.717913 0.394906 0.208205
O O1 0.309799 0.735971 0.296076
O O2 0.594895 0.808605 0.269232
O O3 0.146371 0.783553 0.442565
O O4 0.311028 0.013732 0.340061
O O5 0.189561 0.205457 0.115684
O O6 0.897143 0.992584 0.202717
O O7 0.070906 0.022289 0.231005
O O8 0.706057 0.654681 0.014937
O O9 0.303903 0.573058 0.096191
O O10 0.374280 0.826771 0.110683
O O11 0.777806 0.928612 0.024790
O O12 0.093860 0.732988 0.932733
O O13 0.325293 0.755965 0.773357
O O14 0.548107 0.782946 0.618121
O O15 0.547562 0.736873 0.781567
O O16 0.390184 0.035018 0.690414
#
# Coordination Sequence:
#
# PCOD9138991 Si02
#       8
#     4   4   4   4   4   4   4   4
#     4  12  25  44  72 103 140 193 233 300 358 428
#     4  11  25  43  69 105 137 182 242 289 361 422
#     4  11  23  44  72 100 142 185 237 288 363 418
#     4  11  25  42  72 109 139 185 240 298 356 439
#     4  11  24  45  67 100 146 185 232 300 357 430
#     4  11  23  45  68 104 144 184 239 298 362 425
#     4  11  21  46  69  97 143 185 236 284 365 418
#     4  10  24  43  69 102 141 191 231 299 356 428
#
# _framework density 23.282831999999999
#
# number of rings (size 3 to 8) (size 9 to 14) (size 15 to 20)
#    0.000    1.000    6.250    0.750    3.500    2.000 
#    0.000    1.250    0.000    0.000    0.000    0.000 
#    0.000    0.000    0.000    0.000    0.000    0.000 
#
# Total GULP energy -89279.656283 kJ/mol
# GULP energy per Si atom -5579.978518 kJ/mol
# Density = 2.322984 g / cm^3
# Si number density = 23.282832 Si / 1000 Ang^3
#
#
#
# Elastic Constant Matrix: (Units=GPa)
#
#
# Indices 1 2 3 4 5 6 
#
# 1 81.6697 43.7674 22.3545 0.0001 -19.4477 0.0000
# 2 43.7674 119.5140 58.0471 0.0002 -11.3111 0.0000
# 3 22.3545 58.0471 119.4304 0.0012 3.6113 0.0000
# 4 0.0001 0.0002 0.0012 0.4605 -0.0001 1.0982
# 5 -19.4477 -11.3111 3.6113 -0.0001 33.8179 0.0000
# 6 0.0000 0.0000 0.0000 1.0982 0.0000 42.1285
#
#
#
# Elastic Compliance Matrix: (Units=1/GPa)
#
#
# Indices 1 2 3 4 5 6 
#
# 1 0.017192 -0.005004 -0.001037 0.000002 0.008324 0.000000
# 2 -0.005004 0.013053 -0.005470 0.000011 0.002072 0.000000
# 3 -0.001037 -0.005470 0.011336 -0.000029 -0.003637 0.000001
# 4 0.000002 0.000011 -0.000029 2.315362 0.000012 -0.060356
# 5 0.008324 0.002072 -0.003637 0.000012 0.035438 0.000000
# 6 0.000000 0.000000 0.000001 -0.060356 0.000000 0.025310
#
#
# Mechanical properties :
#
#
# Convention : Reuss Voigt Hill
#
# Bulk Modulus (GPa) = 53.88700 63.21690 58.55195
# Shear Modulus (GPa) = 2.04340 28.37772 15.21056
#
# Velocity S-wave (km/s) = 0.93784 3.49496 2.55874
# Velocity P-wave (km/s) = 4.93634 6.59522 5.82514
#
# Compressibility (1/GPa) = 0.01855735
#
# Stress axis : x y z
#
# Youngs Moduli (GPa) = 58.16511 76.61230 88.21596
#
# Poissons Ratio (x) = 0.38340 0.09151
# Poissons Ratio (y) = 0.29108 0.48254
# Poissons Ratio (z) = 0.06034 0.41907
#
# Static dielectric constant tensor:
#      x y z
#    x 1.903640 0.000000 -0.020290 
#    y 0.000000 1.933030 0.000000 
#    z -0.020290 0.000000 1.873340 
# 
# From -- ./inp_files/37301.got.cif
#   From: 2010.05.17/outbox.cif.g08.bks.cpg/sg9_19_cif.got.tgz:37301.got - 2010.06.03 20:04:27.
