data_PCOD9138068
_publ_section_title
;
Structure prediction by ZEFSAII (Michael W. Deem and Ramdas Pophale) SiO2 
 PCOD9138068
Probable space group: C C
;
_chemical_formula_sum "Si O2"
_cell_formula_units_Z 20
_cell_length_a 9.486711
_cell_length_b 16.186400
_cell_length_c 4.990115
_cell_angle_alpha 90.000000
_cell_angle_beta 72.912508
_cell_angle_gamma 90.000000
_cell_volume 732.435695
_symmetry_space_group_name_H-M "C C"
_symmetry_group_IT_number 9
_symmetry_cell_setting 'monoclinic'
loop_
_space_group_symop_operation_xyz
x,y,z
x,-y,1/2+z
1/2+x,1/2+y,z
1/2+x,1/2-y,1/2+z
loop_
_atom_site_type_symbol
_atom_site_label
_atom_site_fract_x
_atom_site_fract_y
_atom_site_fract_z
Si Si1 0.986670 0.947876 0.696440
Si Si2 0.474133 0.686811 0.568583
Si Si3 0.733159 0.380475 0.256962
Si Si4 0.054645 0.552459 0.510710
Si Si5 0.710098 0.800111 0.634759
O O1 0.945260 0.853593 0.796732
O O2 0.930644 0.995088 0.467433
O O3 0.161473 0.065710 0.034105
O O4 0.600235 0.623622 0.614824
O O5 0.562390 0.771859 0.547546
O O6 0.335165 0.687907 0.840822
O O7 0.747483 0.281631 0.295505
O O8 0.886957 0.415612 0.078179
O O9 0.076905 0.525807 0.803820
O O10 0.158258 0.623755 0.340736
#
# Coordination Sequence:
#
# PCOD9138068 Si02
#       5
#     4   4   4   4   4
#     4  12  23  42  69 108 143 185 244 311 370 434
#     4  10  23  45  75 106 145 201 258 305 367 463
#     4  10  22  47  75 104 145 200 248 298 369 465
#     4  12  28  48  75 115 156 193 248 324 385 437
#     4  10  22  52  72 113 145 207 254 312 373 463
#
# _framework density 27.306152000000001
#
# number of rings (size 3 to 8) (size 9 to 14) (size 15 to 20)
#    1.200    0.000    4.000    1.200    2.800    3.200 
#   10.800    0.000    0.000    0.000    0.000    0.000 
#    0.000    0.000    0.000    0.000    0.000    0.000 
#
# Total GULP energy -55975.102649 kJ/mol
# GULP energy per Si atom -5597.510265 kJ/mol
# Density = 2.724400 g / cm^3
# Si number density = 27.306152 Si / 1000 Ang^3
#
#
#
# Elastic Constant Matrix: (Units=GPa)
#
#
# Indices 1 2 3 4 5 6 
#
# 1 110.4394 21.9336 57.6348 0.0000 -53.0837 0.0000
# 2 21.9336 121.2109 39.7225 0.0000 -9.1547 0.0000
# 3 57.6348 39.7225 175.7336 0.0000 -25.4701 0.0000
# 4 0.0000 0.0000 0.0000 62.4486 0.0000 -13.9447
# 5 -53.0837 -9.1547 -25.4701 0.0000 61.2448 0.0000
# 6 0.0000 0.0000 0.0000 -13.9447 0.0000 33.8104
#
#
#
# Elastic Compliance Matrix: (Units=1/GPa)
#
#
# Indices 1 2 3 4 5 6 
#
# 1 0.017723 -0.000991 -0.003601 0.000000 0.013716 0.000000
# 2 -0.000991 0.008981 -0.001740 0.000000 -0.000240 0.000000
# 3 -0.003601 -0.001740 0.007209 0.000000 -0.000383 0.000000
# 4 0.000000 0.000000 0.000000 0.017638 0.000000 0.007274
# 5 0.013716 -0.000240 -0.000383 0.000000 0.028021 0.000000
# 6 0.000000 0.000000 0.000000 0.007274 0.000000 0.032577
#
#
# Mechanical properties :
#
#
# Convention : Reuss Voigt Hill
#
# Bulk Modulus (GPa) = 47.05764 71.77397 59.41581
# Shear Modulus (GPa) = 37.90837 50.70696 44.30767
#
# Velocity S-wave (km/s) = 3.72999 4.31394 4.03255
# Velocity P-wave (km/s) = 5.98509 7.15230 6.59457
#
# Compressibility (1/GPa) = 0.02125053
#
# Stress axis : x y z
#
# Youngs Moduli (GPa) = 56.42227 111.34009 138.71299
#
# Poissons Ratio (x) = 0.11036 0.49946
# Poissons Ratio (y) = 0.05593 0.24134
# Poissons Ratio (z) = 0.20316 0.19372
#
# Static dielectric constant tensor:
#      x y z
#    x 2.342320 0.000000 0.125530 
#    y 0.000000 2.214130 0.000000 
#    z 0.125530 0.000000 2.059940 
# 
# From -- ./inp_files/1564.got.cif
#   From: 2010.05.17/outbox.cif.g08.bks.cpg/sg9_1_cif.got.tgz:1564.got - 2010.06.03 20:04:27.
