data_PCOD9138456
_publ_section_title
;
Structure prediction by ZEFSAII (Michael W. Deem and Ramdas Pophale) SiO2 
 PCOD9138456
Probable space group: C C
;
_chemical_formula_sum "Si O2"
_cell_formula_units_Z 28
_cell_length_a 17.829410
_cell_length_b 8.263945
_cell_length_c 23.562287
_cell_angle_alpha 90.000000
_cell_angle_beta 18.807144
_cell_angle_gamma 90.000000
_cell_volume 1119.218663
_symmetry_space_group_name_H-M "C C"
_symmetry_group_IT_number 9
_symmetry_cell_setting 'monoclinic'
loop_
_space_group_symop_operation_xyz
x,y,z
x,-y,1/2+z
1/2+x,1/2+y,z
1/2+x,1/2-y,1/2+z
loop_
_atom_site_type_symbol
_atom_site_label
_atom_site_fract_x
_atom_site_fract_y
_atom_site_fract_z
Si Si1 0.843980 0.234121 0.815320
Si Si2 0.193073 0.685564 0.286211
Si Si3 0.937074 0.906486 0.924095
Si Si4 0.471330 0.732008 0.280528
Si Si5 0.040818 0.945955 0.617297
Si Si6 0.363066 0.056252 0.192467
Si Si7 0.220679 0.712141 0.136290
O O1 0.814100 0.385132 0.792789
O O2 0.982661 0.262891 0.774115
O O3 0.031000 0.123968 0.647979
O O4 0.612851 0.127092 0.993358
O O5 0.368740 0.560962 0.188168
O O6 0.183478 0.655242 0.226412
O O7 0.927277 0.656795 0.496805
O O8 0.310023 0.861716 0.221709
O O9 0.942772 0.892967 0.852320
O O10 0.174545 0.865118 0.785220
O O11 0.733317 0.793175 0.092737
O O12 0.861172 0.084157 0.997311
O O13 0.434795 0.661735 0.244361
O O14 0.289547 0.873920 0.423591
#
# Coordination Sequence:
#
# PCOD9138456 Si02
#       7
#     4   4   4   4   4   4   4
#     4  12  27  43  72 108 141 185 241 304 353 418
#     4  11  25  49  71 102 143 194 235 288 362 434
#     4  10  24  45  71 104 144 192 234 298 359 433
#     4  10  23  43  72 107 144 183 243 295 365 418
#     4  11  25  43  75 102 143 188 239 295 356 433
#     4  11  26  45  71 102 148 185 240 293 361 420
#     4  11  26  44  74 101 145 187 240 291 360 428
#
# _framework density 25.017451000000001
#
# number of rings (size 3 to 8) (size 9 to 14) (size 15 to 20)
#    0.000    1.143    0.000    4.286   14.000    3.429 
#    2.571    0.000    0.000    0.000    0.000    0.000 
#    0.000    0.000    0.000    0.000    0.000    0.000 
#
# Total GULP energy -78334.307369 kJ/mol
# GULP energy per Si atom -5595.307669 kJ/mol
# Density = 2.496051 g / cm^3
# Si number density = 25.017451 Si / 1000 Ang^3
#
#
#
# Elastic Constant Matrix: (Units=GPa)
#
#
# Indices 1 2 3 4 5 6 
#
# 1 181.2924 42.1417 49.2305 0.0128 -15.3115 -0.0054
# 2 42.1417 30.0091 23.5910 0.0138 9.4369 -0.0262
# 3 49.2305 23.5910 146.1710 -0.0069 -22.2485 -0.0040
# 4 0.0128 0.0138 -0.0069 24.7776 0.0007 17.8577
# 5 -15.3115 9.4369 -22.2485 0.0007 40.5696 0.0041
# 6 -0.0054 -0.0262 -0.0040 17.8577 0.0041 20.0423
#
#
#
# Elastic Compliance Matrix: (Units=1/GPa)
#
#
# Indices 1 2 3 4 5 6 
#
# 1 0.009998 -0.017067 0.000617 0.000055 0.008082 -0.000070
# 2 -0.017067 0.075352 -0.010978 -0.000296 -0.029989 0.000361
# 3 0.000617 -0.010978 0.009633 0.000051 0.008069 -0.000059
# 4 0.000055 -0.000296 0.000051 0.112787 0.000126 -0.100494
# 5 0.008082 -0.029989 0.008069 0.000126 0.039100 -0.000155
# 6 -0.000070 0.000361 -0.000059 -0.100494 -0.000155 0.139435
#
#
# Mechanical properties :
#
#
# Convention : Reuss Voigt Hill
#
# Bulk Modulus (GPa) = 24.92025 65.26653 45.09339
# Shear Modulus (GPa) = 11.00020 33.24520 22.12270
#
# Velocity S-wave (km/s) = 2.09918 3.64934 2.97693
# Velocity P-wave (km/s) = 3.98223 6.62585 5.46626
#
# Compressibility (1/GPa) = 0.04012802
#
# Stress axis : x y z
#
# Youngs Moduli (GPa) = 100.01754 13.27109 103.80626
#
# Poissons Ratio (x) = 0.22650 -0.06408
# Poissons Ratio (y) = 1.70704 1.13954
# Poissons Ratio (z) = -0.06174 0.14568
#
# Static dielectric constant tensor:
#      x y z
#    x 1.925630 0.000000 -0.005620 
#    y 0.000000 2.158510 0.000020 
#    z -0.005620 0.000020 2.200090 
# 
# From -- ./inp_files/11389.got.cif
#   From: 2010.05.17/outbox.cif.g08.bks.cpg/sg9_6_cif.got.tgz:11389.got - 2010.06.03 20:04:27.
