data_PCOD9138551
_publ_section_title
;
Structure prediction by ZEFSAII (Michael W. Deem and Ramdas Pophale) SiO2 
 PCOD9138551
Probable space group: C C
;
_chemical_formula_sum "Si O2"
_cell_formula_units_Z 32
_cell_length_a 18.124170
_cell_length_b 9.779614
_cell_length_c 13.196616
_cell_angle_alpha 90.000000
_cell_angle_beta 141.237811
_cell_angle_gamma 90.000000
_cell_volume 1464.464168
_symmetry_space_group_name_H-M "C C"
_symmetry_group_IT_number 9
_symmetry_cell_setting 'monoclinic'
loop_
_space_group_symop_operation_xyz
x,y,z
x,-y,1/2+z
1/2+x,1/2+y,z
1/2+x,1/2-y,1/2+z
loop_
_atom_site_type_symbol
_atom_site_label
_atom_site_fract_x
_atom_site_fract_y
_atom_site_fract_z
Si Si1 0.033940 0.230552 0.469020
Si Si2 0.123952 0.439642 0.398514
Si Si3 0.981094 0.972630 0.271504
Si Si4 0.823194 0.158576 0.968071
Si Si5 0.789500 0.654706 0.769879
Si Si6 0.397760 0.973318 0.051860
Si Si7 0.737183 0.439604 0.552033
Si Si8 0.784911 0.844274 0.190472
O O1 0.053861 0.349364 0.406199
O O2 0.162095 0.220066 0.662764
O O3 0.010812 0.090580 0.384701
O O4 0.908494 0.254940 0.390470
O O5 0.213868 0.348779 0.428924
O O6 0.194397 0.553685 0.537187
O O7 0.034768 0.498529 0.219313
O O8 0.905021 0.865744 0.254701
O O9 0.909297 0.042997 0.104712
O O10 0.107117 0.925961 0.367162
O O11 0.795044 0.126909 0.820797
O O12 0.877422 0.310294 0.033581
O O13 0.759501 0.584410 0.630572
O O14 0.835205 0.529955 0.886085
O O15 0.333820 0.060302 0.069795
O O16 0.748314 0.312318 0.638512
#
# Coordination Sequence:
#
# PCOD9138551 Si02
#       8
#     4   4   4   4   4   4   4   4
#     4  11  22  47  70 101 143 176 238 285 343 412
#     4  11  25  43  72  98 135 182 225 289 343 407
#     4  10  23  44  71  97 133 185 222 287 347 402
#     4  11  23  46  71 101 131 183 238 274 338 427
#     4  11  24  43  73 102 135 186 228 286 345 410
#     4  12  25  43  72 100 132 186 228 276 345 414
#     4  11  24  44  66 102 142 171 226 288 345 405
#     4  11  26  44  69 103 139 175 227 291 346 407
#
# _framework density 21.850995999999999
#
# number of rings (size 3 to 8) (size 9 to 14) (size 15 to 20)
#    0.000    1.000    3.750    3.000    3.500    4.000 
#    6.750    0.000    0.000    0.000    0.000    0.000 
#    0.000    0.000    0.000    0.000    0.000    0.000 
#
# Total GULP energy -89297.046740 kJ/mol
# GULP energy per Si atom -5581.065421 kJ/mol
# Density = 2.180126 g / cm^3
# Si number density = 21.850996 Si / 1000 Ang^3
#
#
#
# Elastic Constant Matrix: (Units=GPa)
#
#
# Indices 1 2 3 4 5 6 
#
# 1 37.2972 14.6029 43.8886 0.0000 9.2282 0.0000
# 2 14.6029 36.8962 19.8922 0.0000 2.2345 0.0000
# 3 43.8886 19.8922 130.7385 0.0000 12.3559 0.0000
# 4 0.0000 0.0000 0.0000 20.3897 0.0000 -19.0950
# 5 9.2282 2.2345 12.3559 0.0000 36.1722 0.0000
# 6 0.0000 0.0000 0.0000 -19.0950 0.0000 -23.6707
#
#
#
# Elastic Compliance Matrix: (Units=1/GPa)
#
#
# Indices 1 2 3 4 5 6 
#
# 1 0.050010 -0.011627 -0.014344 0.000000 -0.007141 0.000000
# 2 -0.011627 0.032231 -0.001130 0.000000 0.001361 0.000000
# 3 -0.014344 -0.001130 0.012693 0.000000 -0.000607 0.000000
# 4 0.000000 0.000000 0.000000 0.027938 0.000000 -0.022537
# 5 -0.007141 0.001361 -0.000607 0.000000 0.029590 0.000000
# 6 0.000000 0.000000 0.000000 -0.022537 0.000000 -0.024066
#
#
# Mechanical properties :
#
#
# Convention : Reuss Voigt Hill
#
# Bulk Modulus (GPa) = 24.55015 40.18882 32.36949
# Shear Modulus (GPa) = 25.48710 15.01478 20.25094
#
# Velocity S-wave (km/s) = 3.41897 2.62419 3.04760
# Velocity P-wave (km/s) = 5.18126 5.25490 5.21821
#
# Compressibility (1/GPa) = 0.04073294
#
# Stress axis : x y z
#
# Youngs Moduli (GPa) = 19.99593 31.02556 78.78108
#
# Poissons Ratio (x) = 0.36074 1.13006
# Poissons Ratio (y) = 0.23250 0.08898
# Poissons Ratio (z) = 0.28683 0.03504
#
# Static dielectric constant tensor:
#      x y z
#    x 1.814930 0.000000 0.023180 
#    y 0.000000 1.835980 0.000000 
#    z 0.023180 0.000000 1.826540 
# 
# From -- ./inp_files/17979.got.cif
#   From: 2010.05.17/outbox.cif.g08.bks.cpg/sg9_9_cif.got.tgz:17979.got - 2010.06.03 20:04:27.
