data_PCOD9138761
_publ_section_title
;
Structure prediction by ZEFSAII (Michael W. Deem and Ramdas Pophale) SiO2 
 PCOD9138761
Probable space group: C C
;
_chemical_formula_sum "Si O2"
_cell_formula_units_Z 28
_cell_length_a 7.388423
_cell_length_b 17.377636
_cell_length_c 12.702061
_cell_angle_alpha 90.000000
_cell_angle_beta 139.868219
_cell_angle_gamma 90.000000
_cell_volume 1051.167162
_symmetry_space_group_name_H-M "C C"
_symmetry_group_IT_number 9
_symmetry_cell_setting 'monoclinic'
loop_
_space_group_symop_operation_xyz
x,y,z
x,-y,1/2+z
1/2+x,1/2+y,z
1/2+x,1/2-y,1/2+z
loop_
_atom_site_type_symbol
_atom_site_label
_atom_site_fract_x
_atom_site_fract_y
_atom_site_fract_z
Si Si1 0.630590 0.746295 0.987150
Si Si2 0.546503 0.272252 0.673154
Si Si3 0.427657 0.596641 0.634596
Si Si4 0.394007 0.399497 0.773999
Si Si5 0.370388 0.097998 0.642247
Si Si6 0.063846 0.547599 0.300761
Si Si7 0.282024 0.917667 0.487737
O O1 0.380005 0.783630 0.809944
O O2 0.457980 0.716733 0.013172
O O3 0.837757 0.815007 0.108858
O O4 0.765718 0.675545 0.987084
O O5 0.447878 0.331317 0.717171
O O6 0.461643 0.185139 0.662896
O O7 0.679473 0.592564 0.662118
O O8 0.157645 0.556043 0.461076
O O9 0.551153 0.562248 0.797402
O O10 0.252827 0.387129 0.826758
O O11 0.105045 0.437512 0.599743
O O12 0.698961 0.425015 0.958094
O O13 0.620296 0.038848 0.782602
O O14 0.769606 0.559235 0.107559
#
# Coordination Sequence:
#
# PCOD9138761 Si02
#       7
#     4   4   4   4   4   4   4
#     4  12  24  41  70 110 148 187 252 304 364 444
#     4  12  24  40  72 111 145 193 246 309 364 446
#     4  11  24  46  71 105 146 197 243 303 376 442
#     4   9  23  46  72 102 147 193 245 304 376 430
#     4  11  24  47  74 103 149 191 256 305 374 450
#     4   9  24  48  71 103 142 194 245 313 369 446
#     4  10  23  46  74 100 147 195 241 302 371 438
#
# _framework density 26.637055
#
# number of rings (size 3 to 8) (size 9 to 14) (size 15 to 20)
#    0.857    0.571    2.857    1.714    2.000    4.571 
#    5.143    0.000    0.000    0.000    0.000    0.000 
#    0.000    0.000    0.000    0.000    0.000    0.000 
#
# Total GULP energy -77934.472577 kJ/mol
# GULP energy per Si atom -5566.748041 kJ/mol
# Density = 2.657643 g / cm^3
# Si number density = 26.637055 Si / 1000 Ang^3
#
#
#
# Elastic Constant Matrix: (Units=GPa)
#
#
# Indices 1 2 3 4 5 6 
#
# 1 105.4445 53.4764 40.2056 0.0002 -10.6309 0.0001
# 2 53.4764 57.4408 52.6367 -0.0002 -16.3437 -0.0001
# 3 40.2056 52.6367 245.0831 0.0007 -22.2287 0.0005
# 4 0.0002 -0.0002 0.0007 49.9650 0.0004 -14.5056
# 5 -10.6309 -16.3437 -22.2287 0.0004 37.8094 0.0001
# 6 0.0001 -0.0001 0.0005 -14.5056 0.0001 30.6944
#
#
#
# Elastic Compliance Matrix: (Units=1/GPa)
#
#
# Indices 1 2 3 4 5 6 
#
# 1 0.018277 -0.018358 0.000730 0.000000 -0.002368 0.000000
# 2 -0.018358 0.042026 -0.005107 0.000000 0.010002 0.000000
# 3 0.000730 -0.005107 0.005150 0.000000 0.001026 0.000000
# 4 0.000000 0.000000 0.000000 0.023197 0.000000 0.010962
# 5 -0.002368 0.010002 0.001026 0.000000 0.030709 0.000000
# 6 0.000000 0.000000 0.000000 0.010962 0.000000 0.037760
#
#
# Mechanical properties :
#
#
# Convention : Reuss Voigt Hill
#
# Bulk Modulus (GPa) = 50.04321 77.84509 63.94415
# Shear Modulus (GPa) = 23.89478 41.13708 32.51593
#
# Velocity S-wave (km/s) = 2.99833 3.93409 3.49765
# Velocity P-wave (km/s) = 5.55108 7.06569 6.35368
#
# Compressibility (1/GPa) = 0.01998273
#
# Stress axis : x y z
#
# Youngs Moduli (GPa) = 54.71364 23.79471 194.15813
#
# Poissons Ratio (x) = 0.43682 -0.14168
# Poissons Ratio (y) = 1.00443 0.99161
# Poissons Ratio (z) = -0.03992 0.12153
#
# Static dielectric constant tensor:
#      x y z
#    x 2.051630 0.000000 0.012050 
#    y 0.000000 2.214870 0.000000 
#    z 0.012050 0.000000 2.166370 
# 
# From -- ./inp_files/23675.got.cif
#   From: 2010.05.17/outbox.cif.g08.bks.cpg/sg9_12_cif.got.tgz:23675.got - 2010.06.03 20:04:27.
