data_PCOD9138127
_publ_section_title
;
Structure prediction by ZEFSAII (Michael W. Deem and Ramdas Pophale) SiO2 
 PCOD9138127
Probable space group: C C
;
_chemical_formula_sum "Si O2"
_cell_formula_units_Z 28
_cell_length_a 10.125268
_cell_length_b 9.281025
_cell_length_c 13.796063
_cell_angle_alpha 90.000000
_cell_angle_beta 95.623274
_cell_angle_gamma 90.000000
_cell_volume 1290.216611
_symmetry_space_group_name_H-M "C C"
_symmetry_group_IT_number 9
_symmetry_cell_setting 'monoclinic'
loop_
_space_group_symop_operation_xyz
x,y,z
x,-y,1/2+z
1/2+x,1/2+y,z
1/2+x,1/2-y,1/2+z
loop_
_atom_site_type_symbol
_atom_site_label
_atom_site_fract_x
_atom_site_fract_y
_atom_site_fract_z
Si Si1 0.448550 0.324864 0.711520
Si Si2 0.250032 0.150183 0.201561
Si Si3 0.087895 0.260853 0.886545
Si Si4 0.844992 0.753684 0.500954
Si Si5 0.346587 0.414813 0.311610
Si Si6 0.469332 0.032415 0.827129
Si Si7 0.814399 0.428588 0.490987
O O1 0.594200 0.386350 0.694445
O O2 0.357719 0.311649 0.609630
O O3 0.372818 0.423154 0.783693
O O4 0.473942 0.168073 0.758470
O O5 0.264763 0.317844 0.230892
O O6 0.313635 0.119727 0.101779
O O7 0.338449 0.059717 0.284913
O O8 0.994721 0.156189 0.817257
O O9 0.087477 0.415840 0.834878
O O10 0.216673 0.177027 0.926455
O O11 0.996877 0.278603 0.976822
O O12 0.799153 0.868080 0.416289
O O13 0.773696 0.598599 0.490106
O O14 0.447064 0.080781 0.936426
#
# Coordination Sequence:
#
# PCOD9138127 Si02
#       7
#     4   4   4   4   4   4   4
#     4  12  22  39  65  93 127 167 208 259 317 370
#     4  11  21  38  65  88 121 170 209 254 315 368
#     4   8  18  39  60  88 121 160 207 254 309 365
#     4   9  20  36  61  91 127 158 217 259 305 378
#     4   9  22  37  58  94 127 157 210 263 300 381
#     4  10  23  37  61  96 124 159 214 258 306 384
#     4  11  18  38  68  86 125 173 203 263 322 358
#
# _framework density 21.701782000000001
#
# number of rings (size 3 to 8) (size 9 to 14) (size 15 to 20)
#    0.857    1.143    4.286    0.857    0.000    2.286 
#    0.000    0.000    0.000    0.000    0.000    0.000 
#    0.000    0.000    0.000    0.000    0.000    0.000 
#
# Total GULP energy -78014.030984 kJ/mol
# GULP energy per Si atom -5572.430785 kJ/mol
# Density = 2.165239 g / cm^3
# Si number density = 21.701782 Si / 1000 Ang^3
#
#
#
# Elastic Constant Matrix: (Units=GPa)
#
#
# Indices 1 2 3 4 5 6 
#
# 1 49.8893 21.6709 19.4960 0.0000 1.8261 0.0000
# 2 21.6709 130.9520 52.6125 0.0000 11.3990 0.0000
# 3 19.4960 52.6125 111.3460 0.0000 5.4364 0.0000
# 4 0.0000 0.0000 0.0000 29.5011 0.0000 1.7309
# 5 1.8261 11.3990 5.4364 0.0000 11.6283 0.0000
# 6 0.0000 0.0000 0.0000 1.7309 0.0000 27.8838
#
#
#
# Elastic Compliance Matrix: (Units=1/GPa)
#
#
# Indices 1 2 3 4 5 6 
#
# 1 0.022217 -0.002637 -0.002661 0.000000 0.000340 0.000000
# 2 -0.002637 0.010391 -0.004064 0.000000 -0.007872 0.000000
# 3 -0.002661 -0.004064 0.011413 0.000000 -0.000934 0.000000
# 4 0.000000 0.000000 0.000000 0.034021 0.000000 -0.002112
# 5 0.000340 -0.007872 -0.000934 0.000000 0.094097 0.000000
# 6 0.000000 0.000000 0.000000 -0.002112 0.000000 0.035994
#
#
# Mechanical properties :
#
#
# Convention : Reuss Voigt Hill
#
# Bulk Modulus (GPa) = 39.52961 53.30511 46.41736
# Shear Modulus (GPa) = 21.25053 27.02982 24.14018
#
# Velocity S-wave (km/s) = 3.13262 3.53301 3.33882
# Velocity P-wave (km/s) = 5.59811 6.42330 6.02485
#
# Compressibility (1/GPa) = 0.02529749
#
# Stress axis : x y z
#
# Youngs Moduli (GPa) = 45.01010 96.23991 87.62258
#
# Poissons Ratio (x) = 0.25382 0.23312
# Poissons Ratio (y) = 0.11871 0.35607
# Poissons Ratio (z) = 0.11975 0.39108
#
# Static dielectric constant tensor:
#      x y z
#    x 1.834350 0.000000 -0.012490 
#    y 0.000000 1.821590 0.000000 
#    z -0.012490 0.000000 1.783690 
# 
# From -- ./inp_files/24112.got.cif
#   From: 2010.05.17/outbox.cif.g08.bks.cpg/sg9_13_cif.got.tgz:24112.got - 2010.06.03 20:04:27.
