data_PCOD9138833
_publ_section_title
;
Structure prediction by ZEFSAII (Michael W. Deem and Ramdas Pophale) SiO2 
 PCOD9138833
Probable space group: C C
;
_chemical_formula_sum "Si O2"
_cell_formula_units_Z 24
_cell_length_a 13.419395
_cell_length_b 5.304267
_cell_length_c 23.462533
_cell_angle_alpha 90.000000
_cell_angle_beta 31.352920
_cell_angle_gamma 90.000000
_cell_volume 868.948005
_symmetry_space_group_name_H-M "C C"
_symmetry_group_IT_number 9
_symmetry_cell_setting 'monoclinic'
loop_
_space_group_symop_operation_xyz
x,y,z
x,-y,1/2+z
1/2+x,1/2+y,z
1/2+x,1/2-y,1/2+z
loop_
_atom_site_type_symbol
_atom_site_label
_atom_site_fract_x
_atom_site_fract_y
_atom_site_fract_z
Si Si1 0.396480 0.173000 0.232420
Si Si2 0.461527 0.630325 0.577805
Si Si3 0.961404 0.391464 0.466095
Si Si4 0.614106 0.190085 0.240955
Si Si5 0.686678 0.706277 0.893830
Si Si6 0.414288 0.667289 0.378146
O O1 0.474739 0.240757 0.132170
O O2 0.182690 0.301563 0.342159
O O3 0.543999 0.246179 0.210609
O O4 0.344568 0.881935 0.271821
O O5 0.381350 0.804508 0.566030
O O6 0.334130 0.378322 0.642926
O O7 0.649238 0.527834 0.454620
O O8 0.001131 0.688351 0.452474
O O9 0.841591 0.257858 0.475126
O O10 0.549244 0.424330 0.311056
O O11 0.522698 0.919502 0.303656
O O12 0.758370 0.900771 0.906361
#
# Coordination Sequence:
#
# PCOD9138833 Si02
#       6
#     4   4   4   4   4   4
#     4  10  23  48  70 103 153 197 243 313 372 446
#     4  11  26  42  73 113 144 195 256 304 373 445
#     4  11  24  44  72 106 148 193 243 309 370 439
#     4  11  25  47  73 107 142 200 249 302 371 440
#     4  10  25  46  72 108 152 198 247 309 379 438
#     4  11  25  47  76 101 149 199 244 301 379 440
#
# _framework density 27.619606000000001
#
# number of rings (size 3 to 8) (size 9 to 14) (size 15 to 20)
#    0.000    1.333    3.333    0.000    7.000    4.000 
#    0.000    0.000    0.000    0.000    0.000    0.000 
#    0.000    0.000    0.000    0.000    0.000    0.000 
#
# Total GULP energy -67071.695246 kJ/mol
# GULP energy per Si atom -5589.307937 kJ/mol
# Density = 2.755674 g / cm^3
# Si number density = 27.619606 Si / 1000 Ang^3
#
#
#
# Elastic Constant Matrix: (Units=GPa)
#
#
# Indices 1 2 3 4 5 6 
#
# 1 136.3399 39.1223 52.2557 0.0005 55.0737 0.0045
# 2 39.1223 127.7798 54.2674 0.0030 32.4611 0.0130
# 3 52.2557 54.2674 120.2321 -0.0002 53.6359 0.0011
# 4 0.0005 0.0030 -0.0002 43.5222 0.0008 -0.6086
# 5 55.0737 32.4611 53.6359 0.0008 68.7381 0.0004
# 6 0.0045 0.0130 0.0011 -0.6086 0.0004 40.7352
#
#
#
# Elastic Compliance Matrix: (Units=1/GPa)
#
#
# Indices 1 2 3 4 5 6 
#
# 1 0.011087 -0.001055 -0.000923 0.000000 -0.007664 -0.000001
# 2 -0.001055 0.009927 -0.003540 -0.000001 -0.001080 -0.000003
# 3 -0.000923 -0.003540 0.014175 0.000001 -0.008649 0.000001
# 4 0.000000 -0.000001 0.000001 0.022982 0.000000 0.000343
# 5 -0.007664 -0.001080 -0.008649 0.000000 0.027947 0.000001
# 6 -0.000001 -0.000003 0.000001 0.000343 0.000001 0.024554
#
#
# Mechanical properties :
#
#
# Convention : Reuss Voigt Hill
#
# Bulk Modulus (GPa) = 41.40561 75.07138 58.23849
# Shear Modulus (GPa) = 38.53272 46.51287 42.52280
#
# Velocity S-wave (km/s) = 3.73919 4.10817 3.92801
# Velocity P-wave (km/s) = 5.80224 7.05282 6.45787
#
# Compressibility (1/GPa) = 0.02415132
#
# Stress axis : x y z
#
# Youngs Moduli (GPa) = 90.19296 100.73631 70.54852
#
# Poissons Ratio (x) = 0.10632 0.06514
# Poissons Ratio (y) = 0.09519 0.24974
# Poissons Ratio (z) = 0.08328 0.35661
#
# Static dielectric constant tensor:
#      x y z
#    x 2.292670 -0.000010 -0.067890 
#    y -0.000010 2.313130 0.000000 
#    z -0.067890 0.000000 2.150440 
# 
# From -- ./inp_files/17390.got.cif
#   From: 2010.05.17/outbox.cif.g08.bks.cpg/sg9_9_cif.got.tgz:17390.got - 2010.06.03 20:04:27.
