data_PCOD9138313
_publ_section_title
;
Structure prediction by ZEFSAII (Michael W. Deem and Ramdas Pophale) SiO2 
 PCOD9138313
Probable space group: C C
;
_chemical_formula_sum "Si O2"
_cell_formula_units_Z 32
_cell_length_a 16.243583
_cell_length_b 13.430908
_cell_length_c 10.189603
_cell_angle_alpha 90.000000
_cell_angle_beta 40.517634
_cell_angle_gamma 90.000000
_cell_volume 1444.259846
_symmetry_space_group_name_H-M "C C"
_symmetry_group_IT_number 9
_symmetry_cell_setting 'monoclinic'
loop_
_space_group_symop_operation_xyz
x,y,z
x,-y,1/2+z
1/2+x,1/2+y,z
1/2+x,1/2-y,1/2+z
loop_
_atom_site_type_symbol
_atom_site_label
_atom_site_fract_x
_atom_site_fract_y
_atom_site_fract_z
Si Si1 0.060300 0.552538 0.086370
Si Si2 0.893335 0.714644 0.151742
Si Si3 0.998380 0.748783 0.738282
Si Si4 0.824459 0.577759 0.873495
Si Si5 0.954071 0.036086 0.203823
Si Si6 0.704918 0.547948 0.291530
Si Si7 0.214899 0.374797 0.843682
Si Si8 0.787439 0.128919 0.985306
O O1 0.160123 0.587681 0.072638
O O2 0.999983 0.644765 0.085687
O O3 0.941965 0.489898 0.282665
O O4 0.131995 0.472904 0.907437
O O5 0.768646 0.648299 0.271481
O O6 0.852804 0.799152 0.301498
O O7 0.952572 0.748593 0.943142
O O8 0.016267 0.862735 0.678827
O O9 0.126758 0.689375 0.547250
O O10 0.885111 0.688340 0.799908
O O11 0.725317 0.556849 0.110620
O O12 0.780071 0.537144 0.785769
O O13 0.839326 0.079749 0.257114
O O14 0.884206 0.962881 0.390647
O O15 0.059416 0.972233 0.001078
O O16 0.251749 0.320056 0.665295
#
# Coordination Sequence:
#
# PCOD9138313 Si02
#       8
#     4   4   4   4   4   4   4   4
#     4   9  22  42  71  94 133 174 227 274 330 409
#     4  10  24  45  71 101 130 180 228 275 342 410
#     4  10  24  43  70  97 135 177 229 272 336 414
#     4   9  21  42  70  97 129 182 226 272 336 410
#     4  11  27  43  66 101 138 174 224 286 340 399
#     4  10  23  42  68  99 135 177 223 282 337 408
#     4  10  25  45  67  99 134 184 224 279 340 402
#     4  11  26  42  67 100 136 176 223 286 341 394
#
# _framework density 22.156677999999999
#
# number of rings (size 3 to 8) (size 9 to 14) (size 15 to 20)
#    0.000    2.000    0.000    0.000   19.250    3.000 
#    0.000    0.000    0.000    0.000    0.000    0.000 
#    0.000    0.000    0.000    0.000    0.000    0.000 
#
# Total GULP energy -89349.827132 kJ/mol
# GULP energy per Si atom -5584.364196 kJ/mol
# Density = 2.210625 g / cm^3
# Si number density = 22.156678 Si / 1000 Ang^3
#
#
#
# Elastic Constant Matrix: (Units=GPa)
#
#
# Indices 1 2 3 4 5 6 
#
# 1 51.1678 23.9483 45.0852 0.0000 -0.2489 0.0000
# 2 23.9483 70.1231 36.6589 0.0000 -0.4356 0.0000
# 3 45.0852 36.6589 141.8599 0.0000 -4.4189 0.0000
# 4 0.0000 0.0000 0.0000 28.4532 0.0000 5.5351
# 5 -0.2489 -0.4356 -4.4189 0.0000 37.0988 0.0000
# 6 0.0000 0.0000 0.0000 5.5351 0.0000 9.9644
#
#
#
# Elastic Compliance Matrix: (Units=1/GPa)
#
#
# Indices 1 2 3 4 5 6 
#
# 1 0.029139 -0.005899 -0.007761 0.000000 -0.000798 0.000000
# 2 -0.005899 0.017686 -0.002700 0.000000 -0.000154 0.000000
# 3 -0.007761 -0.002700 0.010249 0.000000 0.001137 0.000000
# 4 0.000000 0.000000 0.000000 0.039403 0.000000 -0.021888
# 5 -0.000798 -0.000154 0.001137 0.000000 0.027083 0.000000
# 6 0.000000 0.000000 0.000000 -0.021888 0.000000 0.112516
#
#
# Mechanical properties :
#
#
# Convention : Reuss Voigt Hill
#
# Bulk Modulus (GPa) = 41.06283 52.72616 46.89449
# Shear Modulus (GPa) = 18.05600 25.60051 21.82825
#
# Velocity S-wave (km/s) = 2.85778 3.40285 3.14216
# Velocity P-wave (km/s) = 5.42793 6.26800 5.86303
#
# Compressibility (1/GPa) = 0.02435293
#
# Stress axis : x y z
#
# Youngs Moduli (GPa) = 34.31783 56.54190 97.56946
#
# Poissons Ratio (x) = 0.33355 0.75727
# Poissons Ratio (y) = 0.20244 0.26347
# Poissons Ratio (z) = 0.26635 0.15268
#
# Static dielectric constant tensor:
#      x y z
#    x 1.830150 0.000000 -0.016830 
#    y 0.000000 1.826280 0.000000 
#    z -0.016830 0.000000 1.835440 
# 
# From -- ./inp_files/19404.got.cif
#   From: 2010.05.17/outbox.cif.g08.bks.cpg/sg9_10_cif.got.tgz:19404.got - 2010.06.03 20:04:27.
