data_PCOD9138930
_publ_section_title
;
Structure prediction by ZEFSAII (Michael W. Deem and Ramdas Pophale) SiO2 
 PCOD9138930
Probable space group: C C
;
_chemical_formula_sum "Si O2"
_cell_formula_units_Z 24
_cell_length_a 9.464417
_cell_length_b 11.204060
_cell_length_c 9.669034
_cell_angle_alpha 90.000000
_cell_angle_beta 100.007681
_cell_angle_gamma 90.000000
_cell_volume 1009.702820
_symmetry_space_group_name_H-M "C C"
_symmetry_group_IT_number 9
_symmetry_cell_setting 'monoclinic'
loop_
_space_group_symop_operation_xyz
x,y,z
x,-y,1/2+z
1/2+x,1/2+y,z
1/2+x,1/2-y,1/2+z
loop_
_atom_site_type_symbol
_atom_site_label
_atom_site_fract_x
_atom_site_fract_y
_atom_site_fract_z
Si Si1 0.888870 0.967090 0.612320
Si Si2 0.475469 0.967807 0.185520
Si Si3 0.094144 0.365818 0.492993
Si Si4 0.691158 0.443127 0.510940
Si Si5 0.594291 0.358468 0.837606
Si Si6 0.709047 0.800189 0.118295
O O1 0.759169 0.905186 0.509842
O O2 0.034714 0.960345 0.551332
O O3 0.936579 0.888861 0.752766
O O4 0.829761 0.098587 0.638088
O O5 0.511273 0.930178 0.349217
O O6 0.556977 0.870266 0.101754
O O7 0.545526 0.089259 0.135722
O O8 0.312339 0.986956 0.116702
O O9 0.079735 0.225465 0.467734
O O10 0.673153 0.516787 0.369298
O O11 0.723055 0.302412 0.505542
O O12 0.693722 0.280954 0.752198
#
# Coordination Sequence:
#
# PCOD9138930 Si02
#       6
#     4   4   4   4   4   4
#     4  10  24  47  71 103 140 196 240 296 370 425
#     4  10  24  46  70 105 144 188 244 301 365 421
#     4  10  24  46  73 104 148 194 240 305 362 429
#     4  11  25  40  71 105 136 189 242 293 366 429
#     4  10  24  41  72 102 144 187 240 301 357 431
#     4   9  23  48  65  99 142 186 236 304 350 425
#
# _framework density 23.769369000000001
#
# number of rings (size 3 to 8) (size 9 to 14) (size 15 to 20)
#    0.000    2.000    0.000    0.000   21.000    0.000 
#    3.000    0.000    0.000    0.000    0.000    0.000 
#    0.000    0.000    0.000    0.000    0.000    0.000 
#
# Total GULP energy -66957.301691 kJ/mol
# GULP energy per Si atom -5579.775141 kJ/mol
# Density = 2.371527 g / cm^3
# Si number density = 23.769369 Si / 1000 Ang^3
#
#
#
# Elastic Constant Matrix: (Units=GPa)
#
#
# Indices 1 2 3 4 5 6 
#
# 1 119.6540 11.9794 9.0273 0.0000 28.3592 0.0000
# 2 11.9794 135.9536 18.4370 0.0000 -1.0587 0.0000
# 3 9.0273 18.4370 39.5609 0.0000 21.2638 0.0000
# 4 0.0000 0.0000 0.0000 63.8762 0.0000 0.1377
# 5 28.3592 -1.0587 21.2638 0.0000 35.2093 0.0000
# 6 0.0000 0.0000 0.0000 0.1377 0.0000 32.1599
#
#
#
# Elastic Compliance Matrix: (Units=1/GPa)
#
#
# Indices 1 2 3 4 5 6 
#
# 1 0.010926 -0.001663 0.004499 0.000000 -0.011568 0.000000
# 2 -0.001663 0.008430 -0.006523 0.000000 0.005532 0.000000
# 3 0.004499 -0.006523 0.043447 0.000000 -0.030059 0.000000
# 4 0.000000 0.000000 0.000000 0.015655 0.000000 -0.000067
# 5 -0.011568 0.005532 -0.030059 0.000000 0.056039 0.000000
# 6 0.000000 0.000000 0.000000 -0.000067 0.000000 0.031095
#
#
# Mechanical properties :
#
#
# Convention : Reuss Voigt Hill
#
# Bulk Modulus (GPa) = 18.04057 41.56179 29.80118
# Shear Modulus (GPa) = 26.11774 43.29740 34.70757
#
# Velocity S-wave (km/s) = 3.31841 4.27261 3.82538
# Velocity P-wave (km/s) = 4.72110 6.47021 5.66359
#
# Compressibility (1/GPa) = 0.05543063
#
# Stress axis : x y z
#
# Youngs Moduli (GPa) = 91.52351 118.62956 23.01652
#
# Poissons Ratio (x) = 0.19728 -0.10356
# Poissons Ratio (y) = 0.15221 0.15013
# Poissons Ratio (z) = -0.41181 0.77376
#
# Static dielectric constant tensor:
#      x y z
#    x 1.949020 0.000000 -0.100050 
#    y 0.000000 1.987890 0.000000 
#    z -0.100050 0.000000 2.037670 
# 
# From -- ./inp_files/14145.got.cif
#   From: 2010.05.17/outbox.cif.g08.bks.cpg/sg9_8_cif.got.tgz:14145.got - 2010.06.03 20:04:27.
