data_PCOD9138704
_publ_section_title
;
Structure prediction by ZEFSAII (Michael W. Deem and Ramdas Pophale) SiO2 
 PCOD9138704
Probable space group: C C
;
_chemical_formula_sum "Si O2"
_cell_formula_units_Z 32
_cell_length_a 8.684549
_cell_length_b 15.585561
_cell_length_c 13.826974
_cell_angle_alpha 90.000000
_cell_angle_beta 135.256535
_cell_angle_gamma 90.000000
_cell_volume 1317.433260
_symmetry_space_group_name_H-M "C C"
_symmetry_group_IT_number 9
_symmetry_cell_setting 'monoclinic'
loop_
_space_group_symop_operation_xyz
x,y,z
x,-y,1/2+z
1/2+x,1/2+y,z
1/2+x,1/2-y,1/2+z
loop_
_atom_site_type_symbol
_atom_site_label
_atom_site_fract_x
_atom_site_fract_y
_atom_site_fract_z
Si Si1 0.384540 0.280187 0.745760
Si Si2 0.328096 0.195193 0.345630
Si Si3 0.131135 0.529629 0.507232
Si Si4 0.352415 0.027994 0.051647
Si Si5 0.396960 0.759294 0.458549
Si Si6 0.730176 0.710774 0.083332
Si Si7 0.103371 0.925625 0.277186
Si Si8 0.449289 0.922313 0.274065
O O1 0.587783 0.321190 0.781287
O O2 0.368755 0.303120 0.853549
O O3 0.453887 0.179504 0.780561
O O4 0.152988 0.283187 0.586690
O O5 0.463802 0.107487 0.414985
O O6 0.472498 0.267659 0.464359
O O7 0.309208 0.226400 0.226699
O O8 0.354389 0.569948 0.641148
O O9 0.040577 0.470049 0.553845
O O10 0.142919 0.471057 0.416618
O O11 0.308313 0.114154 0.092645
O O12 0.415340 0.952700 0.150859
O O13 0.142386 0.016856 0.889676
O O14 0.330458 0.734559 0.538242
O O15 0.225114 0.836399 0.359569
O O16 0.238675 0.952260 0.242762
#
# Coordination Sequence:
#
# PCOD9138704 Si02
#       8
#     4   4   4   4   4   4   4   4
#     4  11  25  46  73 108 153 191 255 316 381 454
#     4  12  27  44  75 115 146 200 252 323 376 444
#     4  11  25  47  74 107 150 190 255 308 377 455
#     4  10  23  46  67 105 144 194 245 298 383 435
#     4  10  23  47  70 103 146 196 247 303 382 451
#     4  11  25  45  71 105 150 196 257 303 386 454
#     4   9  23  45  69 101 142 192 238 306 364 455
#     4  10  23  46  69 102 143 195 241 299 381 444
#
# _framework density 24.289655
#
# number of rings (size 3 to 8) (size 9 to 14) (size 15 to 20)
#    0.000    1.500    1.250    2.250   10.500    2.000 
#   18.000    0.000    0.000    0.000    0.000    0.000 
#    0.000    0.000    0.000    0.000    0.000    0.000 
#
# Total GULP energy -89409.862588 kJ/mol
# GULP energy per Si atom -5588.116412 kJ/mol
# Density = 2.423437 g / cm^3
# Si number density = 24.289655 Si / 1000 Ang^3
#
#
#
# Elastic Constant Matrix: (Units=GPa)
#
#
# Indices 1 2 3 4 5 6 
#
# 1 55.0546 8.1809 46.0504 0.0000 -0.8869 0.0000
# 2 8.1809 73.6194 33.2312 0.0000 4.3544 0.0000
# 3 46.0504 33.2312 181.9857 0.0000 9.8457 0.0000
# 4 0.0000 0.0000 0.0000 12.5650 0.0000 0.1886
# 5 -0.8869 4.3544 9.8457 0.0000 51.9216 0.0000
# 6 0.0000 0.0000 0.0000 0.1886 0.0000 29.1401
#
#
#
# Elastic Compliance Matrix: (Units=1/GPa)
#
#
# Indices 1 2 3 4 5 6 
#
# 1 0.023159 0.000021 -0.005946 0.000000 0.001521 0.000000
# 2 0.000021 0.014832 -0.002674 0.000000 -0.000736 0.000000
# 3 -0.005946 -0.002674 0.007559 0.000000 -0.001311 0.000000
# 4 0.000000 0.000000 0.000000 0.079594 0.000000 -0.000515
# 5 0.001521 -0.000736 -0.001311 0.000000 0.019596 0.000000
# 6 0.000000 0.000000 0.000000 -0.000515 0.000000 0.034320
#
#
# Mechanical properties :
#
#
# Convention : Reuss Voigt Hill
#
# Bulk Modulus (GPa) = 35.27270 53.95386 44.61328
# Shear Modulus (GPa) = 24.30627 33.60517 28.95572
#
# Velocity S-wave (km/s) = 3.16679 3.72360 3.45643
# Velocity P-wave (km/s) = 5.28438 6.38341 5.85971
#
# Compressibility (1/GPa) = 0.02835054
#
# Stress axis : x y z
#
# Youngs Moduli (GPa) = 43.17970 67.42399 132.29694
#
# Poissons Ratio (x) = -0.00139 0.78668
# Poissons Ratio (y) = -0.00089 0.35372
# Poissons Ratio (z) = 0.25676 0.18027
#
# Static dielectric constant tensor:
#      x y z
#    x 1.971150 0.000000 -0.003860 
#    y 0.000000 2.028520 0.000000 
#    z -0.003860 0.000000 1.933380 
# 
# From -- ./inp_files/23697.got.cif
#   From: 2010.05.17/outbox.cif.g08.bks.cpg/sg9_12_cif.got.tgz:23697.got - 2010.06.03 20:04:27.
