data_PCOD9138720
_publ_section_title
;
Structure prediction by ZEFSAII (Michael W. Deem and Ramdas Pophale) SiO2 
 PCOD9138720
Probable space group: C C
;
_chemical_formula_sum "Si O2"
_cell_formula_units_Z 32
_cell_length_a 11.593047
_cell_length_b 8.500862
_cell_length_c 12.529311
_cell_angle_alpha 90.000000
_cell_angle_beta 98.864764
_cell_angle_gamma 90.000000
_cell_volume 1220.025181
_symmetry_space_group_name_H-M "C C"
_symmetry_group_IT_number 9
_symmetry_cell_setting 'monoclinic'
loop_
_space_group_symop_operation_xyz
x,y,z
x,-y,1/2+z
1/2+x,1/2+y,z
1/2+x,1/2-y,1/2+z
loop_
_atom_site_type_symbol
_atom_site_label
_atom_site_fract_x
_atom_site_fract_y
_atom_site_fract_z
Si Si1 0.004390 0.615266 0.415390
Si Si2 0.541434 0.246207 0.922894
Si Si3 0.483188 0.400740 0.122782
Si Si4 0.791779 0.298887 0.032925
Si Si5 0.744279 0.991144 0.166175
Si Si6 0.820722 0.513581 0.241781
Si Si7 0.180581 0.753421 0.307189
Si Si8 0.592562 0.715922 0.191732
O O1 0.041835 0.438668 0.449832
O O2 0.111968 0.729314 0.406558
O O3 0.900228 0.686634 0.469527
O O4 0.943340 0.584892 0.291017
O O5 0.668014 0.326772 0.959243
O O6 0.523058 0.263193 0.793285
O O7 0.464567 0.328240 0.003171
O O8 0.364259 0.395362 0.172641
O O9 0.589753 0.317843 0.203032
O O10 0.523868 0.581934 0.119151
O O11 0.817565 0.425695 0.128687
O O12 0.767784 0.130326 0.084698
O O13 0.630398 0.879202 0.142554
O O14 0.728124 0.085257 0.274578
O O15 0.784037 0.379311 0.322755
O O16 0.718025 0.639200 0.232456
#
# Coordination Sequence:
#
# PCOD9138720 Si02
#       8
#     4   4   4   4   4   4   4   4
#     4  12  26  43  77 102 143 195 237 298 366 422
#     4  12  25  45  70 111 141 187 251 290 357 438
#     4  11  26  46  72 105 146 186 238 302 361 427
#     4  11  26  47  69 110 145 181 245 301 348 442
#     4  11  24  45  71 102 138 191 238 289 364 424
#     4  10  23  46  75  97 148 186 230 290 368 416
#     4  10  23  46  69 104 143 182 234 300 349 427
#     4  11  23  46  75  99 150 186 235 300 359 424
#
# _framework density 26.228966
#
# number of rings (size 3 to 8) (size 9 to 14) (size 15 to 20)
#    0.000    1.000    6.250    0.750    7.000    3.000 
#    2.250    0.000    0.000    0.000    0.000    0.000 
#    0.000    0.000    0.000    0.000    0.000    0.000 
#
# Total GULP energy -89619.390348 kJ/mol
# GULP energy per Si atom -5601.211897 kJ/mol
# Density = 2.616927 g / cm^3
# Si number density = 26.228966 Si / 1000 Ang^3
#
#
#
# Elastic Constant Matrix: (Units=GPa)
#
#
# Indices 1 2 3 4 5 6 
#
# 1 85.8074 6.4464 19.8984 0.0000 -29.2025 0.0000
# 2 6.4464 102.3767 54.6764 0.0000 -18.1722 0.0000
# 3 19.8984 54.6764 104.2113 0.0000 -23.3318 0.0000
# 4 0.0000 0.0000 0.0000 36.3213 0.0000 -5.0402
# 5 -29.2025 -18.1722 -23.3318 0.0000 46.9112 0.0000
# 6 0.0000 0.0000 0.0000 -5.0402 0.0000 49.5282
#
#
#
# Elastic Compliance Matrix: (Units=1/GPa)
#
#
# Indices 1 2 3 4 5 6 
#
# 1 0.015028 0.001550 -0.001636 0.000000 0.009142 0.000000
# 2 0.001550 0.013888 -0.006934 0.000000 0.002896 0.000000
# 3 -0.001636 -0.006934 0.014310 0.000000 0.003413 0.000000
# 4 0.000000 0.000000 0.000000 0.027926 0.000000 0.002842
# 5 0.009142 0.002896 0.003413 0.000000 0.029827 0.000000
# 6 0.000000 0.000000 0.000000 0.002842 0.000000 0.020480
#
#
# Mechanical properties :
#
#
# Convention : Reuss Voigt Hill
#
# Bulk Modulus (GPa) = 34.26247 50.49310 42.37779
# Shear Modulus (GPa) = 34.42868 40.64377 37.53623
#
# Velocity S-wave (km/s) = 3.62694 3.94074 3.78709
# Velocity P-wave (km/s) = 5.53451 6.32444 5.94262
#
# Compressibility (1/GPa) = 0.02918646
#
# Stress axis : x y z
#
# Youngs Moduli (GPa) = 66.54168 72.00716 69.87909
#
# Poissons Ratio (x) = -0.11163 0.11433
# Poissons Ratio (y) = -0.10316 0.48454
# Poissons Ratio (z) = 0.10887 0.49929
#
# Static dielectric constant tensor:
#      x y z
#    x 2.056900 0.000000 0.069450 
#    y 0.000000 2.037320 0.000000 
#    z 0.069450 0.000000 2.067590 
# 
# From -- ./inp_files/24199.got.cif
#   From: 2010.05.17/outbox.cif.g08.bks.cpg/sg9_13_cif.got.tgz:24199.got - 2010.06.03 20:04:27.
