data_PCOD9138772
_publ_section_title
;
Structure prediction by ZEFSAII (Michael W. Deem and Ramdas Pophale) SiO2 
 PCOD9138772
Probable space group: C C
;
_chemical_formula_sum "Si O2"
_cell_formula_units_Z 32
_cell_length_a 16.658772
_cell_length_b 10.542234
_cell_length_c 9.590452
_cell_angle_alpha 90.000000
_cell_angle_beta 124.392680
_cell_angle_gamma 90.000000
_cell_volume 1389.845067
_symmetry_space_group_name_H-M "C C"
_symmetry_group_IT_number 9
_symmetry_cell_setting 'monoclinic'
loop_
_space_group_symop_operation_xyz
x,y,z
x,-y,1/2+z
1/2+x,1/2+y,z
1/2+x,1/2-y,1/2+z
loop_
_atom_site_type_symbol
_atom_site_label
_atom_site_fract_x
_atom_site_fract_y
_atom_site_fract_z
Si Si1 0.173990 0.272438 0.918020
Si Si2 0.741176 0.857512 0.509911
Si Si3 0.574218 0.328482 0.891253
Si Si4 0.789813 0.382964 0.741779
Si Si5 0.111522 0.971367 0.186913
Si Si6 0.669233 0.013620 0.198047
Si Si7 0.496786 0.113209 0.409714
Si Si8 0.417889 0.769911 0.084763
O O1 0.151981 0.138857 0.824709
O O2 0.203274 0.368575 0.824898
O O3 0.073616 0.333647 0.876192
O O4 0.249532 0.237323 0.115085
O O5 0.680303 0.736776 0.506179
O O6 0.720619 0.967670 0.600776
O O7 0.854231 0.839700 0.591580
O O8 0.696253 0.893181 0.316850
O O9 0.572031 0.422789 0.755552
O O10 0.501727 0.212387 0.780532
O O11 0.546440 0.401823 0.005245
O O12 0.697994 0.470865 0.677451
O O13 0.888423 0.429523 0.760578
O O14 0.831511 0.359182 0.940085
O O15 0.554910 0.994340 0.052961
O O16 0.474601 0.231036 0.492906
#
# Coordination Sequence:
#
# PCOD9138772 Si02
#       8
#     4   4   4   4   4   4   4   4
#     4  12  24  46  72 112 144 188 244 308 366 434
#     4  12  24  47  71 104 145 192 242 302 364 434
#     4  12  24  47  71 104 145 192 242 302 364 434
#     4  10  23  46  76 102 142 193 238 299 361 429
#     4  12  25  44  75 102 149 188 240 302 368 428
#     4  12  25  44  75 102 149 188 240 302 368 428
#     4  10  23  46  76 102 142 193 238 299 361 429
#     4  10  24  44  76 100 140 200 246 290 366 442
#
# _framework density 23.024149000000001
#
# number of rings (size 3 to 8) (size 9 to 14) (size 15 to 20)
#    0.750    0.000    6.250    1.500    0.000    2.000 
#   11.250    0.000    0.000    0.000    0.000    0.000 
#    0.000    0.000    0.000    0.000    0.000    0.000 
#
# Total GULP energy -89075.866133 kJ/mol
# GULP energy per Si atom -5567.241633 kJ/mol
# Density = 2.297175 g / cm^3
# Si number density = 23.024149 Si / 1000 Ang^3
#
#
#
# Elastic Constant Matrix: (Units=GPa)
#
#
# Indices 1 2 3 4 5 6 
#
# 1 67.0326 -5.7276 26.5411 0.0000 -4.2360 0.0000
# 2 -5.7276 54.6630 23.5350 0.0000 -9.4855 0.0000
# 3 26.5411 23.5350 105.5504 0.0000 -11.1072 0.0000
# 4 0.0000 0.0000 0.0000 48.3996 0.0000 -13.4543
# 5 -4.2360 -9.4855 -11.1072 0.0000 32.0474 0.0000
# 6 0.0000 0.0000 0.0000 -13.4543 0.0000 30.4574
#
#
#
# Elastic Compliance Matrix: (Units=1/GPa)
#
#
# Indices 1 2 3 4 5 6 
#
# 1 0.017454 0.004370 -0.005173 0.000000 0.001807 0.000000
# 2 0.004370 0.022004 -0.005458 0.000000 0.005199 0.000000
# 3 -0.005173 -0.005458 0.012195 0.000000 0.001927 0.000000
# 4 0.000000 0.000000 0.000000 0.023554 0.000000 0.010405
# 5 0.001807 0.005199 0.001927 0.000000 0.033649 0.000000
# 6 0.000000 0.000000 0.000000 0.010405 0.000000 0.037429
#
#
# Mechanical properties :
#
#
# Convention : Reuss Voigt Hill
#
# Bulk Modulus (GPa) = 25.55595 35.10479 30.33037
# Shear Modulus (GPa) = 29.09511 34.37405 31.73458
#
# Velocity S-wave (km/s) = 3.55868 3.86807 3.71660
# Velocity P-wave (km/s) = 5.29239 5.93543 5.62311
#
# Compressibility (1/GPa) = 0.03912982
#
# Stress axis : x y z
#
# Youngs Moduli (GPa) = 57.29376 45.44671 82.00271
#
# Poissons Ratio (x) = -0.19859 0.42420
# Poissons Ratio (y) = -0.25035 0.44757
# Poissons Ratio (z) = 0.29638 0.24805
#
# Static dielectric constant tensor:
#      x y z
#    x 1.879590 0.000000 0.040000 
#    y 0.000000 1.940700 0.000000 
#    z 0.040000 0.000000 1.888070 
# 
# From -- ./inp_files/10745.got.cif
#   From: 2010.05.17/outbox.cif.g08.bks.cpg/sg9_6_cif.got.tgz:10745.got - 2010.06.03 20:04:27.
