data_PCOD9138716
_publ_section_title
;
Structure prediction by ZEFSAII (Michael W. Deem and Ramdas Pophale) SiO2 
 PCOD9138716
Probable space group: C C
;
_chemical_formula_sum "Si O2"
_cell_formula_units_Z 32
_cell_length_a 12.311508
_cell_length_b 9.523130
_cell_length_c 18.131615
_cell_angle_alpha 90.000000
_cell_angle_beta 142.332508
_cell_angle_gamma 90.000000
_cell_volume 1299.044771
_symmetry_space_group_name_H-M "C C"
_symmetry_group_IT_number 9
_symmetry_cell_setting 'monoclinic'
loop_
_space_group_symop_operation_xyz
x,y,z
x,-y,1/2+z
1/2+x,1/2+y,z
1/2+x,1/2-y,1/2+z
loop_
_atom_site_type_symbol
_atom_site_label
_atom_site_fract_x
_atom_site_fract_y
_atom_site_fract_z
Si Si1 0.588450 0.952395 0.695130
Si Si2 0.245465 0.518483 0.550649
Si Si3 0.892167 0.135104 0.261781
Si Si4 0.977680 0.557280 0.789178
Si Si5 0.183014 0.055419 0.951820
Si Si6 0.517918 0.740132 0.991640
Si Si7 0.725846 0.363963 0.738908
Si Si8 0.088263 0.856167 0.242893
O O1 0.755576 0.968168 0.731295
O O2 0.394199 0.946336 0.553086
O O3 0.647186 0.799241 0.756864
O O4 0.543403 0.047083 0.741155
O O5 0.356542 0.410056 0.658821
O O6 0.148391 0.444394 0.432598
O O7 0.104840 0.607859 0.522043
O O8 0.390091 0.631866 0.603571
O O9 0.868158 0.302059 0.248165
O O10 0.088130 0.096439 0.395908
O O11 0.868675 0.418533 0.754656
O O12 0.119191 0.128960 0.992649
O O13 0.094692 0.132127 0.834464
O O14 0.321932 0.761745 0.849955
O O15 0.564971 0.697699 0.101653
O O16 0.683508 0.508169 0.759804
#
# Coordination Sequence:
#
# PCOD9138716 Si02
#       8
#     4   4   4   4   4   4   4   4
#     4  12  25  46  80 105 144 204 251 313 402 458
#     4  10  23  46  68  99 148 191 246 326 376 470
#     4  11  27  47  70 111 155 193 257 325 392 464
#     4  11  24  46  72 110 148 194 256 328 383 473
#     4  11  25  47  72 104 147 192 254 326 382 481
#     4  11  22  46  73 102 151 196 252 320 398 454
#     4  11  23  43  74 111 148 198 261 325 386 480
#     4  11  23  47  71 106 139 198 261 309 391 476
#
# _framework density 24.633483999999999
#
# number of rings (size 3 to 8) (size 9 to 14) (size 15 to 20)
#    0.000    1.000    3.750    3.000    5.250    1.000 
#   13.500    0.000    0.000    0.000    0.000    0.000 
#    0.000    0.000    0.000    0.000    0.000    0.000 
#
# Total GULP energy -89351.240135 kJ/mol
# GULP energy per Si atom -5584.452508 kJ/mol
# Density = 2.457742 g / cm^3
# Si number density = 24.633484 Si / 1000 Ang^3
#
#
#
# Elastic Constant Matrix: (Units=GPa)
#
#
# Indices 1 2 3 4 5 6 
#
# 1 70.0881 8.2121 23.2119 0.0000 7.1846 0.0000
# 2 8.2121 61.4933 27.8915 0.0000 -2.6681 0.0000
# 3 23.2119 27.8915 127.9453 0.0000 -12.8410 0.0000
# 4 0.0000 0.0000 0.0000 23.5648 0.0000 8.2805
# 5 7.1846 -2.6681 -12.8410 0.0000 28.0610 0.0000
# 6 0.0000 0.0000 0.0000 8.2805 0.0000 33.1006
#
#
#
# Elastic Compliance Matrix: (Units=1/GPa)
#
#
# Indices 1 2 3 4 5 6 
#
# 1 0.016046 -0.000899 -0.003287 0.000000 -0.005698 0.000000
# 2 -0.000899 0.018097 -0.003759 0.000000 0.000231 0.000000
# 3 -0.003287 -0.003759 0.009727 0.000000 0.004935 0.000000
# 4 0.000000 0.000000 0.000000 0.046526 0.000000 -0.011639
# 5 -0.005698 0.000231 0.004935 0.000000 0.039376 0.000000
# 6 0.000000 0.000000 0.000000 -0.011639 0.000000 0.033123
#
#
# Mechanical properties :
#
#
# Convention : Reuss Voigt Hill
#
# Bulk Modulus (GPa) = 35.73999 42.01752 38.87875
# Shear Modulus (GPa) = 26.58019 30.29271 28.43645
#
# Velocity S-wave (km/s) = 3.28842 3.51056 3.40131
# Velocity P-wave (km/s) = 5.38131 5.79018 5.58948
#
# Compressibility (1/GPa) = 0.02797986
#
# Stress axis : x y z
#
# Youngs Moduli (GPa) = 62.32181 55.25814 102.80822
#
# Poissons Ratio (x) = 0.04969 0.33792
# Poissons Ratio (y) = 0.05604 0.38643
# Poissons Ratio (z) = 0.20484 0.20770
#
# Static dielectric constant tensor:
#      x y z
#    x 2.049420 0.000000 0.063280 
#    y 0.000000 2.023680 0.000000 
#    z 0.063280 0.000000 1.977840 
# 
# From -- ./inp_files/33733.got.cif
#   From: 2010.05.17/outbox.cif.g08.bks.cpg/sg9_17_cif.got.tgz:33733.got - 2010.06.03 20:04:27.
