data_PCOD9138260
_publ_section_title
;
Structure prediction by ZEFSAII (Michael W. Deem and Ramdas Pophale) SiO2 
 PCOD9138260
Probable space group: C C
;
_chemical_formula_sum "Si O2"
_cell_formula_units_Z 32
_cell_length_a 6.820251
_cell_length_b 28.713268
_cell_length_c 7.758331
_cell_angle_alpha 90.000000
_cell_angle_beta 76.383195
_cell_angle_gamma 90.000000
_cell_volume 1476.621848
_symmetry_space_group_name_H-M "C C"
_symmetry_group_IT_number 9
_symmetry_cell_setting 'monoclinic'
loop_
_space_group_symop_operation_xyz
x,y,z
x,-y,1/2+z
1/2+x,1/2+y,z
1/2+x,1/2-y,1/2+z
loop_
_atom_site_type_symbol
_atom_site_label
_atom_site_fract_x
_atom_site_fract_y
_atom_site_fract_z
Si Si1 0.266430 0.310395 0.234160
Si Si2 0.523724 0.928036 0.739918
Si Si3 0.630983 0.623357 0.691365
Si Si4 0.980071 0.715416 0.114340
Si Si5 0.243340 0.131662 0.055601
Si Si6 0.014229 0.661241 0.451947
Si Si7 0.140760 0.970463 0.987427
Si Si8 0.952054 0.944062 0.690342
O O1 0.410629 0.354099 0.244955
O O2 0.140395 0.294833 0.429330
O O3 0.411846 0.268190 0.147803
O O4 0.121438 0.322509 0.103759
O O5 0.419835 0.898456 0.609659
O O6 0.581343 0.889940 0.874391
O O7 0.735016 0.950690 0.651632
O O8 0.355444 0.962302 0.850521
O O9 0.625544 0.569829 0.633694
O O10 0.774771 0.652477 0.531955
O O11 0.738280 0.627496 0.852846
O O12 0.050917 0.696275 0.285894
O O13 0.785209 0.684055 0.104425
O O14 0.036247 0.108223 0.160748
O O15 0.108458 0.021825 0.062750
O O16 0.967691 0.959280 0.884341
#
# Coordination Sequence:
#
# PCOD9138260 Si02
#       8
#     4   4   4   4   4   4   4   4
#     4  12  26  44  69 100 135 185 232 285 357 413
#     4   9  22  42  66  97 137 181 225 287 348 406
#     4  11  23  45  69  98 140 179 232 291 345 415
#     4  11  26  45  66 102 137 181 234 288 349 417
#     4  10  23  42  66  97 136 174 235 282 340 420
#     4  10  23  45  66  97 137 178 230 285 342 413
#     4  10  23  42  62 101 135 175 238 284 342 424
#     4  11  22  41  66  98 135 185 226 288 353 410
#
# _framework density 21.671088999999998
#
# number of rings (size 3 to 8) (size 9 to 14) (size 15 to 20)
#    0.000    1.500    1.250    3.000    5.250    4.000 
#    2.250    0.000    0.000    0.000    0.000    0.000 
#    0.000    0.000    0.000    0.000    0.000    0.000 
#
# Total GULP energy -89421.564719 kJ/mol
# GULP energy per Si atom -5588.847795 kJ/mol
# Density = 2.162176 g / cm^3
# Si number density = 21.671089 Si / 1000 Ang^3
#
#
#
# Elastic Constant Matrix: (Units=GPa)
#
#
# Indices 1 2 3 4 5 6 
#
# 1 82.3281 14.7789 22.7035 0.0000 -8.1066 0.0000
# 2 14.7789 36.9454 -0.1609 0.0000 -17.3438 0.0000
# 3 22.7035 -0.1609 87.5341 0.0000 10.1274 0.0000
# 4 0.0000 0.0000 0.0000 35.3953 0.0000 -2.0706
# 5 -8.1066 -17.3438 10.1274 0.0000 31.9060 0.0000
# 6 0.0000 0.0000 0.0000 -2.0706 0.0000 15.1061
#
#
#
# Elastic Compliance Matrix: (Units=1/GPa)
#
#
# Indices 1 2 3 4 5 6 
#
# 1 0.014314 -0.004619 -0.003998 0.000000 0.002395 0.000000
# 2 -0.004619 0.038284 -0.001042 0.000000 0.019968 0.000000
# 3 -0.003998 -0.001042 0.013124 0.000000 -0.005748 0.000000
# 4 0.000000 0.000000 0.000000 0.028481 0.000000 0.003904
# 5 0.002395 0.019968 -0.005748 0.000000 0.044629 0.000000
# 6 0.000000 0.000000 0.000000 0.003904 0.000000 0.066733
#
#
# Mechanical properties :
#
#
# Convention : Reuss Voigt Hill
#
# Bulk Modulus (GPa) = 21.54970 31.27227 26.41098
# Shear Modulus (GPa) = 20.80281 27.78057 24.29169
#
# Velocity S-wave (km/s) = 3.10164 3.58427 3.35166
# Velocity P-wave (km/s) = 4.77415 5.62060 5.21457
#
# Compressibility (1/GPa) = 0.04640436
#
# Stress axis : x y z
#
# Youngs Moduli (GPa) = 69.86116 26.12055 76.19500
#
# Poissons Ratio (x) = 0.12065 0.30464
# Poissons Ratio (y) = 0.32269 0.07938
# Poissons Ratio (z) = 0.27932 0.02721
#
# Static dielectric constant tensor:
#      x y z
#    x 1.798640 0.000000 -0.029640 
#    y 0.000000 1.770180 0.000000 
#    z -0.029640 0.000000 1.840630 
# 
# From -- ./inp_files/4476.got.cif
#   From: 2010.05.17/outbox.cif.g08.bks.cpg/sg9_3_cif.got.tgz:4476.got - 2010.06.03 20:04:27.
