data_PCOD9138009
_publ_section_title
;
Structure prediction by ZEFSAII (Michael W. Deem and Ramdas Pophale) SiO2 
 PCOD9138009
Probable space group: C C
;
_chemical_formula_sum "Si O2"
_cell_formula_units_Z 28
_cell_length_a 8.225132
_cell_length_b 12.231053
_cell_length_c 12.605475
_cell_angle_alpha 90.000000
_cell_angle_beta 61.257675
_cell_angle_gamma 90.000000
_cell_volume 1111.890735
_symmetry_space_group_name_H-M "C C"
_symmetry_group_IT_number 9
_symmetry_cell_setting 'monoclinic'
loop_
_space_group_symop_operation_xyz
x,y,z
x,-y,1/2+z
1/2+x,1/2+y,z
1/2+x,1/2-y,1/2+z
loop_
_atom_site_type_symbol
_atom_site_label
_atom_site_fract_x
_atom_site_fract_y
_atom_site_fract_z
Si Si1 0.782100 0.290630 0.901720
Si Si2 0.728862 0.594156 0.610982
Si Si3 0.804146 0.601308 0.943496
Si Si4 0.989743 0.175441 0.342259
Si Si5 0.585561 0.045082 0.275809
Si Si6 0.910478 0.179259 0.114002
Si Si7 0.864505 0.951340 0.360591
O O1 0.702923 0.314404 0.810338
O O2 0.800014 0.165001 0.922460
O O3 0.981825 0.346711 0.850340
O O4 0.651209 0.353483 0.025483
O O5 0.818543 0.481014 0.540149
O O6 0.562383 0.570432 0.741796
O O7 0.858484 0.694353 0.608159
O O8 0.898740 0.718344 0.923167
O O9 0.911307 0.537116 0.814448
O O10 0.588470 0.630159 0.998226
O O11 0.959309 0.175948 0.225140
O O12 0.897003 0.063781 0.412507
O O13 0.736689 0.097434 0.151466
O O14 0.709142 0.981919 0.322364
#
# Coordination Sequence:
#
# PCOD9138009 Si02
#       7
#     4   4   4   4   4   4   4
#     4  11  25  45  74 108 147 193 255 313 377 449
#     4  11  25  45  78 106 152 199 259 310 385 451
#     4  11  24  45  74 110 157 188 264 309 375 464
#     4  11  26  46  73 108 152 199 251 314 379 454
#     4  10  22  46  73 104 152 194 241 324 370 449
#     4  11  25  46  77 111 150 209 250 310 390 451
#     4  11  23  51  71 107 154 190 258 312 374 462
#
# _framework density 25.18233
#
# number of rings (size 3 to 8) (size 9 to 14) (size 15 to 20)
#    0.000    1.143    5.714    0.000    8.000    5.714 
#    0.000    0.000    3.143    0.000    0.000    0.000 
#    0.000    0.000    0.000    0.000    0.000    0.000 
#
# Total GULP energy -78202.149787 kJ/mol
# GULP energy per Si atom -5585.867842 kJ/mol
# Density = 2.512501 g / cm^3
# Si number density = 25.182330 Si / 1000 Ang^3
#
#
#
# Elastic Constant Matrix: (Units=GPa)
#
#
# Indices 1 2 3 4 5 6 
#
# 1 82.3450 45.1207 39.8802 0.0000 -17.2832 0.0000
# 2 45.1207 229.7976 46.0253 0.0000 -15.0160 0.0000
# 3 39.8802 46.0253 63.1140 0.0000 -15.4920 0.0000
# 4 0.0000 0.0000 0.0000 37.9557 0.0000 -4.7393
# 5 -17.2832 -15.0160 -15.4920 0.0000 36.5343 0.0000
# 6 0.0000 0.0000 0.0000 -4.7393 0.0000 54.1696
#
#
#
# Elastic Compliance Matrix: (Units=1/GPa)
#
#
# Indices 1 2 3 4 5 6 
#
# 1 0.018433 -0.001430 -0.009608 0.000000 0.004058 0.000000
# 2 -0.001430 0.005218 -0.002837 0.000000 0.000265 0.000000
# 3 -0.009608 -0.002837 0.025206 0.000000 0.004977 0.000000
# 4 0.000000 0.000000 0.000000 0.026638 0.000000 0.002331
# 5 0.004058 0.000265 0.004977 0.000000 0.031511 0.000000
# 6 0.000000 0.000000 0.000000 0.002331 0.000000 0.018664
#
#
# Mechanical properties :
#
#
# Convention : Reuss Voigt Hill
#
# Bulk Modulus (GPa) = 47.37773 70.81208 59.09490
# Shear Modulus (GPa) = 31.16159 42.01395 36.58777
#
# Velocity S-wave (km/s) = 3.52154 4.08902 3.81585
# Velocity P-wave (km/s) = 5.94893 7.10453 6.55225
#
# Compressibility (1/GPa) = 0.02110696
#
# Stress axis : x y z
#
# Youngs Moduli (GPa) = 54.25188 191.65061 39.67323
#
# Poissons Ratio (x) = 0.27399 0.38120
# Poissons Ratio (y) = 0.07756 0.11254
# Poissons Ratio (z) = 0.52128 0.54363
#
# Static dielectric constant tensor:
#      x y z
#    x 2.039920 0.000000 0.033450 
#    y 0.000000 1.970140 0.000000 
#    z 0.033450 0.000000 2.060440 
# 
# From -- ./inp_files/22667.got.cif
#   From: 2010.05.17/outbox.cif.g08.bks.cpg/sg9_12_cif.got.tgz:22667.got - 2010.06.03 20:04:27.
