data_PCOD9138239
_publ_section_title
;
Structure prediction by ZEFSAII (Michael W. Deem and Ramdas Pophale) SiO2 
 PCOD9138239
Probable space group: C C
;
_chemical_formula_sum "Si O2"
_cell_formula_units_Z 28
_cell_length_a 27.092907
_cell_length_b 6.014644
_cell_length_c 13.576644
_cell_angle_alpha 90.000000
_cell_angle_beta 29.196936
_cell_angle_gamma 90.000000
_cell_volume 1079.223301
_symmetry_space_group_name_H-M "C C"
_symmetry_group_IT_number 9
_symmetry_cell_setting 'monoclinic'
loop_
_space_group_symop_operation_xyz
x,y,z
x,-y,1/2+z
1/2+x,1/2+y,z
1/2+x,1/2-y,1/2+z
loop_
_atom_site_type_symbol
_atom_site_label
_atom_site_fract_x
_atom_site_fract_y
_atom_site_fract_z
Si Si1 0.821090 0.969113 0.740570
Si Si2 0.180313 0.357295 0.315862
Si Si3 0.238632 0.856343 0.532344
Si Si4 0.518884 0.471892 0.631784
Si Si5 0.001410 0.403174 0.018943
Si Si6 0.517893 0.254725 0.833048
Si Si7 0.842468 0.744667 0.390595
O O1 0.737572 0.024477 0.804565
O O2 0.802923 0.118446 0.867420
O O3 0.926945 0.074407 0.517973
O O4 0.800888 0.725311 0.825130
O O5 0.258979 0.297013 0.092052
O O6 0.113535 0.142076 0.464858
O O7 0.104079 0.513967 0.390460
O O8 0.122953 0.831329 0.698889
O O9 0.246997 0.091720 0.575844
O O10 0.496554 0.349973 0.566173
O O11 0.528995 0.283668 0.697051
O O12 0.418477 0.621158 0.826382
O O13 0.916594 0.549169 0.221771
O O14 0.999982 0.506793 0.910240
#
# Coordination Sequence:
#
# PCOD9138239 Si02
#       7
#     4   4   4   4   4   4   4
#     4  11  24  45  69 106 154 194 265 307 395 480
#     4  10  24  43  74 112 144 203 259 313 406 453
#     4  11  24  47  72 108 160 197 253 334 384 479
#     4  11  22  47  75 106 154 194 269 324 384 487
#     4   9  21  44  70 106 148 194 253 320 384 466
#     4  10  24  45  77 112 148 204 261 320 402 464
#     4  10  23  41  69 106 148 196 244 320 389 453
#
# _framework density 25.944586999999999
#
# number of rings (size 3 to 8) (size 9 to 14) (size 15 to 20)
#    0.000    1.714    0.000    3.429    4.000    2.286 
#    5.143   25.714    0.000    0.000    0.000    0.000 
#    0.000    0.000    0.000    0.000    0.000    0.000 
#
# Total GULP energy -78058.435729 kJ/mol
# GULP energy per Si atom -5575.602552 kJ/mol
# Density = 2.588554 g / cm^3
# Si number density = 25.944587 Si / 1000 Ang^3
#
#
#
# Elastic Constant Matrix: (Units=GPa)
#
#
# Indices 1 2 3 4 5 6 
#
# 1 161.2507 63.2263 26.6680 0.0000 8.3518 0.0000
# 2 63.2263 95.5065 40.0636 0.0000 0.1239 0.0000
# 3 26.6680 40.0636 69.7881 0.0000 5.9634 0.0000
# 4 0.0000 0.0000 0.0000 32.9573 0.0000 -4.7904
# 5 8.3518 0.1239 5.9634 0.0000 40.0613 0.0000
# 6 0.0000 0.0000 0.0000 -4.7904 0.0000 50.8297
#
#
#
# Elastic Compliance Matrix: (Units=1/GPa)
#
#
# Indices 1 2 3 4 5 6 
#
# 1 0.008499 -0.005697 0.000175 0.000000 -0.001780 0.000000
# 2 -0.005697 0.017664 -0.008164 0.000000 0.002348 0.000000
# 3 0.000175 -0.008164 0.019194 0.000000 -0.002868 0.000000
# 4 0.000000 0.000000 0.000000 0.030764 0.000000 0.002899
# 5 -0.001780 0.002348 -0.002868 0.000000 0.025753 0.000000
# 6 0.000000 0.000000 0.000000 0.002899 0.000000 0.019947
#
#
# Mechanical properties :
#
#
# Convention : Reuss Voigt Hill
#
# Bulk Modulus (GPa) = 55.60388 65.16235 60.38312
# Shear Modulus (GPa) = 32.21930 37.87549 35.04739
#
# Velocity S-wave (km/s) = 3.52781 3.82496 3.67939
# Velocity P-wave (km/s) = 6.17027 6.68413 6.43233
#
# Compressibility (1/GPa) = 0.01798436
#
# Stress axis : x y z
#
# Youngs Moduli (GPa) = 117.66491 56.61274 52.09981
#
# Poissons Ratio (x) = 0.32255 -0.00913
# Poissons Ratio (y) = 0.67039 0.42534
# Poissons Ratio (z) = -0.02063 0.46218
#
# Static dielectric constant tensor:
#      x y z
#    x 2.049300 0.000000 -0.112110 
#    y 0.000000 2.307360 0.000000 
#    z -0.112110 0.000000 2.278800 
# 
# From -- ./inp_files/28197.got.cif
#   From: 2010.05.17/outbox.cif.g08.bks.cpg/sg9_15_cif.got.tgz:28197.got - 2010.06.03 20:04:27.
