data_PCOD9138461
_publ_section_title
;
Structure prediction by ZEFSAII (Michael W. Deem and Ramdas Pophale) SiO2 
 PCOD9138461
Probable space group: C C
;
_chemical_formula_sum "Si O2"
_cell_formula_units_Z 28
_cell_length_a 11.802266
_cell_length_b 11.067165
_cell_length_c 21.421911
_cell_angle_alpha 90.000000
_cell_angle_beta 155.288141
_cell_angle_gamma 90.000000
_cell_volume 1169.751274
_symmetry_space_group_name_H-M "C C"
_symmetry_group_IT_number 9
_symmetry_cell_setting 'monoclinic'
loop_
_space_group_symop_operation_xyz
x,y,z
x,-y,1/2+z
1/2+x,1/2+y,z
1/2+x,1/2-y,1/2+z
loop_
_atom_site_type_symbol
_atom_site_label
_atom_site_fract_x
_atom_site_fract_y
_atom_site_fract_z
Si Si1 0.743680 0.985983 0.802980
Si Si2 0.938658 0.318224 0.560202
Si Si3 0.040676 0.408020 0.484586
Si Si4 0.304481 0.110990 0.735695
Si Si5 0.109995 0.319919 0.002911
Si Si6 0.537032 0.773203 0.235105
Si Si7 0.754893 0.599042 0.132963
O O1 0.579586 0.111844 0.711053
O O2 0.686549 0.895998 0.716427
O O3 0.560172 0.919323 0.762435
O O4 0.035310 0.027797 0.977163
O O5 0.876315 0.396816 0.467549
O O6 0.050623 0.191916 0.591575
O O7 0.726180 0.267081 0.505249
O O8 0.173928 0.539448 0.538573
O O9 0.273348 0.307146 0.598961
O O10 0.856436 0.375828 0.333901
O O11 0.532749 0.163386 0.802289
O O12 0.243550 0.972622 0.691024
O O13 0.201448 0.240099 0.108028
O O14 0.788439 0.311302 0.846724
#
# Coordination Sequence:
#
# PCOD9138461 Si02
#       7
#     4   4   4   4   4   4   4
#     4   9  19  40  71  97 133 185 239 295 359 441
#     4  10  24  43  69 106 140 188 237 303 370 434
#     4  11  25  46  68 107 146 188 247 302 369 441
#     4  10  23  43  72  99 141 188 234 306 367 435
#     4  10  23  47  68 104 141 192 246 302 365 438
#     4   9  22  46  68 100 136 191 241 297 368 429
#     4   9  20  43  70  97 135 186 244 289 370 432
#
# _framework density 23.936712
#
# number of rings (size 3 to 8) (size 9 to 14) (size 15 to 20)
#    0.000    2.286    0.000    0.000    8.000    4.571 
#   20.571    0.000    0.000    0.000    0.000    0.000 
#    0.000    0.000    0.000    0.000    0.000    0.000 
#
# Total GULP energy -77974.305091 kJ/mol
# GULP energy per Si atom -5569.593221 kJ/mol
# Density = 2.388223 g / cm^3
# Si number density = 23.936712 Si / 1000 Ang^3
#
#
#
# Elastic Constant Matrix: (Units=GPa)
#
#
# Indices 1 2 3 4 5 6 
#
# 1 83.3937 24.0613 31.1872 0.0001 -9.6595 -0.0002
# 2 24.0613 106.5311 21.3158 0.0013 -15.5930 0.0001
# 3 31.1872 21.3158 60.1515 0.0042 -5.5999 0.0009
# 4 0.0001 0.0013 0.0042 32.5311 0.0013 -5.8803
# 5 -9.6595 -15.5930 -5.5999 0.0013 33.1960 0.0003
# 6 -0.0002 0.0001 0.0009 -5.8803 0.0003 31.2898
#
#
#
# Elastic Compliance Matrix: (Units=1/GPa)
#
#
# Indices 1 2 3 4 5 6 
#
# 1 0.015453 -0.001688 -0.007182 0.000001 0.002492 0.000000
# 2 -0.001688 0.010901 -0.002598 0.000000 0.004191 0.000000
# 3 -0.007182 -0.002598 0.021295 -0.000003 0.000282 -0.000001
# 4 0.000001 0.000000 -0.000003 0.031821 -0.000002 0.005980
# 5 0.002492 0.004191 0.000282 -0.000002 0.032866 -0.000001
# 6 0.000000 0.000000 -0.000001 0.005980 -0.000001 0.033083
#
#
# Mechanical properties :
#
#
# Convention : Reuss Voigt Hill
#
# Bulk Modulus (GPa) = 40.46278 44.80054 42.63166
# Shear Modulus (GPa) = 28.31383 30.97084 29.64234
#
# Velocity S-wave (km/s) = 3.44301 3.60093 3.52286
# Velocity P-wave (km/s) = 5.72246 6.00382 5.86483
#
# Compressibility (1/GPa) = 0.02471407
#
# Stress axis : x y z
#
# Youngs Moduli (GPa) = 64.71288 91.73050 46.95946
#
# Poissons Ratio (x) = 0.15489 0.33725
# Poissons Ratio (y) = 0.10927 0.12198
# Poissons Ratio (z) = 0.46474 0.23827
#
# Static dielectric constant tensor:
#      x y z
#    x 2.008200 0.000000 -0.053490 
#    y 0.000000 1.942390 0.000000 
#    z -0.053490 0.000000 1.978060 
# 
# From -- ./inp_files/20278.got.cif
#   From: 2010.05.17/outbox.cif.g08.bks.cpg/sg9_11_cif.got.tgz:20278.got - 2010.06.03 20:04:27.
