data_PCOD9138856
_publ_section_title
;
Structure prediction by ZEFSAII (Michael W. Deem and Ramdas Pophale) SiO2 
 PCOD9138856
Probable space group: C C
;
_chemical_formula_sum "Si O2"
_cell_formula_units_Z 20
_cell_length_a 12.642348
_cell_length_b 7.200436
_cell_length_c 18.365179
_cell_angle_alpha 90.000000
_cell_angle_beta 27.165086
_cell_angle_gamma 90.000000
_cell_volume 763.265488
_symmetry_space_group_name_H-M "C C"
_symmetry_group_IT_number 9
_symmetry_cell_setting 'monoclinic'
loop_
_space_group_symop_operation_xyz
x,y,z
x,-y,1/2+z
1/2+x,1/2+y,z
1/2+x,1/2-y,1/2+z
loop_
_atom_site_type_symbol
_atom_site_label
_atom_site_fract_x
_atom_site_fract_y
_atom_site_fract_z
Si Si1 0.935920 0.560794 0.034640
Si Si2 0.123640 0.152530 0.534814
Si Si3 0.938776 0.848581 0.903633
Si Si4 0.653689 0.691781 0.942397
Si Si5 0.035583 0.417691 0.705587
O O1 0.675313 0.574709 0.225478
O O2 0.967424 0.675263 0.940787
O O3 0.075730 0.679721 0.009258
O O4 0.021176 0.349293 0.980653
O O5 0.399278 0.113319 0.363702
O O6 0.042609 0.221962 0.661174
O O7 0.006666 0.968231 0.573854
O O8 0.791088 0.791238 0.923710
O O9 0.785023 0.992109 0.045035
O O10 0.849676 0.563822 0.782575
#
# Coordination Sequence:
#
# PCOD9138856 Si02
#       5
#     4   4   4   4   4
#     4  12  25  49  79 112 166 204 275 319 401 481
#     4  10  23  49  77 106 156 208 253 322 396 469
#     4  12  25  50  78 123 154 207 271 329 391 493
#     4  10  26  51  79 112 161 210 261 335 397 473
#     4  10  23  49  79 107 161 207 260 329 403 460
#
# _framework density 26.203202000000001
#
# number of rings (size 3 to 8) (size 9 to 14) (size 15 to 20)
#    1.200    0.000    4.000    1.200    0.000    4.800 
#   10.800    0.000    0.000    0.000    0.000    0.000 
#    0.000    0.000    0.000    0.000    0.000    0.000 
#
# Total GULP energy -55937.329021 kJ/mol
# GULP energy per Si atom -5593.732902 kJ/mol
# Density = 2.614356 g / cm^3
# Si number density = 26.203202 Si / 1000 Ang^3
#
#
#
# Elastic Constant Matrix: (Units=GPa)
#
#
# Indices 1 2 3 4 5 6 
#
# 1 72.2562 26.4736 16.2851 -0.0002 1.4530 0.0002
# 2 26.4736 167.6280 60.2920 -0.0008 -12.1817 0.0000
# 3 16.2851 60.2920 160.8442 -0.0051 14.1106 -0.0001
# 4 -0.0002 -0.0008 -0.0051 51.4902 0.0006 8.7620
# 5 1.4530 -12.1817 14.1106 0.0006 7.5010 0.0000
# 6 0.0002 0.0000 -0.0001 8.7620 0.0000 44.7361
#
#
#
# Elastic Compliance Matrix: (Units=1/GPa)
#
#
# Indices 1 2 3 4 5 6 
#
# 1 0.015090 -0.003203 0.000462 0.000000 -0.008993 0.000000
# 2 -0.003203 0.011065 -0.006532 -0.000001 0.030878 0.000000
# 3 0.000462 -0.006532 0.011447 0.000001 -0.032231 0.000000
# 4 0.000000 -0.000001 0.000001 0.020091 -0.000006 -0.003935
# 5 -0.008993 0.030878 -0.032231 -0.000006 0.245835 0.000001
# 6 0.000000 0.000000 0.000000 -0.003935 0.000001 0.023124
#
#
# Mechanical properties :
#
#
# Convention : Reuss Voigt Hill
#
# Bulk Modulus (GPa) = 52.48057 67.42553 59.95305
# Shear Modulus (GPa) = 14.22274 40.59063 27.40669
#
# Velocity S-wave (km/s) = 2.33231 3.94009 3.23759
# Velocity P-wave (km/s) = 5.22730 6.81812 6.07501
#
# Compressibility (1/GPa) = 0.01905467
#
# Stress axis : x y z
#
# Youngs Moduli (GPa) = 66.26970 90.37643 87.36213
#
# Poissons Ratio (x) = 0.28945 -0.04033
# Poissons Ratio (y) = 0.21224 0.57067
# Poissons Ratio (z) = -0.03059 0.59036
#
# Static dielectric constant tensor:
#      x y z
#    x 2.029770 0.000000 -0.036050 
#    y 0.000000 2.088720 0.000000 
#    z -0.036050 0.000000 2.061100 
# 
# From -- ./inp_files/35567.got.cif
#   From: 2010.05.17/outbox.cif.g08.bks.cpg/sg9_18_cif.got.tgz:35567.got - 2010.06.03 20:04:27.
