data_PCOD9138121
_publ_section_title
;
Structure prediction by ZEFSAII (Michael W. Deem and Ramdas Pophale) SiO2 
 PCOD9138121
Probable space group: C C
;
_chemical_formula_sum "Si O2"
_cell_formula_units_Z 20
_cell_length_a 13.878625
_cell_length_b 5.947686
_cell_length_c 22.155438
_cell_angle_alpha 90.000000
_cell_angle_beta 157.427604
_cell_angle_gamma 90.000000
_cell_volume 701.999685
_symmetry_space_group_name_H-M "C C"
_symmetry_group_IT_number 9
_symmetry_cell_setting 'monoclinic'
loop_
_space_group_symop_operation_xyz
x,y,z
x,-y,1/2+z
1/2+x,1/2+y,z
1/2+x,1/2-y,1/2+z
loop_
_atom_site_type_symbol
_atom_site_label
_atom_site_fract_x
_atom_site_fract_y
_atom_site_fract_z
Si Si1 0.781630 0.375418 0.084560
Si Si2 0.871829 0.306141 0.414820
Si Si3 0.131985 0.131240 0.368405
Si Si4 0.504463 0.568307 0.612034
Si Si5 0.487578 0.755036 0.866159
O O1 0.619443 0.603010 0.994732
O O2 0.813179 0.331349 0.031106
O O3 0.003891 0.338861 0.259907
O O4 0.601435 0.175069 0.002619
O O5 0.781213 0.515768 0.400989
O O6 0.642018 0.251915 0.237162
O O7 0.965845 0.139014 0.520634
O O8 0.945897 0.945479 0.291398
O O9 0.736139 0.386222 0.739124
O O10 0.219907 0.602968 0.473155
#
# Coordination Sequence:
#
# PCOD9138121 Si02
#       5
#     4   4   4   4   4
#     4  10  22  52  83 121 176 228 297 367 461 534
#     4  11  25  49  83 124 174 234 299 370 449 543
#     4   9  23  50  81 123 172 229 299 363 454 541
#     4  11  25  55  84 128 180 233 310 370 459 550
#     4   9  25  52  89 128 174 238 299 374 461 542
#
# _framework density 28.490043
#
# number of rings (size 3 to 8) (size 9 to 14) (size 15 to 20)
#    1.200    0.800    0.000    1.200    2.800    3.200 
#   10.800    6.000    4.400    0.000    0.000    0.000 
#    0.000    0.000    0.000    0.000    0.000    0.000 
#
# Total GULP energy -55727.468952 kJ/mol
# GULP energy per Si atom -5572.746895 kJ/mol
# Density = 2.842520 g / cm^3
# Si number density = 28.490043 Si / 1000 Ang^3
#
#
#
# Elastic Constant Matrix: (Units=GPa)
#
#
# Indices 1 2 3 4 5 6 
#
# 1 212.4356 60.2031 95.3231 0.0012 -19.4518 0.0000
# 2 60.2031 133.6524 113.8305 0.0009 -14.6200 0.0045
# 3 95.3231 113.8305 207.4954 0.0217 -27.6841 0.0008
# 4 0.0012 0.0009 0.0217 78.0786 0.0016 -4.1567
# 5 -19.4518 -14.6200 -27.6841 0.0016 50.9552 -0.0016
# 6 0.0000 0.0045 0.0008 -4.1567 -0.0016 38.7750
#
#
#
# Elastic Compliance Matrix: (Units=1/GPa)
#
#
# Indices 1 2 3 4 5 6 
#
# 1 0.005996 -0.000673 -0.002270 0.000001 0.000862 0.000000
# 2 -0.000673 0.014121 -0.007473 0.000002 -0.000265 -0.000001
# 3 -0.002270 -0.007473 0.010307 -0.000003 0.002589 0.000000
# 4 0.000001 0.000002 -0.000003 0.012881 -0.000001 0.001381
# 5 0.000862 -0.000265 0.002589 -0.000001 0.021285 0.000001
# 6 0.000000 -0.000001 0.000000 0.001381 0.000001 0.025938
#
#
# Mechanical properties :
#
#
# Convention : Reuss Voigt Hill
#
# Bulk Modulus (GPa) = 104.25496 121.36631 112.81063
# Shear Modulus (GPa) = 43.64660 52.51020 48.07840
#
# Velocity S-wave (km/s) = 3.91832 4.29780 4.11244
# Velocity P-wave (km/s) = 7.55936 8.20489 7.88873
#
# Compressibility (1/GPa) = 0.00959187
#
# Stress axis : x y z
#
# Youngs Moduli (GPa) = 166.78816 70.81823 97.01863
#
# Poissons Ratio (x) = 0.04765 0.22025
# Poissons Ratio (y) = 0.11223 0.72500
# Poissons Ratio (z) = 0.37864 0.52921
#
# Static dielectric constant tensor:
#      x y z
#    x 2.152840 0.000000 0.019320 
#    y 0.000000 2.660030 0.000000 
#    z 0.019320 0.000000 2.278910 
# 
# From -- ./inp_files/18983.got.cif
#   From: 2010.05.17/outbox.cif.g08.bks.cpg/sg9_10_cif.got.tgz:18983.got - 2010.06.03 20:04:27.
