data_PCOD9138165
_publ_section_title
;
Structure prediction by ZEFSAII (Michael W. Deem and Ramdas Pophale) SiO2 
 PCOD9138165
Probable space group: C C
;
_chemical_formula_sum "Si O2"
_cell_formula_units_Z 28
_cell_length_a 9.955193
_cell_length_b 21.558273
_cell_length_c 8.791719
_cell_angle_alpha 90.000000
_cell_angle_beta 136.643899
_cell_angle_gamma 90.000000
_cell_volume 1295.380522
_symmetry_space_group_name_H-M "C C"
_symmetry_group_IT_number 9
_symmetry_cell_setting 'monoclinic'
loop_
_space_group_symop_operation_xyz
x,y,z
x,-y,1/2+z
1/2+x,1/2+y,z
1/2+x,1/2-y,1/2+z
loop_
_atom_site_type_symbol
_atom_site_label
_atom_site_fract_x
_atom_site_fract_y
_atom_site_fract_z
Si Si1 0.938660 0.610253 0.952720
Si Si2 0.937554 0.309946 0.144840
Si Si3 0.859119 0.818429 0.443916
Si Si4 0.083896 0.106566 0.329520
Si Si5 0.173219 0.011309 0.186230
Si Si6 0.611903 0.625850 0.916301
Si Si7 0.865099 0.914777 0.936448
O O1 0.966650 0.657116 0.833216
O O2 0.830286 0.545260 0.812409
O O3 0.789996 0.641056 0.950966
O O4 0.143631 0.594480 0.203283
O O5 0.135076 0.318651 0.212240
O O6 0.887743 0.237590 0.086950
O O7 0.752550 0.345609 0.926361
O O8 0.901696 0.881518 0.569888
O O9 0.017392 0.820082 0.440160
O O10 0.170239 0.040089 0.354939
O O11 0.004266 0.121145 0.430362
O O12 0.191107 0.069683 0.088341
O O13 0.956390 0.982807 0.984898
O O14 0.432972 0.603153 0.660824
#
# Coordination Sequence:
#
# PCOD9138165 Si02
#       7
#     4   4   4   4   4   4   4
#     4  11  24  40  72 102 137 181 234 279 348 410
#     4  12  23  44  73  97 126 184 236 275 340 414
#     4  11  25  44  71  96 129 180 233 289 339 407
#     4  11  22  42  68  99 136 178 232 273 340 411
#     4  10  23  40  66 102 148 181 219 287 337 419
#     4  10  24  44  62 102 145 171 227 290 342 398
#     4  11  21  40  68 102 139 177 221 283 348 403
#
# _framework density 21.615269000000001
#
# number of rings (size 3 to 8) (size 9 to 14) (size 15 to 20)
#    0.000    1.143    5.714    1.714    0.000    6.857 
#    0.000    2.857    0.000    0.000    0.000    0.000 
#    0.000    0.000    0.000    0.000    0.000    0.000 
#
# Total GULP energy -77979.525412 kJ/mol
# GULP energy per Si atom -5569.966101 kJ/mol
# Density = 2.156607 g / cm^3
# Si number density = 21.615269 Si / 1000 Ang^3
#
#
#
# Elastic Constant Matrix: (Units=GPa)
#
#
# Indices 1 2 3 4 5 6 
#
# 1 118.9820 43.4539 41.7533 0.0000 10.0704 0.0000
# 2 43.4539 85.1973 19.7384 0.0000 4.3820 0.0000
# 3 41.7533 19.7384 110.9132 0.0000 15.1217 0.0000
# 4 0.0000 0.0000 0.0000 26.1537 0.0000 3.3313
# 5 10.0704 4.3820 15.1217 0.0000 40.5998 0.0000
# 6 0.0000 0.0000 0.0000 3.3313 0.0000 26.5588
#
#
#
# Elastic Compliance Matrix: (Units=1/GPa)
#
#
# Indices 1 2 3 4 5 6 
#
# 1 0.011490 -0.005045 -0.003280 0.000000 -0.001084 0.000000
# 2 -0.005045 0.014468 -0.000667 0.000000 -0.000062 0.000000
# 3 -0.003280 -0.000667 0.010797 0.000000 -0.003136 0.000000
# 4 0.000000 0.000000 0.000000 0.038856 0.000000 -0.004874
# 5 -0.001084 -0.000062 -0.003136 0.000000 0.026074 0.000000
# 6 0.000000 0.000000 0.000000 -0.004874 0.000000 0.038264
#
#
# Mechanical properties :
#
#
# Convention : Reuss Voigt Hill
#
# Bulk Modulus (GPa) = 53.27224 58.33152 55.80188
# Shear Modulus (GPa) = 30.45263 32.67225 31.56244
#
# Velocity S-wave (km/s) = 3.75753 3.89207 3.82539
# Velocity P-wave (km/s) = 6.59732 6.87331 6.73673
#
# Compressibility (1/GPa) = 0.01877150
#
# Stress axis : x y z
#
# Youngs Moduli (GPa) = 87.03476 69.11722 92.61800
#
# Poissons Ratio (x) = 0.34867 0.30377
# Poissons Ratio (y) = 0.43905 0.06181
# Poissons Ratio (z) = 0.28545 0.04612
#
# Static dielectric constant tensor:
#      x y z
#    x 1.834660 0.000000 -0.061180 
#    y 0.000000 1.843690 0.000000 
#    z -0.061180 0.000000 1.821590 
# 
# From -- ./inp_files/5886.got.cif
#   From: 2010.05.17/outbox.cif.g08.bks.cpg/sg9_3_cif.got.tgz:5886.got - 2010.06.03 20:04:27.
