data_PCOD9138341
_publ_section_title
;
Structure prediction by ZEFSAII (Michael W. Deem and Ramdas Pophale) SiO2 
 PCOD9138341
Probable space group: C C
;
_chemical_formula_sum "Si O2"
_cell_formula_units_Z 32
_cell_length_a 13.542635
_cell_length_b 18.076809
_cell_length_c 8.887562
_cell_angle_alpha 90.000000
_cell_angle_beta 139.045392
_cell_angle_gamma 90.000000
_cell_volume 1426.114463
_symmetry_space_group_name_H-M "C C"
_symmetry_group_IT_number 9
_symmetry_cell_setting 'monoclinic'
loop_
_space_group_symop_operation_xyz
x,y,z
x,-y,1/2+z
1/2+x,1/2+y,z
1/2+x,1/2-y,1/2+z
loop_
_atom_site_type_symbol
_atom_site_label
_atom_site_fract_x
_atom_site_fract_y
_atom_site_fract_z
Si Si1 0.176380 0.974541 0.971910
Si Si2 0.816806 0.400115 0.430502
Si Si3 0.187704 0.587426 0.926467
Si Si4 0.970453 0.864096 0.604177
Si Si5 0.522108 0.795883 0.032084
Si Si6 0.652204 0.074166 0.239567
Si Si7 0.430759 0.593465 0.745908
Si Si8 0.201044 0.792993 0.514116
O O1 0.124929 0.909335 0.801516
O O2 0.280469 0.037159 0.015799
O O3 0.245369 0.936296 0.198210
O O4 0.018664 0.017095 0.821905
O O5 0.744736 0.320817 0.395515
O O6 0.994700 0.393346 0.615004
O O7 0.171016 0.508042 0.828336
O O8 0.079249 0.641674 0.709444
O O9 0.354230 0.623754 0.105361
O O10 0.150572 0.577018 0.058325
O O11 0.007065 0.779823 0.610407
O O12 0.882017 0.901333 0.362103
O O13 0.356479 0.811269 0.777467
O O14 0.637303 0.780430 0.024514
O O15 0.800887 0.111775 0.479531
O O16 0.560336 0.654153 0.883454
#
# Coordination Sequence:
#
# PCOD9138341 Si02
#       8
#     4   4   4   4   4   4   4   4
#     4  11  22  43  71 108 141 188 241 300 363 411
#     4  11  26  44  71 112 149 185 241 308 359 429
#     4  12  27  44  75 107 147 189 246 299 363 432
#     4  11  23  44  76 101 145 195 244 291 354 444
#     4  11  25  50  73 104 143 202 238 288 363 448
#     4  12  27  43  75 112 146 184 240 317 364 415
#     4  10  23  42  71 108 142 184 238 301 361 422
#     4  10  25  44  76 102 141 193 244 286 355 439
#
# _framework density 22.438592
#
# number of rings (size 3 to 8) (size 9 to 14) (size 15 to 20)
#    0.000    1.000    3.750    1.500   10.500    2.000 
#    0.000    3.750    0.000    0.000    0.000    0.000 
#    0.000    0.000    0.000    0.000    0.000    0.000 
#
# Total GULP energy -89355.033737 kJ/mol
# GULP energy per Si atom -5584.689609 kJ/mol
# Density = 2.238752 g / cm^3
# Si number density = 22.438592 Si / 1000 Ang^3
#
#
#
# Elastic Constant Matrix: (Units=GPa)
#
#
# Indices 1 2 3 4 5 6 
#
# 1 128.0204 26.4102 52.7592 0.0000 -1.5660 0.0000
# 2 26.4102 47.2781 27.5423 0.0000 -8.1901 0.0000
# 3 52.7592 27.5423 136.0940 0.0000 1.2107 0.0000
# 4 0.0000 0.0000 0.0000 41.3799 0.0000 -1.4542
# 5 -1.5660 -8.1901 1.2107 0.0000 39.7157 0.0000
# 6 0.0000 0.0000 0.0000 -1.4542 0.0000 22.8336
#
#
#
# Elastic Compliance Matrix: (Units=1/GPa)
#
#
# Indices 1 2 3 4 5 6 
#
# 1 0.009843 -0.003773 -0.003049 0.000000 -0.000297 0.000000
# 2 -0.003773 0.026502 -0.003949 0.000000 0.005437 0.000000
# 3 -0.003049 -0.003949 0.009340 0.000000 -0.001219 0.000000
# 4 0.000000 0.000000 0.000000 0.024221 0.000000 0.001542
# 5 -0.000297 0.005437 -0.001219 0.000000 0.026326 0.000000
# 6 0.000000 0.000000 0.000000 0.001542 0.000000 0.043893
#
#
# Mechanical properties :
#
#
# Convention : Reuss Voigt Hill
#
# Bulk Modulus (GPa) = 41.42314 58.31287 49.86800
# Shear Modulus (GPa) = 29.46133 34.43123 31.94628
#
# Velocity S-wave (km/s) = 3.62743 3.92147 3.77732
# Velocity P-wave (km/s) = 6.00376 6.82262 6.42624
#
# Compressibility (1/GPa) = 0.02414110
#
# Stress axis : x y z
#
# Youngs Moduli (GPa) = 101.59752 37.73368 107.06590
#
# Poissons Ratio (x) = 0.14238 0.32649
# Poissons Ratio (y) = 0.38336 0.42279
# Poissons Ratio (z) = 0.30982 0.14901
#
# Static dielectric constant tensor:
#      x y z
#    x 1.882770 0.000000 -0.018580 
#    y 0.000000 1.885880 0.000000 
#    z -0.018580 0.000000 1.824580 
# 
# From -- ./inp_files/9963.got.cif
#   From: 2010.05.17/outbox.cif.g08.bks.cpg/sg9_5_cif.got.tgz:9963.got - 2010.06.03 20:04:27.
