data_PCOD9138275
_publ_section_title
;
Structure prediction by ZEFSAII (Michael W. Deem and Ramdas Pophale) SiO2 
 PCOD9138275
Probable space group: C C
;
_chemical_formula_sum "Si O2"
_cell_formula_units_Z 28
_cell_length_a 22.376424
_cell_length_b 11.228703
_cell_length_c 10.225606
_cell_angle_alpha 90.000000
_cell_angle_beta 155.335765
_cell_angle_gamma 90.000000
_cell_volume 1072.155058
_symmetry_space_group_name_H-M "C C"
_symmetry_group_IT_number 9
_symmetry_cell_setting 'monoclinic'
loop_
_space_group_symop_operation_xyz
x,y,z
x,-y,1/2+z
1/2+x,1/2+y,z
1/2+x,1/2-y,1/2+z
loop_
_atom_site_type_symbol
_atom_site_label
_atom_site_fract_x
_atom_site_fract_y
_atom_site_fract_z
Si Si1 0.476130 0.323996 0.266390
Si Si2 0.518978 0.185788 0.939985
Si Si3 0.073460 0.576337 0.546845
Si Si4 0.081210 0.060560 0.219216
Si Si5 0.209066 0.696543 0.057983
Si Si6 0.701394 0.315470 0.509633
Si Si7 0.356613 0.638804 0.966968
O O1 0.472645 0.188631 0.314432
O O2 0.475757 0.415140 0.386454
O O3 0.632434 0.334939 0.514741
O O4 0.364869 0.327524 0.926571
O O5 0.402877 0.288842 0.688110
O O6 0.617554 0.200326 0.008648
O O7 0.611231 0.220238 0.248557
O O8 0.486567 0.046237 0.876840
O O9 0.147688 0.601032 0.834073
O O10 0.206095 0.423341 0.205366
O O11 0.184585 0.174273 0.443127
O O12 0.176621 0.942434 0.393774
O O13 0.979572 0.058547 0.146315
O O14 0.842608 0.244789 0.829963
#
# Coordination Sequence:
#
# PCOD9138275 Si02
#       7
#     4   4   4   4   4   4   4
#     4  10  23  42  65  97 132 174 219 278 335 387
#     4  11  25  42  68  99 131 176 224 270 335 399
#     4  10  24  44  66 101 135 170 226 275 328 403
#     4  10  24  44  66 101 135 170 226 275 328 403
#     4  10  23  42  65  97 132 174 219 278 335 387
#     4  11  25  42  68  99 131 176 224 270 335 399
#     4  10  24  46  68 104 134 178 220 272 344 390
#
# _framework density 26.115625999999999
#
# number of rings (size 3 to 8) (size 9 to 14) (size 15 to 20)
#    0.000    1.714    0.000    1.714   12.000    2.286 
#    0.000    5.714    0.000    0.000    0.000    0.000 
#    0.000    0.000    0.000    0.000    0.000    0.000 
#
# Total GULP energy -78338.545007 kJ/mol
# GULP energy per Si atom -5595.610358 kJ/mol
# Density = 2.605619 g / cm^3
# Si number density = 26.115626 Si / 1000 Ang^3
#
#
#
# Elastic Constant Matrix: (Units=GPa)
#
#
# Indices 1 2 3 4 5 6 
#
# 1 96.2635 -2.8793 -3.1791 0.0000 -6.0237 0.0000
# 2 -2.8793 149.3326 20.9602 0.0000 -6.6909 0.0000
# 3 -3.1791 20.9602 87.1869 0.0000 -24.4814 0.0000
# 4 0.0000 0.0000 0.0000 39.0477 0.0000 -4.3613
# 5 -6.0237 -6.6909 -24.4814 0.0000 47.1289 0.0000
# 6 0.0000 0.0000 0.0000 -4.3613 0.0000 32.1168
#
#
#
# Elastic Compliance Matrix: (Units=1/GPa)
#
#
# Indices 1 2 3 4 5 6 
#
# 1 0.010535 0.000165 0.000854 0.000000 0.001813 0.000000
# 2 0.000165 0.006934 -0.001614 0.000000 0.000167 0.000000
# 3 0.000854 -0.001614 0.013880 0.000000 0.007090 0.000000
# 4 0.000000 0.000000 0.000000 0.026004 0.000000 0.003531
# 5 0.001813 0.000167 0.007090 0.000000 0.025157 0.000000
# 6 0.000000 0.000000 0.000000 0.003531 0.000000 0.031616
#
#
# Mechanical properties :
#
#
# Convention : Reuss Voigt Hill
#
# Bulk Modulus (GPa) = 33.16040 40.28742 36.72391
# Shear Modulus (GPa) = 39.88252 44.85076 42.36664
#
# Velocity S-wave (km/s) = 3.91212 4.14864 4.03211
# Velocity P-wave (km/s) = 5.75598 6.19744 5.98079
#
# Compressibility (1/GPa) = 0.03015645
#
# Stress axis : x y z
#
# Youngs Moduli (GPa) = 94.92408 144.22407 72.04859
#
# Poissons Ratio (x) = -0.02373 -0.06151
# Poissons Ratio (y) = -0.01562 0.11629
# Poissons Ratio (z) = -0.08104 0.23278
#
# Static dielectric constant tensor:
#      x y z
#    x 1.995110 0.000000 0.041480 
#    y 0.000000 2.111570 0.000000 
#    z 0.041480 0.000000 2.069670 
# 
# From -- ./inp_files/21288.got.cif
#   From: 2010.05.17/outbox.cif.g08.bks.cpg/sg9_11_cif.got.tgz:21288.got - 2010.06.03 20:04:27.
