data_PCOD9138365
_publ_section_title
;
Structure prediction by ZEFSAII (Michael W. Deem and Ramdas Pophale) SiO2 
 PCOD9138365
Probable space group: C C
;
_chemical_formula_sum "Si O2"
_cell_formula_units_Z 20
_cell_length_a 18.190993
_cell_length_b 7.975628
_cell_length_c 19.374916
_cell_angle_alpha 90.000000
_cell_angle_beta 16.410200
_cell_angle_gamma 90.000000
_cell_volume 794.142396
_symmetry_space_group_name_H-M "C C"
_symmetry_group_IT_number 9
_symmetry_cell_setting 'monoclinic'
loop_
_space_group_symop_operation_xyz
x,y,z
x,-y,1/2+z
1/2+x,1/2+y,z
1/2+x,1/2-y,1/2+z
loop_
_atom_site_type_symbol
_atom_site_label
_atom_site_fract_x
_atom_site_fract_y
_atom_site_fract_z
Si Si1 0.083480 0.163452 0.273480
Si Si2 0.583201 0.474894 0.627714
Si Si3 0.999373 0.708310 0.279952
Si Si4 0.386899 0.049293 0.601009
Si Si5 0.957763 0.928102 0.586943
O O1 0.005446 0.128923 0.264617
O O2 0.826900 0.208240 0.547626
O O3 0.227894 0.005378 0.177469
O O4 0.887631 0.526933 0.361951
O O5 0.458112 0.659698 0.753899
O O6 0.514501 0.401064 0.616600
O O7 0.806465 0.779371 0.512224
O O8 0.680388 0.980440 0.332082
O O9 0.424940 0.247831 0.579395
O O10 0.207064 0.988227 0.826590
#
# Coordination Sequence:
#
# PCOD9138365 Si02
#       5
#     4   4   4   4   4
#     4  12  29  45  70 102 150 192 236 302 349 425
#     4  10  24  42  73 109 139 180 245 289 359 404
#     4   8  20  38  60 102 136 168 208 292 342 408
#     4  10  24  47  62 105 132 191 228 287 364 416
#     4  10  23  42  79  94 137 183 243 292 340 447
#
# _framework density 25.1844
#
# number of rings (size 3 to 8) (size 9 to 14) (size 15 to 20)
#    1.200    0.800    0.000    1.200   11.200    3.200 
#   10.800    0.000    0.000    0.000    0.000    0.000 
#    0.000    0.000    0.000    0.000    0.000    0.000 
#
# Total GULP energy -55790.507784 kJ/mol
# GULP energy per Si atom -5579.050778 kJ/mol
# Density = 2.512708 g / cm^3
# Si number density = 25.184400 Si / 1000 Ang^3
#
#
#
# Elastic Constant Matrix: (Units=GPa)
#
#
# Indices 1 2 3 4 5 6 
#
# 1 94.0201 22.1632 23.7647 -0.0082 12.6964 -0.0052
# 2 22.1632 58.7513 5.3081 -0.0386 -0.6919 -0.0086
# 3 23.7647 5.3081 200.6493 -0.0618 -11.8481 -0.0139
# 4 -0.0082 -0.0386 -0.0618 26.1615 0.0248 7.6999
# 5 12.6964 -0.6919 -11.8481 0.0248 32.3139 0.0147
# 6 -0.0052 -0.0086 -0.0139 7.6999 0.0147 -59.3790
#
#
#
# Elastic Compliance Matrix: (Units=1/GPa)
#
#
# Indices 1 2 3 4 5 6 
#
# 1 0.013007 -0.004817 -0.001759 -0.000001 -0.005859 -0.000002
# 2 -0.004817 0.018847 0.000212 0.000024 0.002374 0.000001
# 3 -0.001759 0.000212 0.005343 0.000010 0.002655 0.000001
# 4 -0.000001 0.000024 0.000010 0.036819 -0.000026 0.004774
# 5 -0.005859 0.002374 0.002655 -0.000026 0.034273 0.000005
# 6 -0.000002 0.000001 0.000001 0.004774 0.000005 -0.016222
#
#
# Mechanical properties :
#
#
# Convention : Reuss Voigt Hill
#
# Bulk Modulus (GPa) = 40.86693 50.65473 45.76083
# Shear Modulus (GPa) = 44.26675 19.96494 32.11584
#
# Velocity S-wave (km/s) = 4.19705 2.81864 3.57491
# Velocity P-wave (km/s) = 6.30470 5.54528 5.93715
#
# Compressibility (1/GPa) = 0.02446966
#
# Stress axis : x y z
#
# Youngs Moduli (GPa) = 76.87990 53.05934 187.14940
#
# Poissons Ratio (x) = 0.25558 0.32921
# Poissons Ratio (y) = 0.37032 -0.03969
# Poissons Ratio (z) = 0.13524 -0.01125
#
# Static dielectric constant tensor:
#      x y z
#    x 1.907880 -0.000010 -0.014230 
#    y -0.000010 2.054220 0.000030 
#    z -0.014230 0.000030 2.101390 
# 
# From -- ./inp_files/3115.got.cif
#   From: 2010.05.17/outbox.cif.g08.bks.cpg/sg9_2_cif.got.tgz:3115.got - 2010.06.03 20:04:27.
