data_PCOD9138486
_publ_section_title
;
Structure prediction by ZEFSAII (Michael W. Deem and Ramdas Pophale) SiO2 
 PCOD9138486
Probable space group: C C
;
_chemical_formula_sum "Si O2"
_cell_formula_units_Z 28
_cell_length_a 11.571110
_cell_length_b 8.192471
_cell_length_c 20.692089
_cell_angle_alpha 90.000000
_cell_angle_beta 41.984386
_cell_angle_gamma 90.000000
_cell_volume 1312.120402
_symmetry_space_group_name_H-M "C C"
_symmetry_group_IT_number 9
_symmetry_cell_setting 'monoclinic'
loop_
_space_group_symop_operation_xyz
x,y,z
x,-y,1/2+z
1/2+x,1/2+y,z
1/2+x,1/2-y,1/2+z
loop_
_atom_site_type_symbol
_atom_site_label
_atom_site_fract_x
_atom_site_fract_y
_atom_site_fract_z
Si Si1 0.441130 0.851901 0.072800
Si Si2 0.209456 0.318797 0.755795
Si Si3 0.130011 0.319546 0.484281
Si Si4 0.749094 0.615031 0.314445
Si Si5 0.012054 0.325971 0.184218
Si Si6 0.945230 0.151027 0.942441
Si Si7 0.796776 0.169492 0.668043
O O1 0.255621 0.827968 0.186060
O O2 0.555382 0.818535 0.089699
O O3 0.505994 0.025556 0.020210
O O4 0.442140 0.720568 0.015888
O O5 0.351787 0.299852 0.753819
O O6 0.243462 0.487478 0.708130
O O7 0.027633 0.291954 0.863238
O O8 0.227921 0.240728 0.382631
O O9 0.260744 0.375656 0.486350
O O10 0.996885 0.185324 0.566776
O O11 0.918530 0.496614 0.243667
O O12 0.578978 0.499320 0.384549
O O13 0.760535 0.715592 0.243793
O O14 0.174252 0.284318 0.159462
#
# Coordination Sequence:
#
# PCOD9138486 Si02
#       7
#     4   4   4   4   4   4   4
#     4  10  23  44  64  97 131 175 216 266 334 382
#     4   9  22  42  68  93 129 177 213 266 335 380
#     4  12  26  39  69 102 128 174 222 272 326 393
#     4  11  25  43  65 100 129 176 224 269 327 385
#     4   9  23  45  63  94 136 172 217 269 324 391
#     4  11  24  45  66  95 136 171 218 278 323 393
#     4  12  23  44  69  97 131 173 218 274 329 388
#
# _framework density 21.339504999999999
#
# number of rings (size 3 to 8) (size 9 to 14) (size 15 to 20)
#    0.857    0.571    1.429    2.571    4.000    5.714 
#    0.000    1.429    0.000    0.000    0.000    0.000 
#    0.000    0.000    0.000    0.000    0.000    0.000 
#
# Total GULP energy -78054.571559 kJ/mol
# GULP energy per Si atom -5575.326540 kJ/mol
# Density = 2.129094 g / cm^3
# Si number density = 21.339505 Si / 1000 Ang^3
#
#
#
# Elastic Constant Matrix: (Units=GPa)
#
#
# Indices 1 2 3 4 5 6 
#
# 1 110.6114 24.0117 45.4920 0.0000 7.8406 0.0000
# 2 24.0117 43.6858 12.3473 0.0000 7.5814 0.0000
# 3 45.4920 12.3473 92.1540 0.0000 23.0855 0.0000
# 4 0.0000 0.0000 0.0000 37.8492 0.0000 9.6224
# 5 7.8406 7.5814 23.0855 0.0000 36.5453 0.0000
# 6 0.0000 0.0000 0.0000 9.6224 0.0000 12.9527
#
#
#
# Elastic Compliance Matrix: (Units=1/GPa)
#
#
# Indices 1 2 3 4 5 6 
#
# 1 0.012574 -0.005602 -0.006025 0.000000 0.002271 0.000000
# 2 -0.005602 0.026664 0.000330 0.000000 -0.004538 0.000000
# 3 -0.006025 0.000330 0.016008 0.000000 -0.008888 0.000000
# 4 0.000000 0.000000 0.000000 0.032572 0.000000 -0.024198
# 5 0.002271 -0.004538 -0.008888 0.000000 0.033432 0.000000
# 6 0.000000 0.000000 0.000000 -0.024198 0.000000 0.095180
#
#
# Mechanical properties :
#
#
# Convention : Reuss Voigt Hill
#
# Bulk Modulus (GPa) = 30.62723 45.57256 38.09990
# Shear Modulus (GPa) = 20.00718 28.44279 24.22498
#
# Velocity S-wave (km/s) = 3.06529 3.65481 3.37295
# Velocity P-wave (km/s) = 5.18763 6.26199 5.74996
#
# Compressibility (1/GPa) = 0.03265068
#
# Stress axis : x y z
#
# Youngs Moduli (GPa) = 79.52948 37.50326 62.46805
#
# Poissons Ratio (x) = 0.21010 0.37639
# Poissons Ratio (y) = 0.44555 -0.02060
# Poissons Ratio (z) = 0.47919 -0.01237
#
# Static dielectric constant tensor:
#      x y z
#    x 1.807660 0.000000 0.005910 
#    y 0.000000 1.803260 0.000000 
#    z 0.005910 0.000000 1.792300 
# 
# From -- ./inp_files/33199.got.cif
#   From: 2010.05.17/outbox.cif.g08.bks.cpg/sg9_17_cif.got.tgz:33199.got - 2010.06.03 20:04:27.
