data_PCOD9138659
_publ_section_title
;
Structure prediction by ZEFSAII (Michael W. Deem and Ramdas Pophale) SiO2 
 PCOD9138659
Probable space group: C C
;
_chemical_formula_sum "Si O2"
_cell_formula_units_Z 24
_cell_length_a 5.313861
_cell_length_b 17.390503
_cell_length_c 11.580080
_cell_angle_alpha 90.000000
_cell_angle_beta 122.599657
_cell_angle_gamma 90.000000
_cell_volume 901.531543
_symmetry_space_group_name_H-M "C C"
_symmetry_group_IT_number 9
_symmetry_cell_setting 'monoclinic'
loop_
_space_group_symop_operation_xyz
x,y,z
x,-y,1/2+z
1/2+x,1/2+y,z
1/2+x,1/2-y,1/2+z
loop_
_atom_site_type_symbol
_atom_site_label
_atom_site_fract_x
_atom_site_fract_y
_atom_site_fract_z
Si Si1 0.866460 0.013549 0.128370
Si Si2 0.380867 0.743094 0.998134
Si Si3 0.491570 0.723162 0.773765
Si Si4 0.788220 0.482570 0.067199
Si Si5 0.944732 0.615472 0.932996
Si Si6 0.411171 0.633025 0.346014
O O1 0.622012 0.953435 0.117349
O O2 0.280961 0.059194 0.985073
O O3 0.209358 0.001144 0.179747
O O4 0.858939 0.077145 0.226909
O O5 0.145609 0.692030 0.013149
O O6 0.669274 0.769076 0.138625
O O7 0.478042 0.700967 0.905314
O O8 0.197862 0.813605 0.900596
O O9 0.646821 0.806871 0.801483
O O10 0.716686 0.655468 0.786378
O O11 0.214569 0.554874 0.978951
O O12 0.525925 0.422243 0.975800
#
# Coordination Sequence:
#
# PCOD9138659 Si02
#       6
#     4   4   4   4   4   4
#     4  10  23  45  73 100 152 197 250 315 389 438
#     4  11  24  43  74 109 151 202 251 318 386 454
#     4  11  24  44  75 107 157 192 261 313 386 452
#     4  10  25  44  72 104 148 201 253 307 389 450
#     4   9  22  43  67 105 141 199 243 311 374 451
#     4  11  26  43  71 113 145 205 256 316 382 469
#
# _framework density 26.621365999999998
#
# number of rings (size 3 to 8) (size 9 to 14) (size 15 to 20)
#    1.000    0.667    0.000    3.000    7.000    5.333 
#    3.000    0.000    0.000    0.000    0.000    0.000 
#    0.000    0.000    0.000    0.000    0.000    0.000 
#
# Total GULP energy -66855.137730 kJ/mol
# GULP energy per Si atom -5571.261478 kJ/mol
# Density = 2.656077 g / cm^3
# Si number density = 26.621366 Si / 1000 Ang^3
#
#
#
# Elastic Constant Matrix: (Units=GPa)
#
#
# Indices 1 2 3 4 5 6 
#
# 1 130.3857 14.8254 20.7273 0.0000 20.8587 0.0000
# 2 14.8254 74.0082 8.6823 0.0000 15.8894 0.0000
# 3 20.7273 8.6823 95.3909 0.0000 28.1949 0.0000
# 4 0.0000 0.0000 0.0000 39.6171 0.0000 8.5590
# 5 20.8587 15.8894 28.1949 0.0000 42.5142 0.0000
# 6 0.0000 0.0000 0.0000 8.5590 0.0000 19.7267
#
#
#
# Elastic Compliance Matrix: (Units=1/GPa)
#
#
# Indices 1 2 3 4 5 6 
#
# 1 0.008420 -0.000891 -0.000778 0.000000 -0.003282 0.000000
# 2 -0.000891 0.014795 0.000438 0.000000 -0.005383 0.000000
# 3 -0.000778 0.000438 0.013120 0.000000 -0.008483 0.000000
# 4 0.000000 0.000000 0.000000 0.027852 0.000000 -0.012085
# 5 -0.003282 -0.005383 -0.008483 0.000000 0.032769 0.000000
# 6 0.000000 0.000000 0.000000 -0.012085 0.000000 0.055936
#
#
# Mechanical properties :
#
#
# Convention : Reuss Voigt Hill
#
# Bulk Modulus (GPa) = 29.52311 43.13944 36.33127
# Shear Modulus (GPa) = 30.00401 37.40824 33.70613
#
# Velocity S-wave (km/s) = 3.36082 3.75266 3.56213
# Velocity P-wave (km/s) = 5.11608 5.91748 5.53131
#
# Compressibility (1/GPa) = 0.03387177
#
# Stress axis : x y z
#
# Youngs Moduli (GPa) = 118.77073 67.59147 76.22132
#
# Poissons Ratio (x) = 0.06020 0.05933
# Poissons Ratio (y) = 0.10579 -0.03338
# Poissons Ratio (z) = 0.09245 -0.02960
#
# Static dielectric constant tensor:
#      x y z
#    x 2.277280 0.000000 -0.040460 
#    y 0.000000 2.232070 0.000000 
#    z -0.040460 0.000000 2.158250 
# 
# From -- ./inp_files/21883.got.cif
#   From: 2010.05.17/outbox.cif.g08.bks.cpg/sg9_11_cif.got.tgz:21883.got - 2010.06.03 20:04:27.
