data_PCOD9138185
_publ_section_title
;
Structure prediction by ZEFSAII (Michael W. Deem and Ramdas Pophale) SiO2 
 PCOD9138185
Probable space group: C C
;
_chemical_formula_sum "Si O2"
_cell_formula_units_Z 28
_cell_length_a 10.928017
_cell_length_b 11.631887
_cell_length_c 15.174839
_cell_angle_alpha 90.000000
_cell_angle_beta 149.650699
_cell_angle_gamma 90.000000
_cell_volume 974.629269
_symmetry_space_group_name_H-M "C C"
_symmetry_group_IT_number 9
_symmetry_cell_setting 'monoclinic'
loop_
_space_group_symop_operation_xyz
x,y,z
x,-y,1/2+z
1/2+x,1/2+y,z
1/2+x,1/2-y,1/2+z
loop_
_atom_site_type_symbol
_atom_site_label
_atom_site_fract_x
_atom_site_fract_y
_atom_site_fract_z
Si Si1 0.656320 0.826396 0.181650
Si Si2 0.896768 0.825424 0.771423
Si Si3 0.226990 0.014602 0.403234
Si Si4 0.863123 0.530198 0.190409
Si Si5 0.995865 0.136761 0.522908
Si Si6 0.779445 0.861447 0.459646
Si Si7 0.083817 0.229031 0.827566
O O1 0.717252 0.863131 0.317339
O O2 0.910879 0.830344 0.290854
O O3 0.454494 0.909904 0.010968
O O4 0.544491 0.698516 0.122689
O O5 0.968291 0.918609 0.741399
O O6 0.128330 0.742189 0.910009
O O7 0.682155 0.739017 0.621053
O O8 0.847586 0.874338 0.838759
O O9 0.281501 0.014151 0.542796
O O10 0.194309 0.885058 0.348012
O O11 0.656054 0.478311 0.127369
O O12 0.118033 0.474950 0.382125
O O13 0.902678 0.664130 0.194859
O O14 0.824388 0.192822 0.489749
#
# Coordination Sequence:
#
# PCOD9138185 Si02
#       7
#     4   4   4   4   4   4   4
#     4  10  23  40  69  97 132 171 220 270 327 393
#     4   9  19  43  70  94 128 177 221 268 325 391
#     4   9  22  43  66  92 128 180 223 265 320 397
#     4   9  22  43  66  92 128 180 223 265 320 397
#     4  10  23  40  69  97 132 171 220 270 327 393
#     4   9  19  43  70  94 128 177 221 268 325 391
#     4  12  26  36  66 102 130 172 218 276 322 390
#
# _framework density 28.728871000000002
#
# number of rings (size 3 to 8) (size 9 to 14) (size 15 to 20)
#    0.000    2.286    0.000    2.571    8.000    2.286 
#    0.000   11.429    0.000    0.000    0.000    0.000 
#    0.000    0.000    0.000    0.000    0.000    0.000 
#
# Total GULP energy -78089.003485 kJ/mol
# GULP energy per Si atom -5577.785963 kJ/mol
# Density = 2.866348 g / cm^3
# Si number density = 28.728871 Si / 1000 Ang^3
#
#
#
# Elastic Constant Matrix: (Units=GPa)
#
#
# Indices 1 2 3 4 5 6 
#
# 1 87.9778 50.0597 37.6700 0.0013 42.2752 0.0001
# 2 50.0597 213.7566 37.3444 0.0073 28.3981 0.0019
# 3 37.6700 37.3444 98.0547 0.0139 39.7451 0.0056
# 4 0.0013 0.0073 0.0139 54.3719 0.0039 11.7063
# 5 42.2752 28.3981 39.7451 0.0039 38.8814 0.0006
# 6 0.0001 0.0019 0.0056 11.7063 0.0006 10.2879
#
#
#
# Elastic Compliance Matrix: (Units=1/GPa)
#
#
# Indices 1 2 3 4 5 6 
#
# 1 0.025384 -0.002645 0.002834 0.000001 -0.028565 -0.000001
# 2 -0.002645 0.005489 -0.001050 0.000000 -0.000060 0.000000
# 3 0.002834 -0.001050 0.017839 -0.000002 -0.020550 -0.000006
# 4 0.000001 0.000000 -0.000002 0.024360 -0.000001 -0.027718
# 5 -0.028565 -0.000060 -0.020550 -0.000001 0.077827 0.000009
# 6 -0.000001 0.000000 -0.000006 -0.027718 0.000009 0.128741
#
#
# Mechanical properties :
#
#
# Convention : Reuss Voigt Hill
#
# Bulk Modulus (GPa) = 21.28130 72.21524 46.74827
# Shear Modulus (GPa) = 16.83355 39.02257 27.92806
#
# Velocity S-wave (km/s) = 2.42326 3.68952 3.12127
# Velocity P-wave (km/s) = 3.90555 6.58342 5.41270
#
# Compressibility (1/GPa) = 0.04698960
#
# Stress axis : x y z
#
# Youngs Moduli (GPa) = 39.39490 182.18120 56.05636
#
# Poissons Ratio (x) = 0.48184 -0.15885
# Poissons Ratio (y) = 0.10419 0.05887
# Poissons Ratio (z) = -0.11163 0.19132
#
# Static dielectric constant tensor:
#      x y z
#    x 2.254200 0.000000 -0.029970 
#    y 0.000000 2.309040 0.000000 
#    z -0.029970 0.000000 2.281090 
# 
# From -- ./inp_files/30097.got.cif
#   From: 2010.05.17/outbox.cif.g08.bks.cpg/sg9_16_cif.got.tgz:30097.got - 2010.06.03 20:04:27.
