data_PCOD9138694
_publ_section_title
;
Structure prediction by ZEFSAII (Michael W. Deem and Ramdas Pophale) SiO2 
 PCOD9138694
Probable space group: C C
;
_chemical_formula_sum "Si O2"
_cell_formula_units_Z 32
_cell_length_a 11.069078
_cell_length_b 9.079284
_cell_length_c 28.932415
_cell_angle_alpha 90.000000
_cell_angle_beta 151.148655
_cell_angle_gamma 90.000000
_cell_volume 1403.071977
_symmetry_space_group_name_H-M "C C"
_symmetry_group_IT_number 9
_symmetry_cell_setting 'monoclinic'
loop_
_space_group_symop_operation_xyz
x,y,z
x,-y,1/2+z
1/2+x,1/2+y,z
1/2+x,1/2-y,1/2+z
loop_
_atom_site_type_symbol
_atom_site_label
_atom_site_fract_x
_atom_site_fract_y
_atom_site_fract_z
Si Si1 0.681230 0.900307 0.650560
Si Si2 0.809235 0.810419 0.290726
Si Si3 0.701494 0.684721 0.578924
Si Si4 0.818183 0.225831 0.689581
Si Si5 0.014798 0.626323 0.445814
Si Si6 0.544741 0.620661 0.349126
Si Si7 0.238444 0.678600 0.994499
Si Si8 0.294338 0.122192 0.095810
O O1 0.593568 0.793035 0.581298
O O2 0.456114 0.946896 0.608472
O O3 0.866298 0.820490 0.748367
O O4 0.812989 0.050317 0.677929
O O5 0.505190 0.808535 0.188732
O O6 0.895341 0.753587 0.268612
O O7 0.905388 0.714202 0.365319
O O8 0.916258 0.976733 0.328455
O O9 0.639426 0.744539 0.507914
O O10 0.628190 0.514285 0.557097
O O11 0.531555 0.281446 0.590432
O O12 0.945819 0.314817 0.690757
O O13 0.792922 0.569875 0.404803
O O14 0.178827 0.492056 0.482177
O O15 0.161594 0.740629 0.527504
O O16 0.610712 0.745636 0.407755
#
# Coordination Sequence:
#
# PCOD9138694 Si02
#       8
#     4   4   4   4   4   4   4   4
#     4  11  24  45  70  96 137 182 219 279 342 399
#     4  10  23  46  67  96 138 174 221 283 336 395
#     4  11  23  44  71  98 133 180 224 276 341 407
#     4  10  23  46  65  97 138 172 226 277 335 411
#     4  12  26  42  68 102 137 178 226 283 339 401
#     4  11  23  46  65  96 142 175 219 287 338 395
#     4  11  24  44  66  98 134 178 222 280 337 399
#     4  12  24  43  70  99 133 181 227 279 336 407
#
# _framework density 22.807099000000001
#
# number of rings (size 3 to 8) (size 9 to 14) (size 15 to 20)
#    0.000    1.000    6.250    1.500    1.750    3.000 
#    2.250    0.000    0.000    0.000    0.000    0.000 
#    0.000    0.000    0.000    0.000    0.000    0.000 
#
# Total GULP energy -89457.488946 kJ/mol
# GULP energy per Si atom -5591.093059 kJ/mol
# Density = 2.275519 g / cm^3
# Si number density = 22.807099 Si / 1000 Ang^3
#
#
#
# Elastic Constant Matrix: (Units=GPa)
#
#
# Indices 1 2 3 4 5 6 
#
# 1 93.0243 52.9597 14.8816 0.0000 -31.3108 0.0000
# 2 52.9597 118.7017 28.6325 0.0000 -31.4150 0.0000
# 3 14.8816 28.6325 60.4692 0.0000 -24.7793 0.0000
# 4 0.0000 0.0000 0.0000 31.4717 0.0000 -12.0725
# 5 -31.3108 -31.4150 -24.7793 0.0000 36.9691 0.0000
# 6 0.0000 0.0000 0.0000 -12.0725 0.0000 37.3367
#
#
#
# Elastic Compliance Matrix: (Units=1/GPa)
#
#
# Indices 1 2 3 4 5 6 
#
# 1 0.017430 -0.005267 0.003336 0.000000 0.012522 0.000000
# 2 -0.005267 0.012617 -0.002912 0.000000 0.004309 0.000000
# 3 0.003336 -0.002912 0.023767 0.000000 0.016281 0.000000
# 4 0.000000 0.000000 0.000000 0.036274 0.000000 0.011729
# 5 0.012522 0.004309 0.016281 0.000000 0.052229 0.000000
# 6 0.000000 0.000000 0.000000 0.011729 0.000000 0.030576
#
#
# Mechanical properties :
#
#
# Convention : Reuss Voigt Hill
#
# Bulk Modulus (GPa) = 22.66204 51.68252 37.17228
# Shear Modulus (GPa) = 25.34362 32.87025 29.10693
#
# Velocity S-wave (km/s) = 3.33711 3.80047 3.57630
# Velocity P-wave (km/s) = 4.98060 6.47827 5.77816
#
# Compressibility (1/GPa) = 0.04412665
#
# Stress axis : x y z
#
# Youngs Moduli (GPa) = 57.37377 79.25675 42.07512
#
# Poissons Ratio (x) = 0.41744 -0.14036
# Poissons Ratio (y) = 0.30218 0.12254
# Poissons Ratio (z) = -0.19139 0.23083
#
# Static dielectric constant tensor:
#      x y z
#    x 1.901250 0.000000 0.053120 
#    y 0.000000 1.816430 0.000000 
#    z 0.053120 0.000000 1.858980 
# 
# From -- ./inp_files/24228.got.cif
#   From: 2010.05.17/outbox.cif.g08.bks.cpg/sg9_13_cif.got.tgz:24228.got - 2010.06.03 20:04:27.
