data_PCOD9138640
_publ_section_title
;
Structure prediction by ZEFSAII (Michael W. Deem and Ramdas Pophale) SiO2 
 PCOD9138640
Probable space group: C C
;
_chemical_formula_sum "Si O2"
_cell_formula_units_Z 24
_cell_length_a 11.338947
_cell_length_b 10.419953
_cell_length_c 8.807105
_cell_angle_alpha 90.000000
_cell_angle_beta 72.390504
_cell_angle_gamma 90.000000
_cell_volume 991.810272
_symmetry_space_group_name_H-M "C C"
_symmetry_group_IT_number 9
_symmetry_cell_setting 'monoclinic'
loop_
_space_group_symop_operation_xyz
x,y,z
x,-y,1/2+z
1/2+x,1/2+y,z
1/2+x,1/2-y,1/2+z
loop_
_atom_site_type_symbol
_atom_site_label
_atom_site_fract_x
_atom_site_fract_y
_atom_site_fract_z
Si Si1 0.222180 0.423307 0.987930
Si Si2 0.195704 0.169717 0.367342
Si Si3 0.405477 0.334218 0.417116
Si Si4 0.860315 0.293909 0.244071
Si Si5 0.146026 0.038678 0.677322
Si Si6 0.572526 0.908521 0.346984
O O1 0.309197 0.547968 0.966737
O O2 0.296778 0.311448 0.876657
O O3 0.104450 0.465793 0.930023
O O4 0.175240 0.396674 0.174635
O O5 0.331691 0.224739 0.349906
O O6 0.158461 0.055137 0.493632
O O7 0.100220 0.284642 0.438955
O O8 0.167100 0.107737 0.216915
O O9 0.428957 0.280320 0.578104
O O10 0.522229 0.394271 0.286832
O O11 0.757452 0.377890 0.201809
O O12 0.944495 0.387200 0.312811
#
# Coordination Sequence:
#
# PCOD9138640 Si02
#       6
#     4   4   4   4   4   4
#     4  11  23  45  72  98 135 185 226 282 343 400
#     4  10  26  45  66 105 130 182 230 275 346 403
#     4  10  23  45  70  99 138 178 232 282 335 410
#     4  11  24  42  68 102 134 183 226 280 345 399
#     4  11  25  44  69  97 141 177 229 280 341 407
#     4  11  25  45  71  99 138 175 233 279 342 407
#
# _framework density 24.198177999999999
#
# number of rings (size 3 to 8) (size 9 to 14) (size 15 to 20)
#    0.000    1.333    1.667    2.000    7.000    6.667 
#    0.000    0.000    0.000    0.000    0.000    0.000 
#    0.000    0.000    0.000    0.000    0.000    0.000 
#
# Total GULP energy -67190.920276 kJ/mol
# GULP energy per Si atom -5599.243356 kJ/mol
# Density = 2.414310 g / cm^3
# Si number density = 24.198178 Si / 1000 Ang^3
#
#
#
# Elastic Constant Matrix: (Units=GPa)
#
#
# Indices 1 2 3 4 5 6 
#
# 1 87.2323 22.1504 2.5577 0.0000 15.2174 0.0000
# 2 22.1504 50.0467 28.2274 0.0000 -27.5843 0.0000
# 3 2.5577 28.2274 43.5205 0.0000 18.2788 0.0000
# 4 0.0000 0.0000 0.0000 32.7740 0.0000 6.8490
# 5 15.2174 -27.5843 18.2788 0.0000 9.8671 0.0000
# 6 0.0000 0.0000 0.0000 6.8490 0.0000 33.5683
#
#
#
# Elastic Compliance Matrix: (Units=1/GPa)
#
#
# Indices 1 2 3 4 5 6 
#
# 1 0.009315 0.003778 -0.006307 0.000000 0.007880 0.000000
# 2 0.003778 0.000058 0.009545 0.000000 -0.023345 0.000000
# 3 -0.006307 0.009545 0.008400 0.000000 0.020850 0.000000
# 4 0.000000 0.000000 0.000000 0.031871 0.000000 -0.006503
# 5 0.007880 -0.023345 0.020850 0.000000 -0.014693 0.000000
# 6 0.000000 0.000000 0.000000 -0.006503 0.000000 0.031117
#
#
# Mechanical properties :
#
#
# Convention : Reuss Voigt Hill
#
# Bulk Modulus (GPa) = 31.44146 31.85227 31.64686
# Shear Modulus (GPa) = 79.82261 23.76616 51.79439
#
# Velocity S-wave (km/s) = 5.74966 3.13732 4.63149
# Velocity P-wave (km/s) = 7.55644 5.12985 6.45814
#
# Compressibility (1/GPa) = 0.03180514
#
# Stress axis : x y z
#
# Youngs Moduli (GPa) = 107.35691 17110.81462 119.04153
#
# Poissons Ratio (x) = -64.64078 0.75082
# Poissons Ratio (y) = -0.40557 -1.13627
# Poissons Ratio (z) = 0.67712 -163.32561
#
# Static dielectric constant tensor:
#      x y z
#    x 1.924190 0.000000 0.021760 
#    y 0.000000 1.907240 0.000000 
#    z 0.021760 0.000000 1.926750 
# 
# From -- ./inp_files/6726.got.cif
#   From: 2010.05.17/outbox.cif.g08.bks.cpg/sg9_4_cif.got.tgz:6726.got - 2010.06.03 20:04:27.
