data_PCOD9138936
_publ_section_title
;
Structure prediction by ZEFSAII (Michael W. Deem and Ramdas Pophale) SiO2 
 PCOD9138936
Probable space group: C C
;
_chemical_formula_sum "Si O2"
_cell_formula_units_Z 28
_cell_length_a 12.803951
_cell_length_b 11.372511
_cell_length_c 11.320196
_cell_angle_alpha 90.000000
_cell_angle_beta 42.678653
_cell_angle_gamma 90.000000
_cell_volume 1117.405641
_symmetry_space_group_name_H-M "C C"
_symmetry_group_IT_number 9
_symmetry_cell_setting 'monoclinic'
loop_
_space_group_symop_operation_xyz
x,y,z
x,-y,1/2+z
1/2+x,1/2+y,z
1/2+x,1/2-y,1/2+z
loop_
_atom_site_type_symbol
_atom_site_label
_atom_site_fract_x
_atom_site_fract_y
_atom_site_fract_z
Si Si1 0.838020 0.546388 0.442540
Si Si2 0.433248 0.651468 0.095900
Si Si3 0.168778 0.750423 0.970536
Si Si4 0.186071 0.566067 0.129746
Si Si5 0.367379 0.835032 0.596473
Si Si6 0.808137 0.166418 0.437757
Si Si7 0.259352 0.863234 0.308533
O O1 0.702018 0.640866 0.533128
O O2 0.836885 0.460677 0.558477
O O3 0.828047 0.464201 0.333093
O O4 0.009711 0.600382 0.299229
O O5 0.290103 0.584545 0.157000
O O6 0.428378 0.619959 0.239809
O O7 0.382253 0.789742 0.130095
O O8 0.589354 0.611272 0.902538
O O9 0.255047 0.645472 0.967239
O O10 0.011430 0.686522 0.062745
O O11 0.229637 0.797747 0.795744
O O12 0.199647 0.431964 0.080442
O O13 0.384618 0.741307 0.476908
O O14 0.711951 0.259512 0.441297
#
# Coordination Sequence:
#
# PCOD9138936 Si02
#       7
#     4   4   4   4   4   4   4
#     4  11  26  48  74 107 154 210 249 316 401 465
#     4  10  24  41  75 106 139 194 254 316 380 477
#     4  12  28  47  74 116 152 199 264 313 400 473
#     4  12  26  46  71 111 157 197 246 335 397 463
#     4  11  26  49  79 109 154 202 258 330 389 474
#     4   9  24  42  75  99 148 193 259 299 407 449
#     4   9  22  45  72 106 136 191 262 299 382 469
#
# _framework density 25.058043000000001
#
# number of rings (size 3 to 8) (size 9 to 14) (size 15 to 20)
#    0.857    0.571    1.429    1.714   12.000    1.143 
#    0.000    0.000    0.000    0.000    0.000    0.000 
#    0.000    0.000    0.000    0.000    0.000    0.000 
#
# Total GULP energy -78137.111998 kJ/mol
# GULP energy per Si atom -5581.222286 kJ/mol
# Density = 2.500101 g / cm^3
# Si number density = 25.058043 Si / 1000 Ang^3
#
#
#
# Elastic Constant Matrix: (Units=GPa)
#
#
# Indices 1 2 3 4 5 6 
#
# 1 106.0460 36.9341 55.9111 0.0000 -1.8267 0.0000
# 2 36.9341 94.7472 7.4641 0.0000 8.7198 0.0000
# 3 55.9111 7.4641 75.6431 0.0000 5.1713 0.0000
# 4 0.0000 0.0000 0.0000 31.1365 0.0000 -4.8321
# 5 -1.8267 8.7198 5.1713 0.0000 40.7856 0.0000
# 6 0.0000 0.0000 0.0000 -4.8321 0.0000 21.4329
#
#
#
# Elastic Compliance Matrix: (Units=1/GPa)
#
#
# Indices 1 2 3 4 5 6 
#
# 1 0.019067 -0.006724 -0.013705 0.000000 0.004029 0.000000
# 2 -0.006724 0.013200 0.003915 0.000000 -0.003620 0.000000
# 3 -0.013705 0.003915 0.023265 0.000000 -0.004401 0.000000
# 4 0.000000 0.000000 0.000000 0.033281 0.000000 0.007503
# 5 0.004029 -0.003620 -0.004401 0.000000 0.026031 0.000000
# 6 0.000000 0.000000 0.000000 0.007503 0.000000 0.048349
#
#
# Mechanical properties :
#
#
# Convention : Reuss Voigt Hill
#
# Bulk Modulus (GPa) = 44.43784 53.00609 48.72197
# Shear Modulus (GPa) = 24.54329 30.41280 27.47804
#
# Velocity S-wave (km/s) = 3.13302 3.48759 3.31505
# Velocity P-wave (km/s) = 5.55520 6.11694 5.84283
#
# Compressibility (1/GPa) = 0.02250334
#
# Stress axis : x y z
#
# Youngs Moduli (GPa) = 52.44701 75.75661 42.98379
#
# Poissons Ratio (x) = 0.50937 0.58910
# Poissons Ratio (y) = 0.35264 -0.16827
# Poissons Ratio (z) = 0.71879 -0.29657
#
# Static dielectric constant tensor:
#      x y z
#    x 2.083920 0.000000 -0.072800 
#    y 0.000000 2.005630 0.000000 
#    z -0.072800 0.000000 2.055780 
# 
# From -- ./inp_files/16377.got.cif
#   From: 2010.05.17/outbox.cif.g08.bks.cpg/sg9_9_cif.got.tgz:16377.got - 2010.06.03 20:04:27.
