data_PCOD9138204
_publ_section_title
;
Structure prediction by ZEFSAII (Michael W. Deem and Ramdas Pophale) SiO2 
 PCOD9138204
Probable space group: C C
;
_chemical_formula_sum "Si O2"
_cell_formula_units_Z 20
_cell_length_a 7.355835
_cell_length_b 21.206196
_cell_length_c 6.720688
_cell_angle_alpha 90.000000
_cell_angle_beta 45.055663
_cell_angle_gamma 90.000000
_cell_volume 742.018947
_symmetry_space_group_name_H-M "C C"
_symmetry_group_IT_number 9
_symmetry_cell_setting 'monoclinic'
loop_
_space_group_symop_operation_xyz
x,y,z
x,-y,1/2+z
1/2+x,1/2+y,z
1/2+x,1/2-y,1/2+z
loop_
_atom_site_type_symbol
_atom_site_label
_atom_site_fract_x
_atom_site_fract_y
_atom_site_fract_z
Si Si1 0.765640 0.174213 0.004770
Si Si2 0.121984 0.361725 0.194498
Si Si3 0.295796 0.516917 0.383162
Si Si4 0.814684 0.683221 0.601725
Si Si5 0.386141 0.012356 0.950728
O O1 0.505243 0.146849 0.303343
O O2 0.747348 0.247945 0.072841
O O3 0.764736 0.165382 0.771083
O O4 0.044595 0.150778 0.854969
O O5 0.983871 0.310425 0.167874
O O6 0.910400 0.410935 0.439362
O O7 0.294677 0.407391 0.925160
O O8 0.954317 0.504702 0.643635
O O9 0.226714 0.505179 0.186786
O O10 0.588644 0.491320 0.162056
#
# Coordination Sequence:
#
# PCOD9138204 Si02
#       5
#     4   4   4   4   4
#     4  10  24  42  65  98 131 176 229 274 330 401
#     4  10  26  40  72  94 140 176 222 278 342 388
#     4  10  23  41  64  95 132 175 223 273 335 404
#     4  10  24  42  65  98 131 176 229 274 330 401
#     4  10  23  41  64  95 132 175 223 273 335 404
#
# _framework density 26.953491
#
# number of rings (size 3 to 8) (size 9 to 14) (size 15 to 20)
#    1.200    0.800    0.000    1.200    5.600    9.600 
#    0.000    0.000    0.000    0.000    0.000    0.000 
#    0.000    0.000    0.000    0.000    0.000    0.000 
#
# Total GULP energy -55742.930075 kJ/mol
# GULP energy per Si atom -5574.293007 kJ/mol
# Density = 2.689214 g / cm^3
# Si number density = 26.953491 Si / 1000 Ang^3
#
#
#
# Elastic Constant Matrix: (Units=GPa)
#
#
# Indices 1 2 3 4 5 6 
#
# 1 224.9936 13.4405 72.3927 0.0000 0.7349 0.0000
# 2 13.4405 75.8018 1.8555 0.0000 11.5256 0.0000
# 3 72.3927 1.8555 273.1821 0.0000 -17.9339 0.0000
# 4 0.0000 0.0000 0.0000 13.1904 0.0000 20.2018
# 5 0.7349 11.5256 -17.9339 0.0000 46.8469 0.0000
# 6 0.0000 0.0000 0.0000 20.2018 0.0000 46.1767
#
#
#
# Elastic Compliance Matrix: (Units=1/GPa)
#
#
# Indices 1 2 3 4 5 6 
#
# 1 0.004918 -0.000780 -0.001324 0.000000 -0.000392 0.000000
# 2 -0.000780 0.013856 -0.000113 0.000000 -0.003440 0.000000
# 3 -0.001324 -0.000113 0.004119 0.000000 0.001625 0.000000
# 4 0.000000 0.000000 0.000000 0.229763 0.000000 -0.100519
# 5 -0.000392 -0.003440 0.001625 0.000000 0.022821 0.000000
# 6 0.000000 0.000000 0.000000 -0.100519 0.000000 0.065632
#
#
# Mechanical properties :
#
#
# Convention : Reuss Voigt Hill
#
# Bulk Modulus (GPa) = 54.17272 83.26164 68.71718
# Shear Modulus (GPa) = 14.21677 53.66205 33.93941
#
# Velocity S-wave (km/s) = 2.29913 4.46681 3.55235
# Velocity P-wave (km/s) = 5.21443 7.58690 6.50966
#
# Compressibility (1/GPa) = 0.01845948
#
# Stress axis : x y z
#
# Youngs Moduli (GPa) = 203.31860 72.16844 242.78688
#
# Poissons Ratio (x) = 0.05630 0.32140
# Poissons Ratio (y) = 0.15860 0.02749
# Poissons Ratio (z) = 0.26915 0.00817
#
# Static dielectric constant tensor:
#      x y z
#    x 2.203390 0.000000 0.076320 
#    y 0.000000 2.236250 0.000000 
#    z 0.076320 0.000000 2.310800 
# 
# From -- ./inp_files/4039.got.cif
#   From: 2010.05.17/outbox.cif.g08.bks.cpg/sg9_3_cif.got.tgz:4039.got - 2010.06.03 20:04:27.
