data_PCOD9138950
_publ_section_title
;
Structure prediction by ZEFSAII (Michael W. Deem and Ramdas Pophale) SiO2 
 PCOD9138950
Probable space group: C C
;
_chemical_formula_sum "Si O2"
_cell_formula_units_Z 28
_cell_length_a 5.590412
_cell_length_b 24.577267
_cell_length_c 9.556565
_cell_angle_alpha 90.000000
_cell_angle_beta 115.986706
_cell_angle_gamma 90.000000
_cell_volume 1180.289492
_symmetry_space_group_name_H-M "C C"
_symmetry_group_IT_number 9
_symmetry_cell_setting 'monoclinic'
loop_
_space_group_symop_operation_xyz
x,y,z
x,-y,1/2+z
1/2+x,1/2+y,z
1/2+x,1/2-y,1/2+z
loop_
_atom_site_type_symbol
_atom_site_label
_atom_site_fract_x
_atom_site_fract_y
_atom_site_fract_z
Si Si1 0.467080 0.839434 0.266620
Si Si2 0.395960 0.715171 0.669525
Si Si3 0.093945 0.401037 0.580068
Si Si4 0.146566 0.980868 0.500523
Si Si5 0.414985 0.911560 0.990310
Si Si6 0.065578 0.327498 0.819821
Si Si7 0.374093 0.517021 0.673288
O O1 0.703447 0.807987 0.243515
O O2 0.583806 0.868254 0.433933
O O3 0.367207 0.882218 0.124810
O O4 0.201950 0.806092 0.244027
O O5 0.258668 0.698483 0.487003
O O6 0.413846 0.779511 0.701083
O O7 0.797888 0.424065 0.536752
O O8 0.197947 0.364500 0.734017
O O9 0.241687 0.458592 0.613242
O O10 0.135359 0.007747 0.648818
O O11 0.268163 0.031297 0.444486
O O12 0.883884 0.972238 0.340528
O O13 0.721604 0.932070 0.067064
O O14 0.376897 0.868420 0.858374
#
# Coordination Sequence:
#
# PCOD9138950 Si02
#       7
#     4   4   4   4   4   4   4
#     4  11  26  48  75 105 145 193 238 307 359 431
#     4  11  28  50  74 106 145 186 253 302 361 429
#     4  11  25  42  70 106 144 190 243 294 373 426
#     4  11  23  40  67 104 143 186 237 297 350 449
#     4  10  24  42  68 101 144 190 235 291 366 429
#     4  11  25  50  73 104 142 192 239 309 364 431
#     4  11  23  40  65 106 143 185 239 294 351 447
#
# _framework density 23.722994
#
# number of rings (size 3 to 8) (size 9 to 14) (size 15 to 20)
#    0.000    1.143    0.000    4.286   12.000    9.143 
#    5.143    0.000    0.000    0.000    0.000    0.000 
#    0.000    0.000    0.000    0.000    0.000    0.000 
#
# Total GULP energy -78163.236788 kJ/mol
# GULP energy per Si atom -5583.088342 kJ/mol
# Density = 2.366900 g / cm^3
# Si number density = 23.722994 Si / 1000 Ang^3
#
#
#
# Elastic Constant Matrix: (Units=GPa)
#
#
# Indices 1 2 3 4 5 6 
#
# 1 71.9653 29.8213 22.6235 0.0000 -17.3555 0.0000
# 2 29.8213 135.8683 53.1289 0.0000 -13.2003 0.0000
# 3 22.6235 53.1289 127.6238 0.0000 -26.8929 0.0000
# 4 0.0000 0.0000 0.0000 43.7656 0.0000 -10.7897
# 5 -17.3555 -13.2003 -26.8929 0.0000 21.0129 0.0000
# 6 0.0000 0.0000 0.0000 -10.7897 0.0000 24.5467
#
#
#
# Elastic Compliance Matrix: (Units=1/GPa)
#
#
# Indices 1 2 3 4 5 6 
#
# 1 0.018339 -0.003031 0.001097 0.000000 0.014647 0.000000
# 2 -0.003031 0.009312 -0.003607 0.000000 -0.001270 0.000000
# 3 0.001097 -0.003607 0.012126 0.000000 0.014160 0.000000
# 4 0.000000 0.000000 0.000000 0.025626 0.000000 0.011264
# 5 0.014647 -0.001270 0.014160 0.000000 0.077013 0.000000
# 6 0.000000 0.000000 0.000000 0.011264 0.000000 0.045690
#
#
# Mechanical properties :
#
#
# Convention : Reuss Voigt Hill
#
# Bulk Modulus (GPa) = 34.84749 60.73387 47.79068
# Shear Modulus (GPa) = 23.95170 33.19062 28.57116
#
# Velocity S-wave (km/s) = 3.18093 3.74450 3.47416
# Velocity P-wave (km/s) = 5.31153 6.65972 6.02346
#
# Compressibility (1/GPa) = 0.02869647
#
# Stress axis : x y z
#
# Youngs Moduli (GPa) = 54.52828 107.38312 82.46483
#
# Poissons Ratio (x) = 0.32551 -0.09050
# Poissons Ratio (y) = 0.16529 0.29745
# Poissons Ratio (z) = -0.05984 0.38732
#
# Static dielectric constant tensor:
#      x y z
#    x 2.147920 0.000000 0.013920 
#    y 0.000000 1.842550 0.000000 
#    z 0.013920 0.000000 1.939970 
# 
# From -- ./inp_files/4177.got.cif
#   From: 2010.05.17/outbox.cif.g08.bks.cpg/sg9_3_cif.got.tgz:4177.got - 2010.06.03 20:04:27.
