data_PCOD9138058
_publ_section_title
;
Structure prediction by ZEFSAII (Michael W. Deem and Ramdas Pophale) SiO2 
 PCOD9138058
Probable space group: C C
;
_chemical_formula_sum "Si O2"
_cell_formula_units_Z 28
_cell_length_a 5.185752
_cell_length_b 19.057495
_cell_length_c 12.823008
_cell_angle_alpha 90.000000
_cell_angle_beta 68.121369
_cell_angle_gamma 90.000000
_cell_volume 1175.990700
_symmetry_space_group_name_H-M "C C"
_symmetry_group_IT_number 9
_symmetry_cell_setting 'monoclinic'
loop_
_space_group_symop_operation_xyz
x,y,z
x,-y,1/2+z
1/2+x,1/2+y,z
1/2+x,1/2-y,1/2+z
loop_
_atom_site_type_symbol
_atom_site_label
_atom_site_fract_x
_atom_site_fract_y
_atom_site_fract_z
Si Si1 0.663740 0.903382 0.738840
Si Si2 0.075072 0.685053 0.511332
Si Si3 0.783204 0.442594 0.139982
Si Si4 0.102454 0.786392 0.680885
Si Si5 0.482335 0.092805 0.042325
Si Si6 0.221307 0.803182 0.875447
Si Si7 0.170581 0.440828 0.283804
O O1 0.694615 0.909992 0.608746
O O2 0.354894 0.875879 0.811807
O O3 0.863065 0.841600 0.745123
O O4 0.716917 0.975406 0.788077
O O5 0.985003 0.725737 0.628022
O O6 0.407064 0.687948 0.459675
O O7 0.959625 0.606659 0.536830
O O8 0.919230 0.721262 0.438206
O O9 0.801742 0.522581 0.094695
O O10 0.467552 0.416128 0.195039
O O11 0.931949 0.436603 0.231078
O O12 0.319779 0.834358 0.584580
O O13 0.222802 0.757067 0.770517
O O14 0.595446 0.088936 0.908343
#
# Coordination Sequence:
#
# PCOD9138058 Si02
#       7
#     4   4   4   4   4   4   4
#     4  10  22  47  72 103 140 185 243 291 354 448
#     4  12  27  46  72 102 146 190 239 294 364 432
#     4  11  25  45  66 106 138 180 240 298 345 436
#     4  11  25  48  68 109 142 186 246 290 356 446
#     4  10  24  41  74  98 140 184 236 295 361 418
#     4  11  25  46  73 101 136 199 231 291 359 433
#     4  11  24  43  71 103 140 180 235 299 363 411
#
# _framework density 23.809714
#
# number of rings (size 3 to 8) (size 9 to 14) (size 15 to 20)
#    0.000    1.143    2.857    1.714    6.000    1.143 
#    2.571    0.000    0.000    0.000    0.000    0.000 
#    0.000    0.000    0.000    0.000    0.000    0.000 
#
# Total GULP energy -78297.752238 kJ/mol
# GULP energy per Si atom -5592.696588 kJ/mol
# Density = 2.375552 g / cm^3
# Si number density = 23.809714 Si / 1000 Ang^3
#
#
#
# Elastic Constant Matrix: (Units=GPa)
#
#
# Indices 1 2 3 4 5 6 
#
# 1 93.2588 1.8961 32.8561 0.0000 -10.9778 0.0000
# 2 1.8961 47.6687 4.1474 0.0000 3.7295 0.0000
# 3 32.8561 4.1474 81.5065 0.0000 16.5601 0.0000
# 4 0.0000 0.0000 0.0000 20.2199 0.0000 10.6981
# 5 -10.9778 3.7295 16.5601 0.0000 42.4908 0.0000
# 6 0.0000 0.0000 0.0000 10.6981 0.0000 17.8830
#
#
#
# Elastic Compliance Matrix: (Units=1/GPa)
#
#
# Indices 1 2 3 4 5 6 
#
# 1 0.013889 -0.000449 -0.006856 0.000000 0.006300 0.000000
# 2 -0.000449 0.021181 -0.000538 0.000000 -0.001765 0.000000
# 3 -0.006856 -0.000538 0.016735 0.000000 -0.008246 0.000000
# 4 0.000000 0.000000 0.000000 0.072359 0.000000 -0.043287
# 5 0.006300 -0.001765 -0.008246 0.000000 0.028531 0.000000
# 6 0.000000 0.000000 0.000000 -0.043287 0.000000 0.081815
#
#
# Mechanical properties :
#
#
# Convention : Reuss Voigt Hill
#
# Bulk Modulus (GPa) = 27.68583 33.35924 30.52254
# Shear Modulus (GPa) = 19.06688 28.35438 23.71063
#
# Velocity S-wave (km/s) = 2.83292 3.45465 3.15911
# Velocity P-wave (km/s) = 4.72797 5.47302 5.11408
#
# Compressibility (1/GPa) = 0.03611956
#
# Stress axis : x y z
#
# Youngs Moduli (GPa) = 71.99992 47.21232 59.75338
#
# Poissons Ratio (x) = 0.02119 0.40966
# Poissons Ratio (y) = 0.03232 0.03216
# Poissons Ratio (z) = 0.49362 0.02541
#
# Static dielectric constant tensor:
#      x y z
#    x 1.944750 0.000000 -0.011000 
#    y 0.000000 1.897810 0.000000 
#    z -0.011000 0.000000 1.962510 
# 
# From -- ./inp_files/13217.got.cif
#   From: 2010.05.17/outbox.cif.g08.bks.cpg/sg9_7_cif.got.tgz:13217.got - 2010.06.03 20:04:27.
