data_PCOD9138908
_publ_section_title
;
Structure prediction by ZEFSAII (Michael W. Deem and Ramdas Pophale) SiO2 
 PCOD9138908
Probable space group: C C
;
_chemical_formula_sum "Si O2"
_cell_formula_units_Z 24
_cell_length_a 5.257192
_cell_length_b 23.128614
_cell_length_c 8.642365
_cell_angle_alpha 90.000000
_cell_angle_beta 95.592071
_cell_angle_gamma 90.000000
_cell_volume 1045.837629
_symmetry_space_group_name_H-M "C C"
_symmetry_group_IT_number 9
_symmetry_cell_setting 'monoclinic'
loop_
_space_group_symop_operation_xyz
x,y,z
x,-y,1/2+z
1/2+x,1/2+y,z
1/2+x,1/2-y,1/2+z
loop_
_atom_site_type_symbol
_atom_site_label
_atom_site_fract_x
_atom_site_fract_y
_atom_site_fract_z
Si Si1 0.601720 0.683574 0.245540
Si Si2 0.537575 0.993057 0.152528
Si Si3 0.769907 0.648167 0.942244
Si Si4 0.206798 0.939884 0.879585
Si Si5 0.884144 0.956828 0.438942
Si Si6 0.773529 0.795438 0.432797
O O1 0.602822 0.623050 0.335443
O O2 0.674411 0.734485 0.365694
O O3 0.804446 0.670955 0.120160
O O4 0.362905 0.699666 0.118479
O O5 0.316778 0.025919 0.236259
O O6 0.705963 0.956008 0.279347
O O7 0.707052 0.043381 0.080248
O O8 0.427357 0.949060 0.019299
O O9 0.622948 0.586737 0.941691
O O10 0.539076 0.687946 0.862541
O O11 0.045157 0.659122 0.886464
O O12 0.985676 0.978162 0.939246
#
# Coordination Sequence:
#
# PCOD9138908 Si02
#       6
#     4   4   4   4   4   4
#     4  10  25  46  70 100 139 188 241 297 350 427
#     4  10  24  40  68 109 146 187 241 286 375 440
#     4  10  25  44  74  97 140 182 232 298 350 430
#     4  11  23  43  71 102 147 187 235 299 365 434
#     4  11  23  43  66 109 139 192 230 300 367 437
#     4  10  26  44  73  97 137 188 239 288 355 408
#
# _framework density 22.948112999999999
#
# number of rings (size 3 to 8) (size 9 to 14) (size 15 to 20)
#    1.000    0.667    0.000    3.000    9.333    2.667 
#    3.000    0.000    0.000    0.000    0.000    0.000 
#    0.000    0.000    0.000    0.000    0.000    0.000 
#
# Total GULP energy -66906.840175 kJ/mol
# GULP energy per Si atom -5575.570015 kJ/mol
# Density = 2.289588 g / cm^3
# Si number density = 22.948113 Si / 1000 Ang^3
#
#
#
# Elastic Constant Matrix: (Units=GPa)
#
#
# Indices 1 2 3 4 5 6 
#
# 1 76.1790 42.6614 49.9292 0.0000 29.8781 0.0000
# 2 42.6614 153.5680 60.9530 0.0000 28.8272 0.0000
# 3 49.9292 60.9530 94.6323 0.0000 24.3317 0.0000
# 4 0.0000 0.0000 0.0000 35.6212 0.0000 6.8446
# 5 29.8781 28.8272 24.3317 0.0000 32.6716 0.0000
# 6 0.0000 0.0000 0.0000 6.8446 0.0000 20.8035
#
#
#
# Elastic Compliance Matrix: (Units=1/GPa)
#
#
# Indices 1 2 3 4 5 6 
#
# 1 0.025770 -0.000482 -0.009073 0.000000 -0.016384 0.000000
# 2 -0.000482 0.009289 -0.004619 0.000000 -0.004315 0.000000
# 3 -0.009073 -0.004619 0.018736 0.000000 -0.001580 0.000000
# 4 0.000000 0.000000 0.000000 0.029968 0.000000 -0.009860
# 5 -0.016384 -0.004315 -0.001580 0.000000 0.050574 0.000000
# 6 0.000000 0.000000 0.000000 -0.009860 0.000000 0.051313
#
#
# Mechanical properties :
#
#
# Convention : Reuss Voigt Hill
#
# Bulk Modulus (GPa) = 39.30003 70.16296 54.73149
# Shear Modulus (GPa) = 22.47382 29.20830 25.84106
#
# Velocity S-wave (km/s) = 3.13282 3.57150 3.35933
# Velocity P-wave (km/s) = 5.49990 6.90279 6.24089
#
# Compressibility (1/GPa) = 0.02544527
#
# Stress axis : x y z
#
# Youngs Moduli (GPa) = 38.80545 107.65211 53.37303
#
# Poissons Ratio (x) = 0.05189 0.48427
# Poissons Ratio (y) = 0.01871 0.24655
# Poissons Ratio (z) = 0.35210 0.49729
#
# Static dielectric constant tensor:
#      x y z
#    x 1.940830 0.000000 -0.004190 
#    y 0.000000 1.873560 0.000000 
#    z -0.004190 0.000000 1.900150 
# 
# From -- ./inp_files/3857.got.cif
#   From: 2010.05.17/outbox.cif.g08.bks.cpg/sg9_2_cif.got.tgz:3857.got - 2010.06.03 20:04:27.
