data_PCOD9138218
_publ_section_title
;
Structure prediction by ZEFSAII (Michael W. Deem and Ramdas Pophale) SiO2 
 PCOD9138218
Probable space group: C C
;
_chemical_formula_sum "Si O2"
_cell_formula_units_Z 28
_cell_length_a 10.252232
_cell_length_b 20.572886
_cell_length_c 5.142978
_cell_angle_alpha 90.000000
_cell_angle_beta 97.757466
_cell_angle_gamma 90.000000
_cell_volume 1074.819377
_symmetry_space_group_name_H-M "C C"
_symmetry_group_IT_number 9
_symmetry_cell_setting 'monoclinic'
loop_
_space_group_symop_operation_xyz
x,y,z
x,-y,1/2+z
1/2+x,1/2+y,z
1/2+x,1/2-y,1/2+z
loop_
_atom_site_type_symbol
_atom_site_label
_atom_site_fract_x
_atom_site_fract_y
_atom_site_fract_z
Si Si1 0.272790 0.457220 0.917190
Si Si2 0.967492 0.540091 0.349638
Si Si3 0.080143 0.846455 0.668841
Si Si4 0.604656 0.787538 0.475782
Si Si5 0.802970 0.285584 0.448790
Si Si6 0.709650 0.545355 0.475193
Si Si7 0.828721 0.156477 0.761790
O O1 0.302339 0.489642 0.650062
O O2 0.117812 0.440661 0.905610
O O3 0.335987 0.389986 0.017645
O O4 0.950874 0.478640 0.544218
O O5 0.849982 0.580686 0.446449
O O6 0.075893 0.774367 0.784478
O O7 0.205968 0.842701 0.511309
O O8 0.104966 0.899417 0.894005
O O9 0.949522 0.859164 0.476264
O O10 0.707430 0.755409 0.718239
O O11 0.453287 0.811773 0.463875
O O12 0.690180 0.845659 0.375849
O O13 0.832810 0.230941 0.674287
O O14 0.696269 0.491643 0.241777
#
# Coordination Sequence:
#
# PCOD9138218 Si02
#       7
#     4   4   4   4   4   4   4
#     4  10  23  41  66 102 139 184 232 285 351 424
#     4   8  16  36  56  84 130 168 218 272 322 394
#     4  11  25  43  69 102 139 182 235 292 351 427
#     4  11  24  45  71  99 136 180 234 294 356 411
#     4  11  24  45  71  99 136 180 234 294 356 411
#     4  10  23  41  66 102 139 184 232 285 351 424
#     4  11  25  43  69 102 139 182 235 292 351 427
#
# _framework density 26.050885999999998
#
# number of rings (size 3 to 8) (size 9 to 14) (size 15 to 20)
#    0.000    1.714    2.857    0.000    4.000    3.429 
#   10.286    0.000    0.000    0.000    0.000    0.000 
#    0.000    0.000    0.000    0.000    0.000    0.000 
#
# Total GULP energy -78212.192792 kJ/mol
# GULP energy per Si atom -5586.585199 kJ/mol
# Density = 2.599159 g / cm^3
# Si number density = 26.050886 Si / 1000 Ang^3
#
#
#
# Elastic Constant Matrix: (Units=GPa)
#
#
# Indices 1 2 3 4 5 6 
#
# 1 175.9681 26.7928 34.4396 0.0000 7.1857 0.0000
# 2 26.7928 60.1103 17.3417 0.0000 8.7383 0.0000
# 3 34.4396 17.3417 116.2336 0.0000 22.2201 0.0000
# 4 0.0000 0.0000 0.0000 42.4621 0.0000 12.9258
# 5 7.1857 8.7383 22.2201 0.0000 27.4407 0.0000
# 6 0.0000 0.0000 0.0000 12.9258 0.0000 13.6999
#
#
#
# Elastic Compliance Matrix: (Units=1/GPa)
#
#
# Indices 1 2 3 4 5 6 
#
# 1 0.006348 -0.002428 -0.001596 0.000000 0.000403 0.000000
# 2 -0.002428 0.018705 -0.001247 0.000000 -0.004311 0.000000
# 3 -0.001596 -0.001247 0.010774 0.000000 -0.007909 0.000000
# 4 0.000000 0.000000 0.000000 0.033040 0.000000 -0.031173
# 5 0.000403 -0.004311 -0.007909 0.000000 0.044114 0.000000
# 6 0.000000 0.000000 0.000000 -0.031173 0.000000 0.102405
#
#
# Mechanical properties :
#
#
# Convention : Reuss Voigt Hill
#
# Bulk Modulus (GPa) = 39.54827 56.60672 48.07749
# Shear Modulus (GPa) = 21.33504 34.96972 28.15238
#
# Velocity S-wave (km/s) = 2.86488 3.66780 3.29092
# Velocity P-wave (km/s) = 5.11444 6.30186 5.73894
#
# Compressibility (1/GPa) = 0.02528556
#
# Stress axis : x y z
#
# Youngs Moduli (GPa) = 157.52049 53.46250 92.81336
#
# Poissons Ratio (x) = 0.12980 0.14811
# Poissons Ratio (y) = 0.38243 0.11576
# Poissons Ratio (z) = 0.25137 0.06668
#
# Static dielectric constant tensor:
#      x y z
#    x 2.250170 0.000000 -0.048660 
#    y 0.000000 1.976510 0.000000 
#    z -0.048660 0.000000 2.085570 
# 
# From -- ./inp_files/1811.got.cif
#   From: 2010.05.17/outbox.cif.g08.bks.cpg/sg9_1_cif.got.tgz:1811.got - 2010.06.03 20:04:27.
