data_PCOD9138097
_publ_section_title
;
Structure prediction by ZEFSAII (Michael W. Deem and Ramdas Pophale) SiO2 
 PCOD9138097
Probable space group: C C
;
_chemical_formula_sum "Si O2"
_cell_formula_units_Z 28
_cell_length_a 19.259932
_cell_length_b 5.323088
_cell_length_c 12.365273
_cell_angle_alpha 90.000000
_cell_angle_beta 61.488234
_cell_angle_gamma 90.000000
_cell_volume 1113.966612
_symmetry_space_group_name_H-M "C C"
_symmetry_group_IT_number 9
_symmetry_cell_setting 'monoclinic'
loop_
_space_group_symop_operation_xyz
x,y,z
x,-y,1/2+z
1/2+x,1/2+y,z
1/2+x,1/2-y,1/2+z
loop_
_atom_site_type_symbol
_atom_site_label
_atom_site_fract_x
_atom_site_fract_y
_atom_site_fract_z
Si Si1 0.015820 0.911701 0.336240
Si Si2 0.110382 0.294516 0.399707
Si Si3 0.001378 0.352900 0.076546
Si Si4 0.128696 0.985981 0.086997
Si Si5 0.876687 0.781412 0.838559
Si Si6 0.263433 0.552182 0.246698
Si Si7 0.288556 0.055993 0.093711
O O1 0.072511 0.141915 0.331237
O O2 0.075132 0.799064 0.201962
O O3 0.936099 0.010281 0.341500
O O4 0.994817 0.771162 0.462416
O O5 0.033883 0.377138 0.523300
O O6 0.168604 0.518136 0.324053
O O7 0.158344 0.133192 0.451722
O O8 0.068500 0.200578 0.091665
O O9 0.924693 0.351892 0.206659
O O10 0.204843 0.075759 0.094561
O O11 0.801024 0.902677 0.836416
O O12 0.853652 0.597232 0.952843
O O13 0.294011 0.292230 0.171225
O O14 0.286285 0.788988 0.155187
#
# Coordination Sequence:
#
# PCOD9138097 Si02
#       7
#     4   4   4   4   4   4   4
#     4  10  22  48  74 109 149 198 260 323 391 458
#     4  11  24  44  78 108 146 199 265 323 382 467
#     4  10  23  45  72 109 146 197 255 322 380 471
#     4  10  23  43  74 109 146 197 261 318 390 452
#     4  11  27  47  73 108 159 204 253 322 393 467
#     4  12  29  50  77 113 156 200 264 313 387 465
#     4  12  28  49  76 112 154 207 250 317 389 462
#
# _framework density 25.135404999999999
#
# number of rings (size 3 to 8) (size 9 to 14) (size 15 to 20)
#    0.000    1.143    1.429    2.571   10.000    2.286 
#   10.286    0.000    0.000    0.000    0.000    0.000 
#    0.000    0.000    0.000    0.000    0.000    0.000 
#
# Total GULP energy -78377.981212 kJ/mol
# GULP energy per Si atom -5598.427229 kJ/mol
# Density = 2.507820 g / cm^3
# Si number density = 25.135405 Si / 1000 Ang^3
#
#
#
# Elastic Constant Matrix: (Units=GPa)
#
#
# Indices 1 2 3 4 5 6 
#
# 1 115.9957 22.4085 20.8164 0.0000 23.9570 -0.0002
# 2 22.4085 86.7372 29.4209 -0.0005 13.1970 -0.0007
# 3 20.8164 29.4209 131.7842 -0.0001 0.7516 -0.0001
# 4 0.0000 -0.0005 -0.0001 11.9899 0.0000 7.5467
# 5 23.9570 13.1970 0.7516 0.0000 45.3768 0.0000
# 6 -0.0002 -0.0007 -0.0001 7.5467 0.0000 20.5544
#
#
#
# Elastic Compliance Matrix: (Units=1/GPa)
#
#
# Indices 1 2 3 4 5 6 
#
# 1 0.010140 -0.001448 -0.001250 0.000000 -0.004911 0.000000
# 2 -0.001448 0.013291 -0.002721 0.000000 -0.003056 0.000000
# 3 -0.001250 -0.002721 0.008386 0.000000 0.001313 0.000000
# 4 0.000000 0.000000 0.000000 0.108471 0.000000 -0.039826
# 5 -0.004911 -0.003056 0.001313 0.000000 0.025498 0.000000
# 6 0.000000 0.000000 0.000000 -0.039826 0.000000 0.063274
#
#
# Mechanical properties :
#
#
# Convention : Reuss Voigt Hill
#
# Bulk Modulus (GPa) = 47.67082 53.31208 50.49145
# Shear Modulus (GPa) = 20.25193 33.04232 26.64712
#
# Velocity S-wave (km/s) = 2.84159 3.62964 3.25952
# Velocity P-wave (km/s) = 5.45646 6.23071 5.85639
#
# Compressibility (1/GPa) = 0.02097719
#
# Stress axis : x y z
#
# Youngs Moduli (GPa) = 98.62410 75.23814 119.25132
#
# Poissons Ratio (x) = 0.10896 0.14910
# Poissons Ratio (y) = 0.14283 0.32449
# Poissons Ratio (z) = 0.12331 0.20473
#
# Static dielectric constant tensor:
#      x y z
#    x 1.945310 0.000000 0.022520 
#    y 0.000000 2.028800 0.000000 
#    z 0.022520 0.000000 2.087210 
# 
# From -- ./inp_files/19654.got.cif
#   From: 2010.05.17/outbox.cif.g08.bks.cpg/sg9_10_cif.got.tgz:19654.got - 2010.06.03 20:04:27.
