data_PCOD9138636
_publ_section_title
;
Structure prediction by ZEFSAII (Michael W. Deem and Ramdas Pophale) SiO2 
 PCOD9138636
Probable space group: C C
;
_chemical_formula_sum "Si O2"
_cell_formula_units_Z 32
_cell_length_a 5.259317
_cell_length_b 22.786985
_cell_length_c 12.600171
_cell_angle_alpha 90.000000
_cell_angle_beta 60.123531
_cell_angle_gamma 90.000000
_cell_volume 1309.370469
_symmetry_space_group_name_H-M "C C"
_symmetry_group_IT_number 9
_symmetry_cell_setting 'monoclinic'
loop_
_space_group_symop_operation_xyz
x,y,z
x,-y,1/2+z
1/2+x,1/2+y,z
1/2+x,1/2-y,1/2+z
loop_
_atom_site_type_symbol
_atom_site_label
_atom_site_fract_x
_atom_site_fract_y
_atom_site_fract_z
Si Si1 0.928040 0.206418 0.771250
Si Si2 0.030132 0.398335 0.956544
Si Si3 0.532829 0.439962 0.749639
Si Si4 0.720528 0.882439 0.479222
Si Si5 0.578644 0.156985 0.658948
Si Si6 0.765469 0.509545 0.040561
Si Si7 0.940033 0.343443 0.743557
Si Si8 0.298436 0.955298 0.299760
O O1 0.836907 0.186482 0.671492
O O2 0.264730 0.190531 0.731480
O O3 0.890087 0.275920 0.779332
O O4 0.711082 0.170965 0.895835
O O5 0.289668 0.445933 0.889786
O O6 0.994878 0.374178 0.845562
O O7 0.123512 0.351289 0.024120
O O8 0.770318 0.438408 0.055211
O O9 0.458118 0.460992 0.646106
O O10 0.758276 0.493728 0.721605
O O11 0.664633 0.376422 0.745833
O O12 0.476101 0.933399 0.523100
O O13 0.691783 0.853343 0.602037
O O14 0.014115 0.915551 0.382431
O O15 0.539665 0.091646 0.715869
O O16 0.824303 0.509917 0.902485
#
# Coordination Sequence:
#
# PCOD9138636 Si02
#       8
#     4   4   4   4   4   4   4   4
#     4  11  27  51  74 102 144 197 247 296 359 435
#     4  12  25  42  71 107 147 183 243 308 363 441
#     4  11  24  40  66 103 142 185 239 302 372 431
#     4  10  23  45  70  95 142 186 240 297 364 431
#     4  11  27  47  76 104 143 193 242 297 362 433
#     4  11  21  40  65 101 141 182 233 299 365 437
#     4  11  27  45  69 106 137 191 249 299 360 428
#     4  11  20  42  67 100 138 187 237 292 373 434
#
# _framework density 24.439226000000001
#
# number of rings (size 3 to 8) (size 9 to 14) (size 15 to 20)
#    0.000    1.000    5.000    0.750    5.250    0.000 
#    2.250    0.000    0.000    0.000    0.000    0.000 
#    0.000    0.000    0.000    0.000    0.000    0.000 
#
# Total GULP energy -89207.262510 kJ/mol
# GULP energy per Si atom -5575.453907 kJ/mol
# Density = 2.438360 g / cm^3
# Si number density = 24.439226 Si / 1000 Ang^3
#
#
#
# Elastic Constant Matrix: (Units=GPa)
#
#
# Indices 1 2 3 4 5 6 
#
# 1 38.3188 20.1744 -13.6437 0.0000 1.9109 0.0000
# 2 20.1744 160.0236 33.6010 0.0000 7.5990 0.0000
# 3 -13.6437 33.6010 94.3692 0.0000 4.6984 0.0000
# 4 0.0000 0.0000 0.0000 195.7522 0.0000 167.3004
# 5 1.9109 7.5990 4.6984 0.0000 29.0126 0.0000
# 6 0.0000 0.0000 0.0000 167.3004 0.0000 182.9700
#
#
#
# Elastic Compliance Matrix: (Units=1/GPa)
#
#
# Indices 1 2 3 4 5 6 
#
# 1 0.031225 -0.005210 0.006456 0.000000 -0.001738 0.000000
# 2 -0.005210 0.007679 -0.003432 0.000000 -0.001112 0.000000
# 3 0.006456 -0.003432 0.012832 0.000000 -0.001604 0.000000
# 4 0.000000 0.000000 0.000000 0.023376 0.000000 -0.021374
# 5 -0.001738 -0.001112 -0.001604 0.000000 0.035133 0.000000
# 6 0.000000 0.000000 0.000000 -0.021374 0.000000 0.025009
#
#
# Mechanical properties :
#
#
# Convention : Reuss Voigt Hill
#
# Bulk Modulus (GPa) = 21.11281 41.44167 31.27724
# Shear Modulus (GPa) = 32.17212 98.38563 65.27888
#
# Velocity S-wave (km/s) = 3.63218 6.35174 5.17385
# Velocity P-wave (km/s) = 5.12327 8.41348 6.96544
#
# Compressibility (1/GPa) = 0.04736461
#
# Stress axis : x y z
#
# Youngs Moduli (GPa) = 32.02558 130.21931 77.93039
#
# Poissons Ratio (x) = 0.67840 -0.50311
# Poissons Ratio (y) = 0.16684 0.26747
# Poissons Ratio (z) = -0.20675 0.44693
#
# Static dielectric constant tensor:
#      x y z
#    x 2.112480 0.000000 0.010800 
#    y 0.000000 1.786630 0.000000 
#    z 0.010800 0.000000 2.094570 
# 
# From -- ./inp_files/13359.got.cif
#   From: 2010.05.17/outbox.cif.g08.bks.cpg/sg9_7_cif.got.tgz:13359.got - 2010.06.03 20:04:27.
