data_PCOD9138217
_publ_section_title
;
Structure prediction by ZEFSAII (Michael W. Deem and Ramdas Pophale) SiO2 
 PCOD9138217
Probable space group: C C
;
_chemical_formula_sum "Si O2"
_cell_formula_units_Z 32
_cell_length_a 17.275034
_cell_length_b 15.214424
_cell_length_c 13.351978
_cell_angle_alpha 90.000000
_cell_angle_beta 19.464083
_cell_angle_gamma 90.000000
_cell_volume 1169.353243
_symmetry_space_group_name_H-M "C C"
_symmetry_group_IT_number 9
_symmetry_cell_setting 'monoclinic'
loop_
_space_group_symop_operation_xyz
x,y,z
x,-y,1/2+z
1/2+x,1/2+y,z
1/2+x,1/2-y,1/2+z
loop_
_atom_site_type_symbol
_atom_site_label
_atom_site_fract_x
_atom_site_fract_y
_atom_site_fract_z
Si Si1 0.489100 0.453189 0.808880
Si Si2 0.855349 0.848725 0.695496
Si Si3 0.541878 0.872649 0.566373
Si Si4 0.055034 0.851005 0.250934
Si Si5 0.757661 0.785685 0.029823
Si Si6 0.938776 0.441129 0.117450
Si Si7 0.507180 0.314561 0.094984
Si Si8 0.656187 0.481784 0.821527
O O1 0.423049 0.555968 0.894460
O O2 0.280751 0.386105 0.041237
O O3 0.697660 0.437673 0.474987
O O4 0.611617 0.441009 0.767547
O O5 0.003240 0.812377 0.421763
O O6 0.858162 0.795798 0.794310
O O7 0.952853 0.948079 0.593060
O O8 0.602560 0.865488 0.956884
O O9 0.557674 0.966303 0.497058
O O10 0.532397 0.780712 0.513877
O O11 0.774277 0.858127 0.343304
O O12 0.320951 0.876747 0.908559
O O13 0.997700 0.794571 0.223900
O O14 0.979384 0.743227 0.834350
O O15 0.869564 0.453405 0.086051
O O16 0.678121 0.395540 0.865002
#
# Coordination Sequence:
#
# PCOD9138217 Si02
#       8
#     4   4   4   4   4   4   4   4
#     4  10  23  47  68  99 138 180 249 299 360 448
#     4  11  24  43  72 101 133 188 248 292 368 435
#     4  11  22  37  65  96 141 179 219 295 365 431
#     4  10  23  41  66 102 135 180 236 291 360 435
#     4  12  27  52  73 102 146 197 245 316 374 442
#     4  11  21  44  70 102 138 185 237 308 357 433
#     4  12  20  41  63  99 146 174 224 288 371 437
#     4  11  22  43  71 103 137 185 240 293 367 433
#
# _framework density 27.365553999999999
#
# number of rings (size 3 to 8) (size 9 to 14) (size 15 to 20)
#    0.000    1.000    6.250    0.750    0.000    4.000 
#   11.250    0.000    0.000    0.000    0.000    0.000 
#    0.000    0.000    0.000    0.000    0.000    0.000 
#
# Total GULP energy -89214.186321 kJ/mol
# GULP energy per Si atom -5575.886645 kJ/mol
# Density = 2.730327 g / cm^3
# Si number density = 27.365554 Si / 1000 Ang^3
#
#
#
# Elastic Constant Matrix: (Units=GPa)
#
#
# Indices 1 2 3 4 5 6 
#
# 1 123.7794 17.0533 27.4303 0.0060 -18.4341 -0.0031
# 2 17.0533 114.6363 25.8032 0.0134 -16.1887 -0.0035
# 3 27.4303 25.8032 95.5581 -0.0103 -22.1859 0.0035
# 4 0.0060 0.0134 -0.0103 42.0348 0.0033 -9.8747
# 5 -18.4341 -16.1887 -22.1859 0.0033 45.3206 -0.0024
# 6 -0.0031 -0.0035 0.0035 -9.8747 -0.0024 39.0458
#
#
#
# Elastic Compliance Matrix: (Units=1/GPa)
#
#
# Indices 1 2 3 4 5 6 
#
# 1 0.008939 -0.000560 -0.001824 -0.000002 0.002543 0.000001
# 2 -0.000560 0.009552 -0.001894 -0.000004 0.002257 0.000000
# 3 -0.001824 -0.001894 0.012603 0.000004 0.004751 0.000000
# 4 -0.000002 -0.000004 0.000004 0.025292 -0.000002 0.006397
# 5 0.002543 0.002257 0.004751 -0.000002 0.026231 0.000001
# 6 0.000001 0.000000 0.000000 0.006397 0.000001 0.027229
#
#
# Mechanical properties :
#
#
# Convention : Reuss Voigt Hill
#
# Bulk Modulus (GPa) = 44.37357 52.72749 48.55053
# Shear Modulus (GPa) = 39.70907 42.85937 41.28422
#
# Velocity S-wave (km/s) = 3.81341 3.96179 3.88831
# Velocity P-wave (km/s) = 5.96991 6.34329 6.15943
#
# Compressibility (1/GPa) = 0.02253594
#
# Stress axis : x y z
#
# Youngs Moduli (GPa) = 111.86894 104.69377 79.34558
#
# Poissons Ratio (x) = 0.05863 0.14476
# Poissons Ratio (y) = 0.06265 0.15032
# Poissons Ratio (z) = 0.20409 0.19834
#
# Static dielectric constant tensor:
#      x y z
#    x 2.254280 -0.000020 -0.033660 
#    y -0.000020 2.164270 0.000020 
#    z -0.033660 0.000020 2.284450 
# 
# From -- ./inp_files/26932.got.cif
#   From: 2010.05.17/outbox.cif.g08.bks.cpg/sg9_14_cif.got.tgz:26932.got - 2010.06.03 20:04:27.
