data_PCOD9138157
_publ_section_title
;
Structure prediction by ZEFSAII (Michael W. Deem and Ramdas Pophale) SiO2 
 PCOD9138157
Probable space group: C C
;
_chemical_formula_sum "Si O2"
_cell_formula_units_Z 32
_cell_length_a 14.111562
_cell_length_b 12.220551
_cell_length_c 9.350507
_cell_angle_alpha 90.000000
_cell_angle_beta 105.858057
_cell_angle_gamma 90.000000
_cell_volume 1551.135520
_symmetry_space_group_name_H-M "C C"
_symmetry_group_IT_number 9
_symmetry_cell_setting 'monoclinic'
loop_
_space_group_symop_operation_xyz
x,y,z
x,-y,1/2+z
1/2+x,1/2+y,z
1/2+x,1/2-y,1/2+z
loop_
_atom_site_type_symbol
_atom_site_label
_atom_site_fract_x
_atom_site_fract_y
_atom_site_fract_z
Si Si1 0.976760 0.613685 0.545970
Si Si2 0.662187 0.750568 0.057450
Si Si3 0.343053 0.152697 0.226329
Si Si4 0.222822 0.260429 0.763769
Si Si5 0.586734 0.434874 0.737152
Si Si6 0.521374 0.142141 0.096401
Si Si7 0.200313 0.948510 0.076316
Si Si8 0.941900 0.224095 0.299687
O O1 0.886651 0.628178 0.399221
O O2 0.950961 0.688334 0.672582
O O3 0.082268 0.653910 0.526215
O O4 0.993320 0.485301 0.574995
O O5 0.766879 0.753598 0.182265
O O6 0.609019 0.658479 0.129177
O O7 0.690589 0.718554 0.907617
O O8 0.439555 0.181874 0.175289
O O9 0.281455 0.044412 0.143912
O O10 0.134741 0.341390 0.685635
O O11 0.235053 0.167131 0.648998
O O12 0.333988 0.302426 0.815439
O O13 0.603876 0.536567 0.640497
O O14 0.489140 0.390758 0.770161
O O15 0.665776 0.445711 0.898475
O O16 0.503158 0.213346 0.947397
#
# Coordination Sequence:
#
# PCOD9138157 Si02
#       8
#     4   4   4   4   4   4   4   4
#     4  11  24  42  65  96 132 174 216 276 329 393
#     4  10  23  40  63  94 133 167 223 271 332 386
#     4  11  23  39  68  97 125 170 220 272 328 389
#     4  12  23  41  66  95 131 177 215 274 332 393
#     4  10  23  42  63  97 131 170 217 277 324 390
#     4  12  23  41  64  98 131 170 221 273 328 394
#     4  11  22  39  67  97 129 164 224 273 324 385
#     4  11  25  42  64  96 136 172 220 268 337 394
#
# _framework density 20.630047999999999
#
# number of rings (size 3 to 8) (size 9 to 14) (size 15 to 20)
#    0.000    1.000    3.750    3.750    7.000    0.000 
#    0.000    2.500    0.000    0.000    0.000    0.000 
#    0.000    0.000    0.000    0.000    0.000    0.000 
#
# Total GULP energy -89124.474456 kJ/mol
# GULP energy per Si atom -5570.279653 kJ/mol
# Density = 2.058309 g / cm^3
# Si number density = 20.630048 Si / 1000 Ang^3
#
#
#
# Elastic Constant Matrix: (Units=GPa)
#
#
# Indices 1 2 3 4 5 6 
#
# 1 115.1138 25.2000 23.8506 0.0000 7.8988 0.0000
# 2 25.2000 21.8579 6.2991 0.0000 12.1970 0.0000
# 3 23.8506 6.2991 100.6383 0.0000 9.9446 0.0000
# 4 0.0000 0.0000 0.0000 16.5228 0.0000 4.9254
# 5 7.8988 12.1970 9.9446 0.0000 33.5500 0.0000
# 6 0.0000 0.0000 0.0000 4.9254 0.0000 25.7930
#
#
#
# Elastic Compliance Matrix: (Units=1/GPa)
#
#
# Indices 1 2 3 4 5 6 
#
# 1 0.012303 -0.015414 -0.002285 0.000000 0.003385 0.000000
# 2 -0.015414 0.076949 0.001280 0.000000 -0.024725 0.000000
# 3 -0.002285 0.001280 0.010704 0.000000 -0.003100 0.000000
# 4 0.000000 0.000000 0.000000 0.064176 0.000000 -0.012255
# 5 0.003385 -0.024725 -0.003100 0.000000 0.038917 0.000000
# 6 0.000000 0.000000 0.000000 -0.012255 0.000000 0.041110
#
#
# Mechanical properties :
#
#
# Convention : Reuss Voigt Hill
#
# Bulk Modulus (GPa) = 14.89932 38.70103 26.80017
# Shear Modulus (GPa) = 16.70179 27.32387 22.01283
#
# Velocity S-wave (km/s) = 2.84841 3.64327 3.27008
# Velocity P-wave (km/s) = 4.24920 6.04137 5.22274
#
# Compressibility (1/GPa) = 0.06711718
#
# Stress axis : x y z
#
# Youngs Moduli (GPa) = 81.28372 12.99570 93.41941
#
# Poissons Ratio (x) = 0.20031 0.21349
# Poissons Ratio (y) = 1.25288 -0.11956
# Poissons Ratio (z) = 0.18576 -0.01663
#
# Static dielectric constant tensor:
#      x y z
#    x 1.825540 0.000000 0.003620 
#    y 0.000000 1.800260 0.000000 
#    z 0.003620 0.000000 1.762800 
# 
# From -- ./inp_files/7665.got.cif
#   From: 2010.05.17/outbox.cif.g08.bks.cpg/sg9_4_cif.got.tgz:7665.got - 2010.06.03 20:04:27.
