data_PCOD9138052
_publ_section_title
;
Structure prediction by ZEFSAII (Michael W. Deem and Ramdas Pophale) SiO2 
 PCOD9138052
Probable space group: C C
;
_chemical_formula_sum "Si O2"
_cell_formula_units_Z 32
_cell_length_a 14.363502
_cell_length_b 11.388481
_cell_length_c 8.958482
_cell_angle_alpha 90.000000
_cell_angle_beta 109.959756
_cell_angle_gamma 90.000000
_cell_volume 1377.391150
_symmetry_space_group_name_H-M "C C"
_symmetry_group_IT_number 9
_symmetry_cell_setting 'monoclinic'
loop_
_space_group_symop_operation_xyz
x,y,z
x,-y,1/2+z
1/2+x,1/2+y,z
1/2+x,1/2-y,1/2+z
loop_
_atom_site_type_symbol
_atom_site_label
_atom_site_fract_x
_atom_site_fract_y
_atom_site_fract_z
Si Si1 0.756860 0.667697 0.430820
Si Si2 0.114269 0.280204 0.141447
Si Si3 0.006863 0.558042 0.825764
Si Si4 0.385847 0.498419 0.647228
Si Si5 0.869766 0.423784 0.530040
Si Si6 0.753330 0.182241 0.471677
Si Si7 0.189222 0.357309 0.617893
Si Si8 0.441275 0.665811 0.942330
O O1 0.672019 0.678076 0.259985
O O2 0.802347 0.541010 0.486726
O O3 0.706456 0.732484 0.544630
O O4 0.847742 0.749865 0.421895
O O5 0.046725 0.355951 0.216655
O O6 0.199879 0.346470 0.098729
O O7 0.040156 0.237893 0.974258
O O8 0.953602 0.452021 0.703161
O O9 0.102990 0.568218 0.988558
O O10 0.922045 0.594225 0.897493
O O11 0.342890 0.590927 0.504200
O O12 0.292310 0.422447 0.646009
O O13 0.426479 0.576677 0.801054
O O14 0.456754 0.408764 0.602242
O O15 0.801192 0.310618 0.515824
O O16 0.682497 0.163560 0.290893
#
# Coordination Sequence:
#
# PCOD9138052 Si02
#       8
#     4   4   4   4   4   4   4   4
#     4  10  22  47  71 102 149 187 231 304 369 423
#     4  11  25  45  72 106 143 189 238 295 366 433
#     4  11  27  43  74 109 142 187 247 300 354 435
#     4  11  24  43  70  98 140 189 233 295 354 424
#     4  12  26  46  75 108 149 191 240 306 378 434
#     4  12  26  45  70 109 144 189 241 299 369 435
#     4  10  25  45  72 104 144 188 247 301 356 425
#     4  11  23  44  72 100 139 184 239 290 354 425
#
# _framework density 23.232327999999999
#
# number of rings (size 3 to 8) (size 9 to 14) (size 15 to 20)
#    0.000    1.000    3.750    1.500    5.250    2.000 
#    0.000    3.750    0.000    0.000    0.000    0.000 
#    0.000    0.000    0.000    0.000    0.000    0.000 
#
# Total GULP energy -89334.646082 kJ/mol
# GULP energy per Si atom -5583.415380 kJ/mol
# Density = 2.317945 g / cm^3
# Si number density = 23.232328 Si / 1000 Ang^3
#
#
#
# Elastic Constant Matrix: (Units=GPa)
#
#
# Indices 1 2 3 4 5 6 
#
# 1 50.6143 30.4322 36.1542 0.0000 10.9301 0.0000
# 2 30.4322 97.8770 34.3629 0.0000 2.9839 0.0000
# 3 36.1542 34.3629 118.2185 0.0000 10.9863 0.0000
# 4 0.0000 0.0000 0.0000 20.1916 0.0000 -5.2865
# 5 10.9301 2.9839 10.9863 0.0000 38.3174 0.0000
# 6 0.0000 0.0000 0.0000 -5.2865 0.0000 15.5872
#
#
#
# Elastic Compliance Matrix: (Units=1/GPa)
#
#
# Indices 1 2 3 4 5 6 
#
# 1 0.029864 -0.006784 -0.006594 0.000000 -0.006100 0.000000
# 2 -0.006784 0.012919 -0.001815 0.000000 0.001450 0.000000
# 3 -0.006594 -0.001815 0.011111 0.000000 -0.001163 0.000000
# 4 0.000000 0.000000 0.000000 0.054352 0.000000 0.018434
# 5 -0.006100 0.001450 -0.001163 0.000000 0.028058 0.000000
# 6 0.000000 0.000000 0.000000 0.018434 0.000000 0.070407
#
#
# Mechanical properties :
#
#
# Convention : Reuss Voigt Hill
#
# Bulk Modulus (GPa) = 42.54031 52.06762 47.30397
# Shear Modulus (GPa) = 20.41351 25.86992 23.14172
#
# Velocity S-wave (km/s) = 2.96745 3.34058 3.15953
# Velocity P-wave (km/s) = 5.48558 6.11062 5.80652
#
# Compressibility (1/GPa) = 0.02350712
#
# Stress axis : x y z
#
# Youngs Moduli (GPa) = 33.48515 77.40294 89.99793
#
# Poissons Ratio (x) = 0.52513 0.59347
# Poissons Ratio (y) = 0.22717 0.16337
# Poissons Ratio (z) = 0.22081 0.14050
#
# Static dielectric constant tensor:
#      x y z
#    x 1.828120 0.000000 -0.006360 
#    y 0.000000 1.858500 0.000000 
#    z -0.006360 0.000000 1.911880 
# 
# From -- ./inp_files/9177.got.cif
#   From: 2010.05.17/outbox.cif.g08.bks.cpg/sg9_5_cif.got.tgz:9177.got - 2010.06.03 20:04:27.
