data_PCOD9138335
_publ_section_title
;
Structure prediction by ZEFSAII (Michael W. Deem and Ramdas Pophale) SiO2 
 PCOD9138335
Probable space group: C C
;
_chemical_formula_sum "Si O2"
_cell_formula_units_Z 32
_cell_length_a 27.388545
_cell_length_b 12.001018
_cell_length_c 15.149499
_cell_angle_alpha 90.000000
_cell_angle_beta 163.065747
_cell_angle_gamma 90.000000
_cell_volume 1450.398241
_symmetry_space_group_name_H-M "C C"
_symmetry_group_IT_number 9
_symmetry_cell_setting 'monoclinic'
loop_
_space_group_symop_operation_xyz
x,y,z
x,-y,1/2+z
1/2+x,1/2+y,z
1/2+x,1/2-y,1/2+z
loop_
_atom_site_type_symbol
_atom_site_label
_atom_site_fract_x
_atom_site_fract_y
_atom_site_fract_z
Si Si1 0.252180 0.941338 0.062650
Si Si2 0.541913 0.205027 0.064044
Si Si3 0.676739 0.870455 0.975671
Si Si4 0.445772 0.439014 0.963650
Si Si5 0.676306 0.864356 0.173091
Si Si6 0.539410 0.254964 0.781380
Si Si7 0.251370 0.621118 0.288516
Si Si8 0.436815 0.831307 0.920699
O O1 0.395738 0.866981 0.265875
O O2 0.337514 0.052452 0.247706
O O3 0.158048 0.862126 0.970099
O O4 0.106820 0.981938 0.745530
O O5 0.555602 0.146926 0.183868
O O6 0.482739 0.331648 0.969123
O O7 0.719133 0.191969 0.320965
O O8 0.602709 0.858521 0.946128
O O9 0.806206 0.769152 0.189480
O O10 0.786305 0.984282 0.164217
O O11 0.415424 0.390875 0.010950
O O12 0.852422 0.798435 0.477394
O O13 0.713656 0.994931 0.251258
O O14 0.556546 0.826451 0.043491
O O15 0.533997 0.188312 0.679883
O O16 0.619295 0.177025 0.992985
#
# Coordination Sequence:
#
# PCOD9138335 Si02
#       8
#     4   4   4   4   4   4   4   4
#     4  12  23  43  70 101 136 174 225 286 330 397
#     4  12  26  42  70 102 135 178 230 275 337 402
#     4  10  24  46  66  98 138 183 215 282 341 392
#     4  11  24  48  67  96 145 173 225 287 329 403
#     4  10  23  42  70  95 138 177 227 274 337 407
#     4  11  25  44  68 101 138 182 220 281 344 396
#     4  11  24  42  69  99 133 181 228 273 334 404
#     4  11  23  43  72 100 135 180 224 280 340 401
#
# _framework density 22.062906000000002
#
# number of rings (size 3 to 8) (size 9 to 14) (size 15 to 20)
#    0.000    1.000    7.500    0.000    5.250    2.000 
#    0.000    1.250    0.000    0.000    0.000    0.000 
#    0.000    0.000    0.000    0.000    0.000    0.000 
#
# Total GULP energy -89414.145067 kJ/mol
# GULP energy per Si atom -5588.384067 kJ/mol
# Density = 2.201269 g / cm^3
# Si number density = 22.062906 Si / 1000 Ang^3
#
#
#
# Elastic Constant Matrix: (Units=GPa)
#
#
# Indices 1 2 3 4 5 6 
#
# 1 88.9735 24.6996 21.5217 0.0000 6.1628 0.0000
# 2 24.6996 123.4240 28.7887 0.0000 5.8603 0.0000
# 3 21.5217 28.7887 69.6116 0.0000 -1.3131 0.0000
# 4 0.0000 0.0000 0.0000 39.8389 0.0000 12.7691
# 5 6.1628 5.8603 -1.3131 0.0000 26.0050 0.0000
# 6 0.0000 0.0000 0.0000 12.7691 0.0000 29.9159
#
#
#
# Elastic Compliance Matrix: (Units=1/GPa)
#
#
# Indices 1 2 3 4 5 6 
#
# 1 0.012686 -0.001636 -0.003298 0.000000 -0.002804 0.000000
# 2 -0.001636 0.009307 -0.003379 0.000000 -0.001880 0.000000
# 3 -0.003298 -0.003379 0.016828 0.000000 0.002393 0.000000
# 4 0.000000 0.000000 0.000000 0.029079 0.000000 -0.012412
# 5 -0.002804 -0.001880 0.002393 0.000000 0.039663 0.000000
# 6 0.000000 0.000000 0.000000 -0.012412 0.000000 0.038725
#
#
# Mechanical properties :
#
#
# Convention : Reuss Voigt Hill
#
# Bulk Modulus (GPa) = 45.05717 48.00321 46.53019
# Shear Modulus (GPa) = 29.35799 32.95191 31.15495
#
# Velocity S-wave (km/s) = 3.65176 3.86883 3.76186
# Velocity P-wave (km/s) = 6.18441 6.46234 6.32490
#
# Compressibility (1/GPa) = 0.02219403
#
# Stress axis : x y z
#
# Youngs Moduli (GPa) = 78.82991 107.44699 59.42646
#
# Poissons Ratio (x) = 0.17580 0.19600
# Poissons Ratio (y) = 0.12898 0.20078
# Poissons Ratio (z) = 0.26000 0.36302
#
# Static dielectric constant tensor:
#      x y z
#    x 1.835860 0.000000 -0.022880 
#    y 0.000000 1.787810 0.000000 
#    z -0.022880 0.000000 1.855380 
# 
# From -- ./inp_files/22954.got.cif
#   From: 2010.05.17/outbox.cif.g08.bks.cpg/sg9_12_cif.got.tgz:22954.got - 2010.06.03 20:04:27.
