data_PCOD9138465
_publ_section_title
;
Structure prediction by ZEFSAII (Michael W. Deem and Ramdas Pophale) SiO2 
 PCOD9138465
Probable space group: C C
;
_chemical_formula_sum "Si O2"
_cell_formula_units_Z 32
_cell_length_a 11.243091
_cell_length_b 9.711217
_cell_length_c 12.914769
_cell_angle_alpha 90.000000
_cell_angle_beta 67.425243
_cell_angle_gamma 90.000000
_cell_volume 1302.045696
_symmetry_space_group_name_H-M "C C"
_symmetry_group_IT_number 9
_symmetry_cell_setting 'monoclinic'
loop_
_space_group_symop_operation_xyz
x,y,z
x,-y,1/2+z
1/2+x,1/2+y,z
1/2+x,1/2-y,1/2+z
loop_
_atom_site_type_symbol
_atom_site_label
_atom_site_fract_x
_atom_site_fract_y
_atom_site_fract_z
Si Si1 0.522860 0.009834 0.415360
Si Si2 0.840949 0.710339 0.588789
Si Si3 0.128499 0.589645 0.095189
Si Si4 0.642648 0.292531 0.334174
Si Si5 0.952050 0.170515 0.737769
Si Si6 0.010889 0.123277 0.185531
Si Si7 0.858712 0.733594 0.908548
Si Si8 0.238269 0.313812 0.156399
O O1 0.398090 0.091248 0.500361
O O2 0.617162 0.127842 0.341332
O O3 0.590904 0.948728 0.492667
O O4 0.463945 0.887460 0.367819
O O5 0.754849 0.817113 0.555617
O O6 0.745734 0.662623 0.712633
O O7 0.957886 0.788117 0.607113
O O8 0.162451 0.450048 0.145201
O O9 0.014856 0.685489 0.179557
O O10 0.505464 0.347725 0.337770
O O11 0.719035 0.319363 0.414591
O O12 0.806406 0.171720 0.744926
O O13 0.012111 0.037390 0.660657
O O14 0.143627 0.184305 0.182172
O O15 0.906713 0.150882 0.312162
O O16 0.842979 0.787003 0.030339
#
# Coordination Sequence:
#
# PCOD9138465 Si02
#       8
#     4   4   4   4   4   4   4   4
#     4  12  24  46  72 109 146 192 241 297 363 424
#     4  10  23  43  73 102 144 193 232 299 366 416
#     4  11  23  43  75 102 138 189 243 288 358 426
#     4  10  25  45  67 107 149 183 237 306 354 421
#     4  11  26  45  72 108 141 193 245 284 369 435
#     4  11  25  45  74 108 146 187 238 301 361 424
#     4  11  26  45  76 106 144 190 241 294 365 427
#     4  12  24  48  77 100 148 193 239 299 356 429
#
# _framework density 24.576709999999999
#
# number of rings (size 3 to 8) (size 9 to 14) (size 15 to 20)
#    0.000    1.000    5.000    0.000    7.000    2.000 
#    6.750    0.000    0.000    0.000    0.000    0.000 
#    0.000    0.000    0.000    0.000    0.000    0.000 
#
# Total GULP energy -89483.458984 kJ/mol
# GULP energy per Si atom -5592.716187 kJ/mol
# Density = 2.452077 g / cm^3
# Si number density = 24.576710 Si / 1000 Ang^3
#
#
#
# Elastic Constant Matrix: (Units=GPa)
#
#
# Indices 1 2 3 4 5 6 
#
# 1 157.6738 30.7523 5.0455 0.0000 38.3493 0.0000
# 2 30.7523 83.8745 -1.9025 0.0000 6.7332 0.0000
# 3 5.0455 -1.9025 52.3267 0.0000 -10.2633 0.0000
# 4 0.0000 0.0000 0.0000 35.3170 0.0000 -4.0371
# 5 38.3493 6.7332 -10.2633 0.0000 46.7481 0.0000
# 6 0.0000 0.0000 0.0000 -4.0371 0.0000 55.2363
#
#
#
# Elastic Compliance Matrix: (Units=1/GPa)
#
#
# Indices 1 2 3 4 5 6 
#
# 1 0.008707 -0.002662 -0.002364 0.000000 -0.007279 0.000000
# 2 -0.002662 0.012876 0.000825 0.000000 0.000510 0.000000
# 3 -0.002364 0.000825 0.020613 0.000000 0.006346 0.000000
# 4 0.000000 0.000000 0.000000 0.028554 0.000000 0.002087
# 5 -0.007279 0.000510 0.006346 0.000000 0.028682 0.000000
# 6 0.000000 0.000000 0.000000 0.002087 0.000000 0.018257
#
#
# Mechanical properties :
#
#
# Convention : Reuss Voigt Hill
#
# Bulk Modulus (GPa) = 29.59009 40.18504 34.88756
# Shear Modulus (GPa) = 36.40185 44.79227 40.59706
#
# Velocity S-wave (km/s) = 3.85275 4.27376 4.06871
# Velocity P-wave (km/s) = 5.64425 6.38277 6.02484
#
# Compressibility (1/GPa) = 0.03379510
#
# Stress axis : x y z
#
# Youngs Moduli (GPa) = 114.84627 77.66214 48.51233
#
# Poissons Ratio (x) = 0.20672 0.11468
# Poissons Ratio (y) = 0.30570 -0.04002
# Poissons Ratio (z) = 0.27149 -0.06406
#
# Static dielectric constant tensor:
#      x y z
#    x 1.965290 0.000000 -0.008510 
#    y 0.000000 1.904420 0.000000 
#    z -0.008510 0.000000 1.994070 
# 
# From -- ./inp_files/24177.got.cif
#   From: 2010.05.17/outbox.cif.g08.bks.cpg/sg9_13_cif.got.tgz:24177.got - 2010.06.03 20:04:27.
