data_PCOD9138719
_publ_section_title
;
Structure prediction by ZEFSAII (Michael W. Deem and Ramdas Pophale) SiO2 
 PCOD9138719
Probable space group: C C
;
_chemical_formula_sum "Si O2"
_cell_formula_units_Z 32
_cell_length_a 14.892482
_cell_length_b 12.466480
_cell_length_c 8.790662
_cell_angle_alpha 90.000000
_cell_angle_beta 63.152271
_cell_angle_gamma 90.000000
_cell_volume 1456.128008
_symmetry_space_group_name_H-M "C C"
_symmetry_group_IT_number 9
_symmetry_cell_setting 'monoclinic'
loop_
_space_group_symop_operation_xyz
x,y,z
x,-y,1/2+z
1/2+x,1/2+y,z
1/2+x,1/2-y,1/2+z
loop_
_atom_site_type_symbol
_atom_site_label
_atom_site_fract_x
_atom_site_fract_y
_atom_site_fract_z
Si Si1 0.303570 0.127315 0.751240
Si Si2 0.142547 0.175787 0.650770
Si Si3 0.607451 0.101133 0.345248
Si Si4 0.282781 0.184925 0.245794
Si Si5 0.316517 0.489094 0.595518
Si Si6 0.220847 0.689635 0.510160
Si Si7 0.418375 0.375917 0.256378
Si Si8 0.901449 0.507160 0.962692
O O1 0.194073 0.113398 0.754363
O O2 0.353497 0.053025 0.844262
O O3 0.371627 0.110851 0.550084
O O4 0.288141 0.242497 0.839451
O O5 0.117967 0.299210 0.719882
O O6 0.214028 0.167486 0.447331
O O7 0.035358 0.128698 0.694313
O O8 0.713177 0.041156 0.254371
O O9 0.616856 0.154385 0.506945
O O10 0.521222 0.013380 0.375156
O O11 0.212899 0.234770 0.164982
O O12 0.368468 0.270890 0.222216
O O13 0.345570 0.086832 0.124292
O O14 0.284484 0.588528 0.515050
O O15 0.359829 0.396821 0.457484
O O16 0.395175 0.528607 0.658132
#
# Coordination Sequence:
#
# PCOD9138719 Si02
#       8
#     4   4   4   4   4   4   4   4
#     4  10  24  45  65 100 146 180 233 299 357 429
#     4  11  25  45  71 102 143 190 232 293 366 430
#     4  11  24  42  74 104 136 186 244 292 354 423
#     4  10  23  46  69 102 150 179 235 305 360 425
#     4  11  22  44  68 100 143 174 240 289 346 426
#     4   9  22  44  65  99 142 181 221 301 353 414
#     4  11  25  42  70 101 134 188 230 287 357 432
#     4  11  25  42  74 104 140 190 237 296 367 427
#
# _framework density 21.976089000000002
#
# number of rings (size 3 to 8) (size 9 to 14) (size 15 to 20)
#    0.000    1.500    2.500    0.750    5.250    4.000 
#    4.500    1.250    0.000    0.000    0.000    0.000 
#    0.000    0.000    0.000    0.000    0.000    0.000 
#
# Total GULP energy -89163.462780 kJ/mol
# GULP energy per Si atom -5572.716424 kJ/mol
# Density = 2.192607 g / cm^3
# Si number density = 21.976089 Si / 1000 Ang^3
#
#
#
# Elastic Constant Matrix: (Units=GPa)
#
#
# Indices 1 2 3 4 5 6 
#
# 1 166.0655 56.7493 57.8511 0.0000 14.9904 0.0000
# 2 56.7493 60.7368 34.9736 0.0000 12.1352 0.0000
# 3 57.8511 34.9736 80.2956 0.0000 9.9919 0.0000
# 4 0.0000 0.0000 0.0000 24.9888 0.0000 7.9429
# 5 14.9904 12.1352 9.9919 0.0000 21.3142 0.0000
# 6 0.0000 0.0000 0.0000 7.9429 0.0000 37.8892
#
#
#
# Elastic Compliance Matrix: (Units=1/GPa)
#
#
# Indices 1 2 3 4 5 6 
#
# 1 0.009785 -0.006571 -0.004032 0.000000 -0.001250 0.000000
# 2 -0.006571 0.027950 -0.006409 0.000000 -0.008288 0.000000
# 3 -0.004032 -0.006409 0.018418 0.000000 -0.002150 0.000000
# 4 0.000000 0.000000 0.000000 0.042875 0.000000 -0.008988
# 5 -0.001250 -0.008288 -0.002150 0.000000 0.053523 0.000000
# 6 0.000000 0.000000 0.000000 -0.008988 0.000000 0.028277
#
#
# Mechanical properties :
#
#
# Convention : Reuss Voigt Hill
#
# Bulk Modulus (GPa) = 45.18810 67.36068 56.27439
# Shear Modulus (GPa) = 22.49963 27.34003 24.91983
#
# Velocity S-wave (km/s) = 3.20319 3.53098 3.37107
# Velocity P-wave (km/s) = 5.85557 6.88056 6.38865
#
# Compressibility (1/GPa) = 0.02212972
#
# Stress axis : x y z
#
# Youngs Moduli (GPa) = 102.20168 35.77845 54.29533
#
# Poissons Ratio (x) = 0.23509 0.21892
# Poissons Ratio (y) = 0.67153 0.34795
# Poissons Ratio (z) = 0.41208 0.22929
#
# Static dielectric constant tensor:
#      x y z
#    x 1.823740 0.000000 0.055440 
#    y 0.000000 1.867990 0.000000 
#    z 0.055440 0.000000 1.860040 
# 
# From -- ./inp_files/9229.got.cif
#   From: 2010.05.17/outbox.cif.g08.bks.cpg/sg9_5_cif.got.tgz:9229.got - 2010.06.03 20:04:27.
