data_PCOD9138179
_publ_section_title
;
Structure prediction by ZEFSAII (Michael W. Deem and Ramdas Pophale) SiO2 
 PCOD9138179
Probable space group: C C
;
_chemical_formula_sum "Si O2"
_cell_formula_units_Z 32
_cell_length_a 23.341556
_cell_length_b 4.834460
_cell_length_c 11.085927
_cell_angle_alpha 90.000000
_cell_angle_beta 100.879951
_cell_angle_gamma 90.000000
_cell_volume 1228.491778
_symmetry_space_group_name_H-M "C C"
_symmetry_group_IT_number 9
_symmetry_cell_setting 'monoclinic'
loop_
_space_group_symop_operation_xyz
x,y,z
x,-y,1/2+z
1/2+x,1/2+y,z
1/2+x,1/2-y,1/2+z
loop_
_atom_site_type_symbol
_atom_site_label
_atom_site_fract_x
_atom_site_fract_y
_atom_site_fract_z
Si Si1 0.996340 0.908065 0.901830
Si Si2 0.179850 0.911384 0.802971
Si Si3 0.870893 0.052769 0.818814
Si Si4 0.671946 0.107466 0.452282
Si Si5 0.599201 0.733333 0.601463
Si Si6 0.880590 0.446995 0.153339
Si Si7 0.506183 0.093884 0.237093
Si Si8 0.287412 0.208461 0.943717
O O1 0.930957 0.986960 0.913802
O O2 0.002813 0.599101 0.853309
O O3 0.005229 0.097580 0.788074
O O4 0.045901 0.934619 0.020112
O O5 0.149881 0.095125 0.898611
O O6 0.146040 0.019676 0.674266
O O7 0.245754 0.025101 0.840387
O O8 0.177604 0.593517 0.837407
O O9 0.874192 0.862923 0.699232
O O10 0.818877 0.943606 0.879490
O O11 0.869910 0.361905 0.768142
O O12 0.632760 0.942694 0.527850
O O13 0.739246 0.161060 0.516515
O O14 0.564674 0.922737 0.684810
O O15 0.947117 0.516654 0.142473
O O16 0.834394 0.530533 0.034527
#
# Coordination Sequence:
#
# PCOD9138179 Si02
#       8
#     4   4   4   4   4   4   4   4
#     4  10  23  42  65  98 130 157 222 260 325 380
#     4  10  26  41  60  93 130 160 225 248 314 376
#     4  10  23  41  67  98 124 169 206 274 318 385
#     4  10  26  43  58  96 124 167 216 264 294 394
#     4  12  23  43  70  87 133 178 203 266 333 363
#     4  10  23  40  68  94 129 164 215 259 334 366
#     4  10  23  42  63 100 125 164 213 272 307 399
#     4  10  25  42  65  90 133 163 218 259 313 383
#
# _framework density 26.048202
#
# number of rings (size 3 to 8) (size 9 to 14) (size 15 to 20)
#    0.750    1.000    0.000    2.250    5.250    4.000 
#    0.000    7.500    0.000    0.000    0.000    0.000 
#    0.000    0.000    0.000    0.000    0.000    0.000 
#
# Total GULP energy -89655.258426 kJ/mol
# GULP energy per Si atom -5603.453652 kJ/mol
# Density = 2.598892 g / cm^3
# Si number density = 26.048202 Si / 1000 Ang^3
#
#
#
# Elastic Constant Matrix: (Units=GPa)
#
#
# Indices 1 2 3 4 5 6 
#
# 1 160.2873 5.3348 35.7475 0.0000 28.8428 0.0000
# 2 5.3348 81.1854 4.2191 0.0000 8.2457 0.0000
# 3 35.7475 4.2191 71.1466 0.0000 39.4071 0.0000
# 4 0.0000 0.0000 0.0000 29.3458 0.0000 0.9934
# 5 28.8428 8.2457 39.4071 0.0000 55.6223 0.0000
# 6 0.0000 0.0000 0.0000 0.9934 0.0000 30.6313
#
#
#
# Elastic Compliance Matrix: (Units=1/GPa)
#
#
# Indices 1 2 3 4 5 6 
#
# 1 0.007149 -0.000146 -0.002538 0.000000 -0.001887 0.000000
# 2 -0.000146 0.012518 0.000522 0.000000 -0.002150 0.000000
# 3 -0.002538 0.000522 0.024052 0.000000 -0.015802 0.000000
# 4 0.000000 0.000000 0.000000 0.034114 0.000000 -0.001106
# 5 -0.001887 -0.002150 -0.015802 0.000000 0.030471 0.000000
# 6 0.000000 0.000000 0.000000 -0.001106 0.000000 0.032682
#
#
# Mechanical properties :
#
#
# Convention : Reuss Voigt Hill
#
# Bulk Modulus (GPa) = 25.38418 44.80245 35.09331
# Shear Modulus (GPa) = 31.55703 40.94107 36.24905
#
# Velocity S-wave (km/s) = 3.48442 3.96882 3.73448
# Velocity P-wave (km/s) = 5.09455 6.18379 5.66541
#
# Compressibility (1/GPa) = 0.03939462
#
# Stress axis : x y z
#
# Youngs Moduli (GPa) = 139.87300 79.88302 41.57647
#
# Poissons Ratio (x) = 0.01168 0.10553
# Poissons Ratio (y) = 0.02045 -0.02169
# Poissons Ratio (z) = 0.35501 -0.04168
#
# Static dielectric constant tensor:
#      x y z
#    x 2.062140 0.000000 -0.016810 
#    y 0.000000 1.968910 0.000000 
#    z -0.016810 0.000000 2.093500 
# 
# From -- ./inp_files/20598.got.cif
#   From: 2010.05.17/outbox.cif.g08.bks.cpg/sg9_11_cif.got.tgz:20598.got - 2010.06.03 20:04:27.
