data_PCOD9138794
_publ_section_title
;
Structure prediction by ZEFSAII (Michael W. Deem and Ramdas Pophale) SiO2 
 PCOD9138794
Probable space group: C C
;
_chemical_formula_sum "Si O2"
_cell_formula_units_Z 32
_cell_length_a 8.847432
_cell_length_b 17.523746
_cell_length_c 15.003144
_cell_angle_alpha 90.000000
_cell_angle_beta 142.878793
_cell_angle_gamma 90.000000
_cell_volume 1403.802487
_symmetry_space_group_name_H-M "C C"
_symmetry_group_IT_number 9
_symmetry_cell_setting 'monoclinic'
loop_
_space_group_symop_operation_xyz
x,y,z
x,-y,1/2+z
1/2+x,1/2+y,z
1/2+x,1/2-y,1/2+z
loop_
_atom_site_type_symbol
_atom_site_label
_atom_site_fract_x
_atom_site_fract_y
_atom_site_fract_z
Si Si1 0.099290 0.725040 0.078330
Si Si2 0.669836 0.181789 0.309890
Si Si3 0.351756 0.085746 0.861979
Si Si4 0.160361 0.813814 0.661799
Si Si5 0.967983 0.337635 0.137753
Si Si6 0.762482 0.920338 0.414485
Si Si7 0.371071 0.429208 0.038617
Si Si8 0.862876 0.419761 0.912324
O O1 0.210157 0.705172 0.226983
O O2 0.278577 0.786797 0.111396
O O3 0.820145 0.760952 0.945625
O O4 0.030646 0.645303 0.996816
O O5 0.376392 0.178001 0.190726
O O6 0.780492 0.104111 0.401293
O O7 0.520164 0.061130 0.858415
O O8 0.098159 0.113711 0.695071
O O9 0.282684 0.008366 0.881667
O O10 0.219346 0.867848 0.773222
O O11 0.150760 0.726924 0.686165
O O12 0.894845 0.840593 0.499463
O O13 0.138306 0.403913 0.261341
O O14 0.833058 0.377368 0.991731
O O15 0.945748 0.986039 0.538848
O O16 0.145868 0.423419 0.004647
#
# Coordination Sequence:
#
# PCOD9138794 Si02
#       8
#     4   4   4   4   4   4   4   4
#     4  12  27  45  72 105 143 186 240 307 363 436
#     4  11  27  44  69 103 138 186 237 296 362 428
#     4  11  23  47  70 103 146 186 240 299 367 428
#     4  11  24  45  69 100 142 185 244 291 365 430
#     4  12  26  43  74 107 142 188 243 298 369 439
#     4  11  23  43  70 103 146 189 232 304 364 432
#     4  10  23  47  71 101 146 192 239 298 366 428
#     4  10  25  44  71 106 141 192 239 303 360 439
#
# _framework density 22.79523
#
# number of rings (size 3 to 8) (size 9 to 14) (size 15 to 20)
#    0.000    1.000    2.500    3.000   10.500    0.000 
#    0.000    1.250    0.000    0.000    0.000    0.000 
#    0.000    0.000    0.000    0.000    0.000    0.000 
#
# Total GULP energy -89190.155753 kJ/mol
# GULP energy per Si atom -5574.384735 kJ/mol
# Density = 2.274335 g / cm^3
# Si number density = 22.795230 Si / 1000 Ang^3
#
#
#
# Elastic Constant Matrix: (Units=GPa)
#
#
# Indices 1 2 3 4 5 6 
#
# 1 47.0749 15.1228 43.7154 -0.0009 -18.5554 -0.0015
# 2 15.1228 77.2062 5.1870 -0.0004 -19.6606 -0.0008
# 3 43.7154 5.1870 93.2391 -0.0017 -12.1436 -0.0031
# 4 -0.0009 -0.0004 -0.0017 31.1629 -0.0005 9.7004
# 5 -18.5554 -19.6606 -12.1436 -0.0005 32.4949 -0.0010
# 6 -0.0015 -0.0008 -0.0031 9.7004 -0.0010 -0.9018
#
#
#
# Elastic Compliance Matrix: (Units=1/GPa)
#
#
# Indices 1 2 3 4 5 6 
#
# 1 0.047903 -0.003517 -0.019949 0.000002 0.017770 -0.000005
# 2 -0.003517 0.015582 0.001838 0.000002 0.008106 -0.000005
# 3 -0.019949 0.001838 0.019591 0.000002 -0.002958 -0.000006
# 4 0.000002 0.000002 0.000002 0.007380 0.000006 0.079380
# 5 0.017770 0.008106 -0.002958 0.000006 0.044720 -0.000014
# 6 -0.000005 -0.000005 -0.000006 0.079380 -0.000014 -0.255013
#
#
# Mechanical properties :
#
#
# Convention : Reuss Voigt Hill
#
# Bulk Modulus (GPa) = 25.11406 38.39673 31.75540
# Shear Modulus (GPa) = -78.98005 22.78420 -28.09792
#
# Velocity S-wave (km/s) = -5.89261 3.16494 -3.51468
# Velocity P-wave (km/s) = 5.93767 5.49878 1.58420
#
# Compressibility (1/GPa) = 0.03981833
#
# Stress axis : x y z
#
# Youngs Moduli (GPa) = 20.87568 64.17651 51.04435
#
# Poissons Ratio (x) = 0.22574 1.01829
# Poissons Ratio (y) = 0.07343 -0.09382
# Poissons Ratio (z) = 0.41645 -0.11796
#
# Static dielectric constant tensor:
#      x y z
#    x 1.850270 0.000000 -0.004100 
#    y 0.000000 1.980230 0.000000 
#    z -0.004100 0.000000 1.846440 
# 
# From -- ./inp_files/23695.got.cif
#   From: 2010.05.17/outbox.cif.g08.bks.cpg/sg9_12_cif.got.tgz:23695.got - 2010.06.03 20:04:27.
