data_PCOD9138781
_publ_section_title
;
Structure prediction by ZEFSAII (Michael W. Deem and Ramdas Pophale) SiO2 
 PCOD9138781
Probable space group: C C
;
_chemical_formula_sum "Si O2"
_cell_formula_units_Z 24
_cell_length_a 9.047263
_cell_length_b 11.866126
_cell_length_c 10.154115
_cell_angle_alpha 90.000000
_cell_angle_beta 60.460707
_cell_angle_gamma 90.000000
_cell_volume 948.410563
_symmetry_space_group_name_H-M "C C"
_symmetry_group_IT_number 9
_symmetry_cell_setting 'monoclinic'
loop_
_space_group_symop_operation_xyz
x,y,z
x,-y,1/2+z
1/2+x,1/2+y,z
1/2+x,1/2-y,1/2+z
loop_
_atom_site_type_symbol
_atom_site_label
_atom_site_fract_x
_atom_site_fract_y
_atom_site_fract_z
Si Si1 0.872020 0.761164 0.569220
Si Si2 0.456221 0.550635 0.848462
Si Si3 0.697526 0.871948 0.288232
Si Si4 0.920592 0.449165 0.219762
Si Si5 0.501264 0.200771 0.114238
Si Si6 0.094694 0.051939 0.045435
O O1 0.955157 0.819250 0.402334
O O2 0.098781 0.575755 0.711662
O O3 0.903049 0.635493 0.604000
O O4 0.977575 0.838488 0.626662
O O5 0.490785 0.490744 0.971846
O O6 0.355072 0.707202 0.686231
O O7 0.278515 0.535091 0.852441
O O8 0.568191 0.803439 0.435731
O O9 0.272211 0.925353 0.394097
O O10 0.674112 0.216986 0.124903
O O11 0.593967 0.481930 0.179110
O O12 0.419880 0.080159 0.184640
#
# Coordination Sequence:
#
# PCOD9138781 Si02
#       6
#     4   4   4   4   4   4
#     4   9  24  50  76 116 163 215 270 340 412 497
#     4   9  22  47  77 117 162 216 267 341 413 482
#     4  11  27  46  77 119 157 208 280 336 406 502
#     4  12  27  47  84 117 160 217 278 330 430 489
#     4  11  27  52  75 115 159 215 263 344 408 496
#     4  10  23  46  81 122 159 221 272 345 413 498
#
# _framework density 25.305499000000001
#
# number of rings (size 3 to 8) (size 9 to 14) (size 15 to 20)
#    1.000    0.667    0.000    2.000    7.000    2.667 
#    6.000    1.667    0.000    0.000    0.000    0.000 
#    0.000    0.000    0.000    0.000    0.000    0.000 
#
# Total GULP energy -66983.916250 kJ/mol
# GULP energy per Si atom -5581.993021 kJ/mol
# Density = 2.524790 g / cm^3
# Si number density = 25.305499 Si / 1000 Ang^3
#
#
#
# Elastic Constant Matrix: (Units=GPa)
#
#
# Indices 1 2 3 4 5 6 
#
# 1 133.2576 58.1905 14.8222 0.0000 -3.9164 0.0000
# 2 58.1905 111.3962 29.6393 0.0000 -0.6787 0.0000
# 3 14.8222 29.6393 91.2854 0.0000 -8.0289 0.0000
# 4 0.0000 0.0000 0.0000 41.1348 0.0000 0.5573
# 5 -3.9164 -0.6787 -8.0289 0.0000 39.0957 0.0000
# 6 0.0000 0.0000 0.0000 0.5573 0.0000 32.2765
#
#
#
# Elastic Compliance Matrix: (Units=1/GPa)
#
#
# Indices 1 2 3 4 5 6 
#
# 1 0.009755 -0.005134 0.000164 0.000000 0.000922 0.000000
# 2 -0.005134 0.012537 -0.003323 0.000000 -0.000979 0.000000
# 3 0.000164 -0.003323 0.012224 0.000000 0.002469 0.000000
# 4 0.000000 0.000000 0.000000 0.024316 0.000000 -0.000420
# 5 0.000922 -0.000979 0.002469 0.000000 0.026161 0.000000
# 6 0.000000 0.000000 0.000000 -0.000420 0.000000 0.030990
#
#
# Mechanical properties :
#
#
# Convention : Reuss Voigt Hill
#
# Bulk Modulus (GPa) = 55.77154 60.13813 57.95484
# Shear Modulus (GPa) = 36.08948 38.05391 37.07169
#
# Velocity S-wave (km/s) = 3.78054 3.88207 3.83164
# Velocity P-wave (km/s) = 6.41434 6.62649 6.52128
#
# Compressibility (1/GPa) = 0.01793029
#
# Stress axis : x y z
#
# Youngs Moduli (GPa) = 102.51274 79.76451 81.80512
#
# Poissons Ratio (x) = 0.40949 -0.01342
# Poissons Ratio (y) = 0.52627 0.27185
# Poissons Ratio (z) = -0.01681 0.26507
#
# Static dielectric constant tensor:
#      x y z
#    x 2.077530 0.000000 0.030080 
#    y 0.000000 2.040740 0.000000 
#    z 0.030080 0.000000 2.034610 
# 
# From -- ./inp_files/14314.got.cif
#   From: 2010.05.17/outbox.cif.g08.bks.cpg/sg9_8_cif.got.tgz:14314.got - 2010.06.03 20:04:27.
