data_PCOD9138809
_publ_section_title
;
Structure prediction by ZEFSAII (Michael W. Deem and Ramdas Pophale) SiO2 
 PCOD9138809
Probable space group: C C
;
_chemical_formula_sum "Si O2"
_cell_formula_units_Z 28
_cell_length_a 11.583057
_cell_length_b 15.076758
_cell_length_c 9.317730
_cell_angle_alpha 90.000000
_cell_angle_beta 45.559676
_cell_angle_gamma 90.000000
_cell_volume 1161.789320
_symmetry_space_group_name_H-M "C C"
_symmetry_group_IT_number 9
_symmetry_cell_setting 'monoclinic'
loop_
_space_group_symop_operation_xyz
x,y,z
x,-y,1/2+z
1/2+x,1/2+y,z
1/2+x,1/2-y,1/2+z
loop_
_atom_site_type_symbol
_atom_site_label
_atom_site_fract_x
_atom_site_fract_y
_atom_site_fract_z
Si Si1 0.542560 0.854582 0.134520
Si Si2 0.870311 0.226787 0.447061
Si Si3 0.406714 0.304638 0.241166
Si Si4 0.136933 0.928113 0.231466
Si Si5 0.476901 0.149227 0.396504
Si Si6 0.012778 0.069896 0.160611
Si Si7 0.186012 0.540449 0.008582
O O1 0.388406 0.823146 0.359854
O O2 0.560370 0.960027 0.087588
O O3 0.695623 0.819058 0.091340
O O4 0.555225 0.807060 0.968074
O O5 0.935002 0.219926 0.552049
O O6 0.979898 0.166747 0.247359
O O7 0.543705 0.362569 0.202626
O O8 0.410996 0.215903 0.332801
O O9 0.244845 0.366747 0.383746
O O10 0.044316 0.935541 0.463745
O O11 0.316386 0.894813 0.098831
O O12 0.145452 0.020582 0.140172
O O13 0.609530 0.081516 0.219217
O O14 0.851368 0.015108 0.348100
#
# Coordination Sequence:
#
# PCOD9138809 Si02
#       7
#     4   4   4   4   4   4   4
#     4  11  29  47  76 112 153 210 259 334 391 476
#     4  11  27  47  76 107 154 199 264 319 398 468
#     4  11  26  49  76 107 157 207 255 319 403 474
#     4  11  25  45  74 108 147 203 255 322 393 472
#     4  12  28  44  78 112 154 198 271 326 391 472
#     4  10  23  47  73 102 152 206 254 312 400 473
#     4  10  26  47  77 108 153 207 262 316 398 463
#
# _framework density 24.100756000000001
#
# number of rings (size 3 to 8) (size 9 to 14) (size 15 to 20)
#    0.000    1.143    0.000    3.429   24.000    0.000 
#    0.000    0.000    0.000    0.000    0.000    0.000 
#    0.000    0.000    0.000    0.000    0.000    0.000 
#
# Total GULP energy -78103.447265 kJ/mol
# GULP energy per Si atom -5578.817662 kJ/mol
# Density = 2.404590 g / cm^3
# Si number density = 24.100756 Si / 1000 Ang^3
#
#
#
# Elastic Constant Matrix: (Units=GPa)
#
#
# Indices 1 2 3 4 5 6 
#
# 1 93.4085 33.7050 58.6800 0.0000 33.3304 0.0000
# 2 33.7050 86.4513 67.7202 0.0000 18.4207 0.0000
# 3 58.6800 67.7202 147.5318 0.0000 30.4040 0.0000
# 4 0.0000 0.0000 0.0000 50.1484 0.0000 -1.0374
# 5 33.3304 18.4207 30.4040 0.0000 49.6144 0.0000
# 6 0.0000 0.0000 0.0000 -1.0374 0.0000 21.2158
#
#
#
# Elastic Compliance Matrix: (Units=1/GPa)
#
#
# Indices 1 2 3 4 5 6 
#
# 1 0.016869 -0.001408 -0.004390 0.000000 -0.008119 0.000000
# 2 -0.001408 0.018330 -0.007607 0.000000 -0.001198 0.000000
# 3 -0.004390 -0.007607 0.012391 0.000000 -0.001820 0.000000
# 4 0.000000 0.000000 0.000000 0.019961 0.000000 0.000976
# 5 -0.008119 -0.001198 -0.001820 0.000000 0.027170 0.000000
# 6 0.000000 0.000000 0.000000 0.000976 0.000000 0.047182
#
#
# Mechanical properties :
#
#
# Convention : Reuss Voigt Hill
#
# Bulk Modulus (GPa) = 48.12240 71.95578 60.03909
# Shear Modulus (GPa) = 28.46735 35.34815 31.90775
#
# Velocity S-wave (km/s) = 3.44056 3.83388 3.64253
# Velocity P-wave (km/s) = 5.98279 7.03699 6.53120
#
# Compressibility (1/GPa) = 0.02078034
#
# Stress axis : x y z
#
# Youngs Moduli (GPa) = 59.28180 54.55449 80.70273
#
# Poissons Ratio (x) = 0.07680 0.35428
# Poissons Ratio (y) = 0.08346 0.61392
# Poissons Ratio (z) = 0.26024 0.41500
#
# Static dielectric constant tensor:
#      x y z
#    x 1.922080 0.000000 -0.049580 
#    y 0.000000 2.020310 0.000000 
#    z -0.049580 0.000000 1.907590 
# 
# From -- ./inp_files/7865.got.cif
#   From: 2010.05.17/outbox.cif.g08.bks.cpg/sg9_4_cif.got.tgz:7865.got - 2010.06.03 20:04:27.
