data_PCOD9138592
_publ_section_title
;
Structure prediction by ZEFSAII (Michael W. Deem and Ramdas Pophale) SiO2 
 PCOD9138592
Probable space group: C C
;
_chemical_formula_sum "Si O2"
_cell_formula_units_Z 32
_cell_length_a 12.243078
_cell_length_b 7.971269
_cell_length_c 17.117270
_cell_angle_alpha 90.000000
_cell_angle_beta 109.898889
_cell_angle_gamma 90.000000
_cell_volume 1570.784414
_symmetry_space_group_name_H-M "C C"
_symmetry_group_IT_number 9
_symmetry_cell_setting 'monoclinic'
loop_
_space_group_symop_operation_xyz
x,y,z
x,-y,1/2+z
1/2+x,1/2+y,z
1/2+x,1/2-y,1/2+z
loop_
_atom_site_type_symbol
_atom_site_label
_atom_site_fract_x
_atom_site_fract_y
_atom_site_fract_z
Si Si1 0.598800 0.848179 0.196310
Si Si2 0.477507 0.673056 0.467985
Si Si3 0.901470 0.461351 0.569063
Si Si4 0.742176 0.981737 0.848270
Si Si5 0.038294 0.267333 0.867333
Si Si6 0.823825 0.660565 0.409146
Si Si7 0.140742 0.131385 0.052550
Si Si8 0.077553 0.095430 0.332448
O O1 0.626309 0.743321 0.125528
O O2 0.561294 0.715600 0.254649
O O3 0.495961 0.978363 0.153888
O O4 0.712037 0.949105 0.254573
O O5 0.453008 0.817026 0.524895
O O6 0.352931 0.627419 0.399013
O O7 0.550238 0.525280 0.528983
O O8 0.551467 0.696367 0.406295
O O9 0.880133 0.614208 0.504288
O O10 0.775896 0.417706 0.574471
O O11 0.624950 0.886795 0.842986
O O12 0.771900 0.153663 0.900187
O O13 0.916750 0.348290 0.862682
O O14 0.015069 0.085197 0.822217
O O15 0.102463 0.228802 0.965050
O O16 0.713485 0.544252 0.366940
#
# Coordination Sequence:
#
# PCOD9138592 Si02
#       8
#     4   4   4   4   4   4   4   4
#     4  11  27  42  61 103 145 162 220 292 353 380
#     4  11  22  46  74  93 129 185 238 259 330 425
#     4  12  24  45  68 101 133 181 226 281 339 403
#     4  11  23  42  68 103 129 178 224 275 340 400
#     4  11  21  42  73  89 130 179 234 266 323 411
#     4  11  21  39  71  94 129 172 229 270 322 407
#     4  11  23  47  65  98 134 177 227 281 329 411
#     4  10  23  45  64 101 131 174 224 280 330 407
#
# _framework density 20.371988999999999
#
# number of rings (size 3 to 8) (size 9 to 14) (size 15 to 20)
#    0.000    1.000    7.500    0.000    3.500    3.000 
#    6.750    0.000    0.000    0.000    0.000    0.000 
#    0.000    0.000    0.000    0.000    0.000    0.000 
#
# Total GULP energy -89231.582125 kJ/mol
# GULP energy per Si atom -5576.973883 kJ/mol
# Density = 2.032562 g / cm^3
# Si number density = 20.371989 Si / 1000 Ang^3
#
#
#
# Elastic Constant Matrix: (Units=GPa)
#
#
# Indices 1 2 3 4 5 6 
#
# 1 144.2060 36.6890 41.0409 0.0000 6.2334 0.0000
# 2 36.6890 49.0289 59.7896 0.0000 -0.3716 0.0000
# 3 41.0409 59.7896 113.4984 0.0000 5.0245 0.0000
# 4 0.0000 0.0000 0.0000 39.3851 0.0000 -1.1879
# 5 6.2334 -0.3716 5.0245 0.0000 26.4486 0.0000
# 6 0.0000 0.0000 0.0000 -1.1879 0.0000 29.2383
#
#
#
# Elastic Compliance Matrix: (Units=1/GPa)
#
#
# Indices 1 2 3 4 5 6 
#
# 1 0.008734 -0.007917 0.001118 0.000000 -0.002382 0.000000
# 2 -0.007917 0.065366 -0.031964 0.000000 0.008857 0.000000
# 3 0.001118 -0.031964 0.025491 0.000000 -0.005555 0.000000
# 4 0.000000 0.000000 0.000000 0.025421 0.000000 0.001033
# 5 -0.002382 0.008857 -0.005555 0.000000 0.039550 0.000000
# 6 0.000000 0.000000 0.000000 0.001033 0.000000 0.034244
#
#
# Mechanical properties :
#
#
# Convention : Reuss Voigt Hill
#
# Bulk Modulus (GPa) = 45.31974 64.64136 54.98055
# Shear Modulus (GPa) = 17.62512 30.29532 23.96022
#
# Velocity S-wave (km/s) = 2.94456 3.86049 3.43320
# Velocity P-wave (km/s) = 5.81850 7.18822 6.53932
#
# Compressibility (1/GPa) = 0.02206544
#
# Stress axis : x y z
#
# Youngs Moduli (GPa) = 114.50159 15.29838 39.23020
#
# Poissons Ratio (x) = 0.12111 -0.04385
# Poissons Ratio (y) = 0.90646 1.25394
# Poissons Ratio (z) = -0.12799 0.48899
#
# Static dielectric constant tensor:
#      x y z
#    x 1.805680 0.000000 0.025750 
#    y 0.000000 1.762410 0.000000 
#    z 0.025750 0.000000 1.702610 
# 
# From -- ./inp_files/29804.got.cif
#   From: 2010.05.17/outbox.cif.g08.bks.cpg/sg9_15_cif.got.tgz:29804.got - 2010.06.03 20:04:27.
