data_PCOD9138311
_publ_section_title
;
Structure prediction by ZEFSAII (Michael W. Deem and Ramdas Pophale) SiO2 
 PCOD9138311
Probable space group: C C
;
_chemical_formula_sum "Si O2"
_cell_formula_units_Z 28
_cell_length_a 13.783807
_cell_length_b 4.841918
_cell_length_c 17.759073
_cell_angle_alpha 90.000000
_cell_angle_beta 104.527791
_cell_angle_gamma 90.000000
_cell_volume 1147.344834
_symmetry_space_group_name_H-M "C C"
_symmetry_group_IT_number 9
_symmetry_cell_setting 'monoclinic'
loop_
_space_group_symop_operation_xyz
x,y,z
x,-y,1/2+z
1/2+x,1/2+y,z
1/2+x,1/2-y,1/2+z
loop_
_atom_site_type_symbol
_atom_site_label
_atom_site_fract_x
_atom_site_fract_y
_atom_site_fract_z
Si Si1 0.307680 0.499829 0.438500
Si Si2 0.090712 0.014187 0.473238
Si Si3 0.799606 0.239949 0.718078
Si Si4 0.193960 0.488724 0.057115
Si Si5 0.435507 0.797169 0.255872
Si Si6 0.926467 0.533114 0.918966
Si Si7 0.650448 0.345669 0.820912
O O1 0.289157 0.563722 0.521869
O O2 0.324618 0.792947 0.404609
O O3 0.206047 0.389835 0.380884
O O4 0.392369 0.264939 0.441599
O O5 0.173152 0.191303 0.535413
O O6 0.109187 0.984862 0.386583
O O7 0.999204 0.229802 0.467139
O O8 0.103517 0.708001 0.509050
O O9 0.723009 0.099417 0.645453
O O10 0.868764 0.484003 0.696720
O O11 0.733983 0.381036 0.771613
O O12 0.872151 0.984085 0.756176
O O13 0.453398 0.967584 0.336846
O O14 0.548322 0.722497 0.255348
#
# Coordination Sequence:
#
# PCOD9138311 Si02
#       7
#     4   4   4   4   4   4   4
#     4  11  21  39  68  94 130 178 218 280 340 392
#     4  10  23  42  68  97 132 175 232 282 332 408
#     4  12  25  45  67  95 143 175 218 279 341 407
#     4  11  24  43  62  97 138 182 217 278 351 405
#     4  11  24  41  68 105 125 174 227 280 327 408
#     4  11  20  39  68 100 126 168 236 281 325 396
#     4  10  23  43  73  94 130 172 230 276 332 392
#
# _framework density 24.404170000000001
#
# number of rings (size 3 to 8) (size 9 to 14) (size 15 to 20)
#    0.000    1.143    2.857    3.429    0.000    8.000 
#    7.714    0.000    0.000    0.000    0.000    0.000 
#    0.000    0.000    0.000    0.000    0.000    0.000 
#
# Total GULP energy -77968.941342 kJ/mol
# GULP energy per Si atom -5569.210096 kJ/mol
# Density = 2.434862 g / cm^3
# Si number density = 24.404170 Si / 1000 Ang^3
#
#
#
# Elastic Constant Matrix: (Units=GPa)
#
#
# Indices 1 2 3 4 5 6 
#
# 1 90.6097 40.1228 17.0746 0.0000 11.7742 0.0000
# 2 40.1228 170.0308 11.7374 0.0000 9.7240 0.0000
# 3 17.0746 11.7374 46.8892 0.0000 0.9690 0.0000
# 4 0.0000 0.0000 0.0000 20.4374 0.0000 6.5513
# 5 11.7742 9.7240 0.9690 0.0000 18.8799 0.0000
# 6 0.0000 0.0000 0.0000 6.5513 0.0000 34.9315
#
#
#
# Elastic Compliance Matrix: (Units=1/GPa)
#
#
# Indices 1 2 3 4 5 6 
#
# 1 0.013910 -0.002580 -0.004272 0.000000 -0.007127 0.000000
# 2 -0.002580 0.006639 -0.000686 0.000000 -0.001775 0.000000
# 3 -0.004272 -0.000686 0.023016 0.000000 0.001836 0.000000
# 4 0.000000 0.000000 0.000000 0.052060 0.000000 -0.009764
# 5 -0.007127 -0.001775 0.001836 0.000000 0.058231 0.000000
# 6 0.000000 0.000000 0.000000 -0.009764 0.000000 0.030459
#
#
# Mechanical properties :
#
#
# Convention : Reuss Voigt Hill
#
# Bulk Modulus (GPa) = 35.10060 49.48880 42.29470
# Shear Modulus (GPa) = 23.93649 30.75610 27.34630
#
# Velocity S-wave (km/s) = 3.13523 3.55389 3.35111
# Velocity P-wave (km/s) = 5.24600 6.09615 5.68698
#
# Compressibility (1/GPa) = 0.02848954
#
# Stress axis : x y z
#
# Youngs Moduli (GPa) = 71.89148 150.62665 43.44752
#
# Poissons Ratio (x) = 0.38860 0.18561
# Poissons Ratio (y) = 0.18547 0.02979
# Poissons Ratio (z) = 0.30713 0.10329
#
# Static dielectric constant tensor:
#      x y z
#    x 2.134250 0.000000 0.057390 
#    y 0.000000 1.940530 0.000000 
#    z 0.057390 0.000000 2.009460 
# 
# From -- ./inp_files/30320.got.cif
#   From: 2010.05.17/outbox.cif.g08.bks.cpg/sg9_16_cif.got.tgz:30320.got - 2010.06.03 20:04:27.
