data_PCOD9138790
_publ_section_title
;
Structure prediction by ZEFSAII (Michael W. Deem and Ramdas Pophale) SiO2 
 PCOD9138790
Probable space group: C C
;
_chemical_formula_sum "Si O2"
_cell_formula_units_Z 28
_cell_length_a 5.047997
_cell_length_b 13.900295
_cell_length_c 16.653087
_cell_angle_alpha 90.000000
_cell_angle_beta 68.691695
_cell_angle_gamma 90.000000
_cell_volume 1088.642573
_symmetry_space_group_name_H-M "C C"
_symmetry_group_IT_number 9
_symmetry_cell_setting 'monoclinic'
loop_
_space_group_symop_operation_xyz
x,y,z
x,-y,1/2+z
1/2+x,1/2+y,z
1/2+x,1/2-y,1/2+z
loop_
_atom_site_type_symbol
_atom_site_label
_atom_site_fract_x
_atom_site_fract_y
_atom_site_fract_z
Si Si1 0.051350 0.693030 0.791060
Si Si2 0.551565 0.346230 0.143910
Si Si3 0.787506 0.750538 0.486699
Si Si4 0.323946 0.875506 0.466929
Si Si5 0.358536 0.527519 0.537666
Si Si6 0.353421 0.982219 0.207164
Si Si7 0.573397 0.382149 0.867145
O O1 0.367199 0.715151 0.724247
O O2 0.937586 0.797662 0.827999
O O3 0.049387 0.624098 0.869204
O O4 0.919491 0.623463 0.738672
O O5 0.390506 0.371351 0.079243
O O6 0.592190 0.449950 0.180135
O O7 0.815175 0.296059 0.072626
O O8 0.507574 0.819293 0.512548
O O9 0.752550 0.676996 0.415639
O O10 0.063619 0.817528 0.453933
O O11 0.156621 0.969878 0.511745
O O12 0.349696 0.553957 0.443970
O O13 0.100651 0.483926 0.618450
O O14 0.261967 0.052143 0.288246
#
# Coordination Sequence:
#
# PCOD9138790 Si02
#       7
#     4   4   4   4   4   4   4
#     4  10  24  43  68 103 143 189 249 308 369 448
#     4  10  25  45  67 105 151 186 251 310 367 457
#     4  10  26  46  72 106 147 196 242 310 375 452
#     4  11  24  46  74 104 142 192 248 304 377 449
#     4  10  24  46  70 106 144 196 247 311 377 450
#     4  11  24  47  72 107 148 197 250 316 373 457
#     4  10  23  47  69 107 141 200 247 309 378 449
#
# _framework density 25.720105
#
# number of rings (size 3 to 8) (size 9 to 14) (size 15 to 20)
#    0.000    1.714    1.429    0.000   16.000    0.000 
#   12.857    0.000    0.000    0.000    0.000    0.000 
#    0.000    0.000    0.000    0.000    0.000    0.000 
#
# Total GULP energy -78009.221398 kJ/mol
# GULP energy per Si atom -5572.087243 kJ/mol
# Density = 2.566157 g / cm^3
# Si number density = 25.720105 Si / 1000 Ang^3
#
#
#
# Elastic Constant Matrix: (Units=GPa)
#
#
# Indices 1 2 3 4 5 6 
#
# 1 79.2286 29.7408 26.3302 0.0000 -1.4391 0.0000
# 2 29.7408 97.6439 71.9394 0.0000 4.8696 0.0000
# 3 26.3302 71.9394 200.8138 0.0000 -13.5378 0.0000
# 4 0.0000 0.0000 0.0000 43.4405 0.0000 10.4479
# 5 -1.4391 4.8696 -13.5378 0.0000 23.4783 0.0000
# 6 0.0000 0.0000 0.0000 10.4479 0.0000 32.1462
#
#
#
# Elastic Compliance Matrix: (Units=1/GPa)
#
#
# Indices 1 2 3 4 5 6 
#
# 1 0.014334 -0.004270 -0.000240 0.000000 0.001626 0.000000
# 2 -0.004270 0.016046 -0.005650 0.000000 -0.006848 0.000000
# 3 -0.000240 -0.005650 0.007401 0.000000 0.005425 0.000000
# 4 0.000000 0.000000 0.000000 0.024972 0.000000 -0.008116
# 5 0.001626 -0.006848 0.005425 0.000000 0.047240 0.000000
# 6 0.000000 0.000000 0.000000 -0.008116 0.000000 0.033746
#
#
# Mechanical properties :
#
#
# Convention : Reuss Voigt Hill
#
# Bulk Modulus (GPa) = 57.27219 70.41189 63.84204
# Shear Modulus (GPa) = 29.43252 36.45804 32.94528
#
# Velocity S-wave (km/s) = 3.38648 3.76904 3.58287
# Velocity P-wave (km/s) = 6.13244 6.81003 6.48010
#
# Compressibility (1/GPa) = 0.01746048
#
# Stress axis : x y z
#
# Youngs Moduli (GPa) = 69.76452 62.32030 135.11651
#
# Poissons Ratio (x) = 0.26611 0.03244
# Poissons Ratio (y) = 0.29790 0.76342
# Poissons Ratio (z) = 0.01675 0.35212
#
# Static dielectric constant tensor:
#      x y z
#    x 2.199220 0.000000 0.018100 
#    y 0.000000 2.128470 0.000000 
#    z 0.018100 0.000000 2.170550 
# 
# From -- ./inp_files/21733.got.cif
#   From: 2010.05.17/outbox.cif.g08.bks.cpg/sg9_11_cif.got.tgz:21733.got - 2010.06.03 20:04:27.
