data_PCOD9138678
_publ_section_title
;
Structure prediction by ZEFSAII (Michael W. Deem and Ramdas Pophale) SiO2 
 PCOD9138678
Probable space group: C C
;
_chemical_formula_sum "Si O2"
_cell_formula_units_Z 28
_cell_length_a 18.584749
_cell_length_b 5.929300
_cell_length_c 20.450520
_cell_angle_alpha 90.000000
_cell_angle_beta 29.049752
_cell_angle_gamma 90.000000
_cell_volume 1094.246948
_symmetry_space_group_name_H-M "C C"
_symmetry_group_IT_number 9
_symmetry_cell_setting 'monoclinic'
loop_
_space_group_symop_operation_xyz
x,y,z
x,-y,1/2+z
1/2+x,1/2+y,z
1/2+x,1/2-y,1/2+z
loop_
_atom_site_type_symbol
_atom_site_label
_atom_site_fract_x
_atom_site_fract_y
_atom_site_fract_z
Si Si1 0.692900 0.747056 0.635710
Si Si2 0.898138 0.879581 0.757368
Si Si3 0.493896 0.510983 0.886154
Si Si4 0.629479 0.304646 0.395373
Si Si5 0.979289 0.801926 0.090444
Si Si6 0.421364 0.907732 0.503055
Si Si7 0.147929 0.477006 0.044890
O O1 0.539416 0.693548 0.795330
O O2 0.828714 0.920581 0.544213
O O3 0.777253 0.515916 0.585356
O O4 0.654209 0.830977 0.594576
O O5 0.791103 0.747830 0.792195
O O6 0.046952 0.734136 0.646303
O O7 0.901982 0.123693 0.719216
O O8 0.811372 0.897577 0.894543
O O9 0.624148 0.543340 0.835812
O O10 0.487720 0.241704 0.891135
O O11 0.558005 0.462008 0.507889
O O12 0.535252 0.095176 0.441269
O O13 0.896923 0.735464 0.089238
O O14 0.081424 0.594735 0.032631
#
# Coordination Sequence:
#
# PCOD9138678 Si02
#       7
#     4   4   4   4   4   4   4
#     4  11  28  51  74 114 156 211 263 320 402 475
#     4  12  26  47  78 116 156 202 265 328 391 477
#     4  10  26  46  79 109 157 203 263 325 387 472
#     4  10  23  45  75 121 150 200 258 322 397 462
#     4  11  24  43  80 118 154 204 253 333 389 471
#     4  10  23  47  78 117 155 203 259 333 392 467
#     4  12  30  51  78 111 160 209 265 327 398 474
#
# _framework density 25.588374999999999
#
# number of rings (size 3 to 8) (size 9 to 14) (size 15 to 20)
#    0.000    1.143    2.857    0.000   14.000    2.286 
#    5.143    0.000    0.000    0.000    0.000    0.000 
#    0.000    0.000    0.000    0.000    0.000    0.000 
#
# Total GULP energy -78069.444423 kJ/mol
# GULP energy per Si atom -5576.388887 kJ/mol
# Density = 2.553013 g / cm^3
# Si number density = 25.588375 Si / 1000 Ang^3
#
#
#
# Elastic Constant Matrix: (Units=GPa)
#
#
# Indices 1 2 3 4 5 6 
#
# 1 113.2663 16.9193 21.7207 0.0027 15.5254 0.0005
# 2 16.9193 89.7257 50.7634 -0.0107 3.3921 0.0184
# 3 21.7207 50.7634 126.7507 0.0026 9.5634 0.0044
# 4 0.0027 -0.0107 0.0026 41.4228 0.0082 -5.2691
# 5 15.5254 3.3921 9.5634 0.0082 28.6116 -0.0089
# 6 0.0005 0.0184 0.0044 -5.2691 -0.0089 39.8948
#
#
#
# Elastic Compliance Matrix: (Units=1/GPa)
#
#
# Indices 1 2 3 4 5 6 
#
# 1 0.009842 -0.001197 -0.000836 0.000000 -0.004919 -0.000001
# 2 -0.001197 0.014557 -0.005687 0.000003 0.000825 -0.000005
# 3 -0.000836 -0.005687 0.010490 -0.000002 -0.002378 0.000001
# 4 0.000000 0.000003 -0.000002 0.024554 -0.000006 0.003243
# 5 -0.004919 0.000825 -0.002378 -0.000006 0.038317 0.000008
# 6 -0.000001 -0.000005 0.000001 0.003243 0.000008 0.025494
#
#
# Mechanical properties :
#
#
# Convention : Reuss Voigt Hill
#
# Bulk Modulus (GPa) = 51.41692 56.50551 53.96121
# Shear Modulus (GPa) = 34.44044 38.00848 36.22446
#
# Velocity S-wave (km/s) = 3.67269 3.85824 3.76661
# Velocity P-wave (km/s) = 6.17433 6.47908 6.32854
#
# Compressibility (1/GPa) = 0.01944885
#
# Stress axis : x y z
#
# Youngs Moduli (GPa) = 101.60384 68.69436 95.32928
#
# Poissons Ratio (x) = 0.08222 0.07970
# Poissons Ratio (y) = 0.12161 0.54216
# Poissons Ratio (z) = 0.08495 0.39068
#
# Static dielectric constant tensor:
#      x y z
#    x 1.979970 0.000000 0.062970 
#    y 0.000000 2.089700 0.000000 
#    z 0.062970 0.000000 2.259250 
# 
# From -- ./inp_files/34267.got.cif
#   From: 2010.05.17/outbox.cif.g08.bks.cpg/sg9_18_cif.got.tgz:34267.got - 2010.06.03 20:04:27.
