data_PCOD9138267
_publ_section_title
;
Structure prediction by ZEFSAII (Michael W. Deem and Ramdas Pophale) SiO2 
 PCOD9138267
Probable space group: C C
;
_chemical_formula_sum "Si O2"
_cell_formula_units_Z 32
_cell_length_a 8.545201
_cell_length_b 34.601278
_cell_length_c 5.148168
_cell_angle_alpha 90.000000
_cell_angle_beta 61.464782
_cell_angle_gamma 90.000000
_cell_volume 1337.274586
_symmetry_space_group_name_H-M "C C"
_symmetry_group_IT_number 9
_symmetry_cell_setting 'monoclinic'
loop_
_space_group_symop_operation_xyz
x,y,z
x,-y,1/2+z
1/2+x,1/2+y,z
1/2+x,1/2-y,1/2+z
loop_
_atom_site_type_symbol
_atom_site_label
_atom_site_fract_x
_atom_site_fract_y
_atom_site_fract_z
Si Si1 0.185550 0.290999 0.809220
Si Si2 0.277997 0.664322 0.732564
Si Si3 0.803327 0.293611 0.327539
Si Si4 0.910107 0.638497 0.124835
Si Si5 0.979170 0.475016 0.097970
Si Si6 0.165031 0.923570 0.534287
Si Si7 0.113644 0.857478 0.228589
Si Si8 0.349247 0.473175 0.979424
O O1 0.249425 0.300876 0.467391
O O2 0.247868 0.250789 0.887825
O O3 0.249106 0.323424 0.960925
O O4 0.971710 0.291877 0.999600
O O5 0.475166 0.648347 0.609815
O O6 0.121189 0.635228 0.943044
O O7 0.865256 0.320012 0.522351
O O8 0.631994 0.317122 0.363187
O O9 0.817514 0.636648 0.477222
O O10 0.802793 0.604773 0.068279
O O11 0.983644 0.511083 0.297157
O O12 0.794549 0.453288 0.287176
O O13 0.159947 0.453427 0.049605
O O14 0.059385 0.894730 0.429973
O O15 0.020356 0.946201 0.815234
O O16 0.355373 0.507179 0.756512
#
# Coordination Sequence:
#
# PCOD9138267 Si02
#       8
#     4   4   4   4   4   4   4   4
#     4  11  24  42  70  94 126 174 219 282 338 384
#     4  11  26  45  65  96 131 174 222 277 329 388
#     4  10  23  42  64  97 129 167 226 277 332 393
#     4  10  25  44  61  96 137 172 222 269 324 398
#     4  10  23  44  70 101 134 170 215 271 320 379
#     4  11  25  41  69  99 131 183 213 267 326 391
#     4  11  25  42  66  93 137 173 222 269 325 397
#     4  10  23  44  69 102 135 165 221 270 316 384
#
# _framework density 23.929268
#
# number of rings (size 3 to 8) (size 9 to 14) (size 15 to 20)
#    0.000    1.500    1.250    1.500   10.500    3.000 
#    2.250    0.000    0.000    0.000    0.000    0.000 
#    0.000    0.000    0.000    0.000    0.000    0.000 
#
# Total GULP energy -89399.031787 kJ/mol
# GULP energy per Si atom -5587.439487 kJ/mol
# Density = 2.387480 g / cm^3
# Si number density = 23.929268 Si / 1000 Ang^3
#
#
#
# Elastic Constant Matrix: (Units=GPa)
#
#
# Indices 1 2 3 4 5 6 
#
# 1 86.0851 6.7391 -6.4270 0.0000 -17.7266 0.0000
# 2 6.7391 39.4429 4.5352 0.0000 -6.7747 0.0000
# 3 -6.4270 4.5352 68.3462 0.0000 -6.9240 0.0000
# 4 0.0000 0.0000 0.0000 12.5150 0.0000 -7.4454
# 5 -17.7266 -6.7747 -6.9240 0.0000 36.2753 0.0000
# 6 0.0000 0.0000 0.0000 -7.4454 0.0000 4.3956
#
#
#
# Elastic Compliance Matrix: (Units=1/GPa)
#
#
# Indices 1 2 3 4 5 6 
#
# 1 0.013230 -0.001358 0.002002 0.000000 0.006594 0.000000
# 2 -0.001358 0.026441 -0.001478 0.000000 0.003992 0.000000
# 3 0.002002 -0.001478 0.015284 0.000000 0.003620 0.000000
# 4 0.000000 0.000000 0.000000-10.389859 0.000000-17.598594
# 5 0.006594 0.003992 0.003620 0.000000 0.032226 0.000000
# 6 0.000000 0.000000 0.000000-17.598594 0.000000-29.581426
#
#
# Mechanical properties :
#
#
# Convention : Reuss Voigt Hill
#
# Bulk Modulus (GPa) = 18.76607 22.61877 20.69242
# Shear Modulus (GPa) = -0.12542 23.23899 11.55678
#
# Velocity S-wave (km/s) = -0.22919 3.11971 2.20001
# Velocity P-wave (km/s) = 2.79093 4.73811 3.88838
#
# Compressibility (1/GPa) = 0.05328768
#
# Stress axis : x y z
#
# Youngs Moduli (GPa) = 75.58606 37.82040 65.42605
#
# Poissons Ratio (x) = 0.05137 -0.13100
# Poissons Ratio (y) = 0.10266 0.09669
# Poissons Ratio (z) = -0.15134 0.05589
#
# Static dielectric constant tensor:
#      x y z
#    x 1.918240 0.000000 -0.007870 
#    y 0.000000 1.943020 0.000000 
#    z -0.007870 0.000000 1.943720 
# 
# From -- ./inp_files/1353.got.cif
#   From: 2010.05.17/outbox.cif.g08.bks.cpg/sg9_1_cif.got.tgz:1353.got - 2010.06.03 20:04:27.
