data_PCOD9138589
_publ_section_title
;
Structure prediction by ZEFSAII (Michael W. Deem and Ramdas Pophale) SiO2 
 PCOD9138589
Probable space group: C C
;
_chemical_formula_sum "Si O2"
_cell_formula_units_Z 32
_cell_length_a 5.522114
_cell_length_b 18.668273
_cell_length_c 13.215226
_cell_angle_alpha 90.000000
_cell_angle_beta 94.844960
_cell_angle_gamma 90.000000
_cell_volume 1357.467827
_symmetry_space_group_name_H-M "C C"
_symmetry_group_IT_number 9
_symmetry_cell_setting 'monoclinic'
loop_
_space_group_symop_operation_xyz
x,y,z
x,-y,1/2+z
1/2+x,1/2+y,z
1/2+x,1/2-y,1/2+z
loop_
_atom_site_type_symbol
_atom_site_label
_atom_site_fract_x
_atom_site_fract_y
_atom_site_fract_z
Si Si1 0.131170 0.913016 0.493830
Si Si2 0.960755 0.433343 0.686794
Si Si3 0.032470 0.213381 0.454596
Si Si4 0.526397 0.132089 0.403517
Si Si5 0.779678 0.833963 0.358947
Si Si6 0.892441 0.573678 0.789597
Si Si7 0.545135 0.670290 0.668991
Si Si8 0.787629 0.031809 0.560966
O O1 0.298687 0.897083 0.595424
O O2 0.271134 0.921985 0.393965
O O3 0.947330 0.849052 0.461130
O O4 0.993125 0.987266 0.510730
O O5 0.029085 0.385724 0.784652
O O6 0.173897 0.474705 0.634582
O O7 0.823465 0.500111 0.734490
O O8 0.264594 0.164241 0.427668
O O9 0.065411 0.284170 0.390099
O O10 0.064479 0.223525 0.576134
O O11 0.763732 0.181687 0.429459
O O12 0.587411 0.062356 0.475058
O O13 0.674459 0.910705 0.320001
O O14 0.916746 0.802750 0.266565
O O15 0.799904 0.636619 0.712841
O O16 0.396714 0.601650 0.619635
#
# Coordination Sequence:
#
# PCOD9138589 Si02
#       8
#     4   4   4   4   4   4   4   4
#     4  11  25  41  70 107 145 186 237 307 368 446
#     4  12  23  41  70 106 148 184 236 312 377 436
#     4  11  28  52  73 106 147 195 256 300 350 442
#     4  11  28  46  74 106 147 194 246 307 362 435
#     4  11  25  50  71 105 143 199 251 297 362 437
#     4  11  23  43  71 105 141 188 241 301 373 448
#     4  10  23  44  78  99 143 194 237 297 381 429
#     4  11  23  43  69 106 140 190 238 299 385 443
#
# _framework density 23.573302000000002
#
# number of rings (size 3 to 8) (size 9 to 14) (size 15 to 20)
#    0.000    1.000    2.500    3.000   14.000    0.000 
#    6.750    0.000    0.000    0.000    0.000    0.000 
#    0.000    0.000    0.000    0.000    0.000    0.000 
#
# Total GULP energy -89490.518876 kJ/mol
# GULP energy per Si atom -5593.157430 kJ/mol
# Density = 2.351965 g / cm^3
# Si number density = 23.573302 Si / 1000 Ang^3
#
#
#
# Elastic Constant Matrix: (Units=GPa)
#
#
# Indices 1 2 3 4 5 6 
#
# 1 67.0239 12.4533 19.3579 0.0000 3.3905 0.0000
# 2 12.4533 46.4922 24.1288 0.0000 -4.5010 0.0000
# 3 19.3579 24.1288 129.6139 0.0000 15.6242 0.0000
# 4 0.0000 0.0000 0.0000 27.5087 0.0000 -7.0395
# 5 3.3905 -4.5010 15.6242 0.0000 36.6356 0.0000
# 6 0.0000 0.0000 0.0000 -7.0395 0.0000 42.4229
#
#
#
# Elastic Compliance Matrix: (Units=1/GPa)
#
#
# Indices 1 2 3 4 5 6 
#
# 1 0.016113 -0.003618 -0.001581 0.000000 -0.001261 0.000000
# 2 -0.003618 0.025552 -0.004886 0.000000 0.005558 0.000000
# 3 -0.001581 -0.004886 0.009399 0.000000 -0.004462 0.000000
# 4 0.000000 0.000000 0.000000 0.037964 0.000000 0.006300
# 5 -0.001261 0.005558 -0.004462 0.000000 0.029999 0.000000
# 6 0.000000 0.000000 0.000000 0.006300 0.000000 0.024618
#
#
# Mechanical properties :
#
#
# Convention : Reuss Voigt Hill
#
# Bulk Modulus (GPa) = 32.36901 39.44554 35.90728
# Shear Modulus (GPa) = 28.71724 33.79279 31.25502
#
# Velocity S-wave (km/s) = 3.49407 3.79029 3.64519
# Velocity P-wave (km/s) = 5.48079 5.99371 5.74298
#
# Compressibility (1/GPa) = 0.03089374
#
# Stress axis : x y z
#
# Youngs Moduli (GPa) = 62.06313 39.13587 106.39540
#
# Poissons Ratio (x) = 0.14157 0.16820
# Poissons Ratio (y) = 0.22451 0.51989
# Poissons Ratio (z) = 0.09812 0.19123
#
# Static dielectric constant tensor:
#      x y z
#    x 1.952050 0.000000 0.014570 
#    y 0.000000 1.915040 0.000000 
#    z 0.014570 0.000000 1.892330 
# 
# From -- ./inp_files/13352.got.cif
#   From: 2010.05.17/outbox.cif.g08.bks.cpg/sg9_7_cif.got.tgz:13352.got - 2010.06.03 20:04:27.
