data_PCOD9138732
_publ_section_title
;
Structure prediction by ZEFSAII (Michael W. Deem and Ramdas Pophale) SiO2 
 PCOD9138732
Probable space group: C C
;
_chemical_formula_sum "Si O2"
_cell_formula_units_Z 32
_cell_length_a 21.459465
_cell_length_b 4.871916
_cell_length_c 12.680363
_cell_angle_alpha 90.000000
_cell_angle_beta 111.511235
_cell_angle_gamma 90.000000
_cell_volume 1233.373791
_symmetry_space_group_name_H-M "C C"
_symmetry_group_IT_number 9
_symmetry_cell_setting 'monoclinic'
loop_
_space_group_symop_operation_xyz
x,y,z
x,-y,1/2+z
1/2+x,1/2+y,z
1/2+x,1/2-y,1/2+z
loop_
_atom_site_type_symbol
_atom_site_label
_atom_site_fract_x
_atom_site_fract_y
_atom_site_fract_z
Si Si1 0.129120 0.667645 0.479330
Si Si2 0.306969 0.945731 0.343362
Si Si3 0.941609 0.337867 0.311838
Si Si4 0.896575 0.336766 0.055616
Si Si5 0.011739 0.632604 0.197963
Si Si6 0.228513 0.592685 0.727835
Si Si7 0.118334 0.183920 0.321601
Si Si8 0.013641 0.980894 0.520098
O O1 0.193597 0.642364 0.594205
O O2 0.126885 0.365426 0.431656
O O3 0.122568 0.873979 0.372713
O O4 0.069554 0.765078 0.518116
O O5 0.323661 0.072225 0.470401
O O6 0.292382 0.213360 0.265927
O O7 0.379033 0.853995 0.348681
O O8 0.253057 0.706292 0.284796
O O9 0.908977 0.223679 0.181880
O O10 0.997026 0.170237 0.409378
O O11 0.978518 0.619962 0.294468
O O12 0.942638 0.605924 0.091073
O O13 0.942775 0.155175 0.008057
O O14 0.054168 0.350409 0.231892
O O15 0.045453 0.851925 0.141118
O O16 0.179574 0.737166 0.783200
#
# Coordination Sequence:
#
# PCOD9138732 Si02
#       8
#     4   4   4   4   4   4   4   4
#     4  12  29  48  80 114 156 208 267 323 401 473
#     4  12  26  50  76 106 154 214 263 316 388 473
#     4  10  23  46  70 116 150 199 254 323 403 466
#     4  10  25  43  71 111 150 197 251 323 387 470
#     4  10  25  43  75 115 153 194 253 327 404 458
#     4  12  30  51  76 107 157 211 269 327 377 466
#     4  12  28  50  78 117 153 206 264 333 395 469
#     4  12  24  43  78 114 163 201 255 330 411 477
#
# _framework density 25.945097000000001
#
# number of rings (size 3 to 8) (size 9 to 14) (size 15 to 20)
#    0.750    0.000    2.500    3.000   12.250    4.000 
#    0.000    1.250    0.000    0.000    0.000    0.000 
#    0.000    0.000    0.000    0.000    0.000    0.000 
#
# Total GULP energy -89139.150816 kJ/mol
# GULP energy per Si atom -5571.196926 kJ/mol
# Density = 2.588604 g / cm^3
# Si number density = 25.945097 Si / 1000 Ang^3
#
#
#
# Elastic Constant Matrix: (Units=GPa)
#
#
# Indices 1 2 3 4 5 6 
#
# 1 37.3620 -1.6091 14.8834 0.0000 17.9012 0.0000
# 2 -1.6091 86.4949 6.3710 0.0000 5.7106 0.0000
# 3 14.8834 6.3710 125.4570 0.0000 27.6079 0.0000
# 4 0.0000 0.0000 0.0000 41.9513 0.0000 -3.5844
# 5 17.9012 5.7106 27.6079 0.0000 55.3006 0.0000
# 6 0.0000 0.0000 0.0000 -3.5844 0.0000 33.9245
#
#
#
# Elastic Compliance Matrix: (Units=1/GPa)
#
#
# Indices 1 2 3 4 5 6 
#
# 1 0.032159 0.001366 -0.001755 0.000000 -0.009675 0.000000
# 2 0.001366 0.011714 -0.000442 0.000000 -0.001431 0.000000
# 3 -0.001755 -0.000442 0.009062 0.000000 -0.003910 0.000000
# 4 0.000000 0.000000 0.000000 0.024054 0.000000 0.002542
# 5 -0.009675 -0.001431 -0.003910 0.000000 0.023315 0.000000
# 6 0.000000 0.000000 0.000000 0.002542 0.000000 0.029746
#
#
# Mechanical properties :
#
#
# Convention : Reuss Voigt Hill
#
# Bulk Modulus (GPa) = 19.50370 32.06714 25.78542
# Shear Modulus (GPa) = 33.60162 41.54653 37.57408
#
# Velocity S-wave (km/s) = 3.60266 4.00600 3.80967
# Velocity P-wave (km/s) = 4.98389 5.81238 5.41401
#
# Compressibility (1/GPa) = 0.05127234
#
# Stress axis : x y z
#
# Youngs Moduli (GPa) = 31.09575 85.36902 110.35057
#
# Poissons Ratio (x) = -0.11664 0.19372
# Poissons Ratio (y) = -0.04249 0.04877
# Poissons Ratio (z) = 0.05459 0.03773
#
# Static dielectric constant tensor:
#      x y z
#    x 2.071300 0.000000 -0.008340 
#    y 0.000000 2.105500 0.000000 
#    z -0.008340 0.000000 2.184820 
# 
# From -- ./inp_files/27046.got.cif
#   From: 2010.05.17/outbox.cif.g08.bks.cpg/sg9_14_cif.got.tgz:27046.got - 2010.06.03 20:04:27.
