data_PCOD9138570
_publ_section_title
;
Structure prediction by ZEFSAII (Michael W. Deem and Ramdas Pophale) SiO2 
 PCOD9138570
Probable space group: C C
;
_chemical_formula_sum "Si O2"
_cell_formula_units_Z 32
_cell_length_a 11.102239
_cell_length_b 14.682936
_cell_length_c 17.116739
_cell_angle_alpha 90.000000
_cell_angle_beta 30.832153
_cell_angle_gamma 90.000000
_cell_volume 1430.076932
_symmetry_space_group_name_H-M "C C"
_symmetry_group_IT_number 9
_symmetry_cell_setting 'monoclinic'
loop_
_space_group_symop_operation_xyz
x,y,z
x,-y,1/2+z
1/2+x,1/2+y,z
1/2+x,1/2-y,1/2+z
loop_
_atom_site_type_symbol
_atom_site_label
_atom_site_fract_x
_atom_site_fract_y
_atom_site_fract_z
Si Si1 0.261070 0.131896 0.529380
Si Si2 0.434733 0.477023 0.748107
Si Si3 0.259098 0.645137 0.209307
Si Si4 0.952506 0.129830 0.382348
Si Si5 0.422234 0.847346 0.120715
Si Si6 0.516932 0.560258 0.918809
Si Si7 0.815560 0.734182 0.267447
Si Si8 0.679872 0.133488 0.979116
O O1 0.479790 0.141923 0.349542
O O2 0.358395 0.142268 0.564086
O O3 0.046183 0.200848 0.634189
O O4 0.135254 0.035446 0.595174
O O5 0.311316 0.415184 0.754679
O O6 0.560756 0.419509 0.745980
O O7 0.233770 0.543880 0.896525
O O8 0.326302 0.747323 0.192281
O O9 0.415967 0.604235 0.053033
O O10 0.693152 0.151016 0.494697
O O11 0.089517 0.217914 0.337322
O O12 0.949910 0.046164 0.446322
O O13 0.288085 0.921396 0.248576
O O14 0.394941 0.621419 0.919019
O O15 0.701526 0.780333 0.408385
O O16 0.953090 0.641728 0.161613
#
# Coordination Sequence:
#
# PCOD9138570 Si02
#       8
#     4   4   4   4   4   4   4   4
#     4  11  24  47  77 103 145 199 250 296 376 442
#     4  10  24  45  70 109 145 195 240 308 365 439
#     4  12  26  45  75 107 145 195 254 303 369 442
#     4  11  26  44  74 106 149 192 244 305 375 435
#     4  12  23  49  72 104 146 198 245 305 375 436
#     4  11  26  45  72 109 143 194 246 309 366 447
#     4  11  24  43  73 109 141 188 243 303 359 445
#     4  10  23  44  73 105 144 189 244 301 369 428
#
# _framework density 22.376418999999999
#
# number of rings (size 3 to 8) (size 9 to 14) (size 15 to 20)
#    0.000    1.000    5.000    2.250    7.000    4.000 
#    2.250    0.000    0.000    0.000    0.000    0.000 
#    0.000    0.000    0.000    0.000    0.000    0.000 
#
# Total GULP energy -89178.168208 kJ/mol
# GULP energy per Si atom -5573.635513 kJ/mol
# Density = 2.232549 g / cm^3
# Si number density = 22.376419 Si / 1000 Ang^3
#
#
#
# Elastic Constant Matrix: (Units=GPa)
#
#
# Indices 1 2 3 4 5 6 
#
# 1 71.5346 42.9791 23.9978 -0.0058 -2.6427 -0.0003
# 2 42.9791 91.3567 19.2415 -0.0160 9.2263 0.0046
# 3 23.9978 19.2415 77.1710 -0.0261 2.2690 0.0085
# 4 -0.0058 -0.0160 -0.0261 16.3132 0.0043 2.5403
# 5 -2.6427 9.2263 2.2690 0.0043 34.6204 0.0004
# 6 -0.0003 0.0046 0.0085 2.5403 0.0004 44.9818
#
#
#
# Elastic Compliance Matrix: (Units=1/GPa)
#
#
# Indices 1 2 3 4 5 6 
#
# 1 0.021375 -0.009583 -0.004389 -0.000010 0.004473 0.000003
# 2 -0.009583 0.016146 -0.000900 0.000013 -0.004976 -0.000002
# 3 -0.004389 -0.000900 0.014578 0.000022 -0.001051 -0.000004
# 4 -0.000010 0.000013 0.000022 0.061844 -0.000013 -0.003493
# 5 0.004473 -0.004976 -0.001051 -0.000013 0.030621 0.000001
# 6 0.000003 -0.000002 -0.000004 -0.003493 0.000001 0.022428
#
#
# Mechanical properties :
#
#
# Convention : Reuss Voigt Hill
#
# Bulk Modulus (GPa) = 44.73053 45.83324 45.28188
# Shear Modulus (GPa) = 24.48726 29.43934 26.96330
#
# Velocity S-wave (km/s) = 3.31166 3.63111 3.47506
# Velocity P-wave (km/s) = 5.88695 6.17311 6.03173
#
# Compressibility (1/GPa) = 0.02235610
#
# Stress axis : x y z
#
# Youngs Moduli (GPa) = 46.78459 61.93297 68.59527
#
# Poissons Ratio (x) = 0.59351 0.30106
# Poissons Ratio (y) = 0.44834 0.06170
# Poissons Ratio (z) = 0.20534 0.05571
#
# Static dielectric constant tensor:
#      x y z
#    x 1.881520 0.000000 0.037020 
#    y 0.000000 1.861340 0.000000 
#    z 0.037020 0.000000 1.955860 
# 
# From -- ./inp_files/30157.got.cif
#   From: 2010.05.17/outbox.cif.g08.bks.cpg/sg9_16_cif.got.tgz:30157.got - 2010.06.03 20:04:27.
