data_PCOD9138637
_publ_section_title
;
Structure prediction by ZEFSAII (Michael W. Deem and Ramdas Pophale) SiO2 
 PCOD9138637
Probable space group: C C
;
_chemical_formula_sum "Si O2"
_cell_formula_units_Z 28
_cell_length_a 9.440625
_cell_length_b 10.640016
_cell_length_c 13.408894
_cell_angle_alpha 90.000000
_cell_angle_beta 118.675624
_cell_angle_gamma 90.000000
_cell_volume 1181.704964
_symmetry_space_group_name_H-M "C C"
_symmetry_group_IT_number 9
_symmetry_cell_setting 'monoclinic'
loop_
_space_group_symop_operation_xyz
x,y,z
x,-y,1/2+z
1/2+x,1/2+y,z
1/2+x,1/2-y,1/2+z
loop_
_atom_site_type_symbol
_atom_site_label
_atom_site_fract_x
_atom_site_fract_y
_atom_site_fract_z
Si Si1 0.301980 0.457110 0.977070
Si Si2 0.655051 0.565032 0.110850
Si Si3 0.903330 0.648911 0.683219
Si Si4 0.243749 0.071639 0.371587
Si Si5 0.097656 0.348241 0.067121
Si Si6 0.824661 0.301765 0.389539
Si Si7 0.161665 0.294200 0.478174
O O1 0.261119 0.335915 0.895362
O O2 0.201489 0.584347 0.925202
O O3 0.489943 0.489046 0.038080
O O4 0.245697 0.422330 0.069916
O O5 0.801600 0.477401 0.125253
O O6 0.691664 0.586584 0.240129
O O7 0.633145 0.702429 0.058293
O O8 0.871729 0.674378 0.788998
O O9 0.816624 0.765069 0.597822
O O10 0.065743 0.634309 0.673871
O O11 0.432218 0.108332 0.455037
O O12 0.145256 0.170147 0.404488
O O13 0.223704 0.923363 0.387067
O O14 0.006072 0.310109 0.495260
#
# Coordination Sequence:
#
# PCOD9138637 Si02
#       7
#     4   4   4   4   4   4   4
#     4  12  25  42  71 103 139 182 240 284 347 417
#     4  11  23  46  69 104 136 187 235 286 355 418
#     4  10  23  46  70  93 144 185 229 285 357 407
#     4  10  23  45  70  95 143 181 230 285 350 415
#     4  11  24  45  68 103 141 180 234 296 344 418
#     4  11  24  45  68 100 136 187 232 286 348 418
#     4  11  22  43  66 100 137 186 224 292 347 409
#
# _framework density 23.694578
#
# number of rings (size 3 to 8) (size 9 to 14) (size 15 to 20)
#    0.000    1.143    5.714    0.857    4.000    0.000 
#   10.286    0.000    0.000    0.000    0.000    0.000 
#    0.000    0.000    0.000    0.000    0.000    0.000 
#
# Total GULP energy -78198.143089 kJ/mol
# GULP energy per Si atom -5585.581649 kJ/mol
# Density = 2.364065 g / cm^3
# Si number density = 23.694578 Si / 1000 Ang^3
#
#
#
# Elastic Constant Matrix: (Units=GPa)
#
#
# Indices 1 2 3 4 5 6 
#
# 1 73.2124 42.4815 -13.2952 0.0000 -23.6411 0.0000
# 2 42.4815 184.1590 34.8833 0.0000 -14.0264 0.0000
# 3 -13.2952 34.8833 60.5913 0.0000 -24.9001 0.0000
# 4 0.0000 0.0000 0.0000 14.5551 0.0000 -5.3459
# 5 -23.6411 -14.0264 -24.9001 0.0000 29.1440 0.0000
# 6 0.0000 0.0000 0.0000 -5.3459 0.0000 53.3104
#
#
#
# Elastic Compliance Matrix: (Units=1/GPa)
#
#
# Indices 1 2 3 4 5 6 
#
# 1 0.101111 -0.031190 0.104301 0.000000 0.156122 0.000000
# 2 -0.031190 0.015716 -0.035724 0.000000 -0.048259 0.000000
# 3 0.104301 -0.035724 0.135094 0.000000 0.182836 0.000000
# 4 0.000000 0.000000 0.000000 0.071332 0.000000 0.007153
# 5 0.156122 -0.048259 0.182836 0.000000 0.293942 0.000000
# 6 0.000000 0.000000 0.000000 0.007153 0.000000 0.019475
#
#
# Mechanical properties :
#
#
# Convention : Reuss Voigt Hill
#
# Bulk Modulus (GPa) = 3.06095 49.56689 26.31392
# Shear Modulus (GPa) = 7.45385 36.32810 21.89097
#
# Velocity S-wave (km/s) = 1.77557 3.91983 3.04284
# Velocity P-wave (km/s) = 2.34481 6.43827 4.84507
#
# Compressibility (1/GPa) = 0.32669647
#
# Stress axis : x y z
#
# Youngs Moduli (GPa) = 9.89012 63.62902 7.40225
#
# Poissons Ratio (x) = 1.98458 -0.77206
# Poissons Ratio (y) = 0.30847 0.26444
# Poissons Ratio (z) = -1.03155 2.27307
#
# Static dielectric constant tensor:
#      x y z
#    x 1.887470 0.000000 0.008090 
#    y 0.000000 1.932950 0.000000 
#    z 0.008090 0.000000 1.989940 
# 
# From -- ./inp_files/24035.got.cif
#   From: 2010.05.17/outbox.cif.g08.bks.cpg/sg9_13_cif.got.tgz:24035.got - 2010.06.03 20:04:27.
