data_PCOD9138521
_publ_section_title
;
Structure prediction by ZEFSAII (Michael W. Deem and Ramdas Pophale) SiO2 
 PCOD9138521
Probable space group: C C
;
_chemical_formula_sum "Si O2"
_cell_formula_units_Z 32
_cell_length_a 13.958955
_cell_length_b 11.317636
_cell_length_c 9.217517
_cell_angle_alpha 90.000000
_cell_angle_beta 120.484213
_cell_angle_gamma 90.000000
_cell_volume 1254.912456
_symmetry_space_group_name_H-M "C C"
_symmetry_group_IT_number 9
_symmetry_cell_setting 'monoclinic'
loop_
_space_group_symop_operation_xyz
x,y,z
x,-y,1/2+z
1/2+x,1/2+y,z
1/2+x,1/2-y,1/2+z
loop_
_atom_site_type_symbol
_atom_site_label
_atom_site_fract_x
_atom_site_fract_y
_atom_site_fract_z
Si Si1 0.336470 0.086178 0.640360
Si Si2 0.990678 0.142847 0.519832
Si Si3 0.204219 0.558251 0.898479
Si Si4 0.569723 0.682801 0.963854
Si Si5 0.514612 0.118946 0.220380
Si Si6 0.036466 0.758427 0.764154
Si Si7 0.202816 0.946502 0.335871
Si Si8 0.349469 0.468040 0.277099
O O1 0.414066 0.198034 0.668290
O O2 0.284845 0.087771 0.763847
O O3 0.415288 0.971468 0.674093
O O4 0.246277 0.064925 0.445062
O O5 0.029216 0.147483 0.383929
O O6 0.082855 0.064093 0.668867
O O7 0.988921 0.273340 0.589257
O O8 0.875437 0.075806 0.409301
O O9 0.119509 0.658004 0.885227
O O10 0.272617 0.613171 0.818004
O O11 0.124160 0.456782 0.769076
O O12 0.281862 0.515255 0.088868
O O13 0.543534 0.814152 0.890244
O O14 0.678188 0.638521 0.958085
O O15 0.462749 0.602877 0.836520
O O16 0.570725 0.691779 0.136279
#
# Coordination Sequence:
#
# PCOD9138521 Si02
#       8
#     4   4   4   4   4   4   4   4
#     4  11  24  45  73 105 140 187 238 295 354 423
#     4  11  25  44  66 101 144 184 228 290 353 423
#     4  11  24  43  70 101 132 177 230 288 347 417
#     4  11  25  44  68 103 142 186 236 295 353 425
#     4  10  23  44  69 101 141 180 234 293 354 424
#     4  11  25  46  72 103 140 179 236 296 353 420
#     4  11  25  42  69 101 139 182 232 286 350 412
#     4  12  25  44  67  97 138 183 230 283 350 418
#
# _framework density 25.499786
#
# number of rings (size 3 to 8) (size 9 to 14) (size 15 to 20)
#    0.000    1.000    0.000    6.000    0.000   17.000 
#    0.000    1.250    0.000    0.000    0.000    0.000 
#    0.000    0.000    0.000    0.000    0.000    0.000 
#
# Total GULP energy -89517.178187 kJ/mol
# GULP energy per Si atom -5594.823637 kJ/mol
# Density = 2.544175 g / cm^3
# Si number density = 25.499786 Si / 1000 Ang^3
#
#
#
# Elastic Constant Matrix: (Units=GPa)
#
#
# Indices 1 2 3 4 5 6 
#
# 1 156.5754 38.2359 73.3179 0.0000 -14.4576 0.0000
# 2 38.2359 75.4885 20.8995 0.0000 4.2241 0.0000
# 3 73.3179 20.8995 146.9838 0.0000 -16.1281 0.0000
# 4 0.0000 0.0000 0.0000 286.1114 0.0000 -219.5253
# 5 -14.4576 4.2241 -16.1281 0.0000 47.5394 0.0000
# 6 0.0000 0.0000 0.0000 -219.5253 0.0000 209.1308
#
#
#
# Elastic Compliance Matrix: (Units=1/GPa)
#
#
# Indices 1 2 3 4 5 6 
#
# 1 0.009295 -0.003730 -0.003905 0.000000 0.001833 0.000000
# 2 -0.003730 0.015465 -0.000638 0.000000 -0.002725 0.000000
# 3 -0.003905 -0.000638 0.009055 0.000000 0.001941 0.000000
# 4 0.000000 0.000000 0.000000 0.017961 0.000000 0.018854
# 5 0.001833 -0.002725 0.001941 0.000000 0.022493 0.000000
# 6 0.000000 0.000000 0.000000 0.018854 0.000000 0.024573
#
#
# Mechanical properties :
#
#
# Convention : Reuss Voigt Hill
#
# Bulk Modulus (GPa) = 57.90106 71.55048 64.72577
# Shear Modulus (GPa) = 41.27277 124.99594 83.13436
#
# Velocity S-wave (km/s) = 4.02749 7.00891 5.71601
# Velocity P-wave (km/s) = 6.66208 9.67574 8.30672
#
# Compressibility (1/GPa) = 0.01727084
#
# Stress axis : x y z
#
# Youngs Moduli (GPa) = 107.57964 64.66148 110.43513
#
# Poissons Ratio (x) = 0.24117 0.43127
# Poissons Ratio (y) = 0.40124 0.07041
# Poissons Ratio (z) = 0.42012 0.04122
#
# Static dielectric constant tensor:
#      x y z
#    x 2.108990 0.000000 0.051670 
#    y 0.000000 1.079890 0.000000 
#    z 0.051670 0.000000 2.030680 
# 
# From -- ./inp_files/9705.got.cif
#   From: 2010.05.17/outbox.cif.g08.bks.cpg/sg9_5_cif.got.tgz:9705.got - 2010.06.03 20:04:27.
