data_PCOD9138007
_publ_section_title
;
Structure prediction by ZEFSAII (Michael W. Deem and Ramdas Pophale) SiO2 
 PCOD9138007
Probable space group: C C
;
_chemical_formula_sum "Si O2"
_cell_formula_units_Z 32
_cell_length_a 22.330378
_cell_length_b 13.525058
_cell_length_c 13.703868
_cell_angle_alpha 90.000000
_cell_angle_beta 162.915380
_cell_angle_gamma 90.000000
_cell_volume 1215.923206
_symmetry_space_group_name_H-M "C C"
_symmetry_group_IT_number 9
_symmetry_cell_setting 'monoclinic'
loop_
_space_group_symop_operation_xyz
x,y,z
x,-y,1/2+z
1/2+x,1/2+y,z
1/2+x,1/2-y,1/2+z
loop_
_atom_site_type_symbol
_atom_site_label
_atom_site_fract_x
_atom_site_fract_y
_atom_site_fract_z
Si Si1 0.474380 0.804256 0.940930
Si Si2 0.886719 0.827501 0.792816
Si Si3 0.425604 0.503637 0.998167
Si Si4 0.610333 0.829233 0.942283
Si Si5 0.698930 0.617050 0.290257
Si Si6 0.858822 0.019212 0.622412
Si Si7 0.748455 0.692642 0.730798
Si Si8 0.928287 0.505797 0.494080
O O1 0.299138 0.743652 0.721985
O O2 0.441059 0.913032 0.930577
O O3 0.471691 0.812623 0.821186
O O4 0.677267 0.734655 0.271606
O O5 0.072795 0.773301 0.030355
O O6 0.829649 0.909615 0.623825
O O7 0.740417 0.749792 0.616582
O O8 0.944783 0.899536 0.972999
O O9 0.230559 0.567036 0.653643
O O10 0.626111 0.563671 0.275478
O O11 0.397304 0.486217 0.067982
O O12 0.455473 0.800284 0.615038
O O13 0.894382 0.567780 0.542456
O O14 0.520600 0.585224 0.934142
O O15 0.632423 0.057608 0.293867
O O16 0.746301 0.574059 0.709195
#
# Coordination Sequence:
#
# PCOD9138007 Si02
#       8
#     4   4   4   4   4   4   4   4
#     4  11  22  40  70 105 133 176 241 298 355 423
#     4  11  27  49  69 107 149 196 246 296 380 433
#     4  10  22  46  73 100 144 186 237 308 363 420
#     4  11  23  42  73 106 137 182 246 298 360 433
#     4  10  23  46  67 104 143 181 242 295 369 434
#     4  11  24  48  74 103 152 188 239 317 360 442
#     4  12  26  47  71 106 145 194 244 298 367 455
#     4  12  23  46  73 101 143 191 245 296 368 440
#
# _framework density 26.317450999999998
#
# number of rings (size 3 to 8) (size 9 to 14) (size 15 to 20)
#    0.000    1.000    5.000    3.000    3.500    1.000 
#    6.750    0.000    0.000    0.000    0.000    0.000 
#    0.000    0.000    0.000    0.000    0.000    0.000 
#
# Total GULP energy -89426.419949 kJ/mol
# GULP energy per Si atom -5589.151247 kJ/mol
# Density = 2.625755 g / cm^3
# Si number density = 26.317451 Si / 1000 Ang^3
#
#
#
# Elastic Constant Matrix: (Units=GPa)
#
#
# Indices 1 2 3 4 5 6 
#
# 1 196.9487 27.9780 22.6777 0.0000 16.5106 0.0000
# 2 27.9780 96.0074 -6.7311 0.0000 -2.3256 0.0000
# 3 22.6777 -6.7311 55.5183 0.0000 5.1817 0.0000
# 4 0.0000 0.0000 0.0000 13.1270 0.0000 8.3350
# 5 16.5106 -2.3256 5.1817 0.0000 28.1821 0.0000
# 6 0.0000 0.0000 0.0000 8.3350 0.0000 40.5134
#
#
#
# Elastic Compliance Matrix: (Units=1/GPa)
#
#
# Indices 1 2 3 4 5 6 
#
# 1 0.005893 -0.001959 -0.002348 0.000000 -0.003182 0.000000
# 2 -0.001959 0.011168 0.001995 0.000000 0.001702 0.000000
# 3 -0.002348 0.001995 0.019402 0.000000 -0.002027 0.000000
# 4 0.000000 0.000000 0.000000 0.087626 0.000000 -0.018028
# 5 -0.003182 0.001702 -0.002027 0.000000 0.037861 0.000000
# 6 0.000000 0.000000 0.000000 -0.018028 0.000000 0.028392
#
#
# Mechanical properties :
#
#
# Convention : Reuss Voigt Hill
#
# Bulk Modulus (GPa) = 31.40661 48.48041 39.94351
# Shear Modulus (GPa) = 24.32173 36.66781 30.49477
#
# Velocity S-wave (km/s) = 3.04331 3.73673 3.40770
# Velocity P-wave (km/s) = 4.93038 6.08924 5.54020
#
# Compressibility (1/GPa) = 0.03184043
#
# Stress axis : x y z
#
# Youngs Moduli (GPa) = 169.69746 89.54275 51.54074
#
# Poissons Ratio (x) = 0.17541 0.12099
# Poissons Ratio (y) = 0.33243 -0.10284
# Poissons Ratio (z) = 0.39837 -0.17866
#
# Static dielectric constant tensor:
#      x y z
#    x 2.005600 0.000000 -0.028710 
#    y 0.000000 2.150540 0.000000 
#    z -0.028710 0.000000 2.237420 
# 
# From -- ./inp_files/27823.got.cif
#   From: 2010.05.17/outbox.cif.g08.bks.cpg/sg9_14_cif.got.tgz:27823.got - 2010.06.03 20:04:27.
