data_PCOD9138173
_publ_section_title
;
Structure prediction by ZEFSAII (Michael W. Deem and Ramdas Pophale) SiO2 
 PCOD9138173
Probable space group: C C
;
_chemical_formula_sum "Si O2"
_cell_formula_units_Z 28
_cell_length_a 9.829731
_cell_length_b 14.816281
_cell_length_c 9.286275
_cell_angle_alpha 90.000000
_cell_angle_beta 107.454059
_cell_angle_gamma 90.000000
_cell_volume 1290.183618
_symmetry_space_group_name_H-M "C C"
_symmetry_group_IT_number 9
_symmetry_cell_setting 'monoclinic'
loop_
_space_group_symop_operation_xyz
x,y,z
x,-y,1/2+z
1/2+x,1/2+y,z
1/2+x,1/2-y,1/2+z
loop_
_atom_site_type_symbol
_atom_site_label
_atom_site_fract_x
_atom_site_fract_y
_atom_site_fract_z
Si Si1 0.199500 0.756314 0.608020
Si Si2 0.758645 0.866961 0.661352
Si Si3 0.297166 0.564726 0.699062
Si Si4 0.991352 0.898371 0.527977
Si Si5 0.306362 0.205721 0.857218
Si Si6 0.610128 0.264404 0.890961
Si Si7 0.094279 0.919381 0.120460
O O1 0.201281 0.649416 0.626573
O O2 0.319526 0.790189 0.534396
O O3 0.195676 0.786982 0.773004
O O4 0.059369 0.804517 0.498934
O O5 0.922706 0.881556 0.662727
O O6 0.737845 0.803128 0.792077
O O7 0.695554 0.808228 0.512839
O O8 0.713892 0.970449 0.661817
O O9 0.437550 0.575769 0.642923
O O10 0.367849 0.570800 0.879937
O O11 0.109997 0.976852 0.575423
O O12 0.457733 0.213975 0.825331
O O13 0.210237 0.124373 0.765490
O O14 0.591693 0.351790 0.985414
#
# Coordination Sequence:
#
# PCOD9138173 Si02
#       7
#     4   4   4   4   4   4   4
#     4  12  24  36  64  96 126 160 210 262 316 366
#     4  10  23  40  67  88 125 169 215 251 316 368
#     4  11  22  41  66  95 120 168 215 263 299 385
#     4  11  22  41  66  95 120 168 215 263 299 385
#     4  11  22  41  63  94 130 163 206 266 315 371
#     4  11  22  41  63  94 130 163 206 266 315 371
#     4  10  23  40  67  88 125 169 215 251 316 368
#
# _framework density 21.702335999999999
#
# number of rings (size 3 to 8) (size 9 to 14) (size 15 to 20)
#    0.000    1.143    5.714    0.857    4.000    0.000 
#    0.000    2.857    0.000    0.000    0.000    0.000 
#    0.000    0.000    0.000    0.000    0.000    0.000 
#
# Total GULP energy -78029.882761 kJ/mol
# GULP energy per Si atom -5573.563054 kJ/mol
# Density = 2.165294 g / cm^3
# Si number density = 21.702336 Si / 1000 Ang^3
#
#
#
# Elastic Constant Matrix: (Units=GPa)
#
#
# Indices 1 2 3 4 5 6 
#
# 1 32.1872 39.8473 22.3333 0.0000 -10.0634 0.0000
# 2 39.8473 150.3145 35.5760 0.0000 13.6831 0.0000
# 3 22.3333 35.5760 114.7632 0.0000 -15.9659 0.0000
# 4 0.0000 0.0000 0.0000 18.5737 0.0000 4.2506
# 5 -10.0634 13.6831 -15.9659 0.0000 30.5121 0.0000
# 6 0.0000 0.0000 0.0000 4.2506 0.0000 35.8009
#
#
#
# Elastic Compliance Matrix: (Units=1/GPa)
#
#
# Indices 1 2 3 4 5 6 
#
# 1 0.066420 -0.019613 -0.002777 0.000000 0.029249 0.000000
# 2 -0.019613 0.013664 -0.002342 0.000000 -0.013822 0.000000
# 3 -0.002777 -0.002342 0.010784 0.000000 0.005777 0.000000
# 4 0.000000 0.000000 0.000000 0.055343 0.000000 -0.006571
# 5 0.029249 -0.013822 0.005777 0.000000 0.051642 0.000000
# 6 0.000000 0.000000 0.000000 -0.006571 0.000000 0.028712
#
#
# Mechanical properties :
#
#
# Convention : Reuss Voigt Hill
#
# Bulk Modulus (GPa) = 24.15163 54.75312 39.45237
# Shear Modulus (GPa) = 17.25146 30.27789 23.76468
#
# Velocity S-wave (km/s) = 2.82248 3.73922 3.31271
# Velocity P-wave (km/s) = 4.66632 6.62769 5.73153
#
# Compressibility (1/GPa) = 0.04140508
#
# Stress axis : x y z
#
# Youngs Moduli (GPa) = 15.05574 73.18256 92.73249
#
# Poissons Ratio (x) = 1.43531 0.25748
# Poissons Ratio (y) = 0.29528 0.21719
# Poissons Ratio (z) = 0.04180 0.17140
#
# Static dielectric constant tensor:
#      x y z
#    x 1.848720 0.000000 -0.017570 
#    y 0.000000 1.862210 0.000000 
#    z -0.017570 0.000000 1.867490 
# 
# From -- ./inp_files/7366.got.cif
#   From: 2010.05.17/outbox.cif.g08.bks.cpg/sg9_4_cif.got.tgz:7366.got - 2010.06.03 20:04:27.
