data_PCOD9138525
_publ_section_title
;
Structure prediction by ZEFSAII (Michael W. Deem and Ramdas Pophale) SiO2 
 PCOD9138525
Probable space group: C C
;
_chemical_formula_sum "Si O2"
_cell_formula_units_Z 28
_cell_length_a 9.197795
_cell_length_b 10.980158
_cell_length_c 11.172834
_cell_angle_alpha 90.000000
_cell_angle_beta 90.853783
_cell_angle_gamma 90.000000
_cell_volume 1128.255456
_symmetry_space_group_name_H-M "C C"
_symmetry_group_IT_number 9
_symmetry_cell_setting 'monoclinic'
loop_
_space_group_symop_operation_xyz
x,y,z
x,-y,1/2+z
1/2+x,1/2+y,z
1/2+x,1/2-y,1/2+z
loop_
_atom_site_type_symbol
_atom_site_label
_atom_site_fract_x
_atom_site_fract_y
_atom_site_fract_z
Si Si1 0.671780 0.955924 0.535210
Si Si2 0.171216 0.189198 0.941613
Si Si3 0.405240 0.235079 0.271424
Si Si4 0.004220 0.324765 0.126075
Si Si5 0.905988 0.874153 0.018730
Si Si6 0.917042 0.458208 0.339754
Si Si7 0.216061 0.203859 0.482786
O O1 0.558353 0.965720 0.424938
O O2 0.673041 0.815982 0.569677
O O3 0.612514 0.059755 0.621287
O O4 0.838388 0.992114 0.516691
O O5 0.270312 0.072543 0.912769
O O6 0.046345 0.216050 0.843996
O O7 0.289257 0.298166 0.941116
O O8 0.091011 0.210683 0.070073
O O9 0.400092 0.306477 0.147260
O O10 0.265059 0.257325 0.355061
O O11 0.405572 0.086336 0.267734
O O12 0.938861 0.340540 0.255501
O O13 0.865175 0.347999 0.038165
O O14 0.069508 0.871858 0.974824
#
# Coordination Sequence:
#
# PCOD9138525 Si02
#       7
#     4   4   4   4   4   4   4
#     4  11  24  44  69 104 143 189 246 292 363 440
#     4  10  23  44  69 110 144 182 253 297 349 458
#     4  11  25  45  72 107 147 191 249 300 370 438
#     4  10  24  45  69 104 148 186 245 303 363 433
#     4  11  23  43  71 105 147 187 240 306 362 431
#     4  12  22  44  79 100 143 208 234 300 381 424
#     4  11  23  45  67 106 144 183 241 312 348 442
#
# _framework density 24.817076
#
# number of rings (size 3 to 8) (size 9 to 14) (size 15 to 20)
#    0.000    1.143    5.714    1.714    4.000    2.286 
#    0.000    4.286    0.000    0.000    0.000    0.000 
#    0.000    0.000    0.000    0.000    0.000    0.000 
#
# Total GULP energy -78189.573005 kJ/mol
# GULP energy per Si atom -5584.969500 kJ/mol
# Density = 2.476059 g / cm^3
# Si number density = 24.817076 Si / 1000 Ang^3
#
#
#
# Elastic Constant Matrix: (Units=GPa)
#
#
# Indices 1 2 3 4 5 6 
#
# 1 197.7377 50.9109 39.5190 0.0000 -11.5837 0.0000
# 2 50.9109 76.9063 28.6589 0.0000 -7.1830 0.0000
# 3 39.5190 28.6589 73.3254 0.0000 -23.3403 0.0000
# 4 0.0000 0.0000 0.0000 34.0933 0.0000 -7.8436
# 5 -11.5837 -7.1830 -23.3403 0.0000 29.4909 0.0000
# 6 0.0000 0.0000 0.0000 -7.8436 0.0000 56.7196
#
#
#
# Elastic Compliance Matrix: (Units=1/GPa)
#
#
# Indices 1 2 3 4 5 6 
#
# 1 0.006357 -0.003432 -0.002080 0.000000 0.000015 0.000000
# 2 -0.003432 0.017112 -0.005268 0.000000 -0.001349 0.000000
# 3 -0.002080 -0.005268 0.021588 0.000000 0.014985 0.000000
# 4 0.000000 0.000000 0.000000 0.030295 0.000000 0.004189
# 5 0.000015 -0.001349 0.014985 0.000000 0.045446 0.000000
# 6 0.000000 0.000000 0.000000 0.004189 0.000000 0.018210
#
#
# Mechanical properties :
#
#
# Convention : Reuss Voigt Hill
#
# Bulk Modulus (GPa) = 42.55893 65.12745 53.84319
# Shear Modulus (GPa) = 29.69107 39.31947 34.50527
#
# Velocity S-wave (km/s) = 3.46265 3.98473 3.73283
# Velocity P-wave (km/s) = 5.75959 6.88990 6.34995
#
# Compressibility (1/GPa) = 0.02349683
#
# Stress axis : x y z
#
# Youngs Moduli (GPa) = 157.29603 58.43921 46.32211
#
# Poissons Ratio (x) = 0.20056 0.09636
# Poissons Ratio (y) = 0.53983 0.24402
# Poissons Ratio (z) = 0.32722 0.30785
#
# Static dielectric constant tensor:
#      x y z
#    x 2.002830 0.000000 -0.128250 
#    y 0.000000 2.021380 0.000000 
#    z -0.128250 0.000000 2.080060 
# 
# From -- ./inp_files/14226.got.cif
#   From: 2010.05.17/outbox.cif.g08.bks.cpg/sg9_8_cif.got.tgz:14226.got - 2010.06.03 20:04:27.
