data_PCOD9138995
_publ_section_title
;
Structure prediction by ZEFSAII (Michael W. Deem and Ramdas Pophale) SiO2 
 PCOD9138995
Probable space group: C C
;
_chemical_formula_sum "Si O2"
_cell_formula_units_Z 24
_cell_length_a 20.219991
_cell_length_b 7.182923
_cell_length_c 14.219621
_cell_angle_alpha 90.000000
_cell_angle_beta 26.720179
_cell_angle_gamma 90.000000
_cell_volume 928.600588
_symmetry_space_group_name_H-M "C C"
_symmetry_group_IT_number 9
_symmetry_cell_setting 'monoclinic'
loop_
_space_group_symop_operation_xyz
x,y,z
x,-y,1/2+z
1/2+x,1/2+y,z
1/2+x,1/2-y,1/2+z
loop_
_atom_site_type_symbol
_atom_site_label
_atom_site_fract_x
_atom_site_fract_y
_atom_site_fract_z
Si Si1 0.504380 0.282213 0.589590
Si Si2 0.818430 0.125410 0.162245
Si Si3 0.318024 0.056046 0.336061
Si Si4 0.437335 0.094586 0.376199
Si Si5 0.320043 0.767134 0.641698
Si Si6 0.575112 0.737166 0.203309
O O1 0.679506 0.261583 0.356137
O O2 0.407445 0.411492 0.645898
O O3 0.475145 0.309099 0.737574
O O4 0.445333 0.078451 0.635947
O O5 0.933903 0.230328 0.948383
O O6 0.755621 0.933946 0.200037
O O7 0.383989 0.159134 0.342154
O O8 0.268051 0.174072 0.310668
O O9 0.203333 0.907299 0.523708
O O10 0.323103 0.942278 0.567076
O O11 0.583008 0.963891 0.183452
O O12 0.493941 0.714273 0.405595
#
# Coordination Sequence:
#
# PCOD9138995 Si02
#       6
#     4   4   4   4   4   4
#     4  11  22  44  72  99 150 184 248 309 372 447
#     4  12  25  45  72 113 142 200 249 309 378 458
#     4  11  21  48  70 107 149 196 251 316 373 456
#     4   9  23  42  70 102 149 191 237 319 369 448
#     4  10  24  43  69 108 141 202 250 308 382 451
#     4   9  21  44  71  97 143 195 235 309 372 434
#
# _framework density 25.845344999999998
#
# number of rings (size 3 to 8) (size 9 to 14) (size 15 to 20)
#    1.000    0.667    3.333    0.000    2.333    4.000 
#    9.000    1.667    0.000    0.000    0.000    0.000 
#    0.000    0.000    0.000    0.000    0.000    0.000 
#
# Total GULP energy -66830.585141 kJ/mol
# GULP energy per Si atom -5569.215428 kJ/mol
# Density = 2.578652 g / cm^3
# Si number density = 25.845345 Si / 1000 Ang^3
#
#
#
# Elastic Constant Matrix: (Units=GPa)
#
#
# Indices 1 2 3 4 5 6 
#
# 1 88.4346 20.2711 18.5367 0.0001 13.1632 -0.0002
# 2 20.2711 89.5098 24.9386 -0.0012 18.4406 0.0007
# 3 18.5367 24.9386 80.1652 0.0001 1.2796 0.0000
# 4 0.0001 -0.0012 0.0001 37.7693 0.0006 12.4680
# 5 13.1632 18.4406 1.2796 0.0006 34.3988 -0.0002
# 6 -0.0002 0.0007 0.0000 12.4680 -0.0002 25.7556
#
#
#
# Elastic Compliance Matrix: (Units=1/GPa)
#
#
# Indices 1 2 3 4 5 6 
#
# 1 0.012739 -0.001366 -0.002456 0.000000 -0.004051 0.000000
# 2 -0.001366 0.013981 -0.003925 0.000001 -0.006826 -0.000001
# 3 -0.002456 -0.003925 0.014223 0.000000 0.002515 0.000000
# 4 0.000000 0.000001 0.000000 0.031512 -0.000001 -0.015255
# 5 -0.004051 -0.006826 0.002515 -0.000001 0.034187 0.000001
# 6 0.000000 -0.000001 0.000000 -0.015255 0.000001 0.046211
#
#
# Mechanical properties :
#
#
# Convention : Reuss Voigt Hill
#
# Bulk Modulus (GPa) = 39.29348 42.84472 41.06910
# Shear Modulus (GPa) = 28.27585 32.54229 30.40907
#
# Velocity S-wave (km/s) = 3.31122 3.55225 3.43385
# Velocity P-wave (km/s) = 5.46399 5.78256 5.62553
#
# Compressibility (1/GPa) = 0.02544951
#
# Stress axis : x y z
#
# Youngs Moduli (GPa) = 78.50107 71.52520 70.30927
#
# Poissons Ratio (x) = 0.09771 0.17268
# Poissons Ratio (y) = 0.10724 0.27593
# Poissons Ratio (z) = 0.19279 0.28070
#
# Static dielectric constant tensor:
#      x y z
#    x 2.062320 0.000000 -0.007480 
#    y 0.000000 2.081430 0.000000 
#    z -0.007480 0.000000 2.139820 
# 
# From -- ./inp_files/27209.got.cif
#   From: 2010.05.17/outbox.cif.g08.bks.cpg/sg9_14_cif.got.tgz:27209.got - 2010.06.03 20:04:27.
