data_PCOD9138865
_publ_section_title
;
Structure prediction by ZEFSAII (Michael W. Deem and Ramdas Pophale) SiO2 
 PCOD9138865
Probable space group: C C
;
_chemical_formula_sum "Si O2"
_cell_formula_units_Z 24
_cell_length_a 5.238121
_cell_length_b 23.575547
_cell_length_c 8.756532
_cell_angle_alpha 90.000000
_cell_angle_beta 118.444423
_cell_angle_gamma 90.000000
_cell_volume 950.815851
_symmetry_space_group_name_H-M "C C"
_symmetry_group_IT_number 9
_symmetry_cell_setting 'monoclinic'
loop_
_space_group_symop_operation_xyz
x,y,z
x,-y,1/2+z
1/2+x,1/2+y,z
1/2+x,1/2-y,1/2+z
loop_
_atom_site_type_symbol
_atom_site_label
_atom_site_fract_x
_atom_site_fract_y
_atom_site_fract_z
Si Si1 0.961930 0.701927 0.425130
Si Si2 0.765464 0.100349 0.344463
Si Si3 0.398389 0.048452 0.503446
Si Si4 0.966162 0.637554 0.741736
Si Si5 0.994960 0.181457 0.051093
Si Si6 0.806290 0.416806 0.479670
O O1 0.650582 0.696878 0.253049
O O2 0.181204 0.660665 0.396048
O O3 0.926043 0.679334 0.587580
O O4 0.080573 0.765666 0.466183
O O5 0.585962 0.057636 0.404312
O O6 0.629517 0.095136 0.137949
O O7 0.099849 0.084261 0.426666
O O8 0.579780 0.078945 0.691754
O O9 0.293930 0.984150 0.483931
O O10 0.160254 0.674032 0.914353
O O11 0.739286 0.609593 0.794650
O O12 0.119217 0.120490 0.040489
#
# Coordination Sequence:
#
# PCOD9138865 Si02
#       6
#     4   4   4   4   4   4
#     4  10  23  50  75 109 156 200 265 324 383 472
#     4  10  26  48  74 110 154 200 256 322 386 458
#     4  11  26  47  78 112 159 200 261 320 385 468
#     4  11  26  45  77 108 149 210 253 317 391 452
#     4  11  24  49  71 113 156 201 266 315 399 454
#     4  11  27  43  73 112 150 207 259 320 390 464
#
# _framework density 25.241482000000001
#
# number of rings (size 3 to 8) (size 9 to 14) (size 15 to 20)
#    0.000    1.333    1.667    1.000   16.333    0.000 
#   12.000    0.000    0.000    0.000    0.000    0.000 
#    0.000    0.000    0.000    0.000    0.000    0.000 
#
# Total GULP energy -66972.787859 kJ/mol
# GULP energy per Si atom -5581.065655 kJ/mol
# Density = 2.518403 g / cm^3
# Si number density = 25.241482 Si / 1000 Ang^3
#
#
#
# Elastic Constant Matrix: (Units=GPa)
#
#
# Indices 1 2 3 4 5 6 
#
# 1 88.0082 26.5776 28.8701 0.0000 4.6967 0.0000
# 2 26.5776 163.6209 20.7510 0.0000 2.7483 0.0000
# 3 28.8701 20.7510 122.2379 0.0000 -0.0238 0.0000
# 4 0.0000 0.0000 0.0000 30.8123 0.0000 1.0850
# 5 4.6967 2.7483 -0.0238 0.0000 32.3923 0.0000
# 6 0.0000 0.0000 0.0000 1.0850 0.0000 21.7605
#
#
#
# Elastic Compliance Matrix: (Units=1/GPa)
#
#
# Indices 1 2 3 4 5 6 
#
# 1 0.012874 -0.001713 -0.002750 0.000000 -0.001723 0.000000
# 2 -0.001713 0.006483 -0.000696 0.000000 -0.000302 0.000000
# 3 -0.002750 -0.000696 0.008949 0.000000 0.000464 0.000000
# 4 0.000000 0.000000 0.000000 0.032512 0.000000 -0.001621
# 5 -0.001723 -0.000302 0.000464 0.000000 0.031147 0.000000
# 6 0.000000 0.000000 0.000000 -0.001621 0.000000 0.046036
#
#
# Mechanical properties :
#
#
# Convention : Reuss Voigt Hill
#
# Bulk Modulus (GPa) = 55.59583 58.47382 57.03482
# Shear Modulus (GPa) = 32.40117 36.83757 34.61937
#
# Velocity S-wave (km/s) = 3.58669 3.82436 3.70743
# Velocity P-wave (km/s) = 6.26305 6.53583 6.40089
#
# Compressibility (1/GPa) = 0.01798696
#
# Stress axis : x y z
#
# Youngs Moduli (GPa) = 77.67520 154.24111 111.75040
#
# Poissons Ratio (x) = 0.26429 0.30732
# Poissons Ratio (y) = 0.13309 0.07778
# Poissons Ratio (z) = 0.21361 0.10735
#
# Static dielectric constant tensor:
#      x y z
#    x 2.050850 0.000000 0.092880 
#    y 0.000000 2.025320 0.000000 
#    z 0.092880 0.000000 2.177140 
# 
# From -- ./inp_files/4022.got.cif
#   From: 2010.05.17/outbox.cif.g08.bks.cpg/sg9_3_cif.got.tgz:4022.got - 2010.06.03 20:04:27.
