data_PCOD9138268
_publ_section_title
;
Structure prediction by ZEFSAII (Michael W. Deem and Ramdas Pophale) SiO2 
 PCOD9138268
Probable space group: C C
;
_chemical_formula_sum "Si O2"
_cell_formula_units_Z 32
_cell_length_a 9.013219
_cell_length_b 10.915564
_cell_length_c 14.253512
_cell_angle_alpha 90.000000
_cell_angle_beta 112.623702
_cell_angle_gamma 90.000000
_cell_volume 1294.415676
_symmetry_space_group_name_H-M "C C"
_symmetry_group_IT_number 9
_symmetry_cell_setting 'monoclinic'
loop_
_space_group_symop_operation_xyz
x,y,z
x,-y,1/2+z
1/2+x,1/2+y,z
1/2+x,1/2-y,1/2+z
loop_
_atom_site_type_symbol
_atom_site_label
_atom_site_fract_x
_atom_site_fract_y
_atom_site_fract_z
Si Si1 0.250000 0.291941 0.152420
Si Si2 0.070706 0.840960 0.130098
Si Si3 0.644496 0.867512 0.321071
Si Si4 0.353008 0.030632 0.194597
Si Si5 0.306339 0.981770 0.461866
Si Si6 0.958055 0.741311 0.447919
Si Si7 0.210346 0.740689 0.343893
Si Si8 0.521834 0.644218 0.407718
O O1 0.384215 0.350370 0.116461
O O2 0.201287 0.373696 0.227317
O O3 0.321724 0.169002 0.214066
O O4 0.089666 0.248099 0.061510
O O5 0.187235 0.957178 0.172267
O O6 0.145763 0.748324 0.223226
O O7 0.085296 0.807382 0.024475
O O8 0.503809 0.969843 0.284674
O O9 0.814140 0.840861 0.416289
O O10 0.553030 0.741436 0.332093
O O11 0.367982 0.034302 0.083703
O O12 0.387009 0.104515 0.442412
O O13 0.118380 0.019976 0.415864
O O14 0.316499 0.859157 0.403319
O O15 0.069287 0.744971 0.383775
O O16 0.332680 0.628347 0.376841
#
# Coordination Sequence:
#
# PCOD9138268 Si02
#       8
#     4   4   4   4   4   4   4   4
#     4  12  24  46  69 103 141 180 231 298 346 414
#     4  11  24  42  70 102 136 187 236 282 350 420
#     4  11  24  42  69 102 138 185 235 284 352 422
#     4  11  23  44  69  97 138 184 228 289 352 412
#     4  10  23  42  68  97 137 182 224 286 352 411
#     4  11  23  42  71 100 140 178 228 293 349 413
#     4  12  22  44  69  96 142 183 225 291 350 409
#     4  10  23  42  65 101 138 175 237 289 337 421
#
# _framework density 24.721578000000001
#
# number of rings (size 3 to 8) (size 9 to 14) (size 15 to 20)
#    0.000    1.000    6.250    0.000    3.500    0.000 
#    2.250    6.250    0.000    0.000    0.000    0.000 
#    0.000    0.000    0.000    0.000    0.000    0.000 
#
# Total GULP energy -89400.086868 kJ/mol
# GULP energy per Si atom -5587.505429 kJ/mol
# Density = 2.466531 g / cm^3
# Si number density = 24.721578 Si / 1000 Ang^3
#
#
#
# Elastic Constant Matrix: (Units=GPa)
#
#
# Indices 1 2 3 4 5 6 
#
# 1 130.0824 44.6214 17.9226 0.0000 22.4725 0.0000
# 2 44.6214 74.3710 2.7708 0.0000 19.0286 0.0000
# 3 17.9226 2.7708 82.3285 0.0000 16.9284 0.0000
# 4 0.0000 0.0000 0.0000 33.5932 0.0000 2.6884
# 5 22.4725 19.0286 16.9284 0.0000 52.2843 0.0000
# 6 0.0000 0.0000 0.0000 2.6884 0.0000 36.3612
#
#
#
# Elastic Compliance Matrix: (Units=1/GPa)
#
#
# Indices 1 2 3 4 5 6 
#
# 1 0.010132 -0.005557 -0.001649 0.000000 -0.001798 0.000000
# 2 -0.005557 0.017908 0.001560 0.000000 -0.004634 0.000000
# 3 -0.001649 0.001560 0.013310 0.000000 -0.004169 0.000000
# 4 0.000000 0.000000 0.000000 0.029945 0.000000 -0.002214
# 5 -0.001798 -0.004634 -0.004169 0.000000 0.022935 0.000000
# 6 0.000000 0.000000 0.000000 -0.002214 0.000000 0.027666
#
#
# Mechanical properties :
#
#
# Convention : Reuss Voigt Hill
#
# Bulk Modulus (GPa) = 33.26977 46.37903 39.82440
# Shear Modulus (GPa) = 34.91456 39.21219 37.06337
#
# Velocity S-wave (km/s) = 3.76215 3.98697 3.87619
# Velocity P-wave (km/s) = 5.68847 6.32423 6.01476
#
# Compressibility (1/GPa) = 0.03005732
#
# Stress axis : x y z
#
# Youngs Moduli (GPa) = 98.70178 55.84131 75.13123
#
# Poissons Ratio (x) = 0.31032 0.12388
# Poissons Ratio (y) = 0.54851 -0.11720
# Poissons Ratio (z) = 0.16274 -0.08711
#
# Static dielectric constant tensor:
#      x y z
#    x 2.069940 0.000000 0.009000 
#    y 0.000000 1.940650 0.000000 
#    z 0.009000 0.000000 1.979390 
# 
# From -- ./inp_files/22711.got.cif
#   From: 2010.05.17/outbox.cif.g08.bks.cpg/sg9_12_cif.got.tgz:22711.got - 2010.06.03 20:04:27.
