data_PCOD9138099
_publ_section_title
;
Structure prediction by ZEFSAII (Michael W. Deem and Ramdas Pophale) SiO2 
 PCOD9138099
Probable space group: C C
;
_chemical_formula_sum "Si O2"
_cell_formula_units_Z 32
_cell_length_a 7.230368
_cell_length_b 16.735149
_cell_length_c 10.350592
_cell_angle_alpha 90.000000
_cell_angle_beta 105.561773
_cell_angle_gamma 90.000000
_cell_volume 1206.522896
_symmetry_space_group_name_H-M "C C"
_symmetry_group_IT_number 9
_symmetry_cell_setting 'monoclinic'
loop_
_space_group_symop_operation_xyz
x,y,z
x,-y,1/2+z
1/2+x,1/2+y,z
1/2+x,1/2-y,1/2+z
loop_
_atom_site_type_symbol
_atom_site_label
_atom_site_fract_x
_atom_site_fract_y
_atom_site_fract_z
Si Si1 0.659370 0.399567 0.570480
Si Si2 0.528492 0.373738 0.876269
Si Si3 0.335290 0.941502 0.108934
Si Si4 0.176085 0.471037 0.775717
Si Si5 0.743418 0.867431 0.427924
Si Si6 0.167402 0.251185 0.197276
Si Si7 0.325389 0.840022 0.361269
Si Si8 0.177425 0.678000 0.432754
O O1 0.550957 0.298009 0.786124
O O2 0.700857 0.485647 0.634355
O O3 0.442265 0.368781 0.538283
O O4 0.772358 0.323370 0.648792
O O5 0.387564 0.438233 0.782525
O O6 0.844998 0.372953 0.219962
O O7 0.729802 0.406932 0.963714
O O8 0.546900 0.835699 0.453732
O O9 0.703656 0.042086 0.881381
O O10 0.039670 0.511362 0.642630
O O11 0.088899 0.395120 0.836131
O O12 0.219447 0.903814 0.432256
O O13 0.775960 0.815139 0.304950
O O14 0.401870 0.350753 0.979515
O O15 0.094453 0.300678 0.057590
O O16 0.203924 0.759381 0.356496
#
# Coordination Sequence:
#
# PCOD9138099 Si02
#       8
#     4   4   4   4   4   4   4   4
#     4  11  26  43  72 112 150 203 264 332 397 483
#     4  10  22  48  77 118 157 211 263 340 421 472
#     4  11  24  45  76 109 156 214 260 338 401 503
#     4   9  22  45  74 108 160 207 265 324 414 482
#     4  11  22  48  69 112 149 205 260 322 408 485
#     4  11  25  44  80 110 152 206 272 332 404 487
#     4  10  24  47  72 107 155 202 266 327 407 476
#     4   9  21  50  72 116 155 210 264 341 406 488
#
# _framework density 26.522499
#
# number of rings (size 3 to 8) (size 9 to 14) (size 15 to 20)
#    0.750    1.000    2.500    0.000    3.500    5.000 
#   13.500    0.000    0.000    0.000    3.250    0.000 
#    0.000    0.000    0.000    0.000    0.000    0.000 
#
# Total GULP energy -89271.199039 kJ/mol
# GULP energy per Si atom -5579.449940 kJ/mol
# Density = 2.646213 g / cm^3
# Si number density = 26.522499 Si / 1000 Ang^3
#
#
#
# Elastic Constant Matrix: (Units=GPa)
#
#
# Indices 1 2 3 4 5 6 
#
# 1 122.1886 45.3232 73.4082 0.0000 13.7928 0.0000
# 2 45.3232 151.5695 44.5139 0.0000 13.7968 0.0000
# 3 73.4082 44.5139 100.8339 0.0000 -2.0572 0.0000
# 4 0.0000 0.0000 0.0000 28.5732 0.0000 5.8234
# 5 13.7928 13.7968 -2.0572 0.0000 45.7842 0.0000
# 6 0.0000 0.0000 0.0000 5.8234 0.0000 34.3324
#
#
#
# Elastic Compliance Matrix: (Units=1/GPa)
#
#
# Indices 1 2 3 4 5 6 
#
# 1 0.015840 -0.000996 -0.011193 0.000000 -0.004974 0.000000
# 2 -0.000996 0.007925 -0.002818 0.000000 -0.002215 0.000000
# 3 -0.011193 -0.002818 0.019414 0.000000 0.005094 0.000000
# 4 0.000000 0.000000 0.000000 0.036251 0.000000 -0.006149
# 5 -0.004974 -0.002215 0.005094 0.000000 0.024236 0.000000
# 6 0.000000 0.000000 0.000000 -0.006149 0.000000 0.030170
#
#
# Mechanical properties :
#
#
# Convention : Reuss Voigt Hill
#
# Bulk Modulus (GPa) = 75.97009 77.89805 76.93407
# Shear Modulus (GPa) = 29.71955 35.82775 32.77365
#
# Velocity S-wave (km/s) = 3.35108 3.67937 3.51906
# Velocity P-wave (km/s) = 6.60899 6.89091 6.75142
#
# Compressibility (1/GPa) = 0.01316308
#
# Stress axis : x y z
#
# Youngs Moduli (GPa) = 63.13214 126.18520 51.50899
#
# Poissons Ratio (x) = 0.12573 0.57655
# Poissons Ratio (y) = 0.06291 0.14517
# Poissons Ratio (z) = 0.70665 0.35562
#
# Static dielectric constant tensor:
#      x y z
#    x 2.167370 0.000000 0.022070 
#    y 0.000000 2.064970 0.000000 
#    z 0.022070 0.000000 2.113720 
# 
# From -- ./inp_files/16923.got.cif
#   From: 2010.05.17/outbox.cif.g08.bks.cpg/sg9_9_cif.got.tgz:16923.got - 2010.06.03 20:04:27.
