data_PCOD9138452
_publ_section_title
;
Structure prediction by ZEFSAII (Michael W. Deem and Ramdas Pophale) SiO2 
 PCOD9138452
Probable space group: C C
;
_chemical_formula_sum "Si O2"
_cell_formula_units_Z 32
_cell_length_a 12.768993
_cell_length_b 6.868914
_cell_length_c 16.324172
_cell_angle_alpha 90.000000
_cell_angle_beta 69.741374
_cell_angle_gamma 90.000000
_cell_volume 1343.207725
_symmetry_space_group_name_H-M "C C"
_symmetry_group_IT_number 9
_symmetry_cell_setting 'monoclinic'
loop_
_space_group_symop_operation_xyz
x,y,z
x,-y,1/2+z
1/2+x,1/2+y,z
1/2+x,1/2-y,1/2+z
loop_
_atom_site_type_symbol
_atom_site_label
_atom_site_fract_x
_atom_site_fract_y
_atom_site_fract_z
Si Si1 0.875000 0.597981 0.795430
Si Si2 0.735214 0.114309 0.228136
Si Si3 0.887255 0.169179 0.038950
Si Si4 0.701008 0.732723 0.337625
Si Si5 0.663759 0.812529 0.532529
Si Si6 0.059322 0.098327 0.687666
Si Si7 0.469591 0.426029 0.862982
Si Si8 0.562580 0.185461 0.613838
O O1 0.785023 0.750494 0.785264
O O2 0.813095 0.393569 0.816978
O O3 0.922785 0.708020 0.862023
O O4 0.974255 0.593271 0.701945
O O5 0.639172 0.247347 0.212910
O O6 0.834102 0.079359 0.135887
O O7 0.701453 0.908439 0.273586
O O8 0.779090 0.285944 0.033336
O O9 0.919251 0.032867 0.954544
O O10 0.995087 0.275548 0.047415
O O11 0.667628 0.813326 0.435065
O O12 0.601736 0.589774 0.338859
O O13 0.555991 0.704172 0.599785
O O14 0.658083 0.032224 0.567688
O O15 0.101363 0.884512 0.646798
O O16 0.961566 0.043227 0.778349
#
# Coordination Sequence:
#
# PCOD9138452 Si02
#       8
#     4   4   4   4   4   4   4   4
#     4  10  24  45  66 101 139 188 244 301 367 438
#     4  10  23  45  70  97 140 189 236 309 371 438
#     4  10  24  43  67 103 140 183 241 302 366 437
#     4  12  26  44  69 106 141 194 247 303 373 447
#     4  11  26  43  71 102 143 196 243 302 376 445
#     4  10  23  43  72 100 139 187 248 302 366 442
#     4  11  24  43  71 101 144 193 239 314 370 437
#     4  10  24  46  72 102 144 194 244 305 375 440
#
# _framework density 23.823568000000002
#
# number of rings (size 3 to 8) (size 9 to 14) (size 15 to 20)
#    0.000    1.500    1.250    1.500    8.750    9.000 
#    0.000    3.750    0.000    0.000    0.000    0.000 
#    0.000    0.000    0.000    0.000    0.000    0.000 
#
# Total GULP energy -89330.316496 kJ/mol
# GULP energy per Si atom -5583.144781 kJ/mol
# Density = 2.376934 g / cm^3
# Si number density = 23.823568 Si / 1000 Ang^3
#
#
#
# Elastic Constant Matrix: (Units=GPa)
#
#
# Indices 1 2 3 4 5 6 
#
# 1 74.9785 35.5901 -6.1995 0.0000 5.2262 0.0000
# 2 35.5901 130.4424 59.1652 0.0000 -21.6916 0.0000
# 3 -6.1995 59.1652 97.9273 0.0000 -1.7986 0.0000
# 4 0.0000 0.0000 0.0000 37.3010 0.0000 1.4812
# 5 5.2262 -21.6916 -1.7986 0.0000 23.4200 0.0000
# 6 0.0000 0.0000 0.0000 1.4812 0.0000 46.0619
#
#
#
# Elastic Compliance Matrix: (Units=1/GPa)
#
#
# Indices 1 2 3 4 5 6 
#
# 1 0.020679 -0.011844 0.008190 0.000000 -0.014955 0.000000
# 2 -0.011844 0.019848 -0.012373 0.000000 0.020076 0.000000
# 3 0.008190 -0.012373 0.017987 0.000000 -0.011906 0.000000
# 4 0.000000 0.000000 0.000000 0.026843 0.000000 -0.000863
# 5 -0.014955 0.020076 -0.011906 0.000000 0.063716 0.000000
# 6 0.000000 0.000000 0.000000 -0.000863 0.000000 0.021738
#
#
# Mechanical properties :
#
#
# Convention : Reuss Voigt Hill
#
# Bulk Modulus (GPa) = 37.79186 53.38441 45.58813
# Shear Modulus (GPa) = 23.62018 35.67608 29.64813
#
# Velocity S-wave (km/s) = 3.15217 3.87397 3.53156
# Velocity P-wave (km/s) = 5.39869 6.51668 5.98385
#
# Compressibility (1/GPa) = 0.02646073
#
# Stress axis : x y z
#
# Youngs Moduli (GPa) = 48.35916 50.38250 55.59629
#
# Poissons Ratio (x) = 0.59672 -0.45534
# Poissons Ratio (y) = 0.57275 0.68788
# Poissons Ratio (z) = -0.39607 0.62337
#
# Static dielectric constant tensor:
#      x y z
#    x 2.011210 0.000000 0.050450 
#    y 0.000000 1.899000 0.000000 
#    z 0.050450 0.000000 1.934130 
# 
# From -- ./inp_files/30448.got.cif
#   From: 2010.05.17/outbox.cif.g08.bks.cpg/sg9_16_cif.got.tgz:30448.got - 2010.06.03 20:04:27.
