data_PCOD9138974
_publ_section_title
;
Structure prediction by ZEFSAII (Michael W. Deem and Ramdas Pophale) SiO2 
 PCOD9138974
Probable space group: C C
;
_chemical_formula_sum "Si O2"
_cell_formula_units_Z 28
_cell_length_a 22.525623
_cell_length_b 6.173403
_cell_length_c 8.610511
_cell_angle_alpha 90.000000
_cell_angle_beta 81.758506
_cell_angle_gamma 90.000000
_cell_volume 1185.009813
_symmetry_space_group_name_H-M "C C"
_symmetry_group_IT_number 9
_symmetry_cell_setting 'monoclinic'
loop_
_space_group_symop_operation_xyz
x,y,z
x,-y,1/2+z
1/2+x,1/2+y,z
1/2+x,1/2-y,1/2+z
loop_
_atom_site_type_symbol
_atom_site_label
_atom_site_fract_x
_atom_site_fract_y
_atom_site_fract_z
Si Si1 0.059550 0.868144 0.581150
Si Si2 0.090053 0.717285 0.906970
Si Si3 0.214038 0.318316 0.427582
Si Si4 0.935668 0.776088 0.712282
Si Si5 0.813918 0.810452 0.892163
Si Si6 0.483162 0.938812 0.930241
Si Si7 0.762750 0.513247 0.158282
O O1 0.087646 0.746622 0.720366
O O2 0.036995 0.734943 0.436393
O O3 0.993909 0.928450 0.678378
O O4 0.097980 0.059053 0.496944
O O5 0.147626 0.581316 0.941012
O O6 0.024046 0.636388 0.982632
O O7 0.265780 0.501868 0.915703
O O8 0.226604 0.147781 0.559837
O O9 0.221113 0.176771 0.269083
O O10 0.880589 0.880574 0.820776
O O11 0.956290 0.555452 0.791986
O O12 0.929376 0.680330 0.541327
O O13 0.796214 0.641745 0.764978
O O14 0.808346 0.668799 0.049106
#
# Coordination Sequence:
#
# PCOD9138974 Si02
#       7
#     4   4   4   4   4   4   4
#     4   9  23  39  61 101 127 172 211 268 336 392
#     4  11  22  40  65  96 131 169 218 268 332 409
#     4  11  24  42  67  95 137 180 229 281 338 401
#     4   9  20  42  62  94 130 166 217 265 333 399
#     4  11  22  44  65  98 132 182 224 283 335 404
#     4   9  21  40  61  98 128 171 205 271 331 394
#     4  10  24  43  61  98 129 178 230 272 347 389
#
# _framework density 23.628496999999999
#
# number of rings (size 3 to 8) (size 9 to 14) (size 15 to 20)
#    0.857    1.143    0.000    2.571    2.000    4.571 
#   15.429    0.000    0.000    0.000    0.000    0.000 
#    0.000    0.000    0.000    0.000    0.000    0.000 
#
# Total GULP energy -77936.498533 kJ/mol
# GULP energy per Si atom -5566.892752 kJ/mol
# Density = 2.357472 g / cm^3
# Si number density = 23.628497 Si / 1000 Ang^3
#
#
#
# Elastic Constant Matrix: (Units=GPa)
#
#
# Indices 1 2 3 4 5 6 
#
# 1 51.6931 11.2946 6.9354 0.0000 -8.7572 0.0000
# 2 11.2946 65.4283 23.0776 0.0000 2.4608 0.0000
# 3 6.9354 23.0776 66.4699 0.0000 3.1305 0.0000
# 4 0.0000 0.0000 0.0000 20.4683 0.0000 -2.2518
# 5 -8.7572 2.4608 3.1305 0.0000 9.9367 0.0000
# 6 0.0000 0.0000 0.0000 -2.2518 0.0000 29.9785
#
#
#
# Elastic Compliance Matrix: (Units=1/GPa)
#
#
# Indices 1 2 3 4 5 6 
#
# 1 0.024548 -0.004359 -0.002150 0.000000 0.023391 0.000000
# 2 -0.004359 0.018250 -0.005570 0.000000 -0.006607 0.000000
# 3 -0.002150 -0.005570 0.017486 0.000000 -0.006024 0.000000
# 4 0.000000 0.000000 0.000000 0.049263 0.000000 0.003700
# 5 0.023391 -0.006607 -0.006024 0.000000 0.124785 0.000000
# 6 0.000000 0.000000 0.000000 0.003700 0.000000 0.033635
#
#
# Mechanical properties :
#
#
# Convention : Reuss Voigt Hill
#
# Bulk Modulus (GPa) = 27.68049 29.57852 28.62950
# Shear Modulus (GPa) = 16.43829 21.56228 19.00028
#
# Velocity S-wave (km/s) = 2.64047 3.02413 2.83879
# Velocity P-wave (km/s) = 4.58655 4.97384 4.78412
#
# Compressibility (1/GPa) = 0.03612653
#
# Stress axis : x y z
#
# Youngs Moduli (GPa) = 40.73570 54.79586 57.18776
#
# Poissons Ratio (x) = 0.23887 0.12293
# Poissons Ratio (y) = 0.17758 0.31854
# Poissons Ratio (z) = 0.08756 0.30522
#
# Static dielectric constant tensor:
#      x y z
#    x 1.913850 0.000000 -0.021760 
#    y 0.000000 1.930620 0.000000 
#    z -0.021760 0.000000 1.954790 
# 
# From -- ./inp_files/11954.got.cif
#   From: 2010.05.17/outbox.cif.g08.bks.cpg/sg9_6_cif.got.tgz:11954.got - 2010.06.03 20:04:27.
