data_PCOD9138963
_publ_section_title
;
Structure prediction by ZEFSAII (Michael W. Deem and Ramdas Pophale) SiO2 
 PCOD9138963
Probable space group: C C
;
_chemical_formula_sum "Si O2"
_cell_formula_units_Z 16
_cell_length_a 8.725486
_cell_length_b 13.168709
_cell_length_c 4.895198
_cell_angle_alpha 90.000000
_cell_angle_beta 95.103952
_cell_angle_gamma 90.000000
_cell_volume 560.244574
_symmetry_space_group_name_H-M "C C"
_symmetry_group_IT_number 9
_symmetry_cell_setting 'monoclinic'
loop_
_space_group_symop_operation_xyz
x,y,z
x,-y,1/2+z
1/2+x,1/2+y,z
1/2+x,1/2-y,1/2+z
loop_
_atom_site_type_symbol
_atom_site_label
_atom_site_fract_x
_atom_site_fract_y
_atom_site_fract_z
Si Si1 0.458770 0.060249 0.311450
Si Si2 0.396921 0.755022 0.433821
Si Si3 0.662541 0.376212 0.013074
Si Si4 0.355366 0.436917 0.222872
O O1 0.803327 0.170481 0.593200
O O2 0.273915 0.061145 0.332393
O O3 0.513673 0.030136 0.620851
O O4 0.475501 0.165282 0.155743
O O5 0.540215 0.693709 0.326795
O O6 0.285212 0.809987 0.205996
O O7 0.539561 0.574608 0.701887
O O8 0.315869 0.468557 0.519590
#
# Coordination Sequence:
#
# PCOD9138963 Si02
#       4
#     4   4   4   4
#     4  12  24  44  75 105 141 193 246 288 352 437
#     4  10  26  42  74 106 150 175 248 295 363 409
#     4  10  24  44  71 106 139 190 232 305 338 435
#     4  10  24  42  72 101 136 186 238 282 345 429
#
# _framework density 28.558955999999998
#
# number of rings (size 3 to 8) (size 9 to 14) (size 15 to 20)
#    1.500    0.000    2.500    1.500    7.000    2.000 
#    0.000    2.500    0.000    0.000    0.000    0.000 
#    0.000    0.000    0.000    0.000    0.000    0.000 
#
# Total GULP energy -44734.062648 kJ/mol
# GULP energy per Si atom -5591.757831 kJ/mol
# Density = 2.849395 g / cm^3
# Si number density = 28.558956 Si / 1000 Ang^3
#
#
#
# Elastic Constant Matrix: (Units=GPa)
#
#
# Indices 1 2 3 4 5 6 
#
# 1 148.9394 6.3942 17.5783 0.0000 10.2672 0.0000
# 2 6.3942 96.2252 36.8201 0.0000 -3.0149 0.0000
# 3 17.5783 36.8201 116.2570 0.0000 4.7485 0.0000
# 4 0.0000 0.0000 0.0000 58.9271 0.0000 5.6154
# 5 10.2672 -3.0149 4.7485 0.0000 40.9514 0.0000
# 6 0.0000 0.0000 0.0000 5.6154 0.0000 64.3814
#
#
#
# Elastic Compliance Matrix: (Units=1/GPa)
#
#
# Indices 1 2 3 4 5 6 
#
# 1 0.006944 -0.000156 -0.000934 0.000000 -0.001644 0.000000
# 2 -0.000156 0.011899 -0.003801 0.000000 0.001356 0.000000
# 3 -0.000934 -0.003801 0.009996 0.000000 -0.001205 0.000000
# 4 0.000000 0.000000 0.000000 0.017112 0.000000 -0.001493
# 5 -0.001644 0.001356 -0.001205 0.000000 0.025071 0.000000
# 6 0.000000 0.000000 0.000000 -0.001493 0.000000 0.015663
#
#
# Mechanical properties :
#
#
# Convention : Reuss Voigt Hill
#
# Bulk Modulus (GPa) = 52.46643 53.66743 53.06693
# Shear Modulus (GPa) = 48.62955 52.89391 50.76173
#
# Velocity S-wave (km/s) = 4.13095 4.30827 4.22054
# Velocity P-wave (km/s) = 6.41593 6.60158 6.50941
#
# Compressibility (1/GPa) = 0.01905980
#
# Stress axis : x y z
#
# Youngs Moduli (GPa) = 144.00195 84.03813 100.04346
#
# Poissons Ratio (x) = 0.01309 0.09339
# Poissons Ratio (y) = 0.02243 0.38022
# Poissons Ratio (z) = 0.13443 0.31939
#
# Static dielectric constant tensor:
#      x y z
#    x 2.215990 0.000000 0.075660 
#    y 0.000000 2.278830 0.000000 
#    z 0.075660 0.000000 2.206930 
# 
# From -- ./inp_files/429.got.cif
#   From: 2010.05.17/outbox.cif.g08.bks.cpg/sg9_1_cif.got.tgz:429.got - 2010.06.03 20:04:27.
