data_PCOD9138002
_publ_section_title
;
Structure prediction by ZEFSAII (Michael W. Deem and Ramdas Pophale) SiO2 
 PCOD9138002
Probable space group: C C
;
_chemical_formula_sum "Si O2"
_cell_formula_units_Z 28
_cell_length_a 12.626990
_cell_length_b 5.744914
_cell_length_c 18.859076
_cell_angle_alpha 90.000000
_cell_angle_beta 48.920468
_cell_angle_gamma 90.000000
_cell_volume 1031.237896
_symmetry_space_group_name_H-M "C C"
_symmetry_group_IT_number 9
_symmetry_cell_setting 'monoclinic'
loop_
_space_group_symop_operation_xyz
x,y,z
x,-y,1/2+z
1/2+x,1/2+y,z
1/2+x,1/2-y,1/2+z
loop_
_atom_site_type_symbol
_atom_site_label
_atom_site_fract_x
_atom_site_fract_y
_atom_site_fract_z
Si Si1 0.717370 0.731181 0.872520
Si Si2 0.436013 0.299331 0.587781
Si Si3 0.801905 0.597443 0.452633
Si Si4 0.042557 0.013184 0.841347
Si Si5 0.059445 0.588728 0.095988
Si Si6 0.953860 0.029593 0.733283
Si Si7 0.823574 0.197096 0.537812
O O1 0.812325 0.583387 0.884090
O O2 0.684616 0.607789 0.812741
O O3 0.794241 0.976300 0.827807
O O4 0.569014 0.728241 0.976996
O O5 0.461927 0.390897 0.656235
O O6 0.344584 0.507706 0.592460
O O7 0.430899 0.021029 0.608782
O O8 0.651108 0.723856 0.511958
O O9 0.798656 0.471942 0.531309
O O10 0.930335 0.773763 0.391217
O O11 0.049978 0.941967 0.756036
O O12 0.966458 0.834986 0.927758
O O13 0.185812 0.413989 0.060618
O O14 0.998117 0.712942 0.192222
#
# Coordination Sequence:
#
# PCOD9138002 Si02
#       7
#     4   4   4   4   4   4   4
#     4  11  23  49  69 107 152 194 248 318 381 463
#     4  11  25  47  73 106 155 200 259 313 400 466
#     4  11  21  50  78  99 148 199 249 322 390 458
#     4  10  25  43  69 108 145 191 254 312 385 460
#     4  11  23  43  70 105 147 194 251 326 376 465
#     4  12  25  44  73 109 151 202 259 316 387 469
#     4  10  22  46  72 104 142 196 258 315 391 465
#
# _framework density 27.151833
#
# number of rings (size 3 to 8) (size 9 to 14) (size 15 to 20)
#    0.000    1.143    4.286    0.857    4.000    3.429 
#    5.143    4.286    0.000    0.000    0.000    0.000 
#    0.000    0.000    0.000    0.000    0.000    0.000 
#
# Total GULP energy -78125.462530 kJ/mol
# GULP energy per Si atom -5580.390181 kJ/mol
# Density = 2.709003 g / cm^3
# Si number density = 27.151833 Si / 1000 Ang^3
#
#
#
# Elastic Constant Matrix: (Units=GPa)
#
#
# Indices 1 2 3 4 5 6 
#
# 1 139.7756 11.5242 33.3678 0.0002 30.6841 0.0010
# 2 11.5242 66.3834 19.4290 0.0007 -9.6039 0.0031
# 3 33.3678 19.4290 107.7524 0.0000 5.8867 -0.0001
# 4 0.0002 0.0007 0.0000 51.0621 -0.0003 -7.4801
# 5 30.6841 -9.6039 5.8867 -0.0003 48.1083 0.0001
# 6 0.0010 0.0031 -0.0001 -7.4801 0.0001 37.9115
#
#
#
# Elastic Compliance Matrix: (Units=1/GPa)
#
#
# Indices 1 2 3 4 5 6 
#
# 1 0.009120 -0.001801 -0.002176 0.000000 -0.005910 0.000000
# 2 -0.001801 0.016885 -0.002752 0.000000 0.004856 -0.000001
# 3 -0.002176 -0.002752 0.010475 0.000000 -0.000443 0.000000
# 4 0.000000 0.000000 0.000000 0.020167 0.000000 0.003979
# 5 -0.005910 0.004856 -0.000443 0.000000 0.025580 0.000000
# 6 0.000000 -0.000001 0.000000 0.003979 0.000000 0.027162
#
#
# Mechanical properties :
#
#
# Convention : Reuss Voigt Hill
#
# Bulk Modulus (GPa) = 43.44045 49.17259 46.30652
# Shear Modulus (GPa) = 38.30799 44.05573 41.18186
#
# Velocity S-wave (km/s) = 3.76024 4.03248 3.89874
# Velocity P-wave (km/s) = 5.90647 6.31116 6.11217
#
# Compressibility (1/GPa) = 0.02302002
#
# Stress axis : x y z
#
# Youngs Moduli (GPa) = 109.65159 59.22511 95.46582
#
# Poissons Ratio (x) = 0.10668 0.20778
# Poissons Ratio (y) = 0.19751 0.26273
# Poissons Ratio (z) = 0.23865 0.16299
#
# Static dielectric constant tensor:
#      x y z
#    x 2.161700 0.000000 0.063940 
#    y 0.000000 2.363530 0.000000 
#    z 0.063940 0.000000 2.160470 
# 
# From -- ./inp_files/33527.got.cif
#   From: 2010.05.17/outbox.cif.g08.bks.cpg/sg9_17_cif.got.tgz:33527.got - 2010.06.03 20:04:27.
