data_PCOD9138799
_publ_section_title
;
Structure prediction by ZEFSAII (Michael W. Deem and Ramdas Pophale) SiO2 
 PCOD9138799
Probable space group: C C
;
_chemical_formula_sum "Si O2"
_cell_formula_units_Z 24
_cell_length_a 7.577156
_cell_length_b 10.809930
_cell_length_c 20.616614
_cell_angle_alpha 90.000000
_cell_angle_beta 145.035896
_cell_angle_gamma 90.000000
_cell_volume 967.718206
_symmetry_space_group_name_H-M "C C"
_symmetry_group_IT_number 9
_symmetry_cell_setting 'monoclinic'
loop_
_space_group_symop_operation_xyz
x,y,z
x,-y,1/2+z
1/2+x,1/2+y,z
1/2+x,1/2-y,1/2+z
loop_
_atom_site_type_symbol
_atom_site_label
_atom_site_fract_x
_atom_site_fract_y
_atom_site_fract_z
Si Si1 0.497130 0.298239 0.189400
Si Si2 0.952416 0.053037 0.155264
Si Si3 0.401637 0.196339 0.936517
Si Si4 0.778214 0.673848 0.453577
Si Si5 0.807684 0.780351 0.325180
Si Si6 0.779221 0.029148 0.247993
O O1 0.585980 0.420536 0.173807
O O2 0.656793 0.329652 0.306014
O O3 0.601734 0.157464 0.208833
O O4 0.129583 0.301749 0.075192
O O5 0.777139 0.025139 0.170205
O O6 0.183937 0.162924 0.245799
O O7 0.684930 0.102598 0.028674
O O8 0.584045 0.312328 0.960907
O O9 0.181870 0.220623 0.931520
O O10 0.715657 0.765261 0.372813
O O11 0.633798 0.550229 0.379201
O O12 0.678570 0.906091 0.254727
#
# Coordination Sequence:
#
# PCOD9138799 Si02
#       6
#     4   4   4   4   4   4
#     4  11  23  45  70 100 150 180 232 303 347 421
#     4  11  24  44  73 104 140 192 237 293 362 422
#     4  11  23  45  71 103 139 192 231 290 359 423
#     4  10  24  45  71 107 140 188 241 294 352 433
#     4  11  23  48  74 100 145 187 238 301 357 420
#     4  10  23  47  71 106 142 185 243 297 353 427
#
# _framework density 24.800608
#
# number of rings (size 3 to 8) (size 9 to 14) (size 15 to 20)
#    0.000    1.333    1.667    3.000    2.333    0.000 
#   30.000    0.000    0.000    0.000    0.000    0.000 
#    0.000    0.000    0.000    0.000    0.000    0.000 
#
# Total GULP energy -66909.234302 kJ/mol
# GULP energy per Si atom -5575.769525 kJ/mol
# Density = 2.474416 g / cm^3
# Si number density = 24.800608 Si / 1000 Ang^3
#
#
#
# Elastic Constant Matrix: (Units=GPa)
#
#
# Indices 1 2 3 4 5 6 
#
# 1 77.3293 23.7133 -6.2468 0.0000 8.6685 0.0000
# 2 23.7133 167.7152 24.5641 0.0000 10.3104 0.0000
# 3 -6.2468 24.5641 112.4637 0.0001 19.7390 -0.0002
# 4 0.0000 0.0000 0.0001 36.1550 -0.0001 -3.0549
# 5 8.6685 10.3104 19.7390 -0.0001 31.8495 0.0000
# 6 0.0000 0.0000 -0.0002 -3.0549 0.0000 35.0613
#
#
#
# Elastic Compliance Matrix: (Units=1/GPa)
#
#
# Indices 1 2 3 4 5 6 
#
# 1 0.014218 -0.002031 0.002016 0.000000 -0.004462 0.000000
# 2 -0.002031 0.006498 -0.001414 0.000000 -0.000675 0.000000
# 3 0.002016 -0.001414 0.010467 0.000000 -0.006578 0.000000
# 4 0.000000 0.000000 0.000000 0.027864 0.000000 0.002428
# 5 -0.004462 -0.000675 -0.006578 0.000000 0.036907 0.000000
# 6 0.000000 0.000000 0.000000 0.002428 0.000000 0.028733
#
#
# Mechanical properties :
#
#
# Convention : Reuss Voigt Hill
#
# Bulk Modulus (GPa) = 35.30337 49.06328 42.18333
# Shear Modulus (GPa) = 36.50004 41.64502 39.07253
#
# Velocity S-wave (km/s) = 3.84049 4.10224 3.97352
# Velocity P-wave (km/s) = 5.82508 6.50107 6.17234
#
# Compressibility (1/GPa) = 0.02832590
#
# Stress axis : x y z
#
# Youngs Moduli (GPa) = 70.33503 153.88816 95.53723
#
# Poissons Ratio (x) = 0.31259 -0.19265
# Poissons Ratio (y) = 0.14287 0.13507
# Poissons Ratio (z) = -0.14183 0.21756
#
# Static dielectric constant tensor:
#      x y z
#    x 2.045030 0.000000 0.043750 
#    y 0.000000 2.144640 0.000000 
#    z 0.043750 0.000000 1.951070 
# 
# From -- ./inp_files/22516.got.cif
#   From: 2010.05.17/outbox.cif.g08.bks.cpg/sg9_12_cif.got.tgz:22516.got - 2010.06.03 20:04:27.
