data_PCOD9138460
_publ_section_title
;
Structure prediction by ZEFSAII (Michael W. Deem and Ramdas Pophale) SiO2 
 PCOD9138460
Probable space group: C C
;
_chemical_formula_sum "Si O2"
_cell_formula_units_Z 24
_cell_length_a 7.859565
_cell_length_b 10.320942
_cell_length_c 11.948989
_cell_angle_alpha 90.000000
_cell_angle_beta 98.411115
_cell_angle_gamma 90.000000
_cell_volume 958.853864
_symmetry_space_group_name_H-M "C C"
_symmetry_group_IT_number 9
_symmetry_cell_setting 'monoclinic'
loop_
_space_group_symop_operation_xyz
x,y,z
x,-y,1/2+z
1/2+x,1/2+y,z
1/2+x,1/2-y,1/2+z
loop_
_atom_site_type_symbol
_atom_site_label
_atom_site_fract_x
_atom_site_fract_y
_atom_site_fract_z
Si Si1 0.339160 0.282392 0.887160
Si Si2 0.361748 0.425523 0.453383
Si Si3 0.249280 0.095036 0.067844
Si Si4 0.475569 0.865684 0.796563
Si Si5 0.374702 0.818870 0.042090
Si Si6 0.108188 0.345046 0.260982
O O1 0.338165 0.421268 0.950194
O O2 0.499985 0.263590 0.819195
O O3 0.154756 0.284903 0.804549
O O4 0.349221 0.167444 0.977753
O O5 0.555582 0.395816 0.505174
O O6 0.277846 0.320768 0.531627
O O7 0.298845 0.374379 0.325887
O O8 0.325434 0.153143 0.190398
O O9 0.271765 0.940154 0.079052
O O10 0.525834 0.015970 0.785386
O O11 0.411920 0.852572 0.917168
O O12 0.552721 0.823915 0.128453
#
# Coordination Sequence:
#
# PCOD9138460 Si02
#       6
#     4   4   4   4   4   4
#     4  11  23  47  68 102 133 180 230 285 347 402
#     4  11  25  43  67 105 130 182 227 281 343 408
#     4  11  24  44  71  96 139 181 228 282 343 408
#     4  10  23  43  72  99 135 185 230 282 344 410
#     4  11  23  45  68  99 139 180 229 283 340 408
#     4  10  24  46  70  99 142 178 230 289 341 412
#
# _framework density 25.029883000000002
#
# number of rings (size 3 to 8) (size 9 to 14) (size 15 to 20)
#    0.000    1.333    3.333    1.000    2.333    4.000 
#   12.000    0.000    0.000    0.000    0.000    0.000 
#    0.000    0.000    0.000    0.000    0.000    0.000 
#
# Total GULP energy -66943.396427 kJ/mol
# GULP energy per Si atom -5578.616369 kJ/mol
# Density = 2.497291 g / cm^3
# Si number density = 25.029883 Si / 1000 Ang^3
#
#
#
# Elastic Constant Matrix: (Units=GPa)
#
#
# Indices 1 2 3 4 5 6 
#
# 1 94.4072 -8.8801 56.9975 0.0000 45.4841 0.0000
# 2 -8.8801 107.2469 14.5029 0.0000 17.8318 0.0000
# 3 56.9975 14.5029 163.8925 0.0000 44.4222 0.0000
# 4 0.0000 0.0000 0.0000 25.8427 0.0000 -0.0107
# 5 45.4841 17.8318 44.4222 0.0000 46.3947 0.0000
# 6 0.0000 0.0000 0.0000 -0.0107 0.0000 17.5284
#
#
#
# Elastic Compliance Matrix: (Units=1/GPa)
#
#
# Indices 1 2 3 4 5 6 
#
# 1 0.024068 0.006255 -0.002534 0.000000 -0.023573 0.000000
# 2 0.006255 0.011592 -0.000448 0.000000 -0.010159 0.000000
# 3 -0.002534 -0.000448 0.008511 0.000000 -0.005493 0.000000
# 4 0.000000 0.000000 0.000000 0.038696 0.000000 0.000024
# 5 -0.023573 -0.010159 -0.005493 0.000000 0.053829 0.000000
# 6 0.000000 0.000000 0.000000 0.000024 0.000000 0.057050
#
#
# Mechanical properties :
#
#
# Convention : Reuss Voigt Hill
#
# Bulk Modulus (GPa) = 19.71704 54.53191 37.12448
# Shear Modulus (GPa) = 24.49714 38.14825 31.32269
#
# Velocity S-wave (km/s) = 3.13184 3.90822 3.54137
# Velocity P-wave (km/s) = 4.57956 6.49612 5.62014
#
# Compressibility (1/GPa) = 0.05071754
#
# Stress axis : x y z
#
# Youngs Moduli (GPa) = 41.54882 86.26745 117.49001
#
# Poissons Ratio (x) = -0.53961 0.29776
# Poissons Ratio (y) = -0.25989 0.05258
# Poissons Ratio (z) = 0.10530 0.03861
#
# Static dielectric constant tensor:
#      x y z
#    x 2.090040 0.000000 0.035910 
#    y 0.000000 2.131570 0.000000 
#    z 0.035910 0.000000 1.944100 
# 
# From -- ./inp_files/14098.got.cif
#   From: 2010.05.17/outbox.cif.g08.bks.cpg/sg9_8_cif.got.tgz:14098.got - 2010.06.03 20:04:27.
