data_PCOD9138927
_publ_section_title
;
Structure prediction by ZEFSAII (Michael W. Deem and Ramdas Pophale) SiO2 
 PCOD9138927
Probable space group: C C
;
_chemical_formula_sum "Si O2"
_cell_formula_units_Z 32
_cell_length_a 5.082275
_cell_length_b 30.596138
_cell_length_c 8.450768
_cell_angle_alpha 90.000000
_cell_angle_beta 89.360725
_cell_angle_gamma 90.000000
_cell_volume 1313.995622
_symmetry_space_group_name_H-M "C C"
_symmetry_group_IT_number 9
_symmetry_cell_setting 'monoclinic'
loop_
_space_group_symop_operation_xyz
x,y,z
x,-y,1/2+z
1/2+x,1/2+y,z
1/2+x,1/2-y,1/2+z
loop_
_atom_site_type_symbol
_atom_site_label
_atom_site_fract_x
_atom_site_fract_y
_atom_site_fract_z
Si Si1 0.682440 0.506877 0.724500
Si Si2 0.740510 0.628759 0.012113
Si Si3 0.894411 0.888044 0.984155
Si Si4 0.209119 0.779150 0.663123
Si Si5 0.390432 0.453658 0.511036
Si Si6 0.718594 0.209364 0.387133
Si Si7 0.421031 0.084932 0.308416
Si Si8 0.536586 0.079785 0.755821
O O1 0.413171 0.490722 0.643287
O O2 0.605413 0.526434 0.891700
O O3 0.833404 0.462031 0.747763
O O4 0.860253 0.546004 0.654303
O O5 0.677051 0.678623 0.048555
O O6 0.934683 0.615451 0.153807
O O7 0.499603 0.595085 0.044172
O O8 0.864587 0.618075 0.839630
O O9 0.789617 0.839940 0.940575
O O10 0.707992 0.918728 0.879771
O O11 0.194723 0.894325 0.924831
O O12 0.788961 0.901146 0.159912
O O13 0.452634 0.785830 0.784116
O O14 0.225177 0.738247 0.545606
O O15 0.952017 0.775337 0.771643
O O16 0.137824 0.447716 0.405828
#
# Coordination Sequence:
#
# PCOD9138927 Si02
#       8
#     4   4   4   4   4   4   4   4
#     4  10  24  43  62 105 138 191 251 300 370 419
#     4  10  24  46  69 104 144 192 241 295 374 437
#     4  12  26  47  73 107 146 193 246 300 371 440
#     4  12  27  50  79 114 154 190 251 301 381 451
#     4  10  24  41  69  97 142 191 245 305 360 431
#     4  12  27  50  79 115 148 199 241 311 375 455
#     4  11  25  45  76  98 145 198 242 304 358 449
#     4  11  27  42  71 106 145 194 251 308 369 438
#
# _framework density 24.353204000000002
#
# number of rings (size 3 to 8) (size 9 to 14) (size 15 to 20)
#    0.000    1.000    2.500    1.500   14.000    3.000 
#    0.000    0.000    0.000    0.000    0.000    0.000 
#    0.000    0.000    0.000    0.000    0.000    0.000 
#
# Total GULP energy -89478.292626 kJ/mol
# GULP energy per Si atom -5592.393289 kJ/mol
# Density = 2.429778 g / cm^3
# Si number density = 24.353204 Si / 1000 Ang^3
#
#
#
# Elastic Constant Matrix: (Units=GPa)
#
#
# Indices 1 2 3 4 5 6 
#
# 1 109.8619 8.0770 36.2461 0.0000 -13.2994 0.0000
# 2 8.0770 100.0580 46.4558 0.0000 -2.2112 0.0000
# 3 36.2461 46.4558 91.3594 0.0000 -13.5320 0.0000
# 4 0.0000 0.0000 0.0000 36.1873 0.0000 0.3819
# 5 -13.2994 -2.2112 -13.5320 0.0000 53.9915 0.0000
# 6 0.0000 0.0000 0.0000 0.3819 0.0000 21.3799
#
#
#
# Elastic Compliance Matrix: (Units=1/GPa)
#
#
# Indices 1 2 3 4 5 6 
#
# 1 0.010747 0.001363 -0.004732 0.000000 0.001517 0.000000
# 2 0.001363 0.013328 -0.007465 0.000000 -0.000989 0.000000
# 3 -0.004732 -0.007465 0.017033 0.000000 0.002798 0.000000
# 4 0.000000 0.000000 0.000000 0.027639 0.000000 -0.000494
# 5 0.001517 -0.000989 0.002798 0.000000 0.019556 0.000000
# 6 0.000000 0.000000 0.000000 -0.000494 0.000000 0.046782
#
#
# Mechanical properties :
#
#
# Convention : Reuss Voigt Hill
#
# Bulk Modulus (GPa) = 51.43757 53.64856 52.54307
# Shear Modulus (GPa) = 30.63110 36.34511 33.48810
#
# Velocity S-wave (km/s) = 3.55037 3.86737 3.71226
# Velocity P-wave (km/s) = 6.16232 6.48223 6.32430
#
# Compressibility (1/GPa) = 0.01944104
#
# Stress axis : x y z
#
# Youngs Moduli (GPa) = 93.04880 75.02991 58.70836
#
# Poissons Ratio (x) = -0.10227 0.27782
# Poissons Ratio (y) = -0.12684 0.43823
# Poissons Ratio (z) = 0.44033 0.56007
#
# Static dielectric constant tensor:
#      x y z
#    x 1.949620 0.000000 0.012160 
#    y 0.000000 1.944300 0.000000 
#    z 0.012160 0.000000 2.040610 
# 
# From -- ./inp_files/4365.got.cif
#   From: 2010.05.17/outbox.cif.g08.bks.cpg/sg9_3_cif.got.tgz:4365.got - 2010.06.03 20:04:27.
