data_PCOD9138113
_publ_section_title
;
Structure prediction by ZEFSAII (Michael W. Deem and Ramdas Pophale) SiO2 
 PCOD9138113
Probable space group: C C
;
_chemical_formula_sum "Si O2"
_cell_formula_units_Z 28
_cell_length_a 25.406306
_cell_length_b 8.179791
_cell_length_c 10.771855
_cell_angle_alpha 90.000000
_cell_angle_beta 149.711031
_cell_angle_gamma 90.000000
_cell_volume 1129.057503
_symmetry_space_group_name_H-M "C C"
_symmetry_group_IT_number 9
_symmetry_cell_setting 'monoclinic'
loop_
_space_group_symop_operation_xyz
x,y,z
x,-y,1/2+z
1/2+x,1/2+y,z
1/2+x,1/2-y,1/2+z
loop_
_atom_site_type_symbol
_atom_site_label
_atom_site_fract_x
_atom_site_fract_y
_atom_site_fract_z
Si Si1 0.460220 0.802141 0.788590
Si Si2 0.609490 0.047227 0.414170
Si Si3 0.601867 0.508368 0.149995
Si Si4 0.211475 0.908647 0.620370
Si Si5 0.826106 0.057304 0.362193
Si Si6 0.891867 0.138910 0.236638
Si Si7 0.393762 0.986949 0.349534
O O1 0.540983 0.932732 0.898418
O O2 0.400164 0.706931 0.556163
O O3 0.377867 0.876292 0.713497
O O4 0.530461 0.669154 0.000055
O O5 0.670372 0.221490 0.524511
O O6 0.701852 0.915946 0.605700
O O7 0.517813 0.020976 0.128615
O O8 0.661897 0.496826 0.400085
O O9 0.669035 0.520183 0.162226
O O10 0.516173 0.364790 0.972150
O O11 0.332859 0.947541 0.846110
O O12 0.860597 0.023329 0.290614
O O13 0.845496 0.926122 0.512619
O O14 0.858083 0.316517 0.215499
#
# Coordination Sequence:
#
# PCOD9138113 Si02
#       7
#     4   4   4   4   4   4   4
#     4  10  25  48  72 111 154 197 264 317 381 475
#     4  11  26  50  74 112 154 206 255 318 385 468
#     4  10  22  50  73 104 153 205 251 320 386 460
#     4  11  26  45  76 109 158 199 258 319 393 453
#     4  11  26  48  83 107 156 210 256 319 397 458
#     4  11  24  51  79 113 156 206 266 319 383 473
#     4  12  27  46  77 118 157 199 270 324 381 471
#
# _framework density 24.799444999999999
#
# number of rings (size 3 to 8) (size 9 to 14) (size 15 to 20)
#    0.000    1.143    2.857    1.714   12.000    0.000 
#    5.143    0.000    0.000    0.000    0.000    0.000 
#    0.000    0.000    0.000    0.000    0.000    0.000 
#
# Total GULP energy -78309.071758 kJ/mol
# GULP energy per Si atom -5593.505126 kJ/mol
# Density = 2.474300 g / cm^3
# Si number density = 24.799445 Si / 1000 Ang^3
#
#
#
# Elastic Constant Matrix: (Units=GPa)
#
#
# Indices 1 2 3 4 5 6 
#
# 1 172.4338 53.6130 47.3131 0.0000 -0.1531 0.0000
# 2 53.6130 42.5612 16.0482 0.0000 -2.7689 0.0000
# 3 47.3131 16.0482 143.5743 0.0000 1.0499 0.0000
# 4 0.0000 0.0000 0.0000 22.4622 0.0000 2.1248
# 5 -0.1531 -2.7689 1.0499 0.0000 46.9724 0.0000
# 6 0.0000 0.0000 0.0000 2.1248 0.0000 31.9877
#
#
#
# Elastic Compliance Matrix: (Units=1/GPa)
#
#
# Indices 1 2 3 4 5 6 
#
# 1 0.010063 -0.011972 -0.001973 0.000000 -0.000629 0.000000
# 2 -0.011972 0.038881 -0.000417 0.000000 0.002262 0.000000
# 3 -0.001973 -0.000417 0.007663 0.000000 -0.000202 0.000000
# 4 0.000000 0.000000 0.000000 0.044801 0.000000 -0.002976
# 5 -0.000629 0.002262 -0.000202 0.000000 0.021425 0.000000
# 6 0.000000 0.000000 0.000000 -0.002976 0.000000 0.031460
#
#
# Mechanical properties :
#
#
# Convention : Reuss Voigt Hill
#
# Bulk Modulus (GPa) = 35.86579 65.83532 50.85056
# Shear Modulus (GPa) = 25.99936 36.39078 31.19507
#
# Velocity S-wave (km/s) = 3.24139 3.83483 3.55053
# Velocity P-wave (km/s) = 5.33878 6.79798 6.11208
#
# Compressibility (1/GPa) = 0.02788172
#
# Stress axis : x y z
#
# Youngs Moduli (GPa) = 99.37732 25.71924 130.49064
#
# Poissons Ratio (x) = 0.30792 0.25748
# Poissons Ratio (y) = 1.18979 0.05444
# Poissons Ratio (z) = 0.19609 0.01073
#
# Static dielectric constant tensor:
#      x y z
#    x 1.924980 0.000000 -0.006570 
#    y 0.000000 2.009160 0.000000 
#    z -0.006570 0.000000 1.996660 
# 
# From -- ./inp_files/21223.got.cif
#   From: 2010.05.17/outbox.cif.g08.bks.cpg/sg9_11_cif.got.tgz:21223.got - 2010.06.03 20:04:27.
