data_PCOD9138388
_publ_section_title
;
Structure prediction by ZEFSAII (Michael W. Deem and Ramdas Pophale) SiO2 
 PCOD9138388
Probable space group: C C
;
_chemical_formula_sum "Si O2"
_cell_formula_units_Z 24
_cell_length_a 5.049608
_cell_length_b 20.641258
_cell_length_c 8.851420
_cell_angle_alpha 90.000000
_cell_angle_beta 96.639298
_cell_angle_gamma 90.000000
_cell_volume 916.398683
_symmetry_space_group_name_H-M "C C"
_symmetry_group_IT_number 9
_symmetry_cell_setting 'monoclinic'
loop_
_space_group_symop_operation_xyz
x,y,z
x,-y,1/2+z
1/2+x,1/2+y,z
1/2+x,1/2-y,1/2+z
loop_
_atom_site_type_symbol
_atom_site_label
_atom_site_fract_x
_atom_site_fract_y
_atom_site_fract_z
Si Si1 0.643780 0.071620 0.602540
Si Si2 0.903493 0.182106 0.437760
Si Si3 0.904030 0.958798 0.409952
Si Si4 0.299502 0.855681 0.582360
Si Si5 0.795967 0.774940 0.619077
Si Si6 0.215162 0.930693 0.846737
O O1 0.748153 0.142369 0.555663
O O2 0.676729 0.065609 0.782517
O O3 0.348711 0.067782 0.518048
O O4 0.783507 0.011220 0.520093
O O5 0.769064 0.228328 0.301526
O O6 0.169388 0.213092 0.527426
O O7 0.987673 0.122832 0.334924
O O8 0.096728 0.903422 0.484752
O O9 0.094522 0.000384 0.312321
O O10 0.580579 0.828274 0.545117
O O11 0.395555 0.900943 0.729259
O O12 0.103768 0.793641 0.604057
#
# Coordination Sequence:
#
# PCOD9138388 Si02
#       6
#     4   4   4   4   4   4
#     4  11  24  42  69  98 138 179 233 284 347 411
#     4  10  25  44  66  99 131 184 229 286 339 407
#     4  11  25  40  68 103 134 183 229 285 350 411
#     4  11  25  46  68 101 139 183 224 289 344 406
#     4  11  26  45  71  96 142 178 234 281 342 405
#     4  10  23  43  66  95 140 177 227 291 342 408
#
# _framework density 26.189471999999999
#
# number of rings (size 3 to 8) (size 9 to 14) (size 15 to 20)
#    0.000    1.333    3.333    0.000    9.333    1.333 
#    0.000    0.000    0.000    0.000    0.000    0.000 
#    0.000    0.000    0.000    0.000    0.000    0.000 
#
# Total GULP energy -66988.214629 kJ/mol
# GULP energy per Si atom -5582.351219 kJ/mol
# Density = 2.612986 g / cm^3
# Si number density = 26.189472 Si / 1000 Ang^3
#
#
#
# Elastic Constant Matrix: (Units=GPa)
#
#
# Indices 1 2 3 4 5 6 
#
# 1 94.6641 11.8819 18.9922 0.0000 24.0129 0.0000
# 2 11.8819 67.6926 42.5001 0.0000 0.7761 0.0000
# 3 18.9922 42.5001 149.0634 0.0000 40.7737 0.0000
# 4 0.0000 0.0000 0.0000 32.0792 0.0000 8.5478
# 5 24.0129 0.7761 40.7737 0.0000 39.4534 0.0000
# 6 0.0000 0.0000 0.0000 8.5478 0.0000 34.2891
#
#
#
# Elastic Compliance Matrix: (Units=1/GPa)
#
#
# Indices 1 2 3 4 5 6 
#
# 1 0.013142 -0.003497 0.002080 0.000000 -0.010079 0.000000
# 2 -0.003497 0.020380 -0.008138 0.000000 0.010138 0.000000
# 3 0.002080 -0.008138 0.012639 0.000000 -0.014168 0.000000
# 4 0.000000 0.000000 0.000000 0.033391 0.000000 -0.008324
# 5 -0.010079 0.010138 -0.014168 0.000000 0.045923 0.000000
# 6 0.000000 0.000000 0.000000 -0.008324 0.000000 0.031239
#
#
# Mechanical properties :
#
#
# Convention : Reuss Voigt Hill
#
# Bulk Modulus (GPa) = 36.96822 50.90761 43.93791
# Shear Modulus (GPa) = 27.05023 37.03406 32.04215
#
# Velocity S-wave (km/s) = 3.21731 3.76451 3.50161
# Velocity P-wave (km/s) = 5.28657 6.19482 5.75863
#
# Compressibility (1/GPa) = 0.02705026
#
# Stress axis : x y z
#
# Youngs Moduli (GPa) = 76.09139 49.06867 79.11883
#
# Poissons Ratio (x) = 0.17159 -0.16453
# Poissons Ratio (y) = 0.26608 0.64387
# Poissons Ratio (z) = -0.15824 0.39932
#
# Static dielectric constant tensor:
#      x y z
#    x 2.121040 0.000000 -0.099200 
#    y 0.000000 2.114870 0.000000 
#    z -0.099200 0.000000 2.113020 
# 
# From -- ./inp_files/4024.got.cif
#   From: 2010.05.17/outbox.cif.g08.bks.cpg/sg9_3_cif.got.tgz:4024.got - 2010.06.03 20:04:27.
