data_PCOD9138457
_publ_section_title
;
Structure prediction by ZEFSAII (Michael W. Deem and Ramdas Pophale) SiO2 
 PCOD9138457
Probable space group: C C
;
_chemical_formula_sum "Si O2"
_cell_formula_units_Z 28
_cell_length_a 9.498959
_cell_length_b 13.710731
_cell_length_c 15.907626
_cell_angle_alpha 90.000000
_cell_angle_beta 30.921665
_cell_angle_gamma 90.000000
_cell_volume 1064.612598
_symmetry_space_group_name_H-M "C C"
_symmetry_group_IT_number 9
_symmetry_cell_setting 'monoclinic'
loop_
_space_group_symop_operation_xyz
x,y,z
x,-y,1/2+z
1/2+x,1/2+y,z
1/2+x,1/2-y,1/2+z
loop_
_atom_site_type_symbol
_atom_site_label
_atom_site_fract_x
_atom_site_fract_y
_atom_site_fract_z
Si Si1 0.613400 0.960758 0.378540
Si Si2 0.518173 0.724074 0.654436
Si Si3 0.669184 0.645590 0.037622
Si Si4 0.610515 0.545598 0.910329
Si Si5 0.080247 0.223795 0.255572
Si Si6 0.170117 0.560010 0.527516
Si Si7 0.457481 0.116785 0.331050
O O1 0.825760 0.869973 0.273677
O O2 0.285377 0.938121 0.539029
O O3 0.644386 0.014620 0.449856
O O4 0.646910 0.039054 0.285992
O O5 0.522355 0.802363 0.726631
O O6 0.809336 0.680956 0.479157
O O7 0.381440 0.777868 0.641974
O O8 0.552810 0.714297 0.169579
O O9 0.534193 0.628050 0.017563
O O10 0.964844 0.673964 0.846511
O O11 0.731906 0.454075 0.901386
O O12 0.865557 0.575204 0.720350
O O13 0.341705 0.512125 0.999405
O O14 0.874827 0.150799 0.408214
#
# Coordination Sequence:
#
# PCOD9138457 Si02
#       7
#     4   4   4   4   4   4   4
#     4  10  26  45  77 109 153 201 267 328 406 477
#     4  11  24  47  79 112 153 211 261 344 408 486
#     4  10  23  43  72 108 148 210 260 330 400 491
#     4  11  27  45  78 111 159 205 271 335 410 492
#     4  11  22  43  77 109 153 205 273 331 417 484
#     4  12  26  48  76 114 154 208 265 337 407 487
#     4  11  26  47  79 115 154 210 277 325 414 495
#
# _framework density 26.300647000000001
#
# number of rings (size 3 to 8) (size 9 to 14) (size 15 to 20)
#    0.000    1.143    1.429    3.429   14.000    0.000 
#    2.571    1.429    0.000    0.000    0.000    0.000 
#    0.000    0.000    0.000    0.000    0.000    0.000 
#
# Total GULP energy -78175.358081 kJ/mol
# GULP energy per Si atom -5583.954149 kJ/mol
# Density = 2.624079 g / cm^3
# Si number density = 26.300647 Si / 1000 Ang^3
#
#
#
# Elastic Constant Matrix: (Units=GPa)
#
#
# Indices 1 2 3 4 5 6 
#
# 1 149.9371 40.6432 24.5973 0.0006 12.7525 -0.0037
# 2 40.6432 80.6194 27.6695 -0.0228 16.8429 0.0028
# 3 24.5973 27.6695 85.9908 -0.0354 8.7535 -0.0002
# 4 0.0006 -0.0228 -0.0354 20.4280 0.0051 4.1239
# 5 12.7525 16.8429 8.7535 0.0051 14.6294 0.0101
# 6 -0.0037 0.0028 -0.0002 4.1239 0.0101 45.0464
#
#
#
# Elastic Compliance Matrix: (Units=1/GPa)
#
#
# Indices 1 2 3 4 5 6 
#
# 1 0.007898 -0.003064 -0.000992 -0.000005 -0.002764 0.000002
# 2 -0.003064 0.018611 -0.003411 0.000019 -0.016716 0.000001
# 3 -0.000992 -0.003411 0.013335 0.000020 -0.003187 -0.000001
# 4 -0.000005 0.000019 0.000020 0.049874 -0.000044 -0.004566
# 5 -0.002764 -0.016716 -0.003187 -0.000044 0.091917 -0.000016
# 6 0.000002 0.000001 -0.000001 -0.004566 -0.000016 0.022617
#
#
# Mechanical properties :
#
#
# Convention : Reuss Voigt Hill
#
# Bulk Modulus (GPa) = 40.14250 55.81860 47.98055
# Shear Modulus (GPa) = 21.97910 30.92992 26.45451
#
# Velocity S-wave (km/s) = 2.89396 3.43303 3.17495
# Velocity P-wave (km/s) = 5.14420 6.08141 5.63233
#
# Compressibility (1/GPa) = 0.02491126
#
# Stress axis : x y z
#
# Youngs Moduli (GPa) = 126.61879 53.73073 74.99158
#
# Poissons Ratio (x) = 0.16461 0.07439
# Poissons Ratio (y) = 0.38792 0.25577
# Poissons Ratio (z) = 0.12560 0.18326
#
# Static dielectric constant tensor:
#      x y z
#    x 2.087490 0.000030 -0.131480 
#    y 0.000030 2.301130 -0.000030 
#    z -0.131480 -0.000030 2.239830 
# 
# From -- ./inp_files/23473.got.cif
#   From: 2010.05.17/outbox.cif.g08.bks.cpg/sg9_12_cif.got.tgz:23473.got - 2010.06.03 20:04:27.
