data_PCOD9138500
_publ_section_title
;
Structure prediction by ZEFSAII (Michael W. Deem and Ramdas Pophale) SiO2 
 PCOD9138500
Probable space group: C C
;
_chemical_formula_sum "Si O2"
_cell_formula_units_Z 32
_cell_length_a 8.308959
_cell_length_b 18.125231
_cell_length_c 11.271389
_cell_angle_alpha 90.000000
_cell_angle_beta 126.990915
_cell_angle_gamma 90.000000
_cell_volume 1355.838946
_symmetry_space_group_name_H-M "C C"
_symmetry_group_IT_number 9
_symmetry_cell_setting 'monoclinic'
loop_
_space_group_symop_operation_xyz
x,y,z
x,-y,1/2+z
1/2+x,1/2+y,z
1/2+x,1/2-y,1/2+z
loop_
_atom_site_type_symbol
_atom_site_label
_atom_site_fract_x
_atom_site_fract_y
_atom_site_fract_z
Si Si1 0.614980 0.973757 0.279700
Si Si2 0.822114 0.317174 0.436538
Si Si3 0.386541 0.618691 0.046987
Si Si4 0.170155 0.801829 0.104354
Si Si5 0.446645 0.583448 0.340246
Si Si6 0.415505 0.255550 0.367869
Si Si7 0.725176 0.541809 0.038387
Si Si8 0.048261 0.331902 0.108256
O O1 0.697391 0.933877 0.433254
O O2 0.628235 0.911515 0.181933
O O3 0.748012 0.043287 0.300788
O O4 0.386812 0.997309 0.185080
O O5 0.742481 0.322564 0.267327
O O6 0.631623 0.275818 0.412040
O O7 0.828885 0.395388 0.505456
O O8 0.032133 0.272270 0.540866
O O9 0.420718 0.622684 0.201895
O O10 0.362029 0.692584 0.957933
O O11 0.569123 0.578732 0.059485
O O12 0.380212 0.806373 0.126870
O O13 0.027929 0.860462 0.974631
O O14 0.606513 0.516329 0.403636
O O15 0.236735 0.275268 0.199321
O O16 0.440168 0.174315 0.433025
#
# Coordination Sequence:
#
# PCOD9138500 Si02
#       8
#     4   4   4   4   4   4   4   4
#     4  10  23  44  67 105 140 187 235 292 367 438
#     4  11  27  47  73 104 148 188 248 304 369 439
#     4   9  23  43  67  99 136 183 237 293 351 441
#     4  12  27  47  71 111 144 194 245 315 368 439
#     4  11  25  44  71 102 142 189 240 298 365 435
#     4  10  23  45  70  97 142 186 235 297 365 438
#     4  10  23  46  68 102 141 186 232 296 362 433
#     4  11  23  44  69 104 141 187 242 293 371 439
#
# _framework density 23.601624999999999
#
# number of rings (size 3 to 8) (size 9 to 14) (size 15 to 20)
#    0.000    1.500    1.250    2.250    8.750    3.000 
#    0.000    0.000    0.000    0.000    0.000    0.000 
#    0.000    0.000    0.000    0.000    0.000    0.000 
#
# Total GULP energy -89508.123726 kJ/mol
# GULP energy per Si atom -5594.257733 kJ/mol
# Density = 2.354791 g / cm^3
# Si number density = 23.601625 Si / 1000 Ang^3
#
#
#
# Elastic Constant Matrix: (Units=GPa)
#
#
# Indices 1 2 3 4 5 6 
#
# 1 49.1920 5.2248 25.0676 0.0000 8.2151 0.0000
# 2 5.2248 57.3868 26.0719 0.0000 2.2469 0.0000
# 3 25.0676 26.0719 104.5618 0.0000 11.5719 0.0000
# 4 0.0000 0.0000 0.0000 48.7462 0.0000 9.1318
# 5 8.2151 2.2469 11.5719 0.0000 40.9398 0.0000
# 6 0.0000 0.0000 0.0000 9.1318 0.0000 30.9725
#
#
#
# Elastic Compliance Matrix: (Units=1/GPa)
#
#
# Indices 1 2 3 4 5 6 
#
# 1 0.023575 0.000435 -0.005403 0.000000 -0.003227 0.000000
# 2 0.000435 0.019664 -0.005036 0.000000 0.000257 0.000000
# 3 -0.005403 -0.005036 0.012350 0.000000 -0.002130 0.000000
# 4 0.000000 0.000000 0.000000 0.021714 0.000000 -0.006402
# 5 -0.003227 0.000257 -0.002130 0.000000 0.025662 0.000000
# 6 0.000000 0.000000 0.000000 -0.006402 0.000000 0.034174
#
#
# Mechanical properties :
#
#
# Convention : Reuss Voigt Hill
#
# Bulk Modulus (GPa) = 28.10504 35.98544 32.04524
# Shear Modulus (GPa) = 29.58462 34.45013 32.01737
#
# Velocity S-wave (km/s) = 3.54432 3.82468 3.68717
# Velocity P-wave (km/s) = 5.35570 5.89783 5.63329
#
# Compressibility (1/GPa) = 0.03558081
#
# Stress axis : x y z
#
# Youngs Moduli (GPa) = 42.41856 50.85489 80.96896
#
# Poissons Ratio (x) = -0.02211 0.43747
# Poissons Ratio (y) = -0.01844 0.40773
# Poissons Ratio (z) = 0.22919 0.25609
#
# Static dielectric constant tensor:
#      x y z
#    x 1.867960 0.000000 0.008780 
#    y 0.000000 1.937100 0.000000 
#    z 0.008780 0.000000 1.883850 
# 
# From -- ./inp_files/15487.got.cif
#   From: 2010.05.17/outbox.cif.g08.bks.cpg/sg9_8_cif.got.tgz:15487.got - 2010.06.03 20:04:27.
