data_PCOD9138430
_publ_section_title
;
Structure prediction by ZEFSAII (Michael W. Deem and Ramdas Pophale) SiO2 
 PCOD9138430
Probable space group: C C
;
_chemical_formula_sum "Si O2"
_cell_formula_units_Z 32
_cell_length_a 9.129493
_cell_length_b 15.687489
_cell_length_c 9.583128
_cell_angle_alpha 90.000000
_cell_angle_beta 97.727977
_cell_angle_gamma 90.000000
_cell_volume 1360.018921
_symmetry_space_group_name_H-M "C C"
_symmetry_group_IT_number 9
_symmetry_cell_setting 'monoclinic'
loop_
_space_group_symop_operation_xyz
x,y,z
x,-y,1/2+z
1/2+x,1/2+y,z
1/2+x,1/2-y,1/2+z
loop_
_atom_site_type_symbol
_atom_site_label
_atom_site_fract_x
_atom_site_fract_y
_atom_site_fract_z
Si Si1 0.160040 0.019789 0.118330
Si Si2 0.865695 0.326290 0.541260
Si Si3 0.197459 0.507999 0.177023
Si Si4 0.621868 0.748480 0.459712
Si Si5 0.483904 0.967810 0.394124
Si Si6 0.867062 0.382382 0.056656
Si Si7 0.974443 0.074618 0.360078
Si Si8 0.194272 0.675581 0.666963
O O1 0.271984 0.096980 0.096715
O O2 0.073550 0.049227 0.241362
O O3 0.267423 0.939013 0.148501
O O4 0.036871 0.988737 0.988851
O O5 0.770550 0.245612 0.579262
O O6 0.036563 0.294114 0.578178
O O7 0.902915 0.376188 0.399973
O O8 0.056414 0.489942 0.257358
O O9 0.124135 0.535764 0.021813
O O10 0.308403 0.564414 0.281647
O O11 0.275489 0.415775 0.167368
O O12 0.768016 0.699688 0.521633
O O13 0.508981 0.672391 0.402302
O O14 0.673228 0.797622 0.325837
O O15 0.386016 0.047634 0.433918
O O16 0.029763 0.345670 0.095645
#
# Coordination Sequence:
#
# PCOD9138430 Si02
#       8
#     4   4   4   4   4   4   4   4
#     4  10  23  43  69  91 133 179 217 266 337 399
#     4  11  24  42  66  97 132 172 216 275 332 382
#     4  11  24  42  68  98 131 171 225 270 328 400
#     4  11  24  43  66  94 137 168 225 274 331 389
#     4  10  23  43  69  91 133 179 217 266 337 399
#     4   9  24  40  66  91 130 172 220 259 334 388
#     4  11  24  42  68  98 131 171 225 270 328 400
#     4  11  24  43  66  94 137 168 225 274 331 389
#
# _framework density 23.529084999999998
#
# number of rings (size 3 to 8) (size 9 to 14) (size 15 to 20)
#    0.000    1.500    2.500    0.750   10.500    5.000 
#    0.000    2.500    0.000    0.000    0.000    0.000 
#    0.000    0.000    0.000    0.000    0.000    0.000 
#
# Total GULP energy -89142.538438 kJ/mol
# GULP energy per Si atom -5571.408652 kJ/mol
# Density = 2.347553 g / cm^3
# Si number density = 23.529085 Si / 1000 Ang^3
#
#
#
# Elastic Constant Matrix: (Units=GPa)
#
#
# Indices 1 2 3 4 5 6 
#
# 1 100.3565 -0.6850 12.0119 0.0000 -8.1689 0.0000
# 2 -0.6850 58.1427 -3.6973 0.0000 -4.5683 0.0000
# 3 12.0119 -3.6973 48.4780 0.0000 -13.9589 0.0000
# 4 0.0000 0.0000 0.0000 30.3156 0.0000 -7.2186
# 5 -8.1689 -4.5683 -13.9589 0.0000 40.0404 0.0000
# 6 0.0000 0.0000 0.0000 -7.2186 0.0000 28.0056
#
#
#
# Elastic Compliance Matrix: (Units=1/GPa)
#
#
# Indices 1 2 3 4 5 6 
#
# 1 0.010335 0.000092 -0.002161 0.000000 0.001366 0.000000
# 2 0.000092 0.017551 0.002110 0.000000 0.002757 0.000000
# 3 -0.002161 0.002110 0.023640 0.000000 0.008041 0.000000
# 4 0.000000 0.000000 0.000000 0.035143 0.000000 0.009058
# 5 0.001366 0.002757 0.008041 0.000000 0.028371 0.000000
# 6 0.000000 0.000000 0.000000 0.009058 0.000000 0.038042
#
#
# Mechanical properties :
#
#
# Convention : Reuss Voigt Hill
#
# Bulk Modulus (GPa) = 19.37731 24.69293 22.03512
# Shear Modulus (GPa) = 29.37675 32.96214 31.16945
#
# Velocity S-wave (km/s) = 3.53729 3.74693 3.64362
# Velocity P-wave (km/s) = 4.99365 5.40710 5.20449
#
# Compressibility (1/GPa) = 0.05160675
#
# Stress axis : x y z
#
# Youngs Moduli (GPa) = 96.75978 56.97723 42.30199
#
# Poissons Ratio (x) = -0.00522 0.09139
# Poissons Ratio (y) = -0.00887 -0.08924
# Poissons Ratio (z) = 0.20905 -0.12020
#
# Static dielectric constant tensor:
#      x y z
#    x 1.931790 0.000000 0.063230 
#    y 0.000000 1.987410 0.000000 
#    z 0.063230 0.000000 1.977940 
# 
# From -- ./inp_files/14761.got.cif
#   From: 2010.05.17/outbox.cif.g08.bks.cpg/sg9_8_cif.got.tgz:14761.got - 2010.06.03 20:04:27.
