data_PCOD9138432
_publ_section_title
;
Structure prediction by ZEFSAII (Michael W. Deem and Ramdas Pophale) SiO2 
 PCOD9138432
Probable space group: C C
;
_chemical_formula_sum "Si O2"
_cell_formula_units_Z 32
_cell_length_a 8.745288
_cell_length_b 12.461537
_cell_length_c 21.189509
_cell_angle_alpha 90.000000
_cell_angle_beta 148.145483
_cell_angle_gamma 90.000000
_cell_volume 1218.727395
_symmetry_space_group_name_H-M "C C"
_symmetry_group_IT_number 9
_symmetry_cell_setting 'monoclinic'
loop_
_space_group_symop_operation_xyz
x,y,z
x,-y,1/2+z
1/2+x,1/2+y,z
1/2+x,1/2-y,1/2+z
loop_
_atom_site_type_symbol
_atom_site_label
_atom_site_fract_x
_atom_site_fract_y
_atom_site_fract_z
Si Si1 0.820780 0.743755 0.601420
Si Si2 0.217714 0.810346 0.442633
Si Si3 0.537459 0.742635 0.317818
Si Si4 0.169204 0.572414 0.244987
Si Si5 0.612338 0.136166 0.502490
Si Si6 0.454822 0.407495 0.248630
Si Si7 0.688171 0.516883 0.508496
Si Si8 0.633799 0.920924 0.449197
O O1 0.487219 0.753407 0.506249
O O2 0.846179 0.851718 0.569174
O O3 0.979980 0.740637 0.723987
O O4 0.826298 0.635304 0.562950
O O5 0.153948 0.749438 0.483924
O O6 0.957468 0.811357 0.301054
O O7 0.278720 0.932771 0.485350
O O8 0.261511 0.693500 0.259057
O O9 0.630104 0.852877 0.383740
O O10 0.780725 0.650359 0.407721
O O11 0.306074 0.504803 0.234035
O O12 0.829305 0.541169 0.120323
O O13 0.350609 0.537573 0.370750
O O14 0.801833 0.113575 0.629661
O O15 0.693872 0.046244 0.479064
O O16 0.797606 0.419405 0.355065
#
# Coordination Sequence:
#
# PCOD9138432 Si02
#       8
#     4   4   4   4   4   4   4   4
#     4  11  24  45  72  98 138 183 232 292 353 421
#     4  10  25  45  68 100 139 185 231 291 354 425
#     4  12  24  42  70 103 136 183 235 291 358 422
#     4  11  21  43  70  99 135 180 238 293 346 427
#     4  12  26  45  67 103 142 181 235 290 353 431
#     4  10  23  43  69  94 133 182 228 283 357 412
#     4  11  24  41  73 101 136 181 245 286 350 427
#     4  11  25  44  69 102 135 183 230 288 355 421
#
# _framework density 26.256899000000001
#
# number of rings (size 3 to 8) (size 9 to 14) (size 15 to 20)
#    0.000    1.000    3.750    2.250    5.250    1.000 
#    2.250    0.000    0.000    0.000    0.000    0.000 
#    0.000    0.000    0.000    0.000    0.000    0.000 
#
# Total GULP energy -89436.153015 kJ/mol
# GULP energy per Si atom -5589.759563 kJ/mol
# Density = 2.619714 g / cm^3
# Si number density = 26.256899 Si / 1000 Ang^3
#
#
#
# Elastic Constant Matrix: (Units=GPa)
#
#
# Indices 1 2 3 4 5 6 
#
# 1 46.9142 41.6605 13.6009 0.0002 -15.2316 0.0000
# 2 41.6605 153.6529 60.5047 0.0001 -16.0194 0.0001
# 3 13.6009 60.5047 209.9670 0.0029 -36.9360 0.0008
# 4 0.0002 0.0001 0.0029 29.6155 0.0009 -3.7080
# 5 -15.2316 -16.0194 -36.9360 0.0009 27.1292 0.0003
# 6 0.0000 0.0001 0.0008 -3.7080 0.0003 37.8803
#
#
#
# Elastic Compliance Matrix: (Units=1/GPa)
#
#
# Indices 1 2 3 4 5 6 
#
# 1 0.034167 -0.008717 0.003639 -0.000001 0.018991 0.000000
# 2 -0.008717 0.009641 -0.002726 0.000000 -0.002912 0.000000
# 3 0.003639 -0.002726 0.007086 -0.000001 0.010081 0.000000
# 4 -0.000001 0.000000 -0.000001 0.034185 -0.000003 0.003346
# 5 0.018991 -0.002912 0.010081 -0.000003 0.059528 -0.000001
# 6 0.000000 0.000000 0.000000 0.003346 -0.000001 0.026727
#
#
# Mechanical properties :
#
#
# Convention : Reuss Voigt Hill
#
# Bulk Modulus (GPa) = 28.33902 71.34071 49.83986
# Shear Modulus (GPa) = 25.16312 38.57617 31.86965
#
# Velocity S-wave (km/s) = 3.09907 3.83715 3.48769
# Velocity P-wave (km/s) = 4.86025 6.84550 5.93645
#
# Compressibility (1/GPa) = 0.03528703
#
# Stress axis : x y z
#
# Youngs Moduli (GPa) = 29.26805 103.71893 141.12746
#
# Poissons Ratio (x) = 0.90412 -0.51362
# Poissons Ratio (y) = 0.25513 0.38471
# Poissons Ratio (z) = -0.10652 0.28273
#
# Static dielectric constant tensor:
#      x y z
#    x 2.106440 0.000000 0.055790 
#    y 0.000000 2.038500 0.000000 
#    z 0.055790 0.000000 2.124680 
# 
# From -- ./inp_files/24728.got.cif
#   From: 2010.05.17/outbox.cif.g08.bks.cpg/sg9_13_cif.got.tgz:24728.got - 2010.06.03 20:04:27.
