data_PCOD9138648
_publ_section_title
;
Structure prediction by ZEFSAII (Michael W. Deem and Ramdas Pophale) SiO2 
 PCOD9138648
Probable space group: C C
;
_chemical_formula_sum "Si O2"
_cell_formula_units_Z 32
_cell_length_a 6.793290
_cell_length_b 13.386320
_cell_length_c 14.929647
_cell_angle_alpha 90.000000
_cell_angle_beta 79.933083
_cell_angle_gamma 90.000000
_cell_volume 1336.757450
_symmetry_space_group_name_H-M "C C"
_symmetry_group_IT_number 9
_symmetry_cell_setting 'monoclinic'
loop_
_space_group_symop_operation_xyz
x,y,z
x,-y,1/2+z
1/2+x,1/2+y,z
1/2+x,1/2-y,1/2+z
loop_
_atom_site_type_symbol
_atom_site_label
_atom_site_fract_x
_atom_site_fract_y
_atom_site_fract_z
Si Si1 0.228800 0.844107 0.302950
Si Si2 0.016376 0.503819 0.294562
Si Si3 0.881396 0.807965 0.918891
Si Si4 0.723961 0.104379 0.118436
Si Si5 0.337120 0.671611 0.736137
Si Si6 0.003482 0.823407 0.721391
Si Si7 0.650857 0.326559 0.059548
Si Si8 0.042793 0.559342 0.500848
O O1 0.317461 0.801776 0.389516
O O2 0.353485 0.773188 0.224916
O O3 0.996539 0.823626 0.304737
O O4 0.300844 0.956885 0.287024
O O5 0.426691 0.633545 0.322540
O O6 0.086784 0.586446 0.217855
O O7 0.017445 0.532355 0.398256
O O8 0.693864 0.848097 0.987371
O O9 0.072122 0.822032 0.964506
O O10 0.948673 0.106190 0.143095
O O11 0.674171 0.913107 0.268221
O O12 0.650900 0.023778 0.052356
O O13 0.473398 0.643844 0.640797
O O14 0.217010 0.772949 0.721389
O O15 0.697585 0.788575 0.576138
O O16 0.832309 0.402931 0.053963
#
# Coordination Sequence:
#
# PCOD9138648 Si02
#       8
#     4   4   4   4   4   4   4   4
#     4   9  20  43  74 106 145 204 255 317 395 471
#     4  11  24  48  75 116 155 200 273 328 391 498
#     4  10  23  45  71 109 145 203 262 317 393 474
#     4  12  25  49  73 114 158 206 258 335 400 473
#     4  11  23  45  78 109 148 210 257 323 406 475
#     4   9  22  44  73 102 146 201 259 309 399 473
#     4  12  27  46  75 110 158 210 257 340 409 472
#     4  12  28  48  77 118 163 202 275 333 395 496
#
# _framework density 23.938526
#
# number of rings (size 3 to 8) (size 9 to 14) (size 15 to 20)
#    0.750    0.500    2.500    2.250    5.250    1.000 
#    6.750    1.250    0.000    0.000    0.000    0.000 
#    0.000    0.000    0.000    0.000    0.000    0.000 
#
# Total GULP energy -89386.654878 kJ/mol
# GULP energy per Si atom -5586.665930 kJ/mol
# Density = 2.388404 g / cm^3
# Si number density = 23.938526 Si / 1000 Ang^3
#
#
#
# Elastic Constant Matrix: (Units=GPa)
#
#
# Indices 1 2 3 4 5 6 
#
# 1 121.6509 22.1947 5.3453 0.0000 -0.1715 0.0000
# 2 22.1947 43.1880 0.2820 0.0000 -3.6953 0.0000
# 3 5.3453 0.2820 86.1541 0.0000 3.5424 0.0000
# 4 0.0000 0.0000 0.0000 38.7911 0.0000 -1.9631
# 5 -0.1715 -3.6953 3.5424 0.0000 38.7889 0.0000
# 6 0.0000 0.0000 0.0000 -1.9631 0.0000 38.9630
#
#
#
# Elastic Compliance Matrix: (Units=1/GPa)
#
#
# Indices 1 2 3 4 5 6 
#
# 1 0.009102 -0.004705 -0.000535 0.000000 -0.000359 0.000000
# 2 -0.004705 0.025779 0.000108 0.000000 0.002425 0.000000
# 3 -0.000535 0.000108 0.011683 0.000000 -0.001059 0.000000
# 4 0.000000 0.000000 0.000000 0.025845 0.000000 0.001302
# 5 -0.000359 0.002425 -0.001059 0.000000 0.026107 0.000000
# 6 0.000000 0.000000 0.000000 0.001302 0.000000 0.025731
#
#
# Mechanical properties :
#
#
# Convention : Reuss Voigt Hill
#
# Bulk Modulus (GPa) = 27.54709 34.07076 30.80893
# Shear Modulus (GPa) = 34.10407 38.18667 36.14537
#
# Velocity S-wave (km/s) = 3.77855 3.99833 3.88999
# Velocity P-wave (km/s) = 5.52892 5.96481 5.75100
#
# Compressibility (1/GPa) = 0.03630148
#
# Stress axis : x y z
#
# Youngs Moduli (GPa) = 109.87132 38.79108 85.59105
#
# Poissons Ratio (x) = 0.18250 0.04575
# Poissons Ratio (y) = 0.51690 -0.00923
# Poissons Ratio (z) = 0.05873 -0.00418
#
# Static dielectric constant tensor:
#      x y z
#    x 1.949050 0.000000 0.047530 
#    y 0.000000 1.944220 0.000000 
#    z 0.047530 0.000000 1.943860 
# 
# From -- ./inp_files/28605.got.cif
#   From: 2010.05.17/outbox.cif.g08.bks.cpg/sg9_15_cif.got.tgz:28605.got - 2010.06.03 20:04:27.
