data_PCOD9138366
_publ_section_title
;
Structure prediction by ZEFSAII (Michael W. Deem and Ramdas Pophale) SiO2 
 PCOD9138366
Probable space group: C C
;
_chemical_formula_sum "Si O2"
_cell_formula_units_Z 28
_cell_length_a 9.921513
_cell_length_b 13.744094
_cell_length_c 11.287073
_cell_angle_alpha 90.000000
_cell_angle_beta 129.708544
_cell_angle_gamma 90.000000
_cell_volume 1184.059461
_symmetry_space_group_name_H-M "C C"
_symmetry_group_IT_number 9
_symmetry_cell_setting 'monoclinic'
loop_
_space_group_symop_operation_xyz
x,y,z
x,-y,1/2+z
1/2+x,1/2+y,z
1/2+x,1/2-y,1/2+z
loop_
_atom_site_type_symbol
_atom_site_label
_atom_site_fract_x
_atom_site_fract_y
_atom_site_fract_z
Si Si1 0.879600 0.456515 0.225640
Si Si2 0.527629 0.506930 0.902532
Si Si3 0.876904 0.681617 0.210484
Si Si4 0.133018 0.300956 0.391617
Si Si5 0.796485 0.171465 0.232500
Si Si6 0.731350 0.656584 0.867632
Si Si7 0.994139 0.795037 0.487573
O O1 0.914938 0.570177 0.264299
O O2 0.826548 0.405719 0.318330
O O3 0.048928 0.395313 0.279392
O O4 0.707310 0.453116 0.044297
O O5 0.363893 0.435927 0.800499
O O6 0.581536 0.576556 0.822150
O O7 0.484288 0.588141 0.976292
O O8 0.000047 0.748708 0.359125
O O9 0.846114 0.675723 0.051184
O O10 0.685655 0.721264 0.146457
O O11 0.172050 0.327475 0.549945
O O12 0.319883 0.261929 0.453102
O O13 0.980048 0.222375 0.300152
O O14 0.714392 0.239106 0.289542
#
# Coordination Sequence:
#
# PCOD9138366 Si02
#       7
#     4   4   4   4   4   4   4
#     4   9  21  42  64  96 129 174 223 272 342 387
#     4  10  24  42  66  96 134 183 214 284 339 396
#     4  10  23  43  66  94 135 179 209 284 337 392
#     4  11  23  41  65 102 126 172 228 271 338 413
#     4  11  23  41  67  99 131 175 221 281 340 396
#     4   9  21  42  67  95 131 170 227 267 335 401
#     4  10  23  43  61  98 132 171 224 265 345 403
#
# _framework density 23.647461
#
# number of rings (size 3 to 8) (size 9 to 14) (size 15 to 20)
#    0.000    2.286    0.000    2.571    6.000    8.000 
#   18.000    0.000    0.000    0.000    0.000    0.000 
#    0.000    0.000    0.000    0.000    0.000    0.000 
#
# Total GULP energy -78036.711547 kJ/mol
# GULP energy per Si atom -5574.050825 kJ/mol
# Density = 2.359364 g / cm^3
# Si number density = 23.647461 Si / 1000 Ang^3
#
#
#
# Elastic Constant Matrix: (Units=GPa)
#
#
# Indices 1 2 3 4 5 6 
#
# 1 65.1516 -8.2370 -9.3636 0.0000 -6.3310 0.0000
# 2 -8.2370 95.7445 47.6739 0.0000 0.0104 0.0000
# 3 -9.3636 47.6739 68.1206 0.0000 1.5469 0.0000
# 4 0.0000 0.0000 0.0000 35.8351 0.0000 8.0181
# 5 -6.3310 0.0104 1.5469 0.0000 30.2265 0.0000
# 6 0.0000 0.0000 0.0000 8.0181 0.0000 28.0222
#
#
#
# Elastic Compliance Matrix: (Units=1/GPa)
#
#
# Indices 1 2 3 4 5 6 
#
# 1 0.015983 0.000487 0.001782 0.000000 0.003256 0.000000
# 2 0.000487 0.016055 -0.011184 0.000000 0.000669 0.000000
# 3 0.001782 -0.011184 0.022770 0.000000 -0.000788 0.000000
# 4 0.000000 0.000000 0.000000 0.029814 0.000000 -0.008531
# 5 0.003256 0.000669 -0.000788 0.000000 0.033806 0.000000
# 6 0.000000 0.000000 0.000000 -0.008531 0.000000 0.038127
#
#
# Mechanical properties :
#
#
# Convention : Reuss Voigt Hill
#
# Bulk Modulus (GPa) = 27.04304 32.12925 29.58615
# Shear Modulus (GPa) = 26.77922 32.07965 29.42944
#
# Velocity S-wave (km/s) = 3.36882 3.68717 3.53158
# Velocity P-wave (km/s) = 5.15681 5.63411 5.40074
#
# Compressibility (1/GPa) = 0.03697809
#
# Stress axis : x y z
#
# Youngs Moduli (GPa) = 62.56667 62.28440 43.91731
#
# Poissons Ratio (x) = -0.03036 -0.07826
# Poissons Ratio (y) = -0.03050 0.49119
# Poissons Ratio (z) = -0.11149 0.69662
#
# Static dielectric constant tensor:
#      x y z
#    x 2.086950 0.000000 -0.015170 
#    y 0.000000 1.898660 0.000000 
#    z -0.015170 0.000000 1.852560 
# 
# From -- ./inp_files/16751.got.cif
#   From: 2010.05.17/outbox.cif.g08.bks.cpg/sg9_9_cif.got.tgz:16751.got - 2010.06.03 20:04:27.
