data_PCOD9138003
_publ_section_title
;
Structure prediction by ZEFSAII (Michael W. Deem and Ramdas Pophale) SiO2 
 PCOD9138003
Probable space group: C C
;
_chemical_formula_sum "Si O2"
_cell_formula_units_Z 32
_cell_length_a 5.425235
_cell_length_b 22.236372
_cell_length_c 10.922554
_cell_angle_alpha 90.000000
_cell_angle_beta 84.094202
_cell_angle_gamma 90.000000
_cell_volume 1310.676432
_symmetry_space_group_name_H-M "C C"
_symmetry_group_IT_number 9
_symmetry_cell_setting 'monoclinic'
loop_
_space_group_symop_operation_xyz
x,y,z
x,-y,1/2+z
1/2+x,1/2+y,z
1/2+x,1/2-y,1/2+z
loop_
_atom_site_type_symbol
_atom_site_label
_atom_site_fract_x
_atom_site_fract_y
_atom_site_fract_z
Si Si1 0.130460 0.338808 0.116520
Si Si2 0.388383 0.714098 0.170736
Si Si3 0.284505 0.121212 0.450218
Si Si4 0.489351 0.274249 0.928228
Si Si5 0.419671 0.835305 0.552961
Si Si6 0.045659 0.525374 0.036267
Si Si7 0.908852 0.944938 0.156619
Si Si8 0.758821 0.511596 0.301594
O O1 0.215601 0.391580 0.202261
O O2 0.935546 0.286476 0.157953
O O3 0.352434 0.298024 0.055333
O O4 0.045996 0.379147 0.004136
O O5 0.367118 0.700320 0.314010
O O6 0.633276 0.679075 0.105156
O O7 0.131174 0.694643 0.126280
O O8 0.229175 0.082057 0.333730
O O9 0.247777 0.191400 0.420015
O O10 0.106252 0.092905 0.564564
O O11 0.470363 0.203147 0.927536
O O12 0.503992 0.903425 0.538422
O O13 0.512156 0.474967 0.276312
O O14 0.308190 0.496335 0.066500
O O15 0.920184 0.506222 0.913392
O O16 0.395885 0.004999 0.165428
#
# Coordination Sequence:
#
# PCOD9138003 Si02
#       8
#     4   4   4   4   4   4   4   4
#     4  10  22  46  72 104 143 187 254 302 378 455
#     4  11  25  46  74 107 144 195 245 313 377 455
#     4  11  22  45  72 101 140 191 247 310 367 456
#     4  10  24  42  72 102 140 190 243 302 380 444
#     4  11  27  47  69 112 151 188 252 311 382 448
#     4  12  29  46  73 109 153 198 250 318 380 460
#     4  11  25  45  74 106 142 203 245 315 379 455
#     4  12  26  47  70 109 149 194 258 307 385 453
#
# _framework density 24.414873
#
# number of rings (size 3 to 8) (size 9 to 14) (size 15 to 20)
#    0.000    1.000    3.750    0.750    8.750    2.000 
#    2.250    0.000    0.000    0.000    0.000    0.000 
#    0.000    0.000    0.000    0.000    0.000    0.000 
#
# Total GULP energy -89121.651642 kJ/mol
# GULP energy per Si atom -5570.103228 kJ/mol
# Density = 2.435930 g / cm^3
# Si number density = 24.414873 Si / 1000 Ang^3
#
#
#
# Elastic Constant Matrix: (Units=GPa)
#
#
# Indices 1 2 3 4 5 6 
#
# 1 84.3517 36.0130 27.9690 0.0000 29.0282 0.0000
# 2 36.0130 138.6446 26.6917 0.0000 5.4734 0.0000
# 3 27.9690 26.6917 104.5331 0.0000 29.2723 0.0000
# 4 0.0000 0.0000 0.0000 35.0898 0.0000 6.5528
# 5 29.0282 5.4734 29.2723 0.0000 29.6268 0.0000
# 6 0.0000 0.0000 0.0000 6.5528 0.0000 27.9095
#
#
#
# Elastic Compliance Matrix: (Units=1/GPa)
#
#
# Indices 1 2 3 4 5 6 
#
# 1 0.020545 -0.004815 0.001549 0.000000 -0.020771 0.000000
# 2 -0.004815 0.008725 -0.002501 0.000000 0.005577 0.000000
# 3 0.001549 -0.002501 0.013944 0.000000 -0.014833 0.000000
# 4 0.000000 0.000000 0.000000 0.029805 0.000000 -0.006998
# 5 -0.020771 0.005577 -0.014833 0.000000 0.067729 0.000000
# 6 0.000000 0.000000 0.000000 -0.006998 0.000000 0.037473
#
#
# Mechanical properties :
#
#
# Convention : Reuss Voigt Hill
#
# Bulk Modulus (GPa) = 31.56613 56.54184 44.05398
# Shear Modulus (GPa) = 24.96054 34.31558 29.63806
#
# Velocity S-wave (km/s) = 3.20089 3.75309 3.48794
# Velocity P-wave (km/s) = 5.15927 6.47997 5.85696
#
# Compressibility (1/GPa) = 0.03167953
#
# Stress axis : x y z
#
# Youngs Moduli (GPa) = 48.67338 114.61707 71.71407
#
# Poissons Ratio (x) = 0.55186 -0.11107
# Poissons Ratio (y) = 0.23435 0.17938
# Poissons Ratio (z) = -0.07538 0.28669
#
# Static dielectric constant tensor:
#      x y z
#    x 2.208950 0.000000 -0.011680 
#    y 0.000000 2.077350 0.000000 
#    z -0.011680 0.000000 1.984320 
# 
# From -- ./inp_files/13648.got.cif
#   From: 2010.05.17/outbox.cif.g08.bks.cpg/sg9_7_cif.got.tgz:13648.got - 2010.06.03 20:04:27.
