data_PCOD9138899
_publ_section_title
;
Structure prediction by ZEFSAII (Michael W. Deem and Ramdas Pophale) SiO2 
 PCOD9138899
Probable space group: C C
;
_chemical_formula_sum "Si O2"
_cell_formula_units_Z 28
_cell_length_a 4.932876
_cell_length_b 30.658090
_cell_length_c 8.709071
_cell_angle_alpha 90.000000
_cell_angle_beta 84.050038
_cell_angle_gamma 90.000000
_cell_volume 1309.999621
_symmetry_space_group_name_H-M "C C"
_symmetry_group_IT_number 9
_symmetry_cell_setting 'monoclinic'
loop_
_space_group_symop_operation_xyz
x,y,z
x,-y,1/2+z
1/2+x,1/2+y,z
1/2+x,1/2-y,1/2+z
loop_
_atom_site_type_symbol
_atom_site_label
_atom_site_fract_x
_atom_site_fract_y
_atom_site_fract_z
Si Si1 0.352360 0.382725 0.816770
Si Si2 0.479874 0.115820 0.645440
Si Si3 0.395643 0.937899 0.735683
Si Si4 0.954217 0.715573 0.606194
Si Si5 0.483203 0.715492 0.377970
Si Si6 0.688597 0.505340 0.972593
Si Si7 0.946360 0.060239 0.713155
O O1 0.628508 0.409955 0.794008
O O2 0.442217 0.332447 0.805956
O O3 0.151407 0.405726 0.707215
O O4 0.161527 0.386331 0.979517
O O5 0.438688 0.166897 0.677734
O O6 0.183513 0.094703 0.656708
O O7 0.664195 0.085895 0.744774
O O8 0.339784 0.964812 0.586196
O O9 0.401855 0.974140 0.870470
O O10 0.249799 0.721395 0.517012
O O11 0.934565 0.750094 0.744772
O O12 0.753505 0.718461 0.469096
O O13 0.470229 0.475669 0.077270
O O14 0.534766 0.534984 0.859456
#
# Coordination Sequence:
#
# PCOD9138899 Si02
#       7
#     4   4   4   4   4   4   4
#     4  11  21  41  66  90 126 171 212 252 329 395
#     4  11  21  41  66  90 126 171 212 252 329 395
#     4  11  23  40  62  90 127 168 215 264 318 380
#     4  11  24  45  73 101 134 175 222 273 340 404
#     4  11  24  45  73 101 134 175 222 273 340 404
#     4  10  24  40  62  92 128 168 218 272 320 368
#     4  11  23  40  62  90 127 168 215 264 318 380
#
# _framework density 21.374053
#
# number of rings (size 3 to 8) (size 9 to 14) (size 15 to 20)
#    0.000    1.143    2.857    4.286    0.000    8.000 
#    7.714    0.000    0.000    0.000    0.000    0.000 
#    0.000    0.000    0.000    0.000    0.000    0.000 
#
# Total GULP energy -78256.284912 kJ/mol
# GULP energy per Si atom -5589.734637 kJ/mol
# Density = 2.132541 g / cm^3
# Si number density = 21.374053 Si / 1000 Ang^3
#
#
#
# Elastic Constant Matrix: (Units=GPa)
#
#
# Indices 1 2 3 4 5 6 
#
# 1 65.6000 -6.6277 -12.7838 0.0000 11.5645 0.0000
# 2 -6.6277 112.2928 48.8523 0.0000 9.2425 0.0000
# 3 -12.7838 48.8523 74.5564 0.0000 13.4775 0.0000
# 4 0.0000 0.0000 0.0000 -0.2215 0.0000 4.0545
# 5 11.5645 9.2425 13.4775 0.0000 24.0516 0.0000
# 6 0.0000 0.0000 0.0000 4.0545 0.0000 27.5377
#
#
#
# Elastic Compliance Matrix: (Units=1/GPa)
#
#
# Indices 1 2 3 4 5 6 
#
# 1 0.018357 -0.000340 0.005499 0.000000 -0.011778 0.000000
# 2 -0.000340 0.012463 -0.008221 0.000000 -0.000019 0.000000
# 3 0.005499 -0.008221 0.021864 0.000000 -0.011736 0.000000
# 4 0.000000 0.000000 0.000000 -1.221788 0.000000 0.179889
# 5 -0.011778 -0.000019 -0.011736 0.000000 0.053824 0.000000
# 6 0.000000 0.000000 0.000000 0.179889 0.000000 0.009828
#
#
# Mechanical properties :
#
#
# Convention : Reuss Voigt Hill
#
# Bulk Modulus (GPa) = 21.47688 34.59234 28.03461
# Shear Modulus (GPa) = -4.61337 25.14080 10.26371
#
# Velocity S-wave (km/s) = -1.47074 3.43334 2.19371
# Velocity P-wave (km/s) = 2.68064 5.65124 4.42280
#
# Compressibility (1/GPa) = 0.04656171
#
# Stress axis : x y z
#
# Youngs Moduli (GPa) = 54.47371 80.23451 45.73718
#
# Poissons Ratio (x) = 0.02724 -0.25151
# Poissons Ratio (y) = 0.01849 0.37602
# Poissons Ratio (z) = -0.29956 0.65963
#
# Static dielectric constant tensor:
#      x y z
#    x 1.780130 0.000000 0.031790 
#    y 0.000000 1.796040 0.000000 
#    z 0.031790 0.000000 1.797430 
# 
# From -- ./inp_files/4244.got.cif
#   From: 2010.05.17/outbox.cif.g08.bks.cpg/sg9_3_cif.got.tgz:4244.got - 2010.06.03 20:04:27.
