data_PCOD9138398
_publ_section_title
;
Structure prediction by ZEFSAII (Michael W. Deem and Ramdas Pophale) SiO2 
 PCOD9138398
Probable space group: C C
;
_chemical_formula_sum "Si O2"
_cell_formula_units_Z 24
_cell_length_a 12.546432
_cell_length_b 6.958217
_cell_length_c 18.813747
_cell_angle_alpha 90.000000
_cell_angle_beta 144.594842
_cell_angle_gamma 90.000000
_cell_volume 951.563835
_symmetry_space_group_name_H-M "C C"
_symmetry_group_IT_number 9
_symmetry_cell_setting 'monoclinic'
loop_
_space_group_symop_operation_xyz
x,y,z
x,-y,1/2+z
1/2+x,1/2+y,z
1/2+x,1/2-y,1/2+z
loop_
_atom_site_type_symbol
_atom_site_label
_atom_site_fract_x
_atom_site_fract_y
_atom_site_fract_z
Si Si1 0.407250 0.711495 0.736750
Si Si2 0.248885 0.170399 0.476555
Si Si3 0.929812 0.677453 0.389809
Si Si4 0.047630 0.099444 0.222228
Si Si5 0.610600 0.522327 0.544308
Si Si6 0.072892 0.573522 0.082474
O O1 0.526437 0.776214 0.868596
O O2 0.517022 0.616431 0.732604
O O3 0.295430 0.897685 0.652677
O O4 0.264851 0.546462 0.689369
O O5 0.120494 0.198368 0.336399
O O6 0.369103 0.330972 0.583220
O O7 0.117323 0.102356 0.468232
O O8 0.409719 0.014106 0.542471
O O9 0.716534 0.637774 0.262045
O O10 0.957179 0.855328 0.458975
O O11 0.005971 0.490644 0.468025
O O12 0.593585 0.697490 0.589979
#
# Coordination Sequence:
#
# PCOD9138398 Si02
#       6
#     4   4   4   4   4   4
#     4  11  22  42  71  99 143 193 245 302 375 435
#     4  11  23  44  71 107 147 197 245 301 371 437
#     4  10  23  44  68 102 146 191 244 312 367 447
#     4  11  23  45  73 104 150 190 247 309 363 443
#     4  11  24  44  70 105 146 195 246 307 373 444
#     4  10  23  43  67 103 146 190 245 307 369 434
#
# _framework density 25.221639
#
# number of rings (size 3 to 8) (size 9 to 14) (size 15 to 20)
#    0.000    1.333    5.000    0.000    0.000    4.000 
#    6.000    0.000    0.000    0.000    0.000    0.000 
#    0.000    0.000    0.000    0.000    0.000    0.000 
#
# Total GULP energy -66969.696125 kJ/mol
# GULP energy per Si atom -5580.808010 kJ/mol
# Density = 2.516423 g / cm^3
# Si number density = 25.221639 Si / 1000 Ang^3
#
#
#
# Elastic Constant Matrix: (Units=GPa)
#
#
# Indices 1 2 3 4 5 6 
#
# 1 71.0787 20.9158 -7.8751 0.0000 -12.8468 0.0000
# 2 20.9158 124.7559 5.6219 0.0000 -7.7279 0.0000
# 3 -7.8751 5.6219 72.5272 0.0000 -19.3978 0.0000
# 4 0.0000 0.0000 0.0000 15.3282 0.0000 -0.0690
# 5 -12.8468 -7.7279 -19.3978 0.0000 42.7435 0.0000
# 6 0.0000 0.0000 0.0000 -0.0690 0.0000 44.5136
#
#
#
# Elastic Compliance Matrix: (Units=1/GPa)
#
#
# Indices 1 2 3 4 5 6 
#
# 1 0.016306 -0.002519 0.003591 0.000000 0.006075 0.000000
# 2 -0.002519 0.008500 -0.000824 0.000000 0.000406 0.000000
# 3 0.003591 -0.000824 0.016492 0.000000 0.008415 0.000000
# 4 0.000000 0.000000 0.000000 0.065240 0.000000 0.000101
# 5 0.006075 0.000406 0.008415 0.000000 0.029113 0.000000
# 6 0.000000 0.000000 0.000000 0.000101 0.000000 0.022465
#
#
# Mechanical properties :
#
#
# Convention : Reuss Voigt Hill
#
# Bulk Modulus (GPa) = 23.92730 33.96523 28.94627
# Shear Modulus (GPa) = 29.14549 37.16367 33.15458
#
# Velocity S-wave (km/s) = 3.40306 3.84276 3.62958
# Velocity P-wave (km/s) = 4.99485 5.76065 5.39136
#
# Compressibility (1/GPa) = 0.04179326
#
# Stress axis : x y z
#
# Youngs Moduli (GPa) = 61.32703 117.64317 60.63463
#
# Poissons Ratio (x) = 0.29638 -0.21771
# Poissons Ratio (y) = 0.15450 0.04996
# Poissons Ratio (z) = -0.22020 0.09693
#
# Static dielectric constant tensor:
#      x y z
#    x 1.987920 0.000000 0.014980 
#    y 0.000000 2.020580 0.000000 
#    z 0.014980 0.000000 2.079710 
# 
# From -- ./inp_files/17344.got.cif
#   From: 2010.05.17/outbox.cif.g08.bks.cpg/sg9_9_cif.got.tgz:17344.got - 2010.06.03 20:04:27.
