data_PCOD9138274
_publ_section_title
;
Structure prediction by ZEFSAII (Michael W. Deem and Ramdas Pophale) SiO2 
 PCOD9138274
Probable space group: C C
;
_chemical_formula_sum "Si O2"
_cell_formula_units_Z 32
_cell_length_a 17.446933
_cell_length_b 7.604635
_cell_length_c 11.911270
_cell_angle_alpha 90.000000
_cell_angle_beta 116.811056
_cell_angle_gamma 90.000000
_cell_volume 1410.467803
_symmetry_space_group_name_H-M "C C"
_symmetry_group_IT_number 9
_symmetry_cell_setting 'monoclinic'
loop_
_space_group_symop_operation_xyz
x,y,z
x,-y,1/2+z
1/2+x,1/2+y,z
1/2+x,1/2-y,1/2+z
loop_
_atom_site_type_symbol
_atom_site_label
_atom_site_fract_x
_atom_site_fract_y
_atom_site_fract_z
Si Si1 0.608880 0.268569 0.878570
Si Si2 0.345999 0.823607 0.222804
Si Si3 0.204164 0.048867 0.071610
Si Si4 0.473109 0.292031 0.969722
Si Si5 0.048614 0.833122 0.597052
Si Si6 0.797723 0.148178 0.964216
Si Si7 0.409442 0.804787 0.847733
Si Si8 0.363364 0.274011 0.087373
O O1 0.550460 0.215728 0.946034
O O2 0.552754 0.282086 0.729461
O O3 0.645651 0.460448 0.937663
O O4 0.695216 0.158786 0.912764
O O5 0.392926 0.681455 0.330917
O O6 0.343020 0.762139 0.092808
O O7 0.247384 0.889086 0.172131
O O8 0.396248 0.999406 0.292260
O O9 0.144943 0.162603 0.112686
O O10 0.281473 0.155577 0.065862
O O11 0.509346 0.472083 0.048255
O O12 0.429323 0.187345 0.043064
O O13 0.990828 0.711590 0.480718
O O14 0.828978 0.951190 0.007769
O O15 0.829929 0.233699 0.869764
O O16 0.413081 0.691953 0.736201
#
# Coordination Sequence:
#
# PCOD9138274 Si02
#       8
#     4   4   4   4   4   4   4   4
#     4  10  23  43  64  96 138 178 221 272 343 399
#     4  10  23  42  65  97 130 176 227 272 338 393
#     4   9  23  41  67  95 134 175 221 276 337 404
#     4  11  24  39  68  97 130 173 226 278 330 403
#     4  11  22  42  66  97 135 180 217 280 334 403
#     4  11  23  44  71  96 136 177 226 283 332 400
#     4  11  24  41  70  99 136 175 229 278 336 401
#     4  11  24  42  69 101 129 176 227 279 336 401
#
# _framework density 22.687508000000001
#
# number of rings (size 3 to 8) (size 9 to 14) (size 15 to 20)
#    0.000    1.500    1.250    3.000   10.500    1.000 
#    0.000    1.250    0.000    0.000    0.000    0.000 
#    0.000    0.000    0.000    0.000    0.000    0.000 
#
# Total GULP energy -89317.004800 kJ/mol
# GULP energy per Si atom -5582.312800 kJ/mol
# Density = 2.263587 g / cm^3
# Si number density = 22.687508 Si / 1000 Ang^3
#
#
#
# Elastic Constant Matrix: (Units=GPa)
#
#
# Indices 1 2 3 4 5 6 
#
# 1 177.5967 24.8357 56.5343 0.0000 -11.9727 0.0000
# 2 24.8357 46.5645 -1.3366 0.0000 3.0612 0.0000
# 3 56.5343 -1.3366 112.2191 0.0000 5.6790 0.0000
# 4 0.0000 0.0000 0.0000 33.7923 0.0000 8.5795
# 5 -11.9727 3.0612 5.6790 0.0000 37.7806 0.0000
# 6 0.0000 0.0000 0.0000 8.5795 0.0000 27.9030
#
#
#
# Elastic Compliance Matrix: (Units=1/GPa)
#
#
# Indices 1 2 3 4 5 6 
#
# 1 0.007825 -0.004522 -0.004172 0.000000 0.003473 0.000000
# 2 -0.004522 0.024217 0.002759 0.000000 -0.003810 0.000000
# 3 -0.004172 0.002759 0.011209 0.000000 -0.003231 0.000000
# 4 0.000000 0.000000 0.000000 0.032098 0.000000 -0.009869
# 5 0.003473 -0.003810 -0.003231 0.000000 0.028364 0.000000
# 6 0.000000 0.000000 0.000000 -0.009869 0.000000 0.038873
#
#
# Mechanical properties :
#
#
# Convention : Reuss Voigt Hill
#
# Bulk Modulus (GPa) = 31.86476 55.16081 43.51279
# Shear Modulus (GPa) = 30.31845 36.98496 33.65170
#
# Velocity S-wave (km/s) = 3.65958 4.04194 3.85550
# Velocity P-wave (km/s) = 5.65086 6.79332 6.24825
#
# Compressibility (1/GPa) = 0.03138263
#
# Stress axis : x y z
#
# Youngs Moduli (GPa) = 127.79121 41.29334 89.21229
#
# Poissons Ratio (x) = 0.18672 0.37218
# Poissons Ratio (y) = 0.57784 -0.24616
# Poissons Ratio (z) = 0.53313 -0.11394
#
# Static dielectric constant tensor:
#      x y z
#    x 1.895270 0.000000 -0.008030 
#    y 0.000000 1.910240 0.000000 
#    z -0.008030 0.000000 1.872200 
# 
# From -- ./inp_files/19164.got.cif
#   From: 2010.05.17/outbox.cif.g08.bks.cpg/sg9_10_cif.got.tgz:19164.got - 2010.06.03 20:04:27.
