data_PCOD9138874
_publ_section_title
;
Structure prediction by ZEFSAII (Michael W. Deem and Ramdas Pophale) SiO2 
 PCOD9138874
Probable space group: C C
;
_chemical_formula_sum "Si O2"
_cell_formula_units_Z 28
_cell_length_a 11.653450
_cell_length_b 7.707485
_cell_length_c 14.663329
_cell_angle_alpha 90.000000
_cell_angle_beta 119.694405
_cell_angle_gamma 90.000000
_cell_volume 1144.088323
_symmetry_space_group_name_H-M "C C"
_symmetry_group_IT_number 9
_symmetry_cell_setting 'monoclinic'
loop_
_space_group_symop_operation_xyz
x,y,z
x,-y,1/2+z
1/2+x,1/2+y,z
1/2+x,1/2-y,1/2+z
loop_
_atom_site_type_symbol
_atom_site_label
_atom_site_fract_x
_atom_site_fract_y
_atom_site_fract_z
Si Si1 0.700250 0.903975 0.813640
Si Si2 0.083275 0.714365 0.654668
Si Si3 0.539811 0.575983 0.722063
Si Si4 0.878526 0.467581 0.967189
Si Si5 0.940572 0.350264 0.799308
Si Si6 0.725580 0.435962 0.569300
Si Si7 0.976720 0.831582 0.003822
O O1 0.663397 0.710387 0.762066
O O2 0.589993 0.923701 0.850758
O O3 0.851615 0.906688 0.900944
O O4 0.657933 0.052053 0.726716
O O5 0.152336 0.774186 0.587745
O O6 0.937495 0.663943 0.564142
O O7 0.075877 0.876691 0.721550
O O8 0.462921 0.649250 0.779239
O O9 0.451705 0.626002 0.600049
O O10 0.760810 0.560732 0.976390
O O11 0.868973 0.376404 0.866484
O O12 0.978475 0.626351 0.991264
O O13 0.854970 0.442176 0.685581
O O14 0.617289 0.585779 0.537635
#
# Coordination Sequence:
#
# PCOD9138874 Si02
#       7
#     4   4   4   4   4   4   4
#     4  10  23  52  79 120 162 215 273 338 414 478
#     4  11  24  49  84 116 162 221 268 340 413 478
#     4   9  22  50  79 115 159 211 273 341 395 488
#     4  12  25  51  84 116 166 220 267 342 415 485
#     4  10  24  49  82 110 169 214 264 346 412 484
#     4  11  26  51  77 120 160 210 275 340 398 499
#     4  11  24  48  83 117 164 209 278 341 405 486
#
# _framework density 24.473634000000001
#
# number of rings (size 3 to 8) (size 9 to 14) (size 15 to 20)
#    0.857    0.571    4.286    0.000    6.000    2.286 
#   10.286    2.857    0.000    0.000    0.000    0.000 
#    0.000    0.000    0.000    0.000    0.000    0.000 
#
# Total GULP energy -78187.150100 kJ/mol
# GULP energy per Si atom -5584.796436 kJ/mol
# Density = 2.441793 g / cm^3
# Si number density = 24.473634 Si / 1000 Ang^3
#
#
#
# Elastic Constant Matrix: (Units=GPa)
#
#
# Indices 1 2 3 4 5 6 
#
# 1 102.7068 46.6771 51.3364 0.0000 -11.7089 0.0000
# 2 46.6771 127.0145 65.2575 0.0000 -8.9856 0.0000
# 3 51.3364 65.2575 111.5366 0.0000 -9.3178 0.0000
# 4 0.0000 0.0000 0.0000 37.9906 0.0000 -2.6919
# 5 -11.7089 -8.9856 -9.3178 0.0000 46.5477 0.0000
# 6 0.0000 0.0000 0.0000 -2.6919 0.0000 22.5498
#
#
#
# Elastic Compliance Matrix: (Units=1/GPa)
#
#
# Indices 1 2 3 4 5 6 
#
# 1 0.013340 -0.002420 -0.004559 0.000000 0.001976 0.000000
# 2 -0.002420 0.011731 -0.005706 0.000000 0.000513 0.000000
# 3 -0.004559 -0.005706 0.014457 0.000000 0.000646 0.000000
# 4 0.000000 0.000000 0.000000 0.026547 0.000000 0.003169
# 5 0.001976 0.000513 0.000646 0.000000 0.022209 0.000000
# 6 0.000000 0.000000 0.000000 0.003169 0.000000 0.044725
#
#
# Mechanical properties :
#
#
# Convention : Reuss Voigt Hill
#
# Bulk Modulus (GPa) = 70.64064 74.19998 72.42031
# Shear Modulus (GPa) = 30.65632 33.28341 31.96987
#
# Velocity S-wave (km/s) = 3.54309 3.69178 3.61820
# Velocity P-wave (km/s) = 6.75756 6.96825 6.86371
#
# Compressibility (1/GPa) = 0.01415616
#
# Stress axis : x y z
#
# Youngs Moduli (GPa) = 74.96005 85.24556 69.17241
#
# Poissons Ratio (x) = 0.20634 0.31535
# Poissons Ratio (y) = 0.18144 0.39473
# Poissons Ratio (z) = 0.34174 0.48645
#
# Static dielectric constant tensor:
#      x y z
#    x 2.025050 0.000000 0.025330 
#    y 0.000000 1.950440 0.000000 
#    z 0.025330 0.000000 1.984630 
# 
# From -- ./inp_files/24415.got.cif
#   From: 2010.05.17/outbox.cif.g08.bks.cpg/sg9_13_cif.got.tgz:24415.got - 2010.06.03 20:04:27.
