data_PCOD9138022
_publ_section_title
;
Structure prediction by ZEFSAII (Michael W. Deem and Ramdas Pophale) SiO2 
 PCOD9138022
Probable space group: C C
;
_chemical_formula_sum "Si O2"
_cell_formula_units_Z 28
_cell_length_a 6.111568
_cell_length_b 7.550348
_cell_length_c 23.983938
_cell_angle_alpha 90.000000
_cell_angle_beta 94.687393
_cell_angle_gamma 90.000000
_cell_volume 1103.024428
_symmetry_space_group_name_H-M "C C"
_symmetry_group_IT_number 9
_symmetry_cell_setting 'monoclinic'
loop_
_space_group_symop_operation_xyz
x,y,z
x,-y,1/2+z
1/2+x,1/2+y,z
1/2+x,1/2-y,1/2+z
loop_
_atom_site_type_symbol
_atom_site_label
_atom_site_fract_x
_atom_site_fract_y
_atom_site_fract_z
Si Si1 0.008910 0.495147 0.639130
Si Si2 0.084134 0.765398 0.973822
Si Si3 0.323644 0.705817 0.716108
Si Si4 0.738409 0.257417 0.364931
Si Si5 0.061440 0.928717 0.790898
Si Si6 0.519460 0.886818 0.957151
Si Si7 0.258416 0.254831 0.061465
O O1 0.085801 0.646247 0.685232
O O2 0.182096 0.574413 0.596659
O O3 0.981090 0.324476 0.679696
O O4 0.801476 0.428298 0.596547
O O5 0.264769 0.909420 0.964676
O O6 0.162948 0.561219 0.970991
O O7 0.910523 0.757994 0.919615
O O8 0.983280 0.786285 0.032699
O O9 0.465290 0.537162 0.736459
O O10 0.253204 0.806694 0.770554
O O11 0.658092 0.441182 0.339127
O O12 0.538101 0.168627 0.393662
O O13 0.856257 0.166329 0.315430
O O14 0.587696 0.749900 0.007079
#
# Coordination Sequence:
#
# PCOD9138022 Si02
#       7
#     4   4   4   4   4   4   4
#     4  10  22  50  72 106 140 192 236 306 354 424
#     4  11  24  45  70 108 146 187 236 289 350 452
#     4  11  26  47  72 104 140 183 252 297 356 420
#     4  11  26  41  74 106 144 189 236 291 368 424
#     4  12  26  48  74 104 142 190 238 304 356 422
#     4  11  24  45  70 108 146 187 236 289 350 452
#     4  10  22  46  74 106 144 190 236 290 368 424
#
# _framework density 25.384751999999999
#
# number of rings (size 3 to 8) (size 9 to 14) (size 15 to 20)
#    0.000    1.143    1.429    3.429    6.000    3.429 
#   10.286    0.000    0.000    0.000    0.000    0.000 
#    0.000    0.000    0.000    0.000    0.000    0.000 
#
# Total GULP energy -77952.056819 kJ/mol
# GULP energy per Si atom -5568.004059 kJ/mol
# Density = 2.532698 g / cm^3
# Si number density = 25.384752 Si / 1000 Ang^3
#
#
#
# Elastic Constant Matrix: (Units=GPa)
#
#
# Indices 1 2 3 4 5 6 
#
# 1 55.2399 33.5513 6.6539 0.0000 13.2320 0.0000
# 2 33.5513 86.7039 16.9035 0.0000 2.5995 0.0000
# 3 6.6539 16.9035 60.9161 0.0000 28.7872 0.0000
# 4 0.0000 0.0000 0.0000 -443.2091 0.0000 79.1026
# 5 13.2320 2.5995 28.7872 0.0000 -42.9354 0.0000
# 6 0.0000 0.0000 0.0000 79.1026 0.0000 23.8887
#
#
#
# Elastic Compliance Matrix: (Units=1/GPa)
#
#
# Indices 1 2 3 4 5 6 
#
# 1 0.022292 -0.008304 -0.002384 0.000000 0.004769 0.000000
# 2 -0.008304 0.015211 -0.001928 0.000000 -0.002931 0.000000
# 3 -0.002384 -0.001928 0.013376 0.000000 0.008117 0.000000
# 4 0.000000 0.000000 0.000000 -0.001418 0.000000 0.004696
# 5 0.004769 -0.002931 0.008117 0.000000 -0.016557 0.000000
# 6 0.000000 0.000000 0.000000 0.004696 0.000000 0.026311
#
#
# Mechanical properties :
#
#
# Convention : Reuss Voigt Hill
#
# Bulk Modulus (GPa) = 38.99462 35.23081 37.11272
# Shear Modulus (GPa) = 53.76557 -82.73441 -14.48442
#
# Velocity S-wave (km/s) = 4.60719 -5.71515 -2.39130
# Velocity P-wave (km/s) = 6.61033 5.44442 2.65092
#
# Compressibility (1/GPa) = 0.02564456
#
# Stress axis : x y z
#
# Youngs Moduli (GPa) = 44.86009 65.74284 74.76165
#
# Poissons Ratio (x) = 0.54594 0.17824
# Poissons Ratio (y) = 0.37253 0.14418
# Poissons Ratio (z) = 0.10695 0.12678
#
# Static dielectric constant tensor:
#      x y z
#    x 2.075060 0.000000 0.037170 
#    y 0.000000 2.062910 0.000000 
#    z 0.037170 0.000000 2.018300 
# 
# From -- ./inp_files/34722.got.cif
#   From: 2010.05.17/outbox.cif.g08.bks.cpg/sg9_18_cif.got.tgz:34722.got - 2010.06.03 20:04:27.
