data_PCOD9138746
_publ_section_title
;
Structure prediction by ZEFSAII (Michael W. Deem and Ramdas Pophale) SiO2 
 PCOD9138746
Probable space group: C C
;
_chemical_formula_sum "Si O2"
_cell_formula_units_Z 28
_cell_length_a 6.752441
_cell_length_b 9.122573
_cell_length_c 19.608274
_cell_angle_alpha 90.000000
_cell_angle_beta 113.775815
_cell_angle_gamma 90.000000
_cell_volume 1105.351157
_symmetry_space_group_name_H-M "C C"
_symmetry_group_IT_number 9
_symmetry_cell_setting 'monoclinic'
loop_
_space_group_symop_operation_xyz
x,y,z
x,-y,1/2+z
1/2+x,1/2+y,z
1/2+x,1/2-y,1/2+z
loop_
_atom_site_type_symbol
_atom_site_label
_atom_site_fract_x
_atom_site_fract_y
_atom_site_fract_z
Si Si1 0.550040 0.676253 0.159770
Si Si2 0.649199 0.120381 0.177759
Si Si3 0.346431 0.139405 0.918466
Si Si4 0.708557 0.888714 0.288522
Si Si5 0.711445 0.584551 0.054524
Si Si6 0.296236 0.483371 0.936140
Si Si7 0.199985 0.090362 0.754543
O O1 0.295983 0.691362 0.139134
O O2 0.684233 0.742405 0.241767
O O3 0.629450 0.712457 0.095189
O O4 0.594997 0.506980 0.181084
O O5 0.437549 0.040433 0.120584
O O6 0.607496 0.249604 0.224862
O O7 0.779043 0.004873 0.241321
O O8 0.313810 0.318027 0.907235
O O9 0.204578 0.071693 0.836961
O O10 0.579143 0.053728 0.940511
O O11 0.277092 0.117435 0.986551
O O12 0.457871 0.917956 0.274172
O O13 0.828401 0.905462 0.376386
O O14 0.496304 0.488718 0.016029
#
# Coordination Sequence:
#
# PCOD9138746 Si02
#       7
#     4   4   4   4   4   4   4
#     4  11  26  43  74 109 145 192 256 320 380 474
#     4  11  24  44  71 105 144 195 245 319 377 471
#     4  11  27  49  77 107 156 204 260 328 400 480
#     4  10  23  46  76 104 145 194 260 306 389 461
#     4  12  28  44  74 109 152 196 254 320 409 458
#     4  11  27  50  74 112 153 204 258 331 394 486
#     4  10  23  46  72 104 143 193 257 310 383 468
#
# _framework density 25.331315
#
# number of rings (size 3 to 8) (size 9 to 14) (size 15 to 20)
#    0.000    1.143    2.857    0.857    6.000    5.714 
#    0.000    0.000    0.000    0.000    0.000    0.000 
#    0.000    0.000    0.000    0.000    0.000    0.000 
#
# Total GULP energy -78019.065041 kJ/mol
# GULP energy per Si atom -5572.790360 kJ/mol
# Density = 2.527366 g / cm^3
# Si number density = 25.331315 Si / 1000 Ang^3
#
#
#
# Elastic Constant Matrix: (Units=GPa)
#
#
# Indices 1 2 3 4 5 6 
#
# 1 134.1218 16.8822 57.1221 0.0000 -15.8278 0.0000
# 2 16.8822 57.0641 8.2108 0.0000 14.7625 0.0000
# 3 57.1221 8.2108 174.0334 0.0000 -11.1993 0.0000
# 4 0.0000 0.0000 0.0000 18.2540 0.0000 -0.5813
# 5 -15.8278 14.7625 -11.1993 0.0000 59.3499 0.0000
# 6 0.0000 0.0000 0.0000 -0.5813 0.0000 22.1216
#
#
#
# Elastic Compliance Matrix: (Units=1/GPa)
#
#
# Indices 1 2 3 4 5 6 
#
# 1 0.009334 -0.003075 -0.002742 0.000000 0.002737 0.000000
# 2 -0.003075 0.019992 -0.000311 0.000000 -0.005851 0.000000
# 3 -0.002742 -0.000311 0.006700 0.000000 0.000610 0.000000
# 4 0.000000 0.000000 0.000000 0.054829 0.000000 0.001441
# 5 0.002737 -0.005851 0.000610 0.000000 0.019150 0.000000
# 6 0.000000 0.000000 0.000000 0.001441 0.000000 0.045242
#
#
# Mechanical properties :
#
#
# Convention : Reuss Voigt Hill
#
# Bulk Modulus (GPa) = 42.06855 58.84993 50.45924
# Shear Modulus (GPa) = 28.50207 38.81204 33.65706
#
# Velocity S-wave (km/s) = 3.35800 3.91855 3.64905
# Velocity P-wave (km/s) = 5.62834 6.61482 6.14142
#
# Compressibility (1/GPa) = 0.02377073
#
# Stress axis : x y z
#
# Youngs Moduli (GPa) = 107.13669 50.01938 149.25198
#
# Poissons Ratio (x) = 0.15380 0.40932
# Poissons Ratio (y) = 0.32942 0.04635
# Poissons Ratio (z) = 0.29382 0.01553
#
# Static dielectric constant tensor:
#      x y z
#    x 2.155690 0.000000 -0.061370 
#    y 0.000000 2.020620 0.000000 
#    z -0.061370 0.000000 1.951390 
# 
# From -- ./inp_files/28951.got.cif
#   From: 2010.05.17/outbox.cif.g08.bks.cpg/sg9_15_cif.got.tgz:28951.got - 2010.06.03 20:04:27.
