data_PCOD9138040
_publ_section_title
;
Structure prediction by ZEFSAII (Michael W. Deem and Ramdas Pophale) SiO2 
 PCOD9138040
Probable space group: C C
;
_chemical_formula_sum "Si O2"
_cell_formula_units_Z 32
_cell_length_a 6.914643
_cell_length_b 18.677351
_cell_length_c 11.665156
_cell_angle_alpha 90.000000
_cell_angle_beta 103.922459
_cell_angle_gamma 90.000000
_cell_volume 1462.264151
_symmetry_space_group_name_H-M "C C"
_symmetry_group_IT_number 9
_symmetry_cell_setting 'monoclinic'
loop_
_space_group_symop_operation_xyz
x,y,z
x,-y,1/2+z
1/2+x,1/2+y,z
1/2+x,1/2-y,1/2+z
loop_
_atom_site_type_symbol
_atom_site_label
_atom_site_fract_x
_atom_site_fract_y
_atom_site_fract_z
Si Si1 0.120660 0.895024 0.385280
Si Si2 0.697740 0.550342 0.468496
Si Si3 0.427162 0.084877 0.728127
Si Si4 0.681159 0.334163 0.638782
Si Si5 0.482455 0.064697 0.302163
Si Si6 0.883655 0.738815 0.716928
Si Si7 0.851862 0.839522 0.907935
Si Si8 0.432378 0.303827 0.168828
O O1 0.314401 0.902629 0.332356
O O2 0.154472 0.845463 0.499950
O O3 0.962223 0.859926 0.276044
O O4 0.088970 0.974881 0.429436
O O5 0.767618 0.562787 0.608133
O O6 0.893332 0.554706 0.416759
O O7 0.546707 0.612952 0.414675
O O8 0.501987 0.164711 0.709700
O O9 0.551576 0.012451 0.763391
O O10 0.793266 0.403715 0.704799
O O11 0.472862 0.306188 0.661257
O O12 0.826665 0.268800 0.690547
O O13 0.661615 0.120441 0.328506
O O14 0.883903 0.764351 0.848869
O O15 0.655145 0.719164 0.658617
O O16 0.825680 0.833220 0.040407
#
# Coordination Sequence:
#
# PCOD9138040 Si02
#       8
#     4   4   4   4   4   4   4   4
#     4  10  23  43  68  99 136 181 224 284 342 398
#     4  11  22  44  71  92 139 183 227 274 343 413
#     4  10  22  47  68  96 139 183 220 284 342 396
#     4  12  24  41  71 101 131 178 232 280 340 408
#     4  11  25  43  70 101 133 177 228 282 341 410
#     4  11  24  42  71 100 132 181 226 281 338 405
#     4  12  24  44  70 100 135 181 227 284 344 405
#     4  11  24  42  67  97 141 174 226 285 344 397
#
# _framework density 21.883870999999999
#
# number of rings (size 3 to 8) (size 9 to 14) (size 15 to 20)
#    0.000    1.000    6.250    1.500    1.750    2.000 
#    0.000    2.500    0.000    0.000    0.000    0.000 
#    0.000    0.000    0.000    0.000    0.000    0.000 
#
# Total GULP energy -89314.158619 kJ/mol
# GULP energy per Si atom -5582.134914 kJ/mol
# Density = 2.183406 g / cm^3
# Si number density = 21.883871 Si / 1000 Ang^3
#
#
#
# Elastic Constant Matrix: (Units=GPa)
#
#
# Indices 1 2 3 4 5 6 
#
# 1 44.1856 8.7073 7.7880 0.0000 4.9754 0.0000
# 2 8.7073 141.0624 45.1549 0.0000 8.1013 0.0000
# 3 7.7880 45.1549 126.5495 0.0000 -3.4078 0.0000
# 4 0.0000 0.0000 0.0000 35.3742 0.0000 -0.6611
# 5 4.9754 8.1013 -3.4078 0.0000 23.0780 0.0000
# 6 0.0000 0.0000 0.0000 -0.6611 0.0000 25.3478
#
#
#
# Elastic Compliance Matrix: (Units=1/GPa)
#
#
# Indices 1 2 3 4 5 6 
#
# 1 0.023576 -0.000745 -0.001320 0.000000 -0.005016 0.000000
# 2 -0.000745 0.008276 -0.002993 0.000000 -0.003187 0.000000
# 3 -0.001320 -0.002993 0.009124 0.000000 0.002683 0.000000
# 4 0.000000 0.000000 0.000000 0.028283 0.000000 0.000738
# 5 -0.005016 -0.003187 0.002683 0.000000 0.045928 0.000000
# 6 0.000000 0.000000 0.000000 0.000738 0.000000 0.039470
#
#
# Mechanical properties :
#
#
# Convention : Reuss Voigt Hill
#
# Bulk Modulus (GPa) = 32.40448 48.34422 40.37435
# Shear Modulus (GPa) = 28.56179 33.43650 30.99914
#
# Velocity S-wave (km/s) = 3.61661 3.91308 3.76776
# Velocity P-wave (km/s) = 5.68150 6.52346 6.11698
#
# Compressibility (1/GPa) = 0.03085993
#
# Stress axis : x y z
#
# Youngs Moduli (GPa) = 42.41583 120.82948 109.60704
#
# Poissons Ratio (x) = 0.08996 0.14472
# Poissons Ratio (y) = 0.03158 0.32806
# Poissons Ratio (z) = 0.05600 0.36165
#
# Static dielectric constant tensor:
#      x y z
#    x 1.815920 0.000000 -0.017140 
#    y 0.000000 1.850210 0.000000 
#    z -0.017140 0.000000 1.778020 
# 
# From -- ./inp_files/15130.got.cif
#   From: 2010.05.17/outbox.cif.g08.bks.cpg/sg9_8_cif.got.tgz:15130.got - 2010.06.03 20:04:27.
