data_PCOD9138123
_publ_section_title
;
Structure prediction by ZEFSAII (Michael W. Deem and Ramdas Pophale) SiO2 
 PCOD9138123
Probable space group: C C
;
_chemical_formula_sum "Si O2"
_cell_formula_units_Z 32
_cell_length_a 19.658782
_cell_length_b 10.367240
_cell_length_c 22.530312
_cell_angle_alpha 90.000000
_cell_angle_beta 161.369974
_cell_angle_gamma 90.000000
_cell_volume 1466.891328
_symmetry_space_group_name_H-M "C C"
_symmetry_group_IT_number 9
_symmetry_cell_setting 'monoclinic'
loop_
_space_group_symop_operation_xyz
x,y,z
x,-y,1/2+z
1/2+x,1/2+y,z
1/2+x,1/2-y,1/2+z
loop_
_atom_site_type_symbol
_atom_site_label
_atom_site_fract_x
_atom_site_fract_y
_atom_site_fract_z
Si Si1 0.809330 0.089732 0.276320
Si Si2 0.703196 0.670576 0.524150
Si Si3 0.279513 0.544403 0.445435
Si Si4 0.458488 0.947408 0.925439
Si Si5 0.576581 0.649787 0.609762
Si Si6 0.654136 0.343949 0.754053
Si Si7 0.410275 0.913740 0.078638
Si Si8 0.101819 0.457291 0.420541
O O1 0.653180 0.211948 0.151754
O O2 0.985386 0.124863 0.373207
O O3 0.934071 0.081562 0.441309
O O4 0.664202 0.971523 0.136277
O O5 0.720248 0.826054 0.539060
O O6 0.738125 0.621725 0.486373
O O7 0.890359 0.604135 0.716452
O O8 0.424383 0.660474 0.541231
O O9 0.443066 0.426759 0.567059
O O10 0.062105 0.527106 0.228206
O O11 0.222663 0.531728 0.467726
O O12 0.289869 0.065730 0.793795
O O13 0.537820 0.955384 0.923495
O O14 0.313744 0.831825 0.830371
O O15 0.568288 0.208607 0.705578
O O16 0.788622 0.419177 0.915866
#
# Coordination Sequence:
#
# PCOD9138123 Si02
#       8
#     4   4   4   4   4   4   4   4
#     4  12  20  35  57  80 115 137 175 221 268 321
#     4  11  19  30  54  83 108 137 165 218 287 316
#     4  10  23  35  55  78 113 141 178 219 263 319
#     4  11  23  34  54  82 109 145 178 213 268 320
#     4  11  21  36  51  84 108 144 176 216 268 318
#     4  11  21  35  54  82 108 144 177 214 271 317
#     4  11  20  37  56  82 110 139 175 222 270 318
#     4  11  19  34  51  79 111 137 174 221 267 323
#
# _framework density 21.81484
#
# number of rings (size 3 to 8) (size 9 to 14) (size 15 to 20)
#    0.000    1.000    6.250    2.250    1.750    0.000 
#    0.000    0.000    0.000    1.500    0.000    0.000 
#    0.000    0.000    0.000    0.000    0.000    0.000 
#
# Total GULP energy -89397.033069 kJ/mol
# GULP energy per Si atom -5587.314567 kJ/mol
# Density = 2.176519 g / cm^3
# Si number density = 21.814840 Si / 1000 Ang^3
#
#
#
# Elastic Constant Matrix: (Units=GPa)
#
#
# Indices 1 2 3 4 5 6 
#
# 1 146.9353 24.0468 57.4794 -0.0166 38.7700 -0.0109
# 2 24.0468 9.5148 8.9023 -0.0353 13.6725 -0.0166
# 3 57.4794 8.9023 114.8541 -0.0101 -2.3246 -0.0026
# 4 -0.0166 -0.0353 -0.0101 -2.4581 -0.0008 -7.3396
# 5 38.7700 13.6725 -2.3246 -0.0008 50.0249 0.0029
# 6 -0.0109 -0.0166 -0.0026 -7.3396 0.0029 10.7323
#
#
#
# Elastic Compliance Matrix: (Units=1/GPa)
#
#
# Indices 1 2 3 4 5 6 
#
# 1 0.013949 -0.023847 -0.005224 0.000111 -0.004536 0.000053
# 2 -0.023847 0.241352 -0.007741 -0.001424 -0.047843 -0.000613
# 3 -0.005224 -0.007741 0.012057 0.000047 0.006725 0.000016
# 4 0.000111 -0.001424 0.000047 -0.133726 0.000308 -0.091455
# 5 -0.004536 -0.047843 0.006725 0.000308 0.036894 0.000124
# 6 0.000053 -0.000613 0.000016 -0.091455 0.000124 0.030631
#
#
# Mechanical properties :
#
#
# Convention : Reuss Voigt Hill
#
# Bulk Modulus (GPa) = 5.16172 50.24015 27.70093
# Shear Modulus (GPa) = 14.73361 23.71820 19.22591
#
# Velocity S-wave (km/s) = 2.60165 3.30093 2.97193
# Velocity P-wave (km/s) = 3.37581 6.13257 4.94997
#
# Compressibility (1/GPa) = 0.19373372
#
# Stress axis : x y z
#
# Youngs Moduli (GPa) = 71.69044 4.14332 82.93716
#
# Poissons Ratio (x) = 0.09881 0.43328
# Poissons Ratio (y) = 1.70960 0.64203
# Poissons Ratio (z) = 0.37453 0.03207
#
# Static dielectric constant tensor:
#      x y z
#    x 1.847370 -0.000020 -0.026850 
#    y -0.000020 1.837500 0.000000 
#    z -0.026850 0.000000 1.811240 
# 
# From -- ./inp_files/10793.got.cif
#   From: 2010.05.17/outbox.cif.g08.bks.cpg/sg9_6_cif.got.tgz:10793.got - 2010.06.03 20:04:27.
