data_PCOD9138643
_publ_section_title
;
Structure prediction by ZEFSAII (Michael W. Deem and Ramdas Pophale) SiO2 
 PCOD9138643
Probable space group: C C
;
_chemical_formula_sum "Si O2"
_cell_formula_units_Z 20
_cell_length_a 12.318551
_cell_length_b 7.559219
_cell_length_c 17.580453
_cell_angle_alpha 90.000000
_cell_angle_beta 28.483293
_cell_angle_gamma 90.000000
_cell_volume 780.721608
_symmetry_space_group_name_H-M "C C"
_symmetry_group_IT_number 9
_symmetry_cell_setting 'monoclinic'
loop_
_space_group_symop_operation_xyz
x,y,z
x,-y,1/2+z
1/2+x,1/2+y,z
1/2+x,1/2-y,1/2+z
loop_
_atom_site_type_symbol
_atom_site_label
_atom_site_fract_x
_atom_site_fract_y
_atom_site_fract_z
Si Si1 0.919340 0.746141 0.904760
Si Si2 0.832985 0.663230 0.249999
Si Si3 0.401903 0.539010 0.023268
Si Si4 0.235240 0.489256 0.403255
Si Si5 0.525570 0.882993 0.874410
O O1 0.180780 0.758710 0.773854
O O2 0.864264 0.539371 0.942245
O O3 0.874590 0.854076 0.856368
O O4 0.801882 0.864707 0.043494
O O5 0.653879 0.521177 0.394298
O O6 0.870781 0.819034 0.287223
O O7 0.048538 0.578077 0.078405
O O8 0.431746 0.687069 0.940270
O O9 0.244647 0.614381 0.185299
O O10 0.100099 0.564041 0.413617
#
# Coordination Sequence:
#
# PCOD9138643 Si02
#       5
#     4   4   4   4   4
#     4   9  24  43  72 105 145 191 242 300 375 438
#     4   9  21  42  72 104 150 182 243 307 352 442
#     4  10  23  45  71 100 150 194 231 312 370 416
#     4  11  21  45  74 108 145 194 249 298 379 438
#     4  11  23  45  73 103 150 191 245 309 364 444
#
# _framework density 25.617324
#
# number of rings (size 3 to 8) (size 9 to 14) (size 15 to 20)
#    1.200    0.800    0.000    3.600    0.000    1.600 
#   10.800    0.000    0.000    0.000    0.000    0.000 
#    0.000    0.000    0.000    0.000    0.000    0.000 
#
# Total GULP energy -55951.505216 kJ/mol
# GULP energy per Si atom -5595.150522 kJ/mol
# Density = 2.555902 g / cm^3
# Si number density = 25.617324 Si / 1000 Ang^3
#
#
#
# Elastic Constant Matrix: (Units=GPa)
#
#
# Indices 1 2 3 4 5 6 
#
# 1 112.2196 42.2389 28.0259 -0.0009 14.0831 0.0004
# 2 42.2389 173.6084 58.2704 -0.0015 6.1141 0.0004
# 3 28.0259 58.2704 143.2409 -0.0056 17.0162 0.0023
# 4 -0.0009 -0.0015 -0.0056 48.3582 0.0026 11.6249
# 5 14.0831 6.1141 17.0162 0.0026 21.4764 -0.0007
# 6 0.0004 0.0004 0.0023 11.6249 -0.0007 58.1897
#
#
#
# Elastic Compliance Matrix: (Units=1/GPa)
#
#
# Indices 1 2 3 4 5 6 
#
# 1 0.010609 -0.002215 -0.000467 0.000000 -0.005956 0.000000
# 2 -0.002215 0.007135 -0.002650 0.000000 0.001520 0.000000
# 3 -0.000467 -0.002650 0.008858 0.000001 -0.005958 -0.000001
# 4 0.000000 0.000000 0.000001 0.021722 -0.000004 -0.004340
# 5 -0.005956 0.001520 -0.005958 -0.000004 0.054756 0.000002
# 6 0.000000 0.000000 -0.000001 -0.004340 0.000002 0.018052
#
#
# Mechanical properties :
#
#
# Convention : Reuss Voigt Hill
#
# Bulk Modulus (GPa) = 62.73997 76.23770 69.48883
# Shear Modulus (GPa) = 36.46751 45.64044 41.05398
#
# Velocity S-wave (km/s) = 3.77709 4.22551 4.00757
# Velocity P-wave (km/s) = 6.60047 7.32334 6.97128
#
# Compressibility (1/GPa) = 0.01593880
#
# Stress axis : x y z
#
# Youngs Moduli (GPa) = 94.26142 140.16007 112.88793
#
# Poissons Ratio (x) = 0.31039 0.05275
# Poissons Ratio (y) = 0.20874 0.29912
# Poissons Ratio (z) = 0.04404 0.37139
#
# Static dielectric constant tensor:
#      x y z
#    x 2.049740 0.000000 -0.024780 
#    y 0.000000 2.117150 0.000000 
#    z -0.024780 0.000000 1.989450 
# 
# From -- ./inp_files/30533.got.cif
#   From: 2010.05.17/outbox.cif.g08.bks.cpg/sg9_16_cif.got.tgz:30533.got - 2010.06.03 20:04:27.
