data_PCOD9138288
_publ_section_title
;
Structure prediction by ZEFSAII (Michael W. Deem and Ramdas Pophale) SiO2 
 PCOD9138288
Probable space group: C C
;
_chemical_formula_sum "Si O2"
_cell_formula_units_Z 24
_cell_length_a 25.760492
_cell_length_b 7.109445
_cell_length_c 9.642133
_cell_angle_alpha 90.000000
_cell_angle_beta 150.563339
_cell_angle_gamma 90.000000
_cell_volume 867.864895
_symmetry_space_group_name_H-M "C C"
_symmetry_group_IT_number 9
_symmetry_cell_setting 'monoclinic'
loop_
_space_group_symop_operation_xyz
x,y,z
x,-y,1/2+z
1/2+x,1/2+y,z
1/2+x,1/2-y,1/2+z
loop_
_atom_site_type_symbol
_atom_site_label
_atom_site_fract_x
_atom_site_fract_y
_atom_site_fract_z
Si Si1 0.205690 0.917863 0.097900
Si Si2 0.561981 0.517625 0.514066
Si Si3 0.740352 0.970009 0.189611
Si Si4 0.038205 0.555634 0.033423
Si Si5 0.873101 0.966361 0.753630
Si Si6 0.431901 0.921082 0.541469
O O1 0.117877 0.002852 0.995929
O O2 0.221154 0.695543 0.161616
O O3 0.326519 0.988413 0.374466
O O4 0.156825 0.956904 0.834986
O O5 0.527608 0.737700 0.441931
O O6 0.456994 0.437616 0.345783
O O7 0.830499 0.919831 0.285923
O O8 0.777370 0.906960 0.427726
O O9 0.638850 0.912650 0.865390
O O10 0.957729 0.471719 0.959993
O O11 0.027403 0.426229 0.873425
O O12 0.916052 0.784099 0.936015
#
# Coordination Sequence:
#
# PCOD9138288 Si02
#       6
#     4   4   4   4   4   4
#     4  11  24  41  63  95 133 175 219 271 333 399
#     4  11  24  41  63  95 133 175 219 271 333 399
#     4  11  23  43  69  98 132 176 226 278 334 400
#     4  11  23  43  69  98 132 176 226 278 334 400
#     4  10  23  42  66  99 135 175 223 279 337 399
#     4  10  23  42  66  99 135 175 223 279 337 399
#
# _framework density 27.654073
#
# number of rings (size 3 to 8) (size 9 to 14) (size 15 to 20)
#    0.000    1.333    0.000    5.000    0.000   10.667 
#    0.000   11.667    0.000    0.000    0.000    0.000 
#    0.000    0.000    0.000    0.000    0.000    0.000 
#
# Total GULP energy -67034.597081 kJ/mol
# GULP energy per Si atom -5586.216423 kJ/mol
# Density = 2.759113 g / cm^3
# Si number density = 27.654073 Si / 1000 Ang^3
#
#
#
# Elastic Constant Matrix: (Units=GPa)
#
#
# Indices 1 2 3 4 5 6 
#
# 1 176.2088 21.9260 43.1785 0.0000 -18.9068 0.0000
# 2 21.9260 95.5762 24.4332 0.0000 -5.2068 0.0000
# 3 43.1785 24.4332 153.8244 0.0000 -22.7743 0.0000
# 4 0.0000 0.0000 0.0000 39.6778 0.0000 -7.4958
# 5 -18.9068 -5.2068 -22.7743 0.0000 56.4957 0.0000
# 6 0.0000 0.0000 0.0000 -7.4958 0.0000 25.2668
#
#
#
# Elastic Compliance Matrix: (Units=1/GPa)
#
#
# Indices 1 2 3 4 5 6 
#
# 1 0.006298 -0.001010 -0.001392 0.000000 0.001453 0.000000
# 2 -0.001010 0.011073 -0.001462 0.000000 0.000093 0.000000
# 3 -0.001392 -0.001462 0.007481 0.000000 0.002415 0.000000
# 4 0.000000 0.000000 0.000000 0.026699 0.000000 0.007921
# 5 0.001453 0.000093 0.002415 0.000000 0.019169 0.000000
# 6 0.000000 0.000000 0.000000 0.007921 0.000000 0.041927
#
#
# Mechanical properties :
#
#
# Convention : Reuss Voigt Hill
#
# Bulk Modulus (GPa) = 58.39262 67.18719 62.78991
# Shear Modulus (GPa) = 39.65612 46.69283 43.17448
#
# Velocity S-wave (km/s) = 3.79094 4.11355 3.95553
# Velocity P-wave (km/s) = 6.35002 6.84909 6.60427
#
# Compressibility (1/GPa) = 0.01712545
#
# Stress axis : x y z
#
# Youngs Moduli (GPa) = 158.78513 90.30798 133.66356
#
# Poissons Ratio (x) = 0.09118 0.18609
# Poissons Ratio (y) = 0.16032 0.19536
# Poissons Ratio (z) = 0.22107 0.13199
#
# Static dielectric constant tensor:
#      x y z
#    x 2.211830 0.000000 0.141630 
#    y 0.000000 2.214730 0.000000 
#    z 0.141630 0.000000 2.192570 
# 
# From -- ./inp_files/8709.got.cif
#   From: 2010.05.17/outbox.cif.g08.bks.cpg/sg9_5_cif.got.tgz:8709.got - 2010.06.03 20:04:27.
