data_PCOD9138890
_publ_section_title
;
Structure prediction by ZEFSAII (Michael W. Deem and Ramdas Pophale) SiO2 
 PCOD9138890
Probable space group: C C
;
_chemical_formula_sum "Si O2"
_cell_formula_units_Z 24
_cell_length_a 6.883744
_cell_length_b 30.115186
_cell_length_c 4.853357
_cell_angle_alpha 90.000000
_cell_angle_beta 106.402687
_cell_angle_gamma 90.000000
_cell_volume 965.177691
_symmetry_space_group_name_H-M "C C"
_symmetry_group_IT_number 9
_symmetry_cell_setting 'monoclinic'
loop_
_space_group_symop_operation_xyz
x,y,z
x,-y,1/2+z
1/2+x,1/2+y,z
1/2+x,1/2-y,1/2+z
loop_
_atom_site_type_symbol
_atom_site_label
_atom_site_fract_x
_atom_site_fract_y
_atom_site_fract_z
Si Si1 0.642850 0.029216 0.887740
Si Si2 0.012569 0.906686 0.474614
Si Si3 0.290272 0.906538 0.065133
Si Si4 0.876337 0.809928 0.552745
Si Si5 0.953480 0.310082 0.041601
Si Si6 0.664966 0.746582 0.797368
O O1 0.446853 0.058295 0.745412
O O2 0.646049 0.984777 0.706380
O O3 0.834555 0.058311 0.875640
O O4 0.126493 0.895844 0.236766
O O5 0.922259 0.861740 0.573050
O O6 0.174999 0.925171 0.755012
O O7 0.405310 0.861861 0.013801
O O8 0.664657 0.803028 0.297185
O O9 0.842649 0.784856 0.830210
O O10 0.063290 0.786229 0.478184
O O11 0.767104 0.286329 0.117510
O O12 0.987120 0.284864 0.764275
#
# Coordination Sequence:
#
# PCOD9138890 Si02
#       6
#     4   4   4   4   4   4
#     4  12  28  53  84 112 146 192 244 311 390 462
#     4  12  28  48  77 114 154 195 248 310 377 450
#     4  12  28  48  77 114 154 195 248 310 377 450
#     4  11  23  42  68 101 152 202 256 306 369 427
#     4  11  23  42  68 101 152 202 256 306 369 427
#     4  10  24  39  66 106 146 204 262 307 352 436
#
# _framework density 24.865884999999999
#
# number of rings (size 3 to 8) (size 9 to 14) (size 15 to 20)
#    0.000    0.667    3.333    3.000    4.667   10.667 
#    0.000    0.000    0.000    0.000    0.000    0.000 
#    0.000    0.000    0.000    0.000    0.000    0.000 
#
# Total GULP energy -67070.820056 kJ/mol
# GULP energy per Si atom -5589.235005 kJ/mol
# Density = 2.480929 g / cm^3
# Si number density = 24.865885 Si / 1000 Ang^3
#
#
#
# Elastic Constant Matrix: (Units=GPa)
#
#
# Indices 1 2 3 4 5 6 
#
# 1 175.9904 34.4071 45.1984 0.0000 -4.8992 0.0000
# 2 34.4071 99.9945 2.3624 0.0000 2.9331 0.0000
# 3 45.1984 2.3624 107.6868 0.0000 -2.8112 0.0000
# 4 0.0000 0.0000 0.0000 144.6355 0.0000 66.1576
# 5 -4.8992 2.9331 -2.8112 0.0000 57.2936 0.0000
# 6 0.0000 0.0000 0.0000 66.1576 0.0000 61.6461
#
#
#
# Elastic Compliance Matrix: (Units=1/GPa)
#
#
# Indices 1 2 3 4 5 6 
#
# 1 0.006875 -0.002316 -0.002820 0.000000 0.000568 0.000000
# 2 -0.002316 0.010801 0.000716 0.000000 -0.000716 0.000000
# 3 -0.002820 0.000716 0.010460 0.000000 0.000235 0.000000
# 4 0.000000 0.000000 0.000000 0.013580 0.000000 -0.014574
# 5 0.000568 -0.000716 0.000235 0.000000 0.017551 0.000000
# 6 0.000000 0.000000 0.000000 -0.014574 0.000000 0.031862
#
#
# Mechanical properties :
#
#
# Convention : Reuss Voigt Hill
#
# Bulk Modulus (GPa) = 51.81889 60.84527 56.33208
# Shear Modulus (GPa) = 46.99207 72.82862 59.91034
#
# Velocity S-wave (km/s) = 4.35192 5.41776 4.91383
# Velocity P-wave (km/s) = 6.79242 7.97864 7.40931
#
# Compressibility (1/GPa) = 0.01929798
#
# Stress axis : x y z
#
# Youngs Moduli (GPa) = 145.45719 92.58057 95.60047
#
# Poissons Ratio (x) = 0.21438 0.26958
# Poissons Ratio (y) = 0.33682 -0.06848
# Poissons Ratio (z) = 0.41018 -0.06631
#
# Static dielectric constant tensor:
#      x y z
#    x 2.278010 0.000000 0.687210 
#    y 0.000000 1.891520 0.000000 
#    z 0.687210 0.000000 3.193160 
# 
# From -- ./inp_files/308.got.cif
#   From: 2010.05.17/outbox.cif.g08.bks.cpg/sg9_1_cif.got.tgz:308.got - 2010.06.03 20:04:27.
