data_PCOD9138706
_publ_section_title
;
Structure prediction by ZEFSAII (Michael W. Deem and Ramdas Pophale) SiO2 
 PCOD9138706
Probable space group: C C
;
_chemical_formula_sum "Si O2"
_cell_formula_units_Z 28
_cell_length_a 9.119607
_cell_length_b 10.627504
_cell_length_c 27.224904
_cell_angle_alpha 90.000000
_cell_angle_beta 28.227812
_cell_angle_gamma 90.000000
_cell_volume 1248.001652
_symmetry_space_group_name_H-M "C C"
_symmetry_group_IT_number 9
_symmetry_cell_setting 'monoclinic'
loop_
_space_group_symop_operation_xyz
x,y,z
x,-y,1/2+z
1/2+x,1/2+y,z
1/2+x,1/2-y,1/2+z
loop_
_atom_site_type_symbol
_atom_site_label
_atom_site_fract_x
_atom_site_fract_y
_atom_site_fract_z
Si Si1 0.895940 0.962616 0.431820
Si Si2 0.734448 0.848242 0.893373
Si Si3 0.095021 0.577041 0.119487
Si Si4 0.265432 0.942724 0.409814
Si Si5 0.439707 0.841636 0.225329
Si Si6 0.904105 0.066949 0.238709
Si Si7 0.527204 0.353831 0.125557
O O1 0.801725 0.060286 0.418998
O O2 0.628421 0.927075 0.549785
O O3 0.157488 0.014928 0.392021
O O4 0.092148 0.847359 0.351263
O O5 0.357968 0.850397 0.999590
O O6 0.821997 0.704360 0.881106
O O7 0.933810 0.897460 0.787909
O O8 0.935404 0.455002 0.188079
O O9 0.998241 0.717648 0.160466
O O10 0.450871 0.561382 0.033458
O O11 0.554334 0.014982 0.343989
O O12 0.470706 0.702301 0.194661
O O13 0.727401 0.866674 0.178176
O O14 0.050226 0.960583 0.160671
#
# Coordination Sequence:
#
# PCOD9138706 Si02
#       7
#     4   4   4   4   4   4   4
#     4  10  23  46  67  95 139 177 220 282 341 391
#     4  11  24  45  71  98 136 185 223 282 339 403
#     4   9  23  46  69  90 141 174 221 279 339 395
#     4   9  21  49  63  95 140 172 221 285 333 397
#     4  12  24  43  70 101 138 180 225 285 335 400
#     4  12  23  44  71 101 136 178 229 278 343 404
#     4  11  24  45  69 100 138 180 229 281 336 398
#
# _framework density 22.435870000000001
#
# number of rings (size 3 to 8) (size 9 to 14) (size 15 to 20)
#    0.857    0.571    2.857    0.857    6.000    0.000 
#   12.857    0.000    0.000    0.000    0.000    0.000 
#    0.000    0.000    0.000    0.000    0.000    0.000 
#
# Total GULP energy -77960.641440 kJ/mol
# GULP energy per Si atom -5568.617246 kJ/mol
# Density = 2.238480 g / cm^3
# Si number density = 22.435870 Si / 1000 Ang^3
#
#
#
# Elastic Constant Matrix: (Units=GPa)
#
#
# Indices 1 2 3 4 5 6 
#
# 1 53.1931 57.2507 17.6984 -0.0175 -7.4494 0.0146
# 2 57.2507 181.5192 67.3336 -0.0382 18.7795 0.0181
# 3 17.6984 67.3336 112.7962 0.0648 7.0238 -0.0616
# 4 -0.0175 -0.0382 0.0648 42.6383 -0.0117 1.7805
# 5 -7.4494 18.7795 7.0238 -0.0117 30.3721 0.0049
# 6 0.0146 0.0181 -0.0616 1.7805 0.0049 36.7756
#
#
#
# Elastic Compliance Matrix: (Units=1/GPa)
#
#
# Indices 1 2 3 4 5 6 
#
# 1 0.034836 -0.013199 0.001393 0.000005 0.016383 -0.000007
# 2 -0.013199 0.012452 -0.004749 0.000011 -0.009838 -0.000008
# 3 0.001393 -0.004749 0.011443 -0.000022 0.000632 0.000022
# 4 0.000005 0.000011 -0.000022 0.023501 0.000009 -0.001138
# 5 0.016383 -0.009838 0.000632 0.000009 0.042880 -0.000007
# 6 -0.000007 -0.000008 0.000022 -0.001138 -0.000007 0.027247
#
#
# Mechanical properties :
#
#
# Convention : Reuss Voigt Hill
#
# Bulk Modulus (GPa) = 39.03245 70.23045 54.63145
# Shear Modulus (GPa) = 25.77202 35.63892 30.70547
#
# Velocity S-wave (km/s) = 3.39292 3.98990 3.70346
# Velocity P-wave (km/s) = 5.72576 7.25234 6.53379
#
# Compressibility (1/GPa) = 0.02561971
#
# Stress axis : x y z
#
# Youngs Moduli (GPa) = 28.70583 80.31151 87.39132
#
# Poissons Ratio (x) = 1.06002 -0.12172
# Poissons Ratio (y) = 0.37888 0.41505
# Poissons Ratio (z) = -0.03998 0.38143
#
# Static dielectric constant tensor:
#      x y z
#    x 1.870800 -0.000050 -0.017220 
#    y -0.000050 1.778940 -0.000060 
#    z -0.017220 -0.000060 1.968550 
# 
# From -- ./inp_files/36305.got.cif
#   From: 2010.05.17/outbox.cif.g08.bks.cpg/sg9_19_cif.got.tgz:36305.got - 2010.06.03 20:04:27.
