data_PCOD9138200
_publ_section_title
;
Structure prediction by ZEFSAII (Michael W. Deem and Ramdas Pophale) SiO2 
 PCOD9138200
Probable space group: C C
;
_chemical_formula_sum "Si O2"
_cell_formula_units_Z 32
_cell_length_a 15.197933
_cell_length_b 11.783520
_cell_length_c 10.039567
_cell_angle_alpha 90.000000
_cell_angle_beta 108.845538
_cell_angle_gamma 90.000000
_cell_volume 1701.555001
_symmetry_space_group_name_H-M "C C"
_symmetry_group_IT_number 9
_symmetry_cell_setting 'monoclinic'
loop_
_space_group_symop_operation_xyz
x,y,z
x,-y,1/2+z
1/2+x,1/2+y,z
1/2+x,1/2-y,1/2+z
loop_
_atom_site_type_symbol
_atom_site_label
_atom_site_fract_x
_atom_site_fract_y
_atom_site_fract_z
Si Si1 0.235810 0.473650 0.900220
Si Si2 0.357002 0.665555 0.049005
Si Si3 0.605574 0.343046 0.278480
Si Si4 0.532016 0.239296 0.514237
Si Si5 0.616539 0.998681 0.089532
Si Si6 0.516709 0.769330 0.478473
Si Si7 0.807521 0.249709 0.309125
Si Si8 0.543101 0.401250 0.748935
O O1 0.287985 0.592945 0.927372
O O2 0.151335 0.475549 0.754776
O O3 0.298908 0.371808 0.878587
O O4 0.200852 0.461780 0.034038
O O5 0.422790 0.740159 0.987193
O O6 0.310103 0.729862 0.150251
O O7 0.433508 0.583135 0.157973
O O8 0.570032 0.275185 0.390153
O O9 0.713993 0.316355 0.302312
O O10 0.589233 0.477336 0.289131
O O11 0.543825 0.296089 0.126386
O O12 0.551031 0.109673 0.557318
O O13 0.579549 0.326240 0.642902
O O14 0.572290 0.112462 0.007542
O O15 0.407594 0.796426 0.403102
O O16 0.545498 0.682774 0.375400
#
# Coordination Sequence:
#
# PCOD9138200 Si02
#       8
#     4   4   4   4   4   4   4   4
#     4  12  21  39  67  95 129 168 229 266 315 393
#     4   9  22  40  63  95 123 169 218 266 319 385
#     4  12  21  41  65  99 125 167 224 274 317 383
#     4  10  23  41  63  97 126 165 224 262 329 389
#     4  12  23  41  65  96 134 173 208 274 336 392
#     4  11  23  42  67  91 136 176 208 267 343 385
#     4  11  23  40  62 100 127 169 221 262 331 383
#     4   9  22  40  68  87 128 173 212 259 334 380
#
# _framework density 18.806328000000001
#
# number of rings (size 3 to 8) (size 9 to 14) (size 15 to 20)
#    0.750    0.500    3.750    2.250    3.500    1.000 
#    0.000    5.000    0.000    0.000    0.000    0.000 
#    0.000    0.000    0.000    0.000    0.000    0.000 
#
# Total GULP energy -89217.390727 kJ/mol
# GULP energy per Si atom -5576.086920 kJ/mol
# Density = 1.876352 g / cm^3
# Si number density = 18.806328 Si / 1000 Ang^3
#
#
#
# Elastic Constant Matrix: (Units=GPa)
#
#
# Indices 1 2 3 4 5 6 
#
# 1 82.7429 23.3894 18.2166 0.0000 -7.8188 0.0000
# 2 23.3894 71.6074 13.4405 0.0000 5.5112 0.0000
# 3 18.2166 13.4405 83.4642 0.0000 -2.0849 0.0000
# 4 0.0000 0.0000 0.0000 15.5630 0.0000 8.0434
# 5 -7.8188 5.5112 -2.0849 0.0000 24.5066 0.0000
# 6 0.0000 0.0000 0.0000 8.0434 0.0000 44.7148
#
#
#
# Elastic Compliance Matrix: (Units=1/GPa)
#
#
# Indices 1 2 3 4 5 6 
#
# 1 0.014431 -0.004712 -0.002254 0.000000 0.005472 0.000000
# 2 -0.004712 0.016234 -0.001718 0.000000 -0.005300 0.000000
# 3 -0.002254 -0.001718 0.012769 0.000000 0.000753 0.000000
# 4 0.000000 0.000000 0.000000 0.070841 0.000000 -0.012743
# 5 0.005472 -0.005300 0.000753 0.000000 0.043807 0.000000
# 6 0.000000 0.000000 0.000000 -0.012743 0.000000 0.024656
#
#
# Mechanical properties :
#
#
# Convention : Reuss Voigt Hill
#
# Bulk Modulus (GPa) = 38.36465 38.65640 38.51052
# Shear Modulus (GPa) = 23.94690 29.14143 26.54417
#
# Velocity S-wave (km/s) = 3.57226 3.94071 3.76100
# Velocity P-wave (km/s) = 6.12037 6.42691 6.27551
#
# Compressibility (1/GPa) = 0.02606566
#
# Stress axis : x y z
#
# Youngs Moduli (GPa) = 69.29595 61.59727 78.31647
#
# Poissons Ratio (x) = 0.29022 0.17654
# Poissons Ratio (y) = 0.32650 0.13457
# Poissons Ratio (z) = 0.15621 0.10584
#
# Static dielectric constant tensor:
#      x y z
#    x 1.686340 0.000000 0.008350 
#    y 0.000000 1.646600 0.000000 
#    z 0.008350 0.000000 1.655750 
# 
# From -- ./inp_files/9298.got.cif
#   From: 2010.05.17/outbox.cif.g08.bks.cpg/sg9_5_cif.got.tgz:9298.got - 2010.06.03 20:04:27.
