data_PCOD9138993
_publ_section_title
;
Structure prediction by ZEFSAII (Michael W. Deem and Ramdas Pophale) SiO2 
 PCOD9138993
Probable space group: C C
;
_chemical_formula_sum "Si O2"
_cell_formula_units_Z 32
_cell_length_a 14.850815
_cell_length_b 15.288203
_cell_length_c 8.735766
_cell_angle_alpha 90.000000
_cell_angle_beta 41.838746
_cell_angle_gamma 90.000000
_cell_volume 1322.992197
_symmetry_space_group_name_H-M "C C"
_symmetry_group_IT_number 9
_symmetry_cell_setting 'monoclinic'
loop_
_space_group_symop_operation_xyz
x,y,z
x,-y,1/2+z
1/2+x,1/2+y,z
1/2+x,1/2-y,1/2+z
loop_
_atom_site_type_symbol
_atom_site_label
_atom_site_fract_x
_atom_site_fract_y
_atom_site_fract_z
Si Si1 0.322180 0.758888 0.700790
Si Si2 0.957089 0.073372 0.056988
Si Si3 0.707552 0.332275 0.096565
Si Si4 0.471756 0.065021 0.370080
Si Si5 0.036666 0.604217 0.963193
Si Si6 0.967845 0.107232 0.403420
Si Si7 0.206982 0.340872 0.741572
Si Si8 0.190810 0.744438 0.584879
O O1 0.443647 0.812671 0.618675
O O2 0.356924 0.656132 0.651248
O O3 0.319581 0.774834 0.518939
O O4 0.198563 0.818574 0.923921
O O5 0.067265 0.143067 0.853956
O O6 0.011352 0.979317 0.937437
O O7 0.933500 0.082782 0.269088
O O8 0.817329 0.086576 0.140997
O O9 0.752758 0.230850 0.060903
O O10 0.824048 0.395731 0.016841
O O11 0.562739 0.122361 0.371395
O O12 0.464947 0.969487 0.452787
O O13 0.558551 0.062842 0.102339
O O14 0.146528 0.653644 0.722790
O O15 0.083995 0.178915 0.236270
O O16 0.206928 0.280305 0.891085
#
# Coordination Sequence:
#
# PCOD9138993 Si02
#       8
#     4   4   4   4   4   4   4   4
#     4  10  24  47  72 101 147 196 239 295 372 441
#     4  12  28  46  72 113 146 189 247 308 368 435
#     4  11  26  46  74 107 146 191 244 296 371 431
#     4  11  25  44  73 106 142 189 246 297 356 442
#     4  10  24  43  69 105 137 187 245 297 353 431
#     4  11  27  46  70 109 148 193 239 308 371 439
#     4  12  25  45  75 103 145 190 246 300 363 439
#     4  11  23  45  73  98 149 191 242 297 372 438
#
# _framework density 24.187594000000001
#
# number of rings (size 3 to 8) (size 9 to 14) (size 15 to 20)
#    0.000    1.000    2.500    2.250    7.000    4.000 
#    0.000    0.000    0.000    0.000    0.000    0.000 
#    0.000    0.000    0.000    0.000    0.000    0.000 
#
# Total GULP energy -89171.412438 kJ/mol
# GULP energy per Si atom -5573.213277 kJ/mol
# Density = 2.413254 g / cm^3
# Si number density = 24.187594 Si / 1000 Ang^3
#
#
#
# Elastic Constant Matrix: (Units=GPa)
#
#
# Indices 1 2 3 4 5 6 
#
# 1 59.8473 -5.3514 -7.9089 0.0000 1.0981 0.0000
# 2 -5.3514 74.3370 7.8352 0.0000 4.5877 0.0000
# 3 -7.9089 7.8352 55.1135 0.0000 -0.3333 0.0000
# 4 0.0000 0.0000 0.0000 33.3734 0.0000 15.8182
# 5 1.0981 4.5877 -0.3333 0.0000 24.6650 0.0000
# 6 0.0000 0.0000 0.0000 15.8182 0.0000 34.2608
#
#
#
# Elastic Compliance Matrix: (Units=1/GPa)
#
#
# Indices 1 2 3 4 5 6 
#
# 1 0.017124 0.001047 0.002303 0.000000 -0.000926 0.000000
# 2 0.001047 0.013885 -0.001840 0.000000 -0.002654 0.000000
# 3 0.002303 -0.001840 0.018739 0.000000 0.000493 0.000000
# 4 0.000000 0.000000 0.000000 0.038358 0.000000 -0.017710
# 5 -0.000926 -0.002654 0.000493 0.000000 0.041085 0.000000
# 6 0.000000 0.000000 0.000000 -0.017710 0.000000 0.037364
#
#
# Mechanical properties :
#
#
# Convention : Reuss Voigt Hill
#
# Bulk Modulus (GPa) = 18.95040 19.82753 19.38896
# Shear Modulus (GPa) = 27.60518 31.44138 29.52328
#
# Velocity S-wave (km/s) = 3.38197 3.60932 3.49749
# Velocity P-wave (km/s) = 4.80646 5.05814 4.93391
#
# Compressibility (1/GPa) = 0.05276934
#
# Stress axis : x y z
#
# Youngs Moduli (GPa) = 58.39705 72.01838 53.36360
#
# Poissons Ratio (x) = -0.07541 -0.12289
# Poissons Ratio (y) = -0.06115 0.09818
# Poissons Ratio (z) = -0.13448 0.13250
#
# Static dielectric constant tensor:
#      x y z
#    x 2.072740 0.000000 0.040060 
#    y 0.000000 1.913620 0.000000 
#    z 0.040060 0.000000 2.118510 
# 
# From -- ./inp_files/9679.got.cif
#   From: 2010.05.17/outbox.cif.g08.bks.cpg/sg9_5_cif.got.tgz:9679.got - 2010.06.03 20:04:27.
