data_PCOD9138994
_publ_section_title
;
Structure prediction by ZEFSAII (Michael W. Deem and Ramdas Pophale) SiO2 
 PCOD9138994
Probable space group: C C
;
_chemical_formula_sum "Si O2"
_cell_formula_units_Z 28
_cell_length_a 16.992269
_cell_length_b 7.903774
_cell_length_c 22.646374
_cell_angle_alpha 90.000000
_cell_angle_beta 22.081279
_cell_angle_gamma 90.000000
_cell_volume 1143.356686
_symmetry_space_group_name_H-M "C C"
_symmetry_group_IT_number 9
_symmetry_cell_setting 'monoclinic'
loop_
_space_group_symop_operation_xyz
x,y,z
x,-y,1/2+z
1/2+x,1/2+y,z
1/2+x,1/2-y,1/2+z
loop_
_atom_site_type_symbol
_atom_site_label
_atom_site_fract_x
_atom_site_fract_y
_atom_site_fract_z
Si Si1 0.922830 0.610699 0.831200
Si Si2 0.325841 0.240641 0.584218
Si Si3 0.621952 0.915596 0.065490
Si Si4 0.245386 0.575368 0.710753
Si Si5 0.867394 0.756584 0.349591
Si Si6 0.130202 0.739522 0.898225
Si Si7 0.711950 0.429936 0.271827
O O1 0.802789 0.431260 0.915638
O O2 0.070437 0.606056 0.670568
O O3 0.064766 0.621880 0.790332
O O4 0.767135 0.766638 0.939895
O O5 0.327288 0.395513 0.630740
O O6 0.524863 0.292293 0.406936
O O7 0.304728 0.080109 0.641768
O O8 0.113684 0.236035 0.693638
O O9 0.400833 0.901306 0.185901
O O10 0.741316 0.090474 0.967428
O O11 0.159168 0.577930 0.836784
O O12 0.431394 0.712246 0.576027
O O13 0.818825 0.760036 0.313713
O O14 0.122751 0.890633 0.855013
#
# Coordination Sequence:
#
# PCOD9138994 Si02
#       7
#     4   4   4   4   4   4   4
#     4  11  26  49  75 117 153 202 263 321 391 471
#     4  10  26  45  74 102 152 193 254 314 383 458
#     4  12  26  48  81 110 160 203 259 326 396 463
#     4  10  24  43  69 105 146 188 245 309 375 456
#     4  11  27  48  76 112 153 203 255 321 389 469
#     4  11  23  44  72 102 148 189 249 306 383 452
#     4  11  24  45  71 108 144 198 253 315 379 465
#
# _framework density 24.489294999999998
#
# number of rings (size 3 to 8) (size 9 to 14) (size 15 to 20)
#    0.000    1.143    1.429    2.571   10.000    4.571 
#    2.571    0.000    0.000    0.000    0.000    0.000 
#    0.000    0.000    0.000    0.000    0.000    0.000 
#
# Total GULP energy -78374.998613 kJ/mol
# GULP energy per Si atom -5598.214187 kJ/mol
# Density = 2.443356 g / cm^3
# Si number density = 24.489295 Si / 1000 Ang^3
#
#
#
# Elastic Constant Matrix: (Units=GPa)
#
#
# Indices 1 2 3 4 5 6 
#
# 1 118.4286 16.2428 18.7582 -0.0062 -0.7342 0.0009
# 2 16.2428 121.4209 54.4452 -0.0119 8.0667 0.0025
# 3 18.7582 54.4452 131.1687 -0.0307 19.0441 0.0072
# 4 -0.0062 -0.0119 -0.0307 15.1683 0.0035 28.7271
# 5 -0.7342 8.0667 19.0441 0.0035 31.5716 -0.0016
# 6 0.0009 0.0025 0.0072 28.7271 -0.0016 18.2936
#
#
#
# Elastic Compliance Matrix: (Units=1/GPa)
#
#
# Indices 1 2 3 4 5 6 
#
# 1 0.008726 -0.000748 -0.001090 0.000000 0.001052 0.000000
# 2 -0.000748 0.010184 -0.004099 0.000001 -0.000147 -0.000001
# 3 -0.001090 -0.004099 0.010228 -0.000013 -0.005148 0.000016
# 4 0.000000 0.000001 -0.000013 -0.033397 0.000014 0.052444
# 5 0.001052 -0.000147 -0.005148 0.000014 0.034841 -0.000017
# 6 0.000000 -0.000001 0.000016 0.052444 -0.000017 -0.027691
#
#
# Mechanical properties :
#
#
# Convention : Reuss Voigt Hill
#
# Bulk Modulus (GPa) = 57.92484 61.10118 59.51301
# Shear Modulus (GPa) = 243.67617 31.77815 137.72716
#
# Velocity S-wave (km/s) = 9.98595 3.60618 7.50745
# Velocity P-wave (km/s) = 12.51652 6.50720 9.97514
#
# Compressibility (1/GPa) = 0.01726375
#
# Stress axis : x y z
#
# Youngs Moduli (GPa) = 114.60399 98.19804 97.76839
#
# Poissons Ratio (x) = 0.07349 0.10655
# Poissons Ratio (y) = 0.08577 0.40071
# Poissons Ratio (z) = 0.12490 0.40247
#
# Static dielectric constant tensor:
#      x y z
#    x 1.887190 0.000000 0.009780 
#    y 0.000000 2.014100 0.000010 
#    z 0.009780 0.000010 1.947550 
# 
# From -- ./inp_files/35809.got.cif
#   From: 2010.05.17/outbox.cif.g08.bks.cpg/sg9_18_cif.got.tgz:35809.got - 2010.06.03 20:04:27.
