data_PCOD9138544
_publ_section_title
;
Structure prediction by ZEFSAII (Michael W. Deem and Ramdas Pophale) SiO2 
 PCOD9138544
Probable space group: C C
;
_chemical_formula_sum "Si O2"
_cell_formula_units_Z 32
_cell_length_a 13.231631
_cell_length_b 7.617365
_cell_length_c 22.260363
_cell_angle_alpha 90.000000
_cell_angle_beta 38.659190
_cell_angle_gamma 90.000000
_cell_volume 1401.562904
_symmetry_space_group_name_H-M "C C"
_symmetry_group_IT_number 9
_symmetry_cell_setting 'monoclinic'
loop_
_space_group_symop_operation_xyz
x,y,z
x,-y,1/2+z
1/2+x,1/2+y,z
1/2+x,1/2-y,1/2+z
loop_
_atom_site_type_symbol
_atom_site_label
_atom_site_fract_x
_atom_site_fract_y
_atom_site_fract_z
Si Si1 0.110400 0.049060 0.369260
Si Si2 0.922341 0.230178 0.744117
Si Si3 0.816296 0.842773 0.822892
Si Si4 0.690645 0.172058 0.047202
Si Si5 0.889018 0.656704 0.916340
Si Si6 0.474563 0.710488 0.011111
Si Si7 0.984725 0.731796 0.344440
Si Si8 0.549264 0.221484 0.608719
O O1 0.289161 0.123361 0.292072
O O2 0.998076 0.208175 0.402079
O O3 0.455230 0.244765 0.589285
O O4 0.050790 0.980402 0.461645
O O5 0.024708 0.281604 0.755780
O O6 0.034239 0.214099 0.633862
O O7 0.851347 0.045097 0.795761
O O8 0.622227 0.827584 0.917221
O O9 0.581662 0.613407 0.835070
O O10 0.924309 0.755290 0.720253
O O11 0.628495 0.972151 0.076785
O O12 0.796668 0.207603 0.939486
O O13 0.818875 0.214024 0.040964
O O14 0.870564 0.748108 0.859396
O O15 0.975240 0.468422 0.871862
O O16 0.709090 0.653985 0.029003
#
# Coordination Sequence:
#
# PCOD9138544 Si02
#       8
#     4   4   4   4   4   4   4   4
#     4  11  24  45  70 105 139 190 245 286 371 432
#     4  12  25  44  69 106 146 190 247 298 364 440
#     4  11  24  45  72 107 142 199 242 300 373 433
#     4  11  24  44  68 105 145 189 239 304 364 430
#     4  11  22  46  75 104 148 189 237 307 362 435
#     4  10  23  44  71 101 141 192 237 300 365 426
#     4  11  23  47  73  98 147 188 233 306 362 423
#     4  11  21  45  72 106 148 185 250 299 359 447
#
# _framework density 22.831655000000001
#
# number of rings (size 3 to 8) (size 9 to 14) (size 15 to 20)
#    0.000    1.000    3.750    4.500    3.500    3.000 
#    2.250    1.250    0.000    0.000    0.000    0.000 
#    0.000    0.000    0.000    0.000    0.000    0.000 
#
# Total GULP energy -89338.041626 kJ/mol
# GULP energy per Si atom -5583.627602 kJ/mol
# Density = 2.277969 g / cm^3
# Si number density = 22.831655 Si / 1000 Ang^3
#
#
#
# Elastic Constant Matrix: (Units=GPa)
#
#
# Indices 1 2 3 4 5 6 
#
# 1 77.4517 33.1921 25.7842 0.0000 1.0329 0.0000
# 2 33.1921 155.5902 27.5170 0.0000 -5.3274 0.0001
# 3 25.7842 27.5170 120.3083 0.0000 25.8037 0.0000
# 4 0.0000 0.0000 0.0000 34.0230 0.0000 -13.0105
# 5 1.0329 -5.3274 25.8037 0.0000 21.7736 0.0000
# 6 0.0000 0.0001 0.0000 -13.0105 0.0000 37.7403
#
#
#
# Elastic Compliance Matrix: (Units=1/GPa)
#
#
# Indices 1 2 3 4 5 6 
#
# 1 0.015027 -0.002568 -0.003145 0.000000 0.002386 0.000000
# 2 -0.002568 0.007504 -0.002127 0.000000 0.004478 0.000000
# 3 -0.003145 -0.002127 0.012807 0.000000 -0.015549 0.000000
# 4 0.000000 0.000000 0.000000 0.033855 0.000000 0.011671
# 5 0.002386 0.004478 -0.015549 0.000000 0.065336 0.000000
# 6 0.000000 0.000000 0.000000 0.011671 0.000000 0.030520
#
#
# Mechanical properties :
#
#
# Convention : Reuss Voigt Hill
#
# Bulk Modulus (GPa) = 50.86475 58.48187 54.67331
# Shear Modulus (GPa) = 26.69767 36.49782 31.59775
#
# Velocity S-wave (km/s) = 3.42325 4.00254 3.72418
# Velocity P-wave (km/s) = 6.16047 6.85787 6.51851
#
# Compressibility (1/GPa) = 0.01965998
#
# Stress axis : x y z
#
# Youngs Moduli (GPa) = 66.54748 133.25615 78.08043
#
# Poissons Ratio (x) = 0.34217 0.24556
# Poissons Ratio (y) = 0.17088 0.16604
# Poissons Ratio (z) = 0.20929 0.28337
#
# Static dielectric constant tensor:
#      x y z
#    x 1.892640 0.000000 -0.015780 
#    y 0.000000 1.876840 0.000000 
#    z -0.015780 0.000000 1.850100 
# 
# From -- ./inp_files/36688.got.cif
#   From: 2010.05.17/outbox.cif.g08.bks.cpg/sg9_19_cif.got.tgz:36688.got - 2010.06.03 20:04:27.
