data_PCOD9138072
_publ_section_title
;
Structure prediction by ZEFSAII (Michael W. Deem and Ramdas Pophale) SiO2 
 PCOD9138072
Probable space group: C C
;
_chemical_formula_sum "Si O2"
_cell_formula_units_Z 24
_cell_length_a 6.941524
_cell_length_b 22.854056
_cell_length_c 5.501630
_cell_angle_alpha 90.000000
_cell_angle_beta 80.385215
_cell_angle_gamma 90.000000
_cell_volume 860.529367
_symmetry_space_group_name_H-M "C C"
_symmetry_group_IT_number 9
_symmetry_cell_setting 'monoclinic'
loop_
_space_group_symop_operation_xyz
x,y,z
x,-y,1/2+z
1/2+x,1/2+y,z
1/2+x,1/2-y,1/2+z
loop_
_atom_site_type_symbol
_atom_site_label
_atom_site_fract_x
_atom_site_fract_y
_atom_site_fract_z
Si Si1 0.605950 0.013253 0.102650
Si Si2 0.039400 0.183627 0.098762
Si Si3 0.150187 0.638480 0.294387
Si Si4 0.045998 0.969353 0.007335
Si Si5 0.200056 0.263520 0.444586
Si Si6 0.781813 0.638385 0.668770
O O1 0.657185 0.080952 0.127300
O O2 0.499261 0.995528 0.371941
O O3 0.806589 0.974722 0.056338
O O4 0.873829 0.155378 0.305916
O O5 0.115867 0.242531 0.207886
O O6 0.899768 0.199741 0.900401
O O7 0.209715 0.142884 0.962115
O O8 0.006375 0.627337 0.549167
O O9 0.075854 0.692664 0.141591
O O10 0.149285 0.909422 0.062629
O O11 0.097720 0.988008 0.722849
O O12 0.243623 0.203222 0.572786
#
# Coordination Sequence:
#
# PCOD9138072 Si02
#       6
#     4   4   4   4   4   4
#     4  10  22  47  76 114 154 221 273 341 424 493
#     4  10  25  52  73 116 162 217 270 346 422 494
#     4  10  26  51  76 122 161 221 273 352 411 520
#     4  10  24  44  76 113 156 216 269 344 423 491
#     4  10  26  50  78 115 166 215 274 345 422 490
#     4  12  25  48  79 118 157 220 277 344 414 520
#
# _framework density 27.889807000000001
#
# number of rings (size 3 to 8) (size 9 to 14) (size 15 to 20)
#    1.000    0.667    0.000    3.000    7.000    4.000 
#   12.000    0.000    0.000    0.000    0.000    0.000 
#    0.000    0.000    0.000    0.000    0.000    0.000 
#
# Total GULP energy -67182.851956 kJ/mol
# GULP energy per Si atom -5598.570996 kJ/mol
# Density = 2.782633 g / cm^3
# Si number density = 27.889807 Si / 1000 Ang^3
#
#
#
# Elastic Constant Matrix: (Units=GPa)
#
#
# Indices 1 2 3 4 5 6 
#
# 1 135.1173 28.9944 70.7155 0.0000 -27.1899 0.0000
# 2 28.9944 130.5641 34.3355 0.0000 -7.3315 0.0000
# 3 70.7155 34.3355 174.2441 0.0000 -14.0926 0.0000
# 4 0.0000 0.0000 0.0000 54.4300 0.0000 5.8591
# 5 -27.1899 -7.3315 -14.0926 0.0000 59.7150 0.0000
# 6 0.0000 0.0000 0.0000 5.8591 0.0000 42.1974
#
#
#
# Elastic Compliance Matrix: (Units=1/GPa)
#
#
# Indices 1 2 3 4 5 6 
#
# 1 0.010299 -0.001117 -0.003661 0.000000 0.003688 0.000000
# 2 -0.001117 0.008222 -0.001148 0.000000 0.000230 0.000000
# 3 -0.003661 -0.001148 0.007447 0.000000 -0.000051 0.000000
# 4 0.000000 0.000000 0.000000 0.018651 0.000000 -0.002590
# 5 0.003688 0.000230 -0.000051 0.000000 0.018442 0.000000
# 6 0.000000 0.000000 0.000000 -0.002590 0.000000 0.024058
#
#
# Mechanical properties :
#
#
# Convention : Reuss Voigt Hill
#
# Bulk Modulus (GPa) = 70.84742 78.66849 74.75795
# Shear Modulus (GPa) = 48.22655 51.66049 49.94352
#
# Velocity S-wave (km/s) = 4.16285 4.30851 4.23631
# Velocity P-wave (km/s) = 6.96876 7.28143 7.12681
#
# Compressibility (1/GPa) = 0.01411484
#
# Stress axis : x y z
#
# Youngs Moduli (GPa) = 97.09559 121.62461 134.27897
#
# Poissons Ratio (x) = 0.13587 0.49165
# Poissons Ratio (y) = 0.10847 0.15418
# Poissons Ratio (z) = 0.35550 0.13965
#
# Static dielectric constant tensor:
#      x y z
#    x 2.172600 0.000000 -0.031090 
#    y 0.000000 2.134500 0.000000 
#    z -0.031090 0.000000 2.259520 
# 
# From -- ./inp_files/830.got.cif
#   From: 2010.05.17/outbox.cif.g08.bks.cpg/sg9_1_cif.got.tgz:830.got - 2010.06.03 20:04:27.
