data_PCOD9138044
_publ_section_title
;
Structure prediction by ZEFSAII (Michael W. Deem and Ramdas Pophale) SiO2 
 PCOD9138044
Probable space group: C C
;
_chemical_formula_sum "Si O2"
_cell_formula_units_Z 24
_cell_length_a 22.967829
_cell_length_b 6.366327
_cell_length_c 14.314217
_cell_angle_alpha 90.000000
_cell_angle_beta 151.246634
_cell_angle_gamma 90.000000
_cell_volume 1006.834116
_symmetry_space_group_name_H-M "C C"
_symmetry_group_IT_number 9
_symmetry_cell_setting 'monoclinic'
loop_
_space_group_symop_operation_xyz
x,y,z
x,-y,1/2+z
1/2+x,1/2+y,z
1/2+x,1/2-y,1/2+z
loop_
_atom_site_type_symbol
_atom_site_label
_atom_site_fract_x
_atom_site_fract_y
_atom_site_fract_z
Si Si1 0.210500 0.287284 0.338200
Si Si2 0.899745 0.487345 0.640219
Si Si3 0.862102 0.191900 0.739467
Si Si4 0.580089 0.402999 0.064308
Si Si5 0.672059 0.038751 0.094161
Si Si6 0.480790 0.023177 0.049508
O O1 0.215219 0.422579 0.249833
O O2 0.107184 0.403799 0.251542
O O3 0.338800 0.218362 0.560101
O O4 0.157164 0.060864 0.234959
O O5 0.824798 0.321654 0.596067
O O6 0.915534 0.428579 0.554407
O O7 0.033454 0.484731 0.873718
O O8 0.760805 0.043682 0.640349
O O9 0.904935 0.360857 0.878583
O O10 0.977333 0.049752 0.876925
O O11 0.663261 0.284642 0.105950
O O12 0.515774 0.226422 0.038025
#
# Coordination Sequence:
#
# PCOD9138044 Si02
#       6
#     4   4   4   4   4   4
#     4  10  23  47  70 103 143 187 254 306 363 447
#     4  12  24  46  72 105 149 194 241 306 379 436
#     4  11  24  47  69 108 148 189 251 307 368 452
#     4  10  22  47  69  98 143 195 239 310 370 423
#     4  11  24  46  70 101 146 189 246 311 364 444
#     4  10  23  47  70 103 147 192 247 310 368 446
#
# _framework density 23.837094
#
# number of rings (size 3 to 8) (size 9 to 14) (size 15 to 20)
#    0.000    1.333    6.667    0.000    4.667    1.333 
#   12.000    0.000    0.000    0.000    0.000    0.000 
#    0.000    0.000    0.000    0.000    0.000    0.000 
#
# Total GULP energy -67153.497093 kJ/mol
# GULP energy per Si atom -5596.124758 kJ/mol
# Density = 2.378284 g / cm^3
# Si number density = 23.837094 Si / 1000 Ang^3
#
#
#
# Elastic Constant Matrix: (Units=GPa)
#
#
# Indices 1 2 3 4 5 6 
#
# 1 120.8597 23.7335 31.6251 0.0000 -13.8533 0.0000
# 2 23.7335 99.2811 40.9374 0.0000 -14.7845 0.0000
# 3 31.6251 40.9374 86.4186 0.0000 4.0216 0.0000
# 4 0.0000 0.0000 0.0000 54.9469 0.0000 -0.7699
# 5 -13.8533 -14.7845 4.0216 0.0000 26.1005 0.0000
# 6 0.0000 0.0000 0.0000 -0.7699 0.0000 31.3412
#
#
#
# Elastic Compliance Matrix: (Units=1/GPa)
#
#
# Indices 1 2 3 4 5 6 
#
# 1 0.009980 0.000161 -0.004008 0.000000 0.006006 0.000000
# 2 0.000161 0.014466 -0.007350 0.000000 0.009412 0.000000
# 3 -0.004008 -0.007350 0.016934 0.000000 -0.008900 0.000000
# 4 0.000000 0.000000 0.000000 0.018206 0.000000 0.000447
# 5 0.006006 0.009412 -0.008900 0.000000 0.048204 0.000000
# 6 0.000000 0.000000 0.000000 0.000447 0.000000 0.031918
#
#
# Mechanical properties :
#
#
# Convention : Reuss Voigt Hill
#
# Bulk Modulus (GPa) = 52.66777 55.46126 54.06452
# Shear Modulus (GPa) = 29.68613 36.49529 33.09071
#
# Velocity S-wave (km/s) = 3.53282 3.91708 3.72990
# Velocity P-wave (km/s) = 6.22767 6.61629 6.42492
#
# Compressibility (1/GPa) = 0.01898694
#
# Stress axis : x y z
#
# Youngs Moduli (GPa) = 100.20529 69.12720 59.05236
#
# Poissons Ratio (x) = -0.01115 0.23668
# Poissons Ratio (y) = -0.01617 0.43402
# Poissons Ratio (z) = 0.40162 0.50807
#
# Static dielectric constant tensor:
#      x y z
#    x 1.902940 0.000000 0.014730 
#    y 0.000000 1.892420 0.000000 
#    z 0.014730 0.000000 1.997620 
# 
# From -- ./inp_files/25300.got.cif
#   From: 2010.05.17/outbox.cif.g08.bks.cpg/sg9_13_cif.got.tgz:25300.got - 2010.06.03 20:04:27.
