data_PCOD9138315
_publ_section_title
;
Structure prediction by ZEFSAII (Michael W. Deem and Ramdas Pophale) SiO2 
 PCOD9138315
Probable space group: C C
;
_chemical_formula_sum "Si O2"
_cell_formula_units_Z 32
_cell_length_a 7.255110
_cell_length_b 33.056457
_cell_length_c 5.542194
_cell_angle_alpha 90.000000
_cell_angle_beta 57.478048
_cell_angle_gamma 90.000000
_cell_volume 1120.740773
_symmetry_space_group_name_H-M "C C"
_symmetry_group_IT_number 9
_symmetry_cell_setting 'monoclinic'
loop_
_space_group_symop_operation_xyz
x,y,z
x,-y,1/2+z
1/2+x,1/2+y,z
1/2+x,1/2-y,1/2+z
loop_
_atom_site_type_symbol
_atom_site_label
_atom_site_fract_x
_atom_site_fract_y
_atom_site_fract_z
Si Si1 0.123830 0.515963 0.419610
Si Si2 0.752828 0.857145 0.720439
Si Si3 0.938531 0.596592 0.753633
Si Si4 0.209548 0.760284 0.544092
Si Si5 0.334439 0.266307 0.493665
Si Si6 0.183523 0.850449 0.737930
Si Si7 0.536113 0.597762 0.720022
Si Si8 0.112384 0.986844 0.990025
O O1 0.064875 0.482901 0.673221
O O2 0.081013 0.557239 0.600708
O O3 0.384936 0.510177 0.194821
O O4 0.757153 0.812169 0.615889
O O5 0.959429 0.859717 0.754607
O O6 0.801944 0.891766 0.489656
O O7 0.543990 0.867810 0.021586
O O8 0.704121 0.585616 0.808150
O O9 0.874495 0.617545 0.047201
O O10 0.433618 0.746305 0.231660
O O11 0.245816 0.806768 0.598860
O O12 0.116749 0.761349 0.265026
O O13 0.268944 0.736958 0.754381
O O14 0.118566 0.859421 0.056384
O O15 0.555618 0.560601 0.524756
O O16 0.223799 0.997937 0.167615
#
# Coordination Sequence:
#
# PCOD9138315 Si02
#       8
#     4   4   4   4   4   4   4   4
#     4  10  23  42  69 102 140 187 241 304 363 445
#     4  10  25  47  74 108 146 203 251 310 382 457
#     4  11  26  46  72 109 147 194 252 312 376 456
#     4  11  26  47  74 109 154 203 258 323 390 465
#     4  11  26  46  78 109 152 205 261 320 390 464
#     4  10  27  46  73 105 153 197 247 314 385 457
#     4  11  26  45  74 105 149 195 249 312 379 454
#     4  10  23  43  72  99 139 194 237 299 371 444
#
# _framework density 28.552544000000001
#
# number of rings (size 3 to 8) (size 9 to 14) (size 15 to 20)
#    0.000    1.500    0.000    2.250   19.250    3.000 
#    0.000    0.000    0.000    0.000    0.000    0.000 
#    0.000    0.000    0.000    0.000    0.000    0.000 
#
# Total GULP energy -89423.530532 kJ/mol
# GULP energy per Si atom -5588.970658 kJ/mol
# Density = 2.848756 g / cm^3
# Si number density = 28.552544 Si / 1000 Ang^3
#
#
#
# Elastic Constant Matrix: (Units=GPa)
#
#
# Indices 1 2 3 4 5 6 
#
# 1 138.7358 22.5936 20.9944 0.0000 -2.0501 0.0000
# 2 22.5936 110.4050 -12.4012 0.0000 -2.1898 0.0000
# 3 20.9944 -12.4012 161.7741 0.0000 -1.4448 0.0000
# 4 0.0000 0.0000 0.0000 55.5745 0.0000 -6.1259
# 5 -2.0501 -2.1898 -1.4448 0.0000 23.4161 0.0000
# 6 0.0000 0.0000 0.0000 -6.1259 0.0000 34.2816
#
#
#
# Elastic Compliance Matrix: (Units=1/GPa)
#
#
# Indices 1 2 3 4 5 6 
#
# 1 0.007658 -0.001684 -0.001119 0.000000 0.000444 0.000000
# 2 -0.001684 0.009525 0.000956 0.000000 0.000802 0.000000
# 3 -0.001119 0.000956 0.006403 0.000000 0.000387 0.000000
# 4 0.000000 0.000000 0.000000 0.018355 0.000000 0.003280
# 5 0.000444 0.000802 0.000387 0.000000 0.042843 0.000000
# 6 0.000000 0.000000 0.000000 0.003280 0.000000 0.029756
#
#
# Mechanical properties :
#
#
# Convention : Reuss Voigt Hill
#
# Bulk Modulus (GPa) = 50.26956 52.58761 51.42858
# Shear Modulus (GPa) = 40.04256 47.96965 44.00611
#
# Velocity S-wave (km/s) = 3.74895 4.10329 3.93011
# Velocity P-wave (km/s) = 6.03189 6.39587 6.21654
#
# Compressibility (1/GPa) = 0.01989276
#
# Stress axis : x y z
#
# Youngs Moduli (GPa) = 130.58093 104.98159 156.16699
#
# Poissons Ratio (x) = 0.17679 0.17475
# Poissons Ratio (y) = 0.21991 -0.14928
# Poissons Ratio (z) = 0.14612 -0.10035
#
# Static dielectric constant tensor:
#      x y z
#    x 2.457950 0.000000 0.121310 
#    y 0.000000 2.170960 0.000000 
#    z 0.121310 0.000000 2.254220 
# 
# From -- ./inp_files/1358.got.cif
#   From: 2010.05.17/outbox.cif.g08.bks.cpg/sg9_1_cif.got.tgz:1358.got - 2010.06.03 20:04:27.
