data_PCOD9138138
_publ_section_title
;
Structure prediction by ZEFSAII (Michael W. Deem and Ramdas Pophale) SiO2 
 PCOD9138138
Probable space group: C C
;
_chemical_formula_sum "Si O2"
_cell_formula_units_Z 28
_cell_length_a 10.355408
_cell_length_b 14.784630
_cell_length_c 8.559779
_cell_angle_alpha 90.000000
_cell_angle_beta 119.802800
_cell_angle_gamma 90.000000
_cell_volume 1137.183181
_symmetry_space_group_name_H-M "C C"
_symmetry_group_IT_number 9
_symmetry_cell_setting 'monoclinic'
loop_
_space_group_symop_operation_xyz
x,y,z
x,-y,1/2+z
1/2+x,1/2+y,z
1/2+x,1/2-y,1/2+z
loop_
_atom_site_type_symbol
_atom_site_label
_atom_site_fract_x
_atom_site_fract_y
_atom_site_fract_z
Si Si1 0.779780 0.609204 0.404230
Si Si2 0.350707 0.557281 0.103799
Si Si3 0.037206 0.784105 0.847820
Si Si4 0.512679 0.101026 0.988544
Si Si5 0.885975 0.869016 0.267991
Si Si6 0.835744 0.535201 0.159857
Si Si7 0.565884 0.209921 0.516818
O O1 0.710233 0.687093 0.465501
O O2 0.722917 0.595523 0.193498
O O3 0.746768 0.518647 0.475073
O O4 0.950322 0.625314 0.455698
O O5 0.440215 0.626426 0.270297
O O6 0.178801 0.567048 0.053174
O O7 0.409631 0.455773 0.170789
O O8 0.358497 0.590345 0.927450
O O9 0.040181 0.743336 0.677193
O O10 0.996642 0.706972 0.942680
O O11 0.462174 0.083781 0.134714
O O12 0.407565 0.045218 0.806303
O O13 0.734978 0.821964 0.111232
O O14 0.004645 0.787108 0.362871
#
# Coordination Sequence:
#
# PCOD9138138 Si02
#       7
#     4   4   4   4   4   4   4
#     4  11  21  40  64  95 131 175 223 282 351 411
#     4  11  23  40  69  99 133 185 231 293 347 433
#     4  11  22  39  67  93 135 182 224 278 355 421
#     4  11  20  41  66  97 125 179 232 286 345 421
#     4  11  23  42  71  97 138 176 245 278 365 423
#     4  10  23  38  68  92 125 168 233 279 341 416
#     4  11  20  40  69  99 125 189 222 286 350 437
#
# _framework density 24.622243999999998
#
# number of rings (size 3 to 8) (size 9 to 14) (size 15 to 20)
#    0.000    1.143    4.286    3.429    0.000    2.286 
#    2.571    1.429    0.000    0.000    0.000    0.000 
#    0.000    0.000    0.000    0.000    0.000    0.000 
#
# Total GULP energy -78191.315929 kJ/mol
# GULP energy per Si atom -5585.093995 kJ/mol
# Density = 2.456620 g / cm^3
# Si number density = 24.622244 Si / 1000 Ang^3
#
#
#
# Elastic Constant Matrix: (Units=GPa)
#
#
# Indices 1 2 3 4 5 6 
#
# 1 62.3756 33.7116 41.5333 0.0000 3.2019 0.0000
# 2 33.7116 138.6331 42.6050 0.0000 2.1911 0.0000
# 3 41.5333 42.6050 58.5044 0.0000 4.3604 0.0000
# 4 0.0000 0.0000 0.0000 35.5147 0.0000 -1.6279
# 5 3.2019 2.1911 4.3604 0.0000 45.9742 0.0000
# 6 0.0000 0.0000 0.0000 -1.6279 0.0000 41.5755
#
#
#
# Elastic Compliance Matrix: (Units=1/GPa)
#
#
# Indices 1 2 3 4 5 6 
#
# 1 0.030508 -0.000983 -0.020935 0.000000 -0.000092 0.000000
# 2 -0.000983 0.009327 -0.006109 0.000000 0.000203 0.000000
# 3 -0.020935 -0.006109 0.036532 0.000000 -0.001716 0.000000
# 4 0.000000 0.000000 0.000000 0.028208 0.000000 0.001105
# 5 -0.000092 0.000203 -0.001716 0.000000 0.021911 0.000000
# 6 0.000000 0.000000 0.000000 0.001105 0.000000 0.024096
#
#
# Mechanical properties :
#
#
# Convention : Reuss Voigt Hill
#
# Bulk Modulus (GPa) = 49.23404 55.02365 52.12884
# Shear Modulus (GPa) = 23.42948 34.05709 28.74329
#
# Velocity S-wave (km/s) = 3.08808 3.72315 3.42039
# Velocity P-wave (km/s) = 5.72312 6.39360 6.06763
#
# Compressibility (1/GPa) = 0.02031115
#
# Stress axis : x y z
#
# Youngs Moduli (GPa) = 32.77834 107.21975 27.37354
#
# Poissons Ratio (x) = 0.10544 0.57307
# Poissons Ratio (y) = 0.03223 0.16723
# Poissons Ratio (z) = 0.68622 0.65501
#
# Static dielectric constant tensor:
#      x y z
#    x 1.970510 0.000000 0.107960 
#    y 0.000000 2.067040 0.000000 
#    z 0.107960 0.000000 2.097850 
# 
# From -- ./inp_files/7349.got.cif
#   From: 2010.05.17/outbox.cif.g08.bks.cpg/sg9_4_cif.got.tgz:7349.got - 2010.06.03 20:04:27.
