data_PCOD9138616
_publ_section_title
;
Structure prediction by ZEFSAII (Michael W. Deem and Ramdas Pophale) SiO2 
 PCOD9138616
Probable space group: C C
;
_chemical_formula_sum "Si O2"
_cell_formula_units_Z 24
_cell_length_a 4.840893
_cell_length_b 23.290153
_cell_length_c 7.926836
_cell_angle_alpha 90.000000
_cell_angle_beta 94.671369
_cell_angle_gamma 90.000000
_cell_volume 890.743497
_symmetry_space_group_name_H-M "C C"
_symmetry_group_IT_number 9
_symmetry_cell_setting 'monoclinic'
loop_
_space_group_symop_operation_xyz
x,y,z
x,-y,1/2+z
1/2+x,1/2+y,z
1/2+x,1/2-y,1/2+z
loop_
_atom_site_type_symbol
_atom_site_label
_atom_site_fract_x
_atom_site_fract_y
_atom_site_fract_z
Si Si1 0.004240 0.092153 0.392360
Si Si2 0.113159 0.820815 0.649059
Si Si3 0.327074 0.509942 0.083040
Si Si4 0.932663 0.639195 0.649737
Si Si5 0.441409 0.709649 0.769145
Si Si6 0.300623 0.928417 0.468932
O O1 0.305345 0.112334 0.474656
O O2 0.923163 0.150250 0.285479
O O3 0.957713 0.042674 0.249830
O O4 0.880420 0.056379 0.544632
O O5 0.954525 0.801000 0.471087
O O6 0.311405 0.771177 0.726120
O O7 0.300166 0.873132 0.588448
O O8 0.489244 0.548569 0.951757
O O9 0.004087 0.523867 0.053263
O O10 0.737256 0.692586 0.704515
O O11 0.235229 0.665465 0.666426
O O12 0.900730 0.591925 0.793320
#
# Coordination Sequence:
#
# PCOD9138616 Si02
#       6
#     4   4   4   4   4   4
#     4  11  25  44  69 100 139 183 234 289 346 410
#     4  10  24  46  72 105 142 186 233 289 350 419
#     4  11  25  43  67  97 133 182 234 287 345 408
#     4  11  24  43  69 102 141 182 231 288 349 417
#     4  11  25  45  72 105 142 184 232 285 352 422
#     4  10  23  45  67  95 135 179 232 288 346 410
#
# _framework density 26.943784999999998
#
# number of rings (size 3 to 8) (size 9 to 14) (size 15 to 20)
#    0.000    1.333    0.000    5.000    0.000   17.333 
#    0.000    1.667    0.000    0.000    0.000    0.000 
#    0.000    0.000    0.000    0.000    0.000    0.000 
#
# Total GULP energy -67142.354829 kJ/mol
# GULP energy per Si atom -5595.196236 kJ/mol
# Density = 2.688246 g / cm^3
# Si number density = 26.943785 Si / 1000 Ang^3
#
#
#
# Elastic Constant Matrix: (Units=GPa)
#
#
# Indices 1 2 3 4 5 6 
#
# 1 77.0517 28.6944 14.4178 0.0000 11.4938 0.0000
# 2 28.6944 190.9915 66.3095 0.0000 12.5638 0.0000
# 3 14.4178 66.3095 155.0478 0.0000 14.0265 0.0000
# 4 0.0000 0.0000 0.0000 126.1134 0.0000 0.2721
# 5 11.4938 12.5638 14.0265 0.0000 29.7494 0.0000
# 6 0.0000 0.0000 0.0000 0.2721 0.0000 45.6133
#
#
#
# Elastic Compliance Matrix: (Units=1/GPa)
#
#
# Indices 1 2 3 4 5 6 
#
# 1 0.014381 -0.001801 -0.000139 0.000000 -0.004730 0.000000
# 2 -0.001801 0.006432 -0.002508 0.000000 -0.000838 0.000000
# 3 -0.000139 -0.002508 0.007766 0.000000 -0.002549 0.000000
# 4 0.000000 0.000000 0.000000 0.007929 0.000000 -0.000047
# 5 -0.004730 -0.000838 -0.002549 0.000000 0.036997 0.000000
# 6 0.000000 0.000000 0.000000 -0.000047 0.000000 0.021924
#
#
# Mechanical properties :
#
#
# Convention : Reuss Voigt Hill
#
# Bulk Modulus (GPa) = 50.80570 71.32606 61.06588
# Shear Modulus (GPa) = 45.09179 61.20652 53.14916
#
# Velocity S-wave (km/s) = 4.09534 4.77134 4.44621
# Velocity P-wave (km/s) = 6.42336 7.54214 7.00512
#
# Compressibility (1/GPa) = 0.01968283
#
# Stress axis : x y z
#
# Youngs Moduli (GPa) = 69.53817 155.46887 128.77440
#
# Poissons Ratio (x) = 0.28002 0.01791
# Poissons Ratio (y) = 0.12525 0.32291
# Poissons Ratio (z) = 0.00967 0.38984
#
# Static dielectric constant tensor:
#      x y z
#    x 2.111220 0.000000 -0.117590 
#    y 0.000000 2.014000 0.000000 
#    z -0.117590 0.000000 2.212120 
# 
# From -- ./inp_files/3909.got.cif
#   From: 2010.05.17/outbox.cif.g08.bks.cpg/sg9_2_cif.got.tgz:3909.got - 2010.06.03 20:04:27.
