data_PCOD9138340
_publ_section_title
;
Structure prediction by ZEFSAII (Michael W. Deem and Ramdas Pophale) SiO2 
 PCOD9138340
Probable space group: C C
;
_chemical_formula_sum "Si O2"
_cell_formula_units_Z 32
_cell_length_a 15.141132
_cell_length_b 16.811627
_cell_length_c 5.249811
_cell_angle_alpha 90.000000
_cell_angle_beta 67.891416
_cell_angle_gamma 90.000000
_cell_volume 1238.067086
_symmetry_space_group_name_H-M "C C"
_symmetry_group_IT_number 9
_symmetry_cell_setting 'monoclinic'
loop_
_space_group_symop_operation_xyz
x,y,z
x,-y,1/2+z
1/2+x,1/2+y,z
1/2+x,1/2-y,1/2+z
loop_
_atom_site_type_symbol
_atom_site_label
_atom_site_fract_x
_atom_site_fract_y
_atom_site_fract_z
Si Si1 0.500000 0.459861 0.997440
Si Si2 0.998153 0.534756 0.734794
Si Si3 0.731367 0.294420 0.288117
Si Si4 0.269410 0.716978 0.730526
Si Si5 0.035648 0.282619 0.172401
Si Si6 0.767304 0.042251 0.727994
Si Si7 0.974440 0.793629 0.233083
Si Si8 0.779210 0.529437 0.553720
O O1 0.531590 0.475348 0.673897
O O2 0.383971 0.462010 0.100331
O O3 0.524264 0.375474 0.096104
O O4 0.039536 0.479672 0.468749
O O5 0.015484 0.625265 0.632696
O O6 0.887316 0.504032 0.888315
O O7 0.799932 0.265812 0.446712
O O8 0.638599 0.259521 0.533676
O O9 0.764369 0.383902 0.191110
O O10 0.714939 0.260233 0.019704
O O11 0.232978 0.630083 0.691653
O O12 0.364066 0.696262 0.789939
O O13 0.983524 0.230599 0.013060
O O14 0.007342 0.272294 0.496677
O O15 0.737546 0.980873 0.543074
O O16 0.736287 0.527913 0.316745
#
# Coordination Sequence:
#
# PCOD9138340 Si02
#       8
#     4   4   4   4   4   4   4   4
#     4   9  17  33  56  87 126 163 219 285 331 410
#     4  10  23  42  71 102 138 187 248 310 360 442
#     4  12  26  45  67 102 152 184 235 320 389 434
#     4  11  24  40  69 101 131 190 250 296 370 459
#     4  12  26  45  67 102 152 184 235 320 389 434
#     4   9  17  33  56  87 126 163 219 285 331 410
#     4  11  24  40  69 101 131 190 250 296 370 459
#     4  10  23  42  71 102 138 187 248 310 360 442
#
# _framework density 25.846741999999999
#
# number of rings (size 3 to 8) (size 9 to 14) (size 15 to 20)
#    0.000    1.500    0.000    4.500   10.500    4.000 
#    0.000    7.500    0.000    0.000    0.000    0.000 
#    0.000    0.000    0.000    0.000    0.000    0.000 
#
# Total GULP energy -89314.670794 kJ/mol
# GULP energy per Si atom -5582.166925 kJ/mol
# Density = 2.578791 g / cm^3
# Si number density = 25.846742 Si / 1000 Ang^3
#
#
#
# Elastic Constant Matrix: (Units=GPa)
#
#
# Indices 1 2 3 4 5 6 
#
# 1 60.3645 -1.0861 12.7141 0.0000 0.5688 0.0000
# 2 -1.0861 109.7764 7.0120 0.0000 6.5621 0.0000
# 3 12.7141 7.0120 105.8685 0.0000 24.8436 0.0000
# 4 0.0000 0.0000 0.0000 43.5009 0.0000 8.2219
# 5 0.5688 6.5621 24.8436 0.0000 50.9782 0.0000
# 6 0.0000 0.0000 0.0000 8.2219 0.0000 24.3791
#
#
#
# Elastic Compliance Matrix: (Units=1/GPa)
#
#
# Indices 1 2 3 4 5 6 
#
# 1 0.017041 0.000261 -0.002271 0.000000 0.000883 0.000000
# 2 0.000261 0.009197 -0.000409 0.000000 -0.000988 0.000000
# 3 -0.002271 -0.000409 0.010983 0.000000 -0.005275 0.000000
# 4 0.000000 0.000000 0.000000 0.024553 0.000000 -0.008281
# 5 0.000883 -0.000988 -0.005275 0.000000 0.022304 0.000000
# 6 0.000000 0.000000 0.000000 -0.008281 0.000000 0.043811
#
#
# Mechanical properties :
#
#
# Convention : Reuss Voigt Hill
#
# Bulk Modulus (GPa) = 30.87996 34.80994 32.84495
# Shear Modulus (GPa) = 34.83792 40.92958 37.88375
#
# Velocity S-wave (km/s) = 3.67531 3.98370 3.83261
# Velocity P-wave (km/s) = 5.47575 5.88701 5.68510
#
# Compressibility (1/GPa) = 0.03238347
#
# Stress axis : x y z
#
# Youngs Moduli (GPa) = 58.68296 108.72934 91.04780
#
# Poissons Ratio (x) = -0.02836 0.20677
# Poissons Ratio (y) = -0.01531 0.03721
# Poissons Ratio (z) = 0.13327 0.04444
#
# Static dielectric constant tensor:
#      x y z
#    x 2.451510 0.000000 -0.006800 
#    y 0.000000 2.047840 0.000000 
#    z -0.006800 0.000000 2.019240 
# 
# From -- ./inp_files/2962.got.cif
#   From: 2010.05.17/outbox.cif.g08.bks.cpg/sg9_2_cif.got.tgz:2962.got - 2010.06.03 20:04:27.
