data_PCOD9138339
_publ_section_title
;
Structure prediction by ZEFSAII (Michael W. Deem and Ramdas Pophale) SiO2 
 PCOD9138339
Probable space group: C C
;
_chemical_formula_sum "Si O2"
_cell_formula_units_Z 28
_cell_length_a 5.285128
_cell_length_b 21.644812
_cell_length_c 11.244511
_cell_angle_alpha 90.000000
_cell_angle_beta 65.380144
_cell_angle_gamma 90.000000
_cell_volume 1169.385321
_symmetry_space_group_name_H-M "C C"
_symmetry_group_IT_number 9
_symmetry_cell_setting 'monoclinic'
loop_
_space_group_symop_operation_xyz
x,y,z
x,-y,1/2+z
1/2+x,1/2+y,z
1/2+x,1/2-y,1/2+z
loop_
_atom_site_type_symbol
_atom_site_label
_atom_site_fract_x
_atom_site_fract_y
_atom_site_fract_z
Si Si1 0.973240 0.613873 0.592260
Si Si2 0.825483 0.983301 0.942563
Si Si3 0.675019 0.082559 0.793446
Si Si4 0.645657 0.187527 0.333884
Si Si5 0.705682 0.619750 0.258529
Si Si6 0.999014 0.170414 0.850032
Si Si7 0.624637 0.577638 0.016672
O O1 0.699949 0.634381 0.716638
O O2 0.035546 0.666235 0.484535
O O3 0.023031 0.549629 0.512690
O O4 0.199181 0.602220 0.652978
O O5 0.043893 0.928600 0.874899
O O6 0.847114 0.029783 0.826189
O O7 0.888675 0.026243 0.044047
O O8 0.702251 0.146797 0.861436
O O9 0.366740 0.057779 0.878673
O O10 0.973812 0.172547 0.274848
O O11 0.570217 0.258494 0.329567
O O12 0.477808 0.146661 0.269281
O O13 0.741902 0.586687 0.124591
O O14 0.028002 0.142128 0.975829
#
# Coordination Sequence:
#
# PCOD9138339 Si02
#       7
#     4   4   4   4   4   4   4
#     4  10  24  44  70 101 141 182 238 285 355 415
#     4  10  23  43  70 105 137 183 231 294 356 422
#     4  10  23  42  71 102 137 186 232 292 359 416
#     4  11  28  45  72 102 143 188 238 289 349 419
#     4  11  27  46  69 106 137 186 238 288 353 417
#     4  10  25  44  69 105 135 191 232 291 353 414
#     4  10  24  42  71  99 142 180 235 291 353 421
#
# _framework density 23.944206000000001
#
# number of rings (size 3 to 8) (size 9 to 14) (size 15 to 20)
#    0.000    1.714    0.000    0.857   18.000    3.429 
#    0.000    0.000    0.000    0.000    0.000    0.000 
#    0.000    0.000    0.000    0.000    0.000    0.000 
#
# Total GULP energy -78141.695560 kJ/mol
# GULP energy per Si atom -5581.549683 kJ/mol
# Density = 2.388971 g / cm^3
# Si number density = 23.944206 Si / 1000 Ang^3
#
#
#
# Elastic Constant Matrix: (Units=GPa)
#
#
# Indices 1 2 3 4 5 6 
#
# 1 61.4353 21.7950 19.5258 0.0000 13.7640 0.0000
# 2 21.7950 145.8994 25.2926 0.0000 7.9896 0.0000
# 3 19.5258 25.2926 129.9400 0.0000 14.5182 0.0000
# 4 0.0000 0.0000 0.0000 21.3800 0.0000 -2.5542
# 5 13.7640 7.9896 14.5182 0.0000 38.6946 0.0000
# 6 0.0000 0.0000 0.0000 -2.5542 0.0000 25.2057
#
#
#
# Elastic Compliance Matrix: (Units=1/GPa)
#
#
# Indices 1 2 3 4 5 6 
#
# 1 0.018879 -0.002205 -0.001783 0.000000 -0.005591 0.000000
# 2 -0.002205 0.007387 -0.001069 0.000000 -0.000340 0.000000
# 3 -0.001783 -0.001069 0.008430 0.000000 -0.002308 0.000000
# 4 0.000000 0.000000 0.000000 0.047346 0.000000 0.004798
# 5 -0.005591 -0.000340 -0.002308 0.000000 0.028768 0.000000
# 6 0.000000 0.000000 0.000000 0.004798 0.000000 0.040160
#
#
# Mechanical properties :
#
#
# Convention : Reuss Voigt Hill
#
# Bulk Modulus (GPa) = 40.67894 52.27794 46.47844
# Shear Modulus (GPa) = 29.53738 35.10015 32.31876
#
# Velocity S-wave (km/s) = 3.51606 3.83288 3.67788
# Velocity P-wave (km/s) = 5.78874 6.43961 6.12283
#
# Compressibility (1/GPa) = 0.02458274
#
# Stress axis : x y z
#
# Youngs Moduli (GPa) = 52.96934 135.36771 118.62879
#
# Poissons Ratio (x) = 0.29848 0.21152
# Poissons Ratio (y) = 0.11679 0.12677
# Poissons Ratio (z) = 0.09444 0.14465
#
# Static dielectric constant tensor:
#      x y z
#    x 2.012020 0.000000 -0.030930 
#    y 0.000000 1.889180 0.000000 
#    z -0.030930 0.000000 1.949260 
# 
# From -- ./inp_files/13324.got.cif
#   From: 2010.05.17/outbox.cif.g08.bks.cpg/sg9_7_cif.got.tgz:13324.got - 2010.06.03 20:04:27.
