data_PCOD9138513
_publ_section_title
;
Structure prediction by ZEFSAII (Michael W. Deem and Ramdas Pophale) SiO2 
 PCOD9138513
Probable space group: C C
;
_chemical_formula_sum "Si O2"
_cell_formula_units_Z 32
_cell_length_a 8.925799
_cell_length_b 19.417415
_cell_length_c 9.349893
_cell_angle_alpha 90.000000
_cell_angle_beta 104.800557
_cell_angle_gamma 90.000000
_cell_volume 1566.719283
_symmetry_space_group_name_H-M "C C"
_symmetry_group_IT_number 9
_symmetry_cell_setting 'monoclinic'
loop_
_space_group_symop_operation_xyz
x,y,z
x,-y,1/2+z
1/2+x,1/2+y,z
1/2+x,1/2-y,1/2+z
loop_
_atom_site_type_symbol
_atom_site_label
_atom_site_fract_x
_atom_site_fract_y
_atom_site_fract_z
Si Si1 0.630650 0.917765 0.933940
Si Si2 0.245248 0.665572 0.721062
Si Si3 0.574338 0.297524 0.812126
Si Si4 0.293802 0.932196 0.200308
Si Si5 0.632443 0.076442 0.926969
Si Si6 0.735705 0.834986 0.711377
Si Si7 0.783250 0.568449 0.356169
Si Si8 0.070151 0.198295 0.653748
O O1 0.746966 0.888286 0.844457
O O2 0.454155 0.915563 0.835983
O O3 0.663758 0.997414 0.975183
O O4 0.642367 0.868640 0.072336
O O5 0.161158 0.731711 0.768437
O O6 0.254951 0.607151 0.844768
O O7 0.408414 0.683632 0.690448
O O8 0.404425 0.309170 0.705177
O O9 0.673976 0.366169 0.811108
O O10 0.553993 0.289346 0.978744
O O11 0.463839 0.920393 0.310520
O O12 0.186256 0.865993 0.198757
O O13 0.227468 0.999811 0.262809
O O14 0.303986 0.944271 0.031820
O O15 0.644217 0.125193 0.066121
O O16 0.643741 0.767331 0.736105
#
# Coordination Sequence:
#
# PCOD9138513 Si02
#       8
#     4   4   4   4   4   4   4   4
#     4  11  24  42  69 101 134 178 225 274 335 408
#     4  12  23  46  69  99 137 182 223 277 344 396
#     4  11  25  46  68  99 138 175 225 285 332 403
#     4  10  23  44  69  98 136 174 223 277 337 403
#     4  11  24  43  70 100 135 179 222 276 339 399
#     4  12  25  44  68  98 137 176 225 282 334 400
#     4  10  23  44  68  98 134 176 223 278 335 405
#     4  11  25  45  69  99 135 176 228 281 334 404
#
# _framework density 20.424845000000001
#
# number of rings (size 3 to 8) (size 9 to 14) (size 15 to 20)
#    0.000    1.000    3.750    2.250    7.000    3.000 
#    4.500    0.000    0.000    0.000    0.000    0.000 
#    0.000    0.000    0.000    0.000    0.000    0.000 
#
# Total GULP energy -89454.272837 kJ/mol
# GULP energy per Si atom -5590.892052 kJ/mol
# Density = 2.037836 g / cm^3
# Si number density = 20.424845 Si / 1000 Ang^3
#
#
#
# Elastic Constant Matrix: (Units=GPa)
#
#
# Indices 1 2 3 4 5 6 
#
# 1 92.2351 63.8438 19.4986 0.0000 -14.6245 0.0000
# 2 63.8438 147.7196 42.8627 0.0000 -4.0502 0.0000
# 3 19.4986 42.8627 65.2032 0.0000 -6.5267 0.0000
# 4 0.0000 0.0000 0.0000 41.0154 0.0000 -4.3708
# 5 -14.6245 -4.0502 -6.5267 0.0000 27.7400 0.0000
# 6 0.0000 0.0000 0.0000 -4.3708 0.0000 32.3758
#
#
#
# Elastic Compliance Matrix: (Units=1/GPa)
#
#
# Indices 1 2 3 4 5 6 
#
# 1 0.017065 -0.007300 0.000501 0.000000 0.008049 0.000000
# 2 -0.007300 0.011488 -0.005721 0.000000 -0.003517 0.000000
# 3 0.000501 -0.005721 0.019346 0.000000 0.003981 0.000000
# 4 0.000000 0.000000 0.000000 0.024737 0.000000 0.003340
# 5 0.008049 -0.003517 0.003981 0.000000 0.040715 0.000000
# 6 0.000000 0.000000 0.000000 0.003340 0.000000 0.031338
#
#
# Mechanical properties :
#
#
# Convention : Reuss Voigt Hill
#
# Bulk Modulus (GPa) = 43.74502 61.95202 52.84852
# Shear Modulus (GPa) = 28.19284 32.15645 30.17465
#
# Velocity S-wave (km/s) = 3.71930 3.97215 3.84780
# Velocity P-wave (km/s) = 6.31730 7.17181 6.75807
#
# Compressibility (1/GPa) = 0.02285974
#
# Stress axis : x y z
#
# Youngs Moduli (GPa) = 58.59858 87.04451 51.69012
#
# Poissons Ratio (x) = 0.63546 -0.02592
# Poissons Ratio (y) = 0.42779 0.29572
# Poissons Ratio (z) = -0.02939 0.49799
#
# Static dielectric constant tensor:
#      x y z
#    x 1.714010 0.000000 -0.002360 
#    y 0.000000 1.707070 0.000000 
#    z -0.002360 0.000000 1.758220 
# 
# From -- ./inp_files/5818.got.cif
#   From: 2010.05.17/outbox.cif.g08.bks.cpg/sg9_3_cif.got.tgz:5818.got - 2010.06.03 20:04:27.
