data_PCOD9138109
_publ_section_title
;
Structure prediction by ZEFSAII (Michael W. Deem and Ramdas Pophale) SiO2 
 PCOD9138109
Probable space group: C C
;
_chemical_formula_sum "Si O2"
_cell_formula_units_Z 20
_cell_length_a 6.491693
_cell_length_b 18.757657
_cell_length_c 8.161067
_cell_angle_alpha 90.000000
_cell_angle_beta 43.871567
_cell_angle_gamma 90.000000
_cell_volume 688.722738
_symmetry_space_group_name_H-M "C C"
_symmetry_group_IT_number 9
_symmetry_cell_setting 'monoclinic'
loop_
_space_group_symop_operation_xyz
x,y,z
x,-y,1/2+z
1/2+x,1/2+y,z
1/2+x,1/2-y,1/2+z
loop_
_atom_site_type_symbol
_atom_site_label
_atom_site_fract_x
_atom_site_fract_y
_atom_site_fract_z
Si Si1 0.155300 0.868378 0.108340
Si Si2 0.505792 0.428392 0.512981
Si Si3 0.214128 0.303903 0.862322
Si Si4 0.499924 0.570221 0.381364
Si Si5 0.106671 0.283447 0.355990
O O1 0.210486 0.914508 0.238678
O O2 0.804880 0.850769 0.295031
O O3 0.369341 0.800760 0.013622
O O4 0.219856 0.907424 0.900744
O O5 0.340940 0.353862 0.643365
O O6 0.341833 0.500183 0.545555
O O7 0.629563 0.443262 0.624999
O O8 0.299340 0.359999 0.960684
O O9 0.376908 0.233063 0.835383
O O10 0.879221 0.266578 0.634562
#
# Coordination Sequence:
#
# PCOD9138109 Si02
#       5
#     4   4   4   4   4
#     4  12  25  50  81 116 167 223 270 350 417 491
#     4  10  23  47  79 117 170 209 271 344 424 500
#     4  10  27  48  75 126 156 216 283 330 419 503
#     4  10  22  49  74 124 164 212 273 341 418 516
#     4  12  29  52  79 115 171 220 283 349 404 500
#
# _framework density 29.039259000000001
#
# number of rings (size 3 to 8) (size 9 to 14) (size 15 to 20)
#    1.200    0.000    4.000    0.000    5.600    3.200 
#    3.600    2.000    0.000    0.000    0.000    0.000 
#    0.000    0.000    0.000    0.000    0.000    0.000 
#
# Total GULP energy -55673.943700 kJ/mol
# GULP energy per Si atom -5567.394370 kJ/mol
# Density = 2.897316 g / cm^3
# Si number density = 29.039259 Si / 1000 Ang^3
#
#
#
# Elastic Constant Matrix: (Units=GPa)
#
#
# Indices 1 2 3 4 5 6 
#
# 1 185.0676 60.8520 97.1497 0.0000 41.6175 0.0000
# 2 60.8520 131.4626 33.5275 0.0000 5.8747 0.0000
# 3 97.1497 33.5275 114.2739 0.0000 25.8991 0.0000
# 4 0.0000 0.0000 0.0000 45.4225 0.0000 12.5167
# 5 41.6175 5.8747 25.8991 0.0000 79.4398 0.0000
# 6 0.0000 0.0000 0.0000 12.5167 0.0000 57.0529
#
#
#
# Elastic Compliance Matrix: (Units=1/GPa)
#
#
# Indices 1 2 3 4 5 6 
#
# 1 0.011312 -0.003052 -0.008022 0.000000 -0.003085 0.000000
# 2 -0.003052 0.009048 -0.000292 0.000000 0.001025 0.000000
# 3 -0.008022 -0.000292 0.015872 0.000000 -0.000950 0.000000
# 4 0.000000 0.000000 0.000000 0.023432 0.000000 -0.005141
# 5 -0.003085 0.001025 -0.000950 0.000000 0.014438 0.000000
# 6 0.000000 0.000000 0.000000 -0.005141 0.000000 0.018655
#
#
# Mechanical properties :
#
#
# Convention : Reuss Voigt Hill
#
# Bulk Modulus (GPa) = 74.07913 90.42917 82.25415
# Shear Modulus (GPa) = 41.66978 52.33470 47.00224
#
# Velocity S-wave (km/s) = 3.79218 4.24984 4.02752
# Velocity P-wave (km/s) = 6.68876 7.43569 7.07209
#
# Compressibility (1/GPa) = 0.01349908
#
# Stress axis : x y z
#
# Youngs Moduli (GPa) = 88.40185 110.51790 63.00415
#
# Poissons Ratio (x) = 0.33734 0.50543
# Poissons Ratio (y) = 0.26983 0.01841
# Poissons Ratio (z) = 0.70917 0.03229
#
# Static dielectric constant tensor:
#      x y z
#    x 2.206760 0.000000 0.072910 
#    y 0.000000 2.394660 0.000000 
#    z 0.072910 0.000000 2.472570 
# 
# From -- ./inp_files/4050.got.cif
#   From: 2010.05.17/outbox.cif.g08.bks.cpg/sg9_3_cif.got.tgz:4050.got - 2010.06.03 20:04:27.
