data_PCOD9138378
_publ_section_title
;
Structure prediction by ZEFSAII (Michael W. Deem and Ramdas Pophale) SiO2 
 PCOD9138378
Probable space group: C C
;
_chemical_formula_sum "Si O2"
_cell_formula_units_Z 32
_cell_length_a 8.116762
_cell_length_b 17.842260
_cell_length_c 9.044201
_cell_angle_alpha 90.000000
_cell_angle_beta 88.369963
_cell_angle_gamma 90.000000
_cell_volume 1309.263630
_symmetry_space_group_name_H-M "C C"
_symmetry_group_IT_number 9
_symmetry_cell_setting 'monoclinic'
loop_
_space_group_symop_operation_xyz
x,y,z
x,-y,1/2+z
1/2+x,1/2+y,z
1/2+x,1/2-y,1/2+z
loop_
_atom_site_type_symbol
_atom_site_label
_atom_site_fract_x
_atom_site_fract_y
_atom_site_fract_z
Si Si1 0.385960 0.074755 0.912950
Si Si2 0.258121 0.994931 0.670474
Si Si3 0.925508 0.931200 0.244072
Si Si4 0.211078 0.156227 0.306677
Si Si5 0.329747 0.765232 0.536307
Si Si6 0.821164 0.831767 0.782607
Si Si7 0.155370 0.798212 0.116265
Si Si8 0.237368 0.542823 0.054066
O O1 0.310351 0.155955 0.950991
O O2 0.373891 0.057058 0.740765
O O3 0.266375 0.015041 0.995997
O O4 0.559406 0.053837 0.982312
O O5 0.305022 0.913853 0.733668
O O6 0.072894 0.010087 0.721340
O O7 0.857017 0.934336 0.413170
O O8 0.027442 0.854842 0.201950
O O9 0.792766 0.963186 0.126618
O O10 0.244714 0.161882 0.478205
O O11 0.014457 0.151000 0.291057
O O12 0.262468 0.226097 0.203059
O O13 0.262532 0.694187 0.447335
O O14 0.526186 0.757803 0.541142
O O15 0.781304 0.754998 0.696846
O O16 0.745122 0.899651 0.692478
#
# Coordination Sequence:
#
# PCOD9138378 Si02
#       8
#     4   4   4   4   4   4   4   4
#     4  11  23  44  68 103 142 187 238 306 356 440
#     4  11  22  42  70  98 138 183 240 295 363 430
#     4  12  26  43  76 103 142 194 244 301 374 441
#     4  10  23  43  66 100 135 183 235 292 356 441
#     4  10  24  41  67  95 142 181 238 291 367 429
#     4  11  24  42  68  98 142 182 239 296 356 430
#     4  11  24  43  65 100 138 182 234 293 361 430
#     4  12  26  46  70 107 147 190 248 310 365 439
#
# _framework density 24.441222
#
# number of rings (size 3 to 8) (size 9 to 14) (size 15 to 20)
#    0.000    1.000    2.500    3.750    7.000    0.000 
#    0.000    1.250    0.000    0.000    0.000    0.000 
#    0.000    0.000    0.000    0.000    0.000    0.000 
#
# Total GULP energy -89309.362942 kJ/mol
# GULP energy per Si atom -5581.835184 kJ/mol
# Density = 2.438559 g / cm^3
# Si number density = 24.441222 Si / 1000 Ang^3
#
#
#
# Elastic Constant Matrix: (Units=GPa)
#
#
# Indices 1 2 3 4 5 6 
#
# 1 62.5448 7.1871 12.9575 0.0000 9.1406 0.0000
# 2 7.1871 108.3718 34.7425 0.0000 1.0039 0.0000
# 3 12.9575 34.7425 75.8890 0.0000 9.0316 0.0000
# 4 0.0000 0.0000 0.0000 35.6964 0.0000 1.8904
# 5 9.1406 1.0039 9.0316 0.0000 36.3679 0.0000
# 6 0.0000 0.0000 0.0000 1.8904 0.0000 31.7642
#
#
#
# Elastic Compliance Matrix: (Units=1/GPa)
#
#
# Indices 1 2 3 4 5 6 
#
# 1 0.017049 -0.000357 -0.002307 0.000000 -0.003702 0.000000
# 2 -0.000357 0.010855 -0.005032 0.000000 0.001040 0.000000
# 3 -0.002307 -0.005032 0.016270 0.000000 -0.003322 0.000000
# 4 0.000000 0.000000 0.000000 0.028103 0.000000 -0.001673
# 5 -0.003702 0.001040 -0.003322 0.000000 0.029223 0.000000
# 6 0.000000 0.000000 0.000000 -0.001673 0.000000 0.031581
#
#
# Mechanical properties :
#
#
# Convention : Reuss Voigt Hill
#
# Bulk Modulus (GPa) = 34.74450 39.61997 37.18223
# Shear Modulus (GPa) = 31.63220 33.56028 32.59624
#
# Velocity S-wave (km/s) = 3.60142 3.70956 3.65589
# Velocity P-wave (km/s) = 5.61605 5.88160 5.75036
#
# Compressibility (1/GPa) = 0.02878154
#
# Stress axis : x y z
#
# Youngs Moduli (GPa) = 58.65610 92.12526 61.46223
#
# Poissons Ratio (x) = 0.03287 0.14179
# Poissons Ratio (y) = 0.02093 0.30929
# Poissons Ratio (z) = 0.13532 0.46359
#
# Static dielectric constant tensor:
#      x y z
#    x 1.922820 0.000000 0.012810 
#    y 0.000000 2.029890 0.000000 
#    z 0.012810 0.000000 1.985550 
# 
# From -- ./inp_files/5796.got.cif
#   From: 2010.05.17/outbox.cif.g08.bks.cpg/sg9_3_cif.got.tgz:5796.got - 2010.06.03 20:04:27.
