data_PCOD9138939
_publ_section_title
;
Structure prediction by ZEFSAII (Michael W. Deem and Ramdas Pophale) SiO2 
 PCOD9138939
Probable space group: C C
;
_chemical_formula_sum "Si O2"
_cell_formula_units_Z 28
_cell_length_a 6.037047
_cell_length_b 24.575570
_cell_length_c 9.228629
_cell_angle_alpha 90.000000
_cell_angle_beta 98.790076
_cell_angle_gamma 90.000000
_cell_volume 1353.113742
_symmetry_space_group_name_H-M "C C"
_symmetry_group_IT_number 9
_symmetry_cell_setting 'monoclinic'
loop_
_space_group_symop_operation_xyz
x,y,z
x,-y,1/2+z
1/2+x,1/2+y,z
1/2+x,1/2-y,1/2+z
loop_
_atom_site_type_symbol
_atom_site_label
_atom_site_fract_x
_atom_site_fract_y
_atom_site_fract_z
Si Si1 0.478200 0.453623 0.815870
Si Si2 0.676094 0.004092 0.034401
Si Si3 0.864160 0.538418 0.754315
Si Si4 0.635872 0.242898 0.670864
Si Si5 0.799783 0.661206 0.701421
Si Si6 0.986845 0.170128 0.391367
Si Si7 0.591310 0.246225 0.352235
O O1 0.301439 0.461382 0.668629
O O2 0.684362 0.492592 0.786942
O O3 0.527925 0.390143 0.835859
O O4 0.359793 0.470786 0.957038
O O5 0.488389 0.972646 0.112516
O O6 0.549376 0.037896 0.899000
O O7 0.766454 0.598639 0.735806
O O8 0.553739 0.181088 0.691813
O O9 0.558156 0.284859 0.783794
O O10 0.517171 0.257833 0.508553
O O11 0.900564 0.252627 0.711164
O O12 0.637736 0.673461 0.549646
O O13 0.738809 0.701878 0.824380
O O14 0.727998 0.189527 0.384132
#
# Coordination Sequence:
#
# PCOD9138939 Si02
#       7
#     4   4   4   4   4   4   4
#     4  11  24  43  68  98 138 177 230 280 342 407
#     4  10  24  42  64 100 134 176 226 278 336 410
#     4  11  24  43  68  98 138 177 230 280 342 407
#     4  11  24  42  65  95 134 172 224 279 339 405
#     4  11  24  41  67  97 130 178 226 279 340 406
#     4  11  24  41  67  97 130 178 226 279 340 406
#     4  11  24  42  65  95 134 172 224 279 339 405
#
# _framework density 20.693014999999999
#
# number of rings (size 3 to 8) (size 9 to 14) (size 15 to 20)
#    0.000    1.143    2.857    2.571    2.000    9.143 
#    0.000    0.000    0.000    0.000    0.000    0.000 
#    0.000    0.000    0.000    0.000    0.000    0.000 
#
# Total GULP energy -77982.100586 kJ/mol
# GULP energy per Si atom -5570.150042 kJ/mol
# Density = 2.064592 g / cm^3
# Si number density = 20.693015 Si / 1000 Ang^3
#
#
#
# Elastic Constant Matrix: (Units=GPa)
#
#
# Indices 1 2 3 4 5 6 
#
# 1 65.8338 31.2825 2.3396 0.0000 3.5706 0.0000
# 2 31.2825 117.5089 31.7799 0.0000 6.5414 0.0000
# 3 2.3396 31.7799 78.0733 0.0000 7.7099 0.0000
# 4 0.0000 0.0000 0.0000 21.6530 0.0000 0.1162
# 5 3.5706 6.5414 7.7099 0.0000 32.7032 0.0000
# 6 0.0000 0.0000 0.0000 0.1162 0.0000 -146.2616
#
#
#
# Elastic Compliance Matrix: (Units=1/GPa)
#
#
# Indices 1 2 3 4 5 6 
#
# 1 0.017608 -0.005065 0.001662 0.000000 -0.001301 0.000000
# 2 -0.005065 0.011053 -0.004283 0.000000 -0.000648 0.000000
# 3 0.001662 -0.004283 0.014780 0.000000 -0.002809 0.000000
# 4 0.000000 0.000000 0.000000 0.046183 0.000000 0.000037
# 5 -0.001301 -0.000648 -0.002809 0.000000 0.031512 0.000000
# 6 0.000000 0.000000 0.000000 0.000037 0.000000 -0.006837
#
#
# Mechanical properties :
#
#
# Convention : Reuss Voigt Hill
#
# Bulk Modulus (GPa) = 35.62622 43.58002 39.60312
# Shear Modulus (GPa) = 35.96472 -5.31348 15.32562
#
# Velocity S-wave (km/s) = 4.17347 -1.60416 2.72438
# Velocity P-wave (km/s) = 6.36221 4.20415 5.39224
#
# Compressibility (1/GPa) = 0.02806922
#
# Stress axis : x y z
#
# Youngs Moduli (GPa) = 56.79290 90.47539 67.66095
#
# Poissons Ratio (x) = 0.45822 -0.11248
# Poissons Ratio (y) = 0.28763 0.28981
# Poissons Ratio (z) = -0.09441 0.38753
#
# Static dielectric constant tensor:
#      x y z
#    x 1.942070 0.000000 -0.078990 
#    y 0.000000 1.731840 0.000000 
#    z -0.078990 0.000000 1.731210 
# 
# From -- ./inp_files/4155.got.cif
#   From: 2010.05.17/outbox.cif.g08.bks.cpg/sg9_3_cif.got.tgz:4155.got - 2010.06.03 20:04:27.
