data_PCOD9138182
_publ_section_title
;
Structure prediction by ZEFSAII (Michael W. Deem and Ramdas Pophale) SiO2 
 PCOD9138182
Probable space group: C C
;
_chemical_formula_sum "Si O2"
_cell_formula_units_Z 28
_cell_length_a 15.515466
_cell_length_b 11.210542
_cell_length_c 11.146042
_cell_angle_alpha 90.000000
_cell_angle_beta 34.200677
_cell_angle_gamma 90.000000
_cell_volume 1089.733752
_symmetry_space_group_name_H-M "C C"
_symmetry_group_IT_number 9
_symmetry_cell_setting 'monoclinic'
loop_
_space_group_symop_operation_xyz
x,y,z
x,-y,1/2+z
1/2+x,1/2+y,z
1/2+x,1/2-y,1/2+z
loop_
_atom_site_type_symbol
_atom_site_label
_atom_site_fract_x
_atom_site_fract_y
_atom_site_fract_z
Si Si1 0.468430 0.021136 0.395910
Si Si2 0.975029 0.018137 0.024316
Si Si3 0.090522 0.242036 0.447468
Si Si4 0.799097 0.640633 0.381988
Si Si5 0.331457 0.488342 0.943803
Si Si6 0.828846 0.265007 0.474811
Si Si7 0.745471 0.394153 0.344050
O O1 0.383844 0.117362 0.407777
O O2 0.405565 0.068628 0.595788
O O3 0.649857 0.010543 0.170746
O O4 0.404049 0.889067 0.430489
O O5 0.860075 0.993119 0.268464
O O6 0.904469 0.052240 0.977126
O O7 0.107889 0.111761 0.907747
O O8 0.057064 0.888893 0.931857
O O9 0.169029 0.231715 0.488016
O O10 0.211294 0.283784 0.210574
O O11 0.939931 0.319743 0.634177
O O12 0.716273 0.515239 0.452271
O O13 0.416552 0.358404 0.856752
O O14 0.760837 0.289725 0.421249
#
# Coordination Sequence:
#
# PCOD9138182 Si02
#       7
#     4   4   4   4   4   4   4
#     4  11  25  45  69 100 146 183 235 299 368 419
#     4  11  26  45  71 105 143 188 241 301 359 426
#     4  11  22  42  74  99 135 185 240 283 352 447
#     4  10  23  40  69 100 135 182 232 289 354 426
#     4  12  29  44  74 107 146 187 250 304 356 436
#     4  11  24  43  76 101 134 193 239 290 362 444
#     4  10  23  45  71  98 143 184 235 294 367 426
#
# _framework density 25.69435
#
# number of rings (size 3 to 8) (size 9 to 14) (size 15 to 20)
#    0.000    1.143    2.857    2.571   16.000    0.000 
#    2.571    0.000    0.000    0.000    0.000    0.000 
#    0.000    0.000    0.000    0.000    0.000    0.000 
#
# Total GULP energy -78062.269495 kJ/mol
# GULP energy per Si atom -5575.876392 kJ/mol
# Density = 2.563587 g / cm^3
# Si number density = 25.694350 Si / 1000 Ang^3
#
#
#
# Elastic Constant Matrix: (Units=GPa)
#
#
# Indices 1 2 3 4 5 6 
#
# 1 150.9575 34.4500 33.4105 0.0000 -7.9903 0.0000
# 2 34.4500 40.4703 -0.5150 0.0000 2.3499 0.0000
# 3 33.4105 -0.5150 106.1637 0.0000 -8.7964 0.0000
# 4 0.0000 0.0000 0.0000 23.0575 0.0000 -1.6346
# 5 -7.9903 2.3499 -8.7964 0.0000 34.8827 0.0000
# 6 0.0000 0.0000 0.0000 -1.6346 0.0000 27.6805
#
#
#
# Elastic Compliance Matrix: (Units=1/GPa)
#
#
# Indices 1 2 3 4 5 6 
#
# 1 0.009148 -0.007934 -0.002757 0.000000 0.001935 0.000000
# 2 -0.007934 0.031688 0.002373 0.000000 -0.003354 0.000000
# 3 -0.002757 0.002373 0.010451 0.000000 0.001844 0.000000
# 4 0.000000 0.000000 0.000000 0.043552 0.000000 0.002572
# 5 0.001935 -0.003354 0.001844 0.000000 0.029802 0.000000
# 6 0.000000 0.000000 0.000000 0.002572 0.000000 0.036278
#
#
# Mechanical properties :
#
#
# Convention : Reuss Voigt Hill
#
# Bulk Modulus (GPa) = 28.85969 48.03141 38.44555
# Shear Modulus (GPa) = 26.44008 32.47386 29.45697
#
# Velocity S-wave (km/s) = 3.21132 3.55893 3.38958
# Velocity P-wave (km/s) = 5.00064 5.96841 5.50583
#
# Compressibility (1/GPa) = 0.03465041
#
# Stress axis : x y z
#
# Youngs Moduli (GPa) = 109.31751 31.55730 95.68115
#
# Poissons Ratio (x) = 0.25038 0.26379
# Poissons Ratio (y) = 0.86736 -0.22703
# Poissons Ratio (z) = 0.30139 -0.07488
#
# Static dielectric constant tensor:
#      x y z
#    x 2.098950 0.000000 0.068180 
#    y 0.000000 2.024760 0.000000 
#    z 0.068180 0.000000 2.121910 
# 
# From -- ./inp_files/19295.got.cif
#   From: 2010.05.17/outbox.cif.g08.bks.cpg/sg9_10_cif.got.tgz:19295.got - 2010.06.03 20:04:27.
