data_PCOD9138632
_publ_section_title
;
Structure prediction by ZEFSAII (Michael W. Deem and Ramdas Pophale) SiO2 
 PCOD9138632
Probable space group: C C
;
_chemical_formula_sum "Si O2"
_cell_formula_units_Z 32
_cell_length_a 8.739388
_cell_length_b 11.181608
_cell_length_c 15.644626
_cell_angle_alpha 90.000000
_cell_angle_beta 64.525539
_cell_angle_gamma 90.000000
_cell_volume 1380.164965
_symmetry_space_group_name_H-M "C C"
_symmetry_group_IT_number 9
_symmetry_cell_setting 'monoclinic'
loop_
_space_group_symop_operation_xyz
x,y,z
x,-y,1/2+z
1/2+x,1/2+y,z
1/2+x,1/2-y,1/2+z
loop_
_atom_site_type_symbol
_atom_site_label
_atom_site_fract_x
_atom_site_fract_y
_atom_site_fract_z
Si Si1 0.648430 0.603390 0.971010
Si Si2 0.987175 0.647262 0.448800
Si Si3 0.381733 0.222822 0.287705
Si Si4 0.808730 0.002426 0.610431
Si Si5 0.600858 0.430859 0.824835
Si Si6 0.663602 0.246600 0.089540
Si Si7 0.897751 0.234734 0.501984
Si Si8 0.270282 0.520737 0.817817
O O1 0.578504 0.731706 0.957199
O O2 0.662686 0.528703 0.879656
O O3 0.510055 0.528118 0.058007
O O4 0.807303 0.645364 0.989808
O O5 0.924862 0.661296 0.366260
O O6 0.812626 0.655417 0.544229
O O7 0.130001 0.545709 0.408666
O O8 0.270720 0.135803 0.254291
O O9 0.551013 0.264501 0.200437
O O10 0.271848 0.339132 0.334120
O O11 0.735284 0.888161 0.578848
O O12 0.743548 0.001959 0.723022
O O13 0.777441 0.130292 0.572788
O O14 0.461970 0.479530 0.793373
O O15 0.490854 0.332830 0.902628
O O16 0.536509 0.247501 0.041323
#
# Coordination Sequence:
#
# PCOD9138632 Si02
#       8
#     4   4   4   4   4   4   4   4
#     4  10  23  45  70 101 142 186 240 294 360 432
#     4  11  23  46  72 100 143 194 236 300 368 428
#     4  12  25  46  70 104 148 184 245 303 361 438
#     4  10  24  42  68 101 141 188 238 294 364 428
#     4  11  25  43  69 103 139 191 239 295 362 429
#     4  11  24  46  68 104 149 186 242 305 362 438
#     4  11  22  45  66 100 144 185 232 299 360 431
#     4  12  24  45  71 103 146 188 238 310 357 432
#
# _framework density 23.185634
#
# number of rings (size 3 to 8) (size 9 to 14) (size 15 to 20)
#    0.000    1.000    6.250    0.000    1.750    1.000 
#    2.250    5.000    0.000    0.000    0.000    0.000 
#    0.000    0.000    0.000    0.000    0.000    0.000 
#
# Total GULP energy -89412.203164 kJ/mol
# GULP energy per Si atom -5588.262698 kJ/mol
# Density = 2.313286 g / cm^3
# Si number density = 23.185634 Si / 1000 Ang^3
#
#
#
# Elastic Constant Matrix: (Units=GPa)
#
#
# Indices 1 2 3 4 5 6 
#
# 1 78.9227 46.3349 0.1547 0.0000 -7.8953 0.0000
# 2 46.3349 71.1588 21.1509 0.0000 -27.9383 0.0000
# 3 0.1547 21.1509 78.4235 0.0000 -23.1088 0.0000
# 4 0.0000 0.0000 0.0000 12.7369 0.0000 -3.8572
# 5 -7.8953 -27.9383 -23.1088 0.0000 30.8394 0.0000
# 6 0.0000 0.0000 0.0000 -3.8572 0.0000 51.0060
#
#
#
# Elastic Compliance Matrix: (Units=1/GPa)
#
#
# Indices 1 2 3 4 5 6 
#
# 1 0.023344 -0.019961 0.002272 0.000000 -0.010404 0.000000
# 2 -0.019961 0.038879 -0.002019 0.000000 0.028598 0.000000
# 3 0.002272 -0.002019 0.016586 0.000000 0.011180 0.000000
# 4 0.000000 0.000000 0.000000 0.080352 0.000000 0.006076
# 5 -0.010404 0.028598 0.011180 0.000000 0.064048 0.000000
# 6 0.000000 0.000000 0.000000 0.006076 0.000000 0.020065
#
#
# Mechanical properties :
#
#
# Convention : Reuss Voigt Hill
#
# Bulk Modulus (GPa) = 25.38598 40.42069 32.90333
# Shear Modulus (GPa) = 16.90210 29.64077 23.27143
#
# Velocity S-wave (km/s) = 2.70291 3.57937 3.17156
# Velocity P-wave (km/s) = 4.55124 5.87825 5.25679
#
# Compressibility (1/GPa) = 0.03939183
#
# Stress axis : x y z
#
# Youngs Moduli (GPa) = 42.83750 25.72105 60.29207
#
# Poissons Ratio (x) = 0.51341 -0.13695
# Poissons Ratio (y) = 0.85506 0.12175
# Poissons Ratio (z) = -0.09731 0.05194
#
# Static dielectric constant tensor:
#      x y z
#    x 1.925500 0.000000 -0.044940 
#    y 0.000000 1.877770 0.000000 
#    z -0.044940 0.000000 1.866650 
# 
# From -- ./inp_files/29250.got.cif
#   From: 2010.05.17/outbox.cif.g08.bks.cpg/sg9_15_cif.got.tgz:29250.got - 2010.06.03 20:04:27.
