data_PCOD9138828
_publ_section_title
;
Structure prediction by ZEFSAII (Michael W. Deem and Ramdas Pophale) SiO2 
 PCOD9138828
Probable space group: C C
;
_chemical_formula_sum "Si O2"
_cell_formula_units_Z 32
_cell_length_a 12.538935
_cell_length_b 14.600482
_cell_length_c 8.277450
_cell_angle_alpha 90.000000
_cell_angle_beta 115.185687
_cell_angle_gamma 90.000000
_cell_volume 1371.326985
_symmetry_space_group_name_H-M "C C"
_symmetry_group_IT_number 9
_symmetry_cell_setting 'monoclinic'
loop_
_space_group_symop_operation_xyz
x,y,z
x,-y,1/2+z
1/2+x,1/2+y,z
1/2+x,1/2-y,1/2+z
loop_
_atom_site_type_symbol
_atom_site_label
_atom_site_fract_x
_atom_site_fract_y
_atom_site_fract_z
Si Si1 0.220380 0.884762 0.737050
Si Si2 0.301063 0.605242 0.338645
Si Si3 0.487897 0.126509 0.419948
Si Si4 0.497432 0.293175 0.615779
Si Si5 0.163505 0.921462 0.323172
Si Si6 0.544042 0.932634 0.595894
Si Si7 0.917763 0.016304 0.123911
Si Si8 0.855520 0.699138 0.808919
O O1 0.182883 0.896776 0.524227
O O2 0.121565 0.827791 0.768655
O O3 0.227882 0.982918 0.827391
O O4 0.350483 0.847673 0.827051
O O5 0.179380 0.598421 0.162444
O O6 0.399380 0.558819 0.288357
O O7 0.304141 0.540597 0.495977
O O8 0.338239 0.708138 0.401053
O O9 0.541995 0.222080 0.510115
O O10 0.520014 0.093008 0.264564
O O11 0.521428 0.040372 0.553815
O O12 0.438808 0.390913 0.532583
O O13 0.408639 0.238762 0.676116
O O14 0.228906 0.850015 0.246999
O O15 0.028640 0.947549 0.197124
O O16 0.452360 0.872764 0.433662
#
# Coordination Sequence:
#
# PCOD9138828 Si02
#       8
#     4   4   4   4   4   4   4   4
#     4  11  23  44  70 105 140 192 231 309 358 431
#     4  11  26  45  71 100 147 188 236 297 367 429
#     4  12  24  43  68 100 144 184 244 290 365 435
#     4  10  26  42  68 104 143 186 240 296 369 427
#     4  11  23  44  75 104 142 182 250 299 359 433
#     4  12  26  44  70 104 143 190 237 304 366 427
#     4  10  23  48  69 102 138 190 235 295 363 433
#     4  11  25  44  69 111 139 190 243 302 363 433
#
# _framework density 23.335062000000001
#
# number of rings (size 3 to 8) (size 9 to 14) (size 15 to 20)
#    0.000    1.000    2.500    3.000    5.250    4.000 
#    0.000    0.000    0.000    0.000    0.000    0.000 
#    0.000    0.000    0.000    0.000    0.000    0.000 
#
# Total GULP energy -89344.359979 kJ/mol
# GULP energy per Si atom -5584.022499 kJ/mol
# Density = 2.328195 g / cm^3
# Si number density = 23.335062 Si / 1000 Ang^3
#
#
#
# Elastic Constant Matrix: (Units=GPa)
#
#
# Indices 1 2 3 4 5 6 
#
# 1 99.5641 28.5311 10.8989 0.0000 2.6805 0.0000
# 2 28.5311 137.2290 42.6810 0.0000 9.9416 0.0000
# 3 10.8989 42.6810 55.7465 0.0000 -3.1707 0.0000
# 4 0.0000 0.0000 0.0000 19.5646 0.0000 7.1125
# 5 2.6805 9.9416 -3.1707 0.0000 35.5458 0.0000
# 6 0.0000 0.0000 0.0000 7.1125 0.0000 34.1225
#
#
#
# Elastic Compliance Matrix: (Units=1/GPa)
#
#
# Indices 1 2 3 4 5 6 
#
# 1 0.010694 -0.002031 -0.000552 0.000000 -0.000288 0.000000
# 2 -0.002031 0.010363 -0.007733 0.000000 -0.003435 0.000000
# 3 -0.000552 -0.007733 0.024215 0.000000 0.004364 0.000000
# 4 0.000000 0.000000 0.000000 0.055303 0.000000 -0.011527
# 5 -0.000288 -0.003435 0.004364 0.000000 0.029504 0.000000
# 6 0.000000 0.000000 0.000000 -0.011527 0.000000 0.031709
#
#
# Mechanical properties :
#
#
# Convention : Reuss Voigt Hill
#
# Bulk Modulus (GPa) = 40.58358 50.75131 45.66744
# Shear Modulus (GPa) = 26.22833 31.87517 29.05175
#
# Velocity S-wave (km/s) = 3.35623 3.69992 3.53226
# Velocity P-wave (km/s) = 5.69636 6.32841 6.02068
#
# Compressibility (1/GPa) = 0.02464051
#
# Stress axis : x y z
#
# Youngs Moduli (GPa) = 93.51110 96.49567 41.29693
#
# Poissons Ratio (x) = 0.19596 0.02281
# Poissons Ratio (y) = 0.18990 0.31933
# Poissons Ratio (z) = 0.05165 0.74617
#
# Static dielectric constant tensor:
#      x y z
#    x 1.967120 0.000000 -0.040370 
#    y 0.000000 1.907790 0.000000 
#    z -0.040370 0.000000 1.869750 
# 
# From -- ./inp_files/7505.got.cif
#   From: 2010.05.17/outbox.cif.g08.bks.cpg/sg9_4_cif.got.tgz:7505.got - 2010.06.03 20:04:27.
