data_PCOD9138823
_publ_section_title
;
Structure prediction by ZEFSAII (Michael W. Deem and Ramdas Pophale) SiO2 
 PCOD9138823
Probable space group: C C
;
_chemical_formula_sum "Si O2"
_cell_formula_units_Z 28
_cell_length_a 11.070111
_cell_length_b 9.062022
_cell_length_c 18.884092
_cell_angle_alpha 90.000000
_cell_angle_beta 38.048602
_cell_angle_gamma 90.000000
_cell_volume 1167.579036
_symmetry_space_group_name_H-M "C C"
_symmetry_group_IT_number 9
_symmetry_cell_setting 'monoclinic'
loop_
_space_group_symop_operation_xyz
x,y,z
x,-y,1/2+z
1/2+x,1/2+y,z
1/2+x,1/2-y,1/2+z
loop_
_atom_site_type_symbol
_atom_site_label
_atom_site_fract_x
_atom_site_fract_y
_atom_site_fract_z
Si Si1 0.905360 0.457433 0.529200
Si Si2 0.004124 0.704359 0.118041
Si Si3 0.104619 0.072340 0.275060
Si Si4 0.850166 0.304547 0.158056
Si Si5 0.983461 0.995218 0.563405
Si Si6 0.148849 0.443975 0.131622
Si Si7 0.888531 0.654915 0.881118
O O1 0.039786 0.369700 0.523998
O O2 0.910651 0.625874 0.553658
O O3 0.678736 0.406775 0.455369
O O4 0.935121 0.413155 0.436097
O O5 0.776122 0.661978 0.237519
O O6 0.877407 0.072157 0.545433
O O7 0.125076 0.613782 0.118742
O O8 0.910501 0.166596 0.372905
O O9 0.185291 0.089174 0.156864
O O10 0.154482 0.900891 0.267685
O O11 0.840558 0.130291 0.160684
O O12 0.023316 0.354200 0.131623
O O13 0.030411 0.123326 0.597578
O O14 0.042658 0.403587 0.253424
#
# Coordination Sequence:
#
# PCOD9138823 Si02
#       7
#     4   4   4   4   4   4   4
#     4   7  19  42  69  94 141 183 228 290 350 415
#     4   8  20  43  70  90 145 187 218 306 355 387
#     4   7  18  43  65  94 139 185 224 299 345 409
#     4   8  22  45  68  92 142 185 230 307 354 394
#     4  12  24  39  77 103 134 193 241 293 351 432
#     4  10  23  48  62 103 146 181 239 299 343 431
#     4  12  22  38  79 106 135 202 246 270 378 426
#
# _framework density 23.981242999999999
#
# number of rings (size 3 to 8) (size 9 to 14) (size 15 to 20)
#    1.714    1.143    1.429    0.000    6.000    2.286 
#    2.571    0.000    9.429    0.000    0.000    0.000 
#    0.000    0.000    0.000    0.000    0.000    0.000 
#
# Total GULP energy -77998.955233 kJ/mol
# GULP energy per Si atom -5571.353945 kJ/mol
# Density = 2.392666 g / cm^3
# Si number density = 23.981243 Si / 1000 Ang^3
#
#
#
# Elastic Constant Matrix: (Units=GPa)
#
#
# Indices 1 2 3 4 5 6 
#
# 1 93.3455 15.5795 29.2372 0.0000 14.4700 0.0000
# 2 15.5795 131.3832 7.1657 0.0000 9.5310 0.0000
# 3 29.2372 7.1657 52.4023 -0.0001 22.9894 0.0000
# 4 0.0000 0.0000 -0.0001 25.2374 0.0000 -1.9888
# 5 14.4700 9.5310 22.9894 0.0000 38.3174 0.0000
# 6 0.0000 0.0000 0.0000 -1.9888 0.0000 39.3902
#
#
#
# Elastic Compliance Matrix: (Units=1/GPa)
#
#
# Indices 1 2 3 4 5 6 
#
# 1 0.013164 -0.001144 -0.006966 0.000000 -0.000507 0.000000
# 2 -0.001144 0.007854 0.000315 0.000000 -0.001710 0.000000
# 3 -0.006966 0.000315 0.029597 0.000000 -0.015205 0.000000
# 4 0.000000 0.000000 0.000000 0.039782 0.000000 0.002009
# 5 -0.000507 -0.001710 -0.015205 0.000000 0.035838 0.000000
# 6 0.000000 0.000000 0.000000 0.002009 0.000000 0.025488
#
#
# Mechanical properties :
#
#
# Convention : Reuss Voigt Hill
#
# Bulk Modulus (GPa) = 28.55106 42.34397 35.44752
# Shear Modulus (GPa) = 27.93464 35.59890 31.76677
#
# Velocity S-wave (km/s) = 3.41670 3.85703 3.64352
# Velocity P-wave (km/s) = 5.24371 6.12626 5.70209
#
# Compressibility (1/GPa) = 0.03502497
#
# Stress axis : x y z
#
# Youngs Moduli (GPa) = 75.96291 127.32500 33.78687
#
# Poissons Ratio (x) = 0.14570 0.23535
# Poissons Ratio (y) = 0.08692 -0.01064
# Poissons Ratio (z) = 0.52914 -0.04008
#
# Static dielectric constant tensor:
#      x y z
#    x 1.943150 0.000000 -0.040450 
#    y 0.000000 1.969400 0.000000 
#    z -0.040450 0.000000 1.957210 
# 
# From -- ./inp_files/29056.got.cif
#   From: 2010.05.17/outbox.cif.g08.bks.cpg/sg9_15_cif.got.tgz:29056.got - 2010.06.03 20:04:27.
