data_PCOD9138568
_publ_section_title
;
Structure prediction by ZEFSAII (Michael W. Deem and Ramdas Pophale) SiO2 
 PCOD9138568
Probable space group: C C
;
_chemical_formula_sum "Si O2"
_cell_formula_units_Z 32
_cell_length_a 7.281294
_cell_length_b 12.842443
_cell_length_c 14.827188
_cell_angle_alpha 90.000000
_cell_angle_beta 67.197517
_cell_angle_gamma 90.000000
_cell_volume 1278.125654
_symmetry_space_group_name_H-M "C C"
_symmetry_group_IT_number 9
_symmetry_cell_setting 'monoclinic'
loop_
_space_group_symop_operation_xyz
x,y,z
x,-y,1/2+z
1/2+x,1/2+y,z
1/2+x,1/2-y,1/2+z
loop_
_atom_site_type_symbol
_atom_site_label
_atom_site_fract_x
_atom_site_fract_y
_atom_site_fract_z
Si Si1 0.750000 0.776280 0.890830
Si Si2 0.184796 0.831115 0.873031
Si Si3 0.256805 0.459840 0.124200
Si Si4 0.399135 0.049303 0.836191
Si Si5 0.852826 0.165944 0.189110
Si Si6 0.796138 0.731516 0.159975
Si Si7 0.983507 0.466818 0.526204
Si Si8 0.326246 0.814674 0.043051
O O1 0.780114 0.657224 0.855337
O O2 0.723008 0.842230 0.804418
O O3 0.560574 0.786504 0.989492
O O4 0.952529 0.813659 0.898641
O O5 0.297223 0.776909 0.768024
O O6 0.243895 0.790762 0.959946
O O7 0.251761 0.951490 0.857903
O O8 0.385064 0.554526 0.138112
O O9 0.353571 0.346949 0.116801
O O10 0.059724 0.455986 0.225655
O O11 0.180454 0.493822 0.040320
O O12 0.502176 0.049891 0.915622
O O13 0.062897 0.213794 0.179394
O O14 0.749370 0.242063 0.137052
O O15 0.907236 0.636690 0.089979
O O16 0.827224 0.562956 0.565061
#
# Coordination Sequence:
#
# PCOD9138568 Si02
#       8
#     4   4   4   4   4   4   4   4
#     4  11  24  48  74 103 152 191 239 315 362 431
#     4  10  23  44  73 103 143 193 244 291 377 427
#     4  12  24  46  73 103 146 192 240 304 369 433
#     4  11  22  44  72 104 145 189 240 308 362 437
#     4  11  24  45  71 106 142 191 246 296 367 433
#     4  11  23  48  67 103 145 188 237 303 362 429
#     4  11  24  44  74  98 147 185 238 304 359 431
#     4  11  24  49  72 110 144 193 250 299 364 449
#
# _framework density 25.036663000000001
#
# number of rings (size 3 to 8) (size 9 to 14) (size 15 to 20)
#    0.000    1.000    5.000    2.250    1.750    0.000 
#   13.500    0.000    0.000    0.000    0.000    0.000 
#    0.000    0.000    0.000    0.000    0.000    0.000 
#
# Total GULP energy -89755.132213 kJ/mol
# GULP energy per Si atom -5609.695763 kJ/mol
# Density = 2.497968 g / cm^3
# Si number density = 25.036663 Si / 1000 Ang^3
#
#
#
# Elastic Constant Matrix: (Units=GPa)
#
#
# Indices 1 2 3 4 5 6 
#
# 1 74.1587 19.4800 32.7265 0.0000 10.0592 0.0000
# 2 19.4800 138.0912 12.7578 0.0000 14.9855 0.0000
# 3 32.7265 12.7578 87.8238 0.0000 17.1867 0.0000
# 4 0.0000 0.0000 0.0000 38.9514 0.0000 1.1005
# 5 10.0592 14.9855 17.1867 0.0000 47.2770 0.0000
# 6 0.0000 0.0000 0.0000 1.1005 0.0000 40.9338
#
#
#
# Elastic Compliance Matrix: (Units=1/GPa)
#
#
# Indices 1 2 3 4 5 6 
#
# 1 0.016598 -0.001712 -0.005761 0.000000 -0.000894 0.000000
# 2 -0.001712 0.007713 -0.000081 0.000000 -0.002051 0.000000
# 3 -0.005761 -0.000081 0.014319 0.000000 -0.003954 0.000000
# 4 0.000000 0.000000 0.000000 0.025693 0.000000 -0.000691
# 5 -0.000894 -0.002051 -0.003954 0.000000 0.023430 0.000000
# 6 0.000000 0.000000 0.000000 -0.000691 0.000000 0.024448
#
#
# Mechanical properties :
#
#
# Convention : Reuss Voigt Hill
#
# Bulk Modulus (GPa) = 42.51491 47.77802 45.14647
# Shear Modulus (GPa) = 36.99587 41.10639 39.05113
#
# Velocity S-wave (km/s) = 3.84821 4.05637 3.95366
# Velocity P-wave (km/s) = 6.06324 6.40808 6.23805
#
# Compressibility (1/GPa) = 0.02352116
#
# Stress axis : x y z
#
# Youngs Moduli (GPa) = 60.24757 129.64807 69.83793
#
# Poissons Ratio (x) = 0.22197 0.40236
# Poissons Ratio (y) = 0.10315 0.00566
# Poissons Ratio (z) = 0.34711 0.01051
#
# Static dielectric constant tensor:
#      x y z
#    x 1.992850 0.000000 0.001880 
#    y 0.000000 1.959660 0.000000 
#    z 0.001880 0.000000 1.956640 
# 
# From -- ./inp_files/22819.got.cif
#   From: 2010.05.17/outbox.cif.g08.bks.cpg/sg9_12_cif.got.tgz:22819.got - 2010.06.03 20:04:27.
