data_PCOD9138079
_publ_section_title
;
Structure prediction by ZEFSAII (Michael W. Deem and Ramdas Pophale) SiO2 
 PCOD9138079
Probable space group: C C
;
_chemical_formula_sum "Si O2"
_cell_formula_units_Z 28
_cell_length_a 6.613665
_cell_length_b 7.480988
_cell_length_c 20.446228
_cell_angle_alpha 90.000000
_cell_angle_beta 108.546307
_cell_angle_gamma 90.000000
_cell_volume 959.076684
_symmetry_space_group_name_H-M "C C"
_symmetry_group_IT_number 9
_symmetry_cell_setting 'monoclinic'
loop_
_space_group_symop_operation_xyz
x,y,z
x,-y,1/2+z
1/2+x,1/2+y,z
1/2+x,1/2-y,1/2+z
loop_
_atom_site_type_symbol
_atom_site_label
_atom_site_fract_x
_atom_site_fract_y
_atom_site_fract_z
Si Si1 0.298770 0.302117 0.567880
Si Si2 0.437814 0.605830 0.959691
Si Si3 0.452613 0.274841 0.720279
Si Si4 0.798996 0.625349 0.069649
Si Si5 0.935232 0.685597 0.954548
Si Si6 0.525777 0.867512 0.724523
Si Si7 0.316274 0.896659 0.840059
O O1 0.530188 0.345394 0.545928
O O2 0.387649 0.372970 0.646274
O O3 0.196159 0.382656 0.484830
O O4 0.326684 0.088528 0.569972
O O5 0.431201 0.397364 0.941485
O O6 0.351269 0.745485 0.898349
O O7 0.712949 0.642538 0.974363
O O8 0.224767 0.243802 0.729490
O O9 0.583253 0.388992 0.785322
O O10 0.564360 0.082862 0.720659
O O11 0.853875 0.678059 0.150927
O O12 0.023639 0.698741 0.056097
O O13 0.876211 0.576733 0.882925
O O14 0.458662 0.852387 0.792127
#
# Coordination Sequence:
#
# PCOD9138079 Si02
#       7
#     4   4   4   4   4   4   4
#     4  10  22  49  77 109 150 205 272 339 404 505
#     4  11  26  45  79 115 151 211 275 343 417 506
#     4  11  27  52  83 117 168 218 285 349 433 522
#     4  10  22  47  80 111 150 211 280 328 417 505
#     4  11  25  47  79 109 156 202 275 338 408 500
#     4  11  27  53  81 117 170 223 275 358 431 520
#     4  12  29  51  79 122 165 216 272 349 440 496
#
# _framework density 29.194744
#
# number of rings (size 3 to 8) (size 9 to 14) (size 15 to 20)
#    0.000    1.143    2.857    0.857    4.000    4.571 
#    2.571    0.000    0.000    0.000    0.000    0.000 
#    0.000    0.000    0.000    0.000    0.000    0.000 
#
# Total GULP energy -78453.146984 kJ/mol
# GULP energy per Si atom -5603.796213 kJ/mol
# Density = 2.912830 g / cm^3
# Si number density = 29.194744 Si / 1000 Ang^3
#
#
#
# Elastic Constant Matrix: (Units=GPa)
#
#
# Indices 1 2 3 4 5 6 
#
# 1 112.5857 25.0620 88.9859 0.0000 -39.6415 0.0000
# 2 25.0620 181.8306 54.7715 0.0000 6.9290 0.0000
# 3 88.9859 54.7715 282.3399 0.0000 -1.6493 0.0000
# 4 0.0000 0.0000 0.0000 32.5672 0.0000 -3.8290
# 5 -39.6415 6.9290 -1.6493 0.0000 73.2679 0.0000
# 6 0.0000 0.0000 0.0000 -3.8290 0.0000 53.4646
#
#
#
# Elastic Compliance Matrix: (Units=1/GPa)
#
#
# Indices 1 2 3 4 5 6 
#
# 1 0.015911 -0.001089 -0.004753 0.000000 0.008605 0.000000
# 2 -0.001089 0.005940 -0.000816 0.000000 -0.001169 0.000000
# 3 -0.004753 -0.000816 0.005184 0.000000 -0.002378 0.000000
# 4 0.000000 0.000000 0.000000 0.030966 0.000000 0.002218
# 5 0.008605 -0.001169 -0.002378 0.000000 0.018361 0.000000
# 6 0.000000 0.000000 0.000000 0.002218 0.000000 0.018863
#
#
# Mechanical properties :
#
#
# Convention : Reuss Voigt Hill
#
# Bulk Modulus (GPa) = 72.89164 101.59945 87.24555
# Shear Modulus (GPa) = 44.20259 59.05572 51.62916
#
# Velocity S-wave (km/s) = 3.89531 4.50246 4.20984
# Velocity P-wave (km/s) = 6.72703 7.86801 7.31979
#
# Compressibility (1/GPa) = 0.01371899
#
# Stress axis : x y z
#
# Youngs Moduli (GPa) = 62.84892 168.34816 192.89022
#
# Poissons Ratio (x) = 0.18336 0.91685
# Poissons Ratio (y) = 0.06845 0.15737
# Poissons Ratio (z) = 0.29873 0.13735
#
# Static dielectric constant tensor:
#      x y z
#    x 2.577850 0.000000 -0.039190 
#    y 0.000000 1.991480 0.000000 
#    z -0.039190 0.000000 2.466830 
# 
# From -- ./inp_files/32452.got.cif
#   From: 2010.05.17/outbox.cif.g08.bks.cpg/sg9_17_cif.got.tgz:32452.got - 2010.06.03 20:04:27.
