data_PCOD9138112
_publ_section_title
;
Structure prediction by ZEFSAII (Michael W. Deem and Ramdas Pophale) SiO2 
 PCOD9138112
Probable space group: C C
;
_chemical_formula_sum "Si O2"
_cell_formula_units_Z 32
_cell_length_a 18.392809
_cell_length_b 6.157293
_cell_length_c 22.508878
_cell_angle_alpha 90.000000
_cell_angle_beta 149.270881
_cell_angle_gamma 90.000000
_cell_volume 1302.553294
_symmetry_space_group_name_H-M "C C"
_symmetry_group_IT_number 9
_symmetry_cell_setting 'monoclinic'
loop_
_space_group_symop_operation_xyz
x,y,z
x,-y,1/2+z
1/2+x,1/2+y,z
1/2+x,1/2-y,1/2+z
loop_
_atom_site_type_symbol
_atom_site_label
_atom_site_fract_x
_atom_site_fract_y
_atom_site_fract_z
Si Si1 0.688270 0.365165 0.862830
Si Si2 0.270477 0.707912 0.207057
Si Si3 0.412363 0.224938 0.045809
Si Si4 0.675692 0.061507 0.741905
Si Si5 0.060499 0.074960 0.077326
Si Si6 0.925921 0.803616 0.183061
Si Si7 0.628954 0.889222 0.027712
Si Si8 0.039070 0.579783 0.841029
O O1 0.710797 0.198193 0.824771
O O2 0.541744 0.504872 0.757448
O O3 0.670478 0.225991 0.910671
O O4 0.813608 0.538536 0.950807
O O5 0.288768 0.547219 0.276022
O O6 0.207025 0.938338 0.181934
O O7 0.141411 0.601994 0.078003
O O8 0.408741 0.759887 0.265836
O O9 0.441895 0.411940 0.019008
O O10 0.349775 0.289964 0.065393
O O11 0.566171 0.135439 0.175065
O O12 0.583355 0.232772 0.639484
O O13 0.051615 0.195433 0.007970
O O14 0.795794 0.835670 0.136963
O O15 0.999463 0.584879 0.259955
O O16 0.565825 0.948486 0.920086
#
# Coordination Sequence:
#
# PCOD9138112 Si02
#       8
#     4   4   4   4   4   4   4   4
#     4  12  26  44  76 111 146 202 248 308 383 452
#     4  10  23  48  70 102 146 192 245 315 367 441
#     4  11  25  45  74 108 144 194 251 309 373 441
#     4  10  23  48  70 102 146 192 245 315 367 441
#     4  10  22  50  72  98 148 188 246 318 364 434
#     4  12  24  46  72 108 150 192 244 312 372 448
#     4  11  25  45  74 108 144 194 251 309 373 441
#     4  12  26  44  76 111 146 202 248 308 383 452
#
# _framework density 24.567132000000001
#
# number of rings (size 3 to 8) (size 9 to 14) (size 15 to 20)
#    0.000    1.000    5.000    0.750    3.500    2.000 
#    9.000    0.000    0.000    0.000    0.000    0.000 
#    0.000    0.000    0.000    0.000    0.000    0.000 
#
# Total GULP energy -89494.850527 kJ/mol
# GULP energy per Si atom -5593.428158 kJ/mol
# Density = 2.451122 g / cm^3
# Si number density = 24.567132 Si / 1000 Ang^3
#
#
#
# Elastic Constant Matrix: (Units=GPa)
#
#
# Indices 1 2 3 4 5 6 
#
# 1 145.0777 82.0338 44.8048 -0.0001 -27.1924 0.0000
# 2 82.0338 133.7198 45.9824 -0.0002 -10.9906 0.0005
# 3 44.8048 45.9824 73.1020 0.0001 -13.3238 -0.0001
# 4 -0.0001 -0.0002 0.0001 51.3720 0.0000 6.0626
# 5 -27.1924 -10.9906 -13.3238 0.0000 29.0396 0.0000
# 6 0.0000 0.0005 -0.0001 6.0626 0.0000 65.8572
#
#
#
# Elastic Compliance Matrix: (Units=1/GPa)
#
#
# Indices 1 2 3 4 5 6 
#
# 1 0.012794 -0.006362 -0.002286 0.000000 0.008523 0.000000
# 2 -0.006362 0.012729 -0.004709 0.000000 -0.003300 0.000000
# 3 -0.002286 -0.004709 0.018909 0.000000 0.004753 0.000000
# 4 0.000000 0.000000 0.000000 0.019680 0.000000 -0.001812
# 5 0.008523 -0.003300 0.004753 0.000000 0.043348 0.000000
# 6 0.000000 0.000000 0.000000 -0.001812 0.000000 0.015351
#
#
# Mechanical properties :
#
#
# Convention : Reuss Voigt Hill
#
# Bulk Modulus (GPa) = 56.44090 77.50461 66.97275
# Shear Modulus (GPa) = 32.16840 41.19233 36.68037
#
# Velocity S-wave (km/s) = 3.62250 4.09923 3.86821
# Velocity P-wave (km/s) = 6.36559 7.34993 6.87540
#
# Compressibility (1/GPa) = 0.01771765
#
# Stress axis : x y z
#
# Youngs Moduli (GPa) = 78.16272 78.55861 52.88448
#
# Poissons Ratio (x) = 0.49979 0.12090
# Poissons Ratio (y) = 0.49727 0.24904
# Poissons Ratio (z) = 0.17869 0.36995
#
# Static dielectric constant tensor:
#      x y z
#    x 1.949850 0.000000 0.003730 
#    y 0.000000 1.932460 0.000000 
#    z 0.003730 0.000000 1.948840 
# 
# From -- ./inp_files/35935.got.cif
#   From: 2010.05.17/outbox.cif.g08.bks.cpg/sg9_18_cif.got.tgz:35935.got - 2010.06.03 20:04:27.
