data_PCOD9138250
_publ_section_title
;
Structure prediction by ZEFSAII (Michael W. Deem and Ramdas Pophale) SiO2 
 PCOD9138250
Probable space group: C C
;
_chemical_formula_sum "Si O2"
_cell_formula_units_Z 16
_cell_length_a 7.064684
_cell_length_b 21.084073
_cell_length_c 5.311862
_cell_angle_alpha 90.000000
_cell_angle_beta 78.747973
_cell_angle_gamma 90.000000
_cell_volume 776.005713
_symmetry_space_group_name_H-M "C C"
_symmetry_group_IT_number 9
_symmetry_cell_setting 'monoclinic'
loop_
_space_group_symop_operation_xyz
x,y,z
x,-y,1/2+z
1/2+x,1/2+y,z
1/2+x,1/2-y,1/2+z
loop_
_atom_site_type_symbol
_atom_site_label
_atom_site_fract_x
_atom_site_fract_y
_atom_site_fract_z
Si Si1 0.045550 0.359821 0.910090
Si Si2 0.863651 0.958885 0.757305
Si Si3 0.649424 0.343728 0.777973
Si Si4 0.503860 0.791209 0.429202
O O1 0.155689 0.425397 0.845332
O O2 0.105672 0.315225 0.658898
O O3 0.814514 0.365349 0.932605
O O4 0.085722 0.327041 0.165133
O O5 0.017049 0.901951 0.739164
O O6 0.885599 0.993198 0.484718
O O7 0.528177 0.283712 0.904272
O O8 0.784083 0.314736 0.522046
#
# Coordination Sequence:
#
# PCOD9138250 Si02
#       4
#     4   4   4   4
#     4  10  25  44  65 100 134 171 219 277 330 392
#     4  12  28  45  68  96 137 186 228 262 322 403
#     4  10  26  42  72  99 138 168 221 279 340 392
#     4  10  23  41  73  99 133 163 218 282 352 379
#
# _framework density 20.618403000000001
#
# number of rings (size 3 to 8) (size 9 to 14) (size 15 to 20)
#    1.500    0.000    0.000    3.000   10.500    2.000 
#    0.000    0.000    0.000    0.000    0.000    0.000 
#    0.000    0.000    0.000    0.000    0.000    0.000 
#
# Total GULP energy -44638.971129 kJ/mol
# GULP energy per Si atom -5579.871391 kJ/mol
# Density = 2.057147 g / cm^3
# Si number density = 20.618403 Si / 1000 Ang^3
#
#
#
# Elastic Constant Matrix: (Units=GPa)
#
#
# Indices 1 2 3 4 5 6 
#
# 1 63.9635 31.7421 17.7850 0.0000 -3.8041 0.0000
# 2 31.7421 98.1250 14.0230 0.0000 -2.5637 0.0000
# 3 17.7850 14.0230 101.1910 0.0000 -0.5450 0.0000
# 4 0.0000 0.0000 0.0000 24.8518 0.0000 -4.4097
# 5 -3.8041 -2.5637 -0.5450 0.0000 13.6983 0.0000
# 6 0.0000 0.0000 0.0000 -4.4097 0.0000 53.3139
#
#
#
# Elastic Compliance Matrix: (Units=1/GPa)
#
#
# Indices 1 2 3 4 5 6 
#
# 1 0.019498 -0.005826 -0.002597 0.000000 0.004221 0.000000
# 2 -0.005826 0.012187 -0.000661 0.000000 0.000637 0.000000
# 3 -0.002597 -0.000661 0.010428 0.000000 -0.000430 0.000000
# 4 0.000000 0.000000 0.000000 0.040838 0.000000 0.003378
# 5 0.004221 0.000637 -0.000430 0.000000 0.074276 0.000000
# 6 0.000000 0.000000 0.000000 0.003378 0.000000 0.019036
#
#
# Mechanical properties :
#
#
# Convention : Reuss Voigt Hill
#
# Bulk Modulus (GPa) = 41.76321 43.37552 42.56937
# Shear Modulus (GPa) = 24.70197 31.68812 28.19505
#
# Velocity S-wave (km/s) = 3.46505 3.92457 3.70194
# Velocity P-wave (km/s) = 6.02561 6.45130 6.24209
#
# Compressibility (1/GPa) = 0.02394452
#
# Stress axis : x y z
#
# Youngs Moduli (GPa) = 51.28686 82.05553 95.89512
#
# Poissons Ratio (x) = 0.47805 0.24902
# Poissons Ratio (y) = 0.29880 0.06343
# Poissons Ratio (z) = 0.13318 0.05428
#
# Static dielectric constant tensor:
#      x y z
#    x 1.774030 0.000000 -0.004530 
#    y 0.000000 1.684040 0.000000 
#    z -0.004530 0.000000 1.738920 
# 
# From -- ./inp_files/144.got.cif
#   From: 2010.05.17/outbox.cif.g08.bks.cpg/sg9_1_cif.got.tgz:144.got - 2010.06.03 20:04:27.
