data_PCOD9138914
_publ_section_title
;
Structure prediction by ZEFSAII (Michael W. Deem and Ramdas Pophale) SiO2 
 PCOD9138914
Probable space group: C C
;
_chemical_formula_sum "Si O2"
_cell_formula_units_Z 20
_cell_length_a 24.286725
_cell_length_b 4.983577
_cell_length_c 9.131442
_cell_angle_alpha 90.000000
_cell_angle_beta 135.110907
_cell_angle_gamma 90.000000
_cell_volume 779.995694
_symmetry_space_group_name_H-M "C C"
_symmetry_group_IT_number 9
_symmetry_cell_setting 'monoclinic'
loop_
_space_group_symop_operation_xyz
x,y,z
x,-y,1/2+z
1/2+x,1/2+y,z
1/2+x,1/2-y,1/2+z
loop_
_atom_site_type_symbol
_atom_site_label
_atom_site_fract_x
_atom_site_fract_y
_atom_site_fract_z
Si Si1 0.632610 0.720203 0.744320
Si Si2 0.933536 0.561344 0.559300
Si Si3 0.798491 0.279922 0.425213
Si Si4 0.377992 0.433801 0.819698
Si Si5 0.579926 0.231757 0.474241
O O1 0.575371 0.510275 0.554096
O O2 0.620316 0.019823 0.659507
O O3 0.718642 0.644276 0.849776
O O4 0.623478 0.714000 0.901809
O O5 0.851123 0.535988 0.487188
O O6 0.937921 0.863205 0.514225
O O7 0.920482 0.352328 0.400090
O O8 0.002058 0.424206 0.778043
O O9 0.800837 0.125656 0.274076
O O10 0.848863 0.090427 0.625533
#
# Coordination Sequence:
#
# PCOD9138914 Si02
#       5
#     4   4   4   4   4
#     4  12  28  46  72 104 148 186 234 293 358 425
#     4  10  26  41  73  94 141 172 240 274 345 408
#     4  10  26  42  73  95 141 172 240 272 351 401
#     4  10  24  40  71 100 126 180 225 291 324 410
#     4  12  28  47  71 105 146 188 235 290 362 418
#
# _framework density 25.641164
#
# number of rings (size 3 to 8) (size 9 to 14) (size 15 to 20)
#    1.200    0.000    0.000    3.600   14.000    0.000 
#    0.000    0.000    0.000    0.000    0.000    0.000 
#    0.000    0.000    0.000    0.000    0.000    0.000 
#
# Total GULP energy -55934.271446 kJ/mol
# GULP energy per Si atom -5593.427145 kJ/mol
# Density = 2.558280 g / cm^3
# Si number density = 25.641164 Si / 1000 Ang^3
#
#
#
# Elastic Constant Matrix: (Units=GPa)
#
#
# Indices 1 2 3 4 5 6 
#
# 1 131.3792 31.8738 2.4959 0.0000 -7.7638 0.0000
# 2 31.8738 129.4287 10.4984 0.0000 -21.7929 0.0000
# 3 2.4959 10.4984 43.2536 0.0000 -15.6943 0.0000
# 4 0.0000 0.0000 0.0000 40.9017 0.0000 -10.9100
# 5 -7.7638 -21.7929 -15.6943 0.0000 47.4521 0.0000
# 6 0.0000 0.0000 0.0000 -10.9100 0.0000 15.7177
#
#
#
# Elastic Compliance Matrix: (Units=1/GPa)
#
#
# Indices 1 2 3 4 5 6 
#
# 1 0.008105 -0.001926 0.000182 0.000000 0.000502 0.000000
# 2 -0.001926 0.008852 -0.000769 0.000000 0.003496 0.000000
# 3 0.000182 -0.000769 0.026339 0.000000 0.008388 0.000000
# 4 0.000000 0.000000 0.000000 0.030004 0.000000 0.020827
# 5 0.000502 0.003496 0.008388 0.000000 0.025536 0.000000
# 6 0.000000 0.000000 0.000000 0.020827 0.000000 0.078079
#
#
# Mechanical properties :
#
#
# Convention : Reuss Voigt Hill
#
# Bulk Modulus (GPa) = 26.13065 43.75529 34.94297
# Shear Modulus (GPa) = 25.68090 38.09387 31.88738
#
# Velocity S-wave (km/s) = 3.16816 3.85860 3.53030
# Velocity P-wave (km/s) = 4.85757 6.07892 5.50224
#
# Compressibility (1/GPa) = 0.03826924
#
# Stress axis : x y z
#
# Youngs Moduli (GPa) = 123.37940 112.97382 37.96625
#
# Poissons Ratio (x) = 0.21762 -0.00690
# Poissons Ratio (y) = 0.23767 0.02919
# Poissons Ratio (z) = -0.02244 0.08686
#
# Static dielectric constant tensor:
#      x y z
#    x 2.081500 0.000000 -0.033640 
#    y 0.000000 1.946470 0.000000 
#    z -0.033640 0.000000 2.077680 
# 
# From -- ./inp_files/10214.got.cif
#   From: 2010.05.17/outbox.cif.g08.bks.cpg/sg9_6_cif.got.tgz:10214.got - 2010.06.03 20:04:27.
