data_PCOD9138317
_publ_section_title
;
Structure prediction by ZEFSAII (Michael W. Deem and Ramdas Pophale) SiO2 
 PCOD9138317
Probable space group: C C
;
_chemical_formula_sum "Si O2"
_cell_formula_units_Z 32
_cell_length_a 13.745938
_cell_length_b 19.982761
_cell_length_c 5.206029
_cell_angle_alpha 90.000000
_cell_angle_beta 60.042782
_cell_angle_gamma 90.000000
_cell_volume 1238.951062
_symmetry_space_group_name_H-M "C C"
_symmetry_group_IT_number 9
_symmetry_cell_setting 'monoclinic'
loop_
_space_group_symop_operation_xyz
x,y,z
x,-y,1/2+z
1/2+x,1/2+y,z
1/2+x,1/2-y,1/2+z
loop_
_atom_site_type_symbol
_atom_site_label
_atom_site_fract_x
_atom_site_fract_y
_atom_site_fract_z
Si Si1 0.744040 0.623655 0.427520
Si Si2 0.864593 0.044238 0.596559
Si Si3 0.125618 0.044777 0.216113
Si Si4 0.894263 0.273346 0.530536
Si Si5 0.011075 0.187626 0.774877
Si Si6 0.953128 0.456218 0.792156
Si Si7 0.553514 0.834345 0.943591
Si Si8 0.292542 0.660851 0.370694
O O1 0.716685 0.600987 0.168025
O O2 0.817086 0.691004 0.342622
O O3 0.617820 0.640293 0.678509
O O4 0.823872 0.568557 0.448049
O O5 0.795100 0.108430 0.601024
O O6 0.995453 0.066120 0.408476
O O7 0.844438 0.989291 0.398158
O O8 0.137485 0.992810 0.435132
O O9 0.808212 0.235247 0.459667
O O10 0.974877 0.216129 0.542516
O O11 0.964631 0.331007 0.295863
O O12 0.042529 0.258336 0.861980
O O13 0.902160 0.153653 0.045361
O O14 0.975723 0.508784 0.990675
O O15 0.021160 0.389785 0.778519
O O16 0.677931 0.847242 0.874093
#
# Coordination Sequence:
#
# PCOD9138317 Si02
#       8
#     4   4   4   4   4   4   4   4
#     4  12  24  45  80 111 153 197 259 325 390 462
#     4  10  24  45  68 102 148 194 253 315 384 465
#     4  10  23  42  69 106 149 193 245 313 391 459
#     4  11  24  47  72 114 153 199 257 323 397 465
#     4  11  25  46  73 116 151 195 253 329 401 455
#     4  12  28  53  79 114 158 214 268 323 388 475
#     4  11  26  49  74 108 152 204 261 316 383 475
#     4  11  26  45  75 107 150 200 258 314 400 466
#
# _framework density 25.828298
#
# number of rings (size 3 to 8) (size 9 to 14) (size 15 to 20)
#    0.000    1.000    1.250    3.750    8.750    3.000 
#    4.500    0.000    0.000    0.000    0.000    0.000 
#    0.000    0.000    0.000    0.000    0.000    0.000 
#
# Total GULP energy -89665.403302 kJ/mol
# GULP energy per Si atom -5604.087706 kJ/mol
# Density = 2.576951 g / cm^3
# Si number density = 25.828298 Si / 1000 Ang^3
#
#
#
# Elastic Constant Matrix: (Units=GPa)
#
#
# Indices 1 2 3 4 5 6 
#
# 1 175.1288 48.4717 13.5510 0.0000 11.7056 0.0000
# 2 48.4717 106.0355 15.6900 0.0000 11.0114 0.0000
# 3 13.5510 15.6900 43.8213 0.0000 17.1980 0.0000
# 4 0.0000 0.0000 0.0000 31.7670 0.0000 11.4089
# 5 11.7056 11.0114 17.1980 0.0000 38.3133 0.0000
# 6 0.0000 0.0000 0.0000 11.4089 0.0000 62.6208
#
#
#
# Elastic Compliance Matrix: (Units=1/GPa)
#
#
# Indices 1 2 3 4 5 6 
#
# 1 0.006605 -0.002825 -0.000677 0.000000 -0.000902 0.000000
# 2 -0.002825 0.011242 -0.002697 0.000000 -0.001157 0.000000
# 3 -0.000677 -0.002697 0.028658 0.000000 -0.011882 0.000000
# 4 0.000000 0.000000 0.000000 0.033683 0.000000 -0.006137
# 5 -0.000902 -0.001157 -0.011882 0.000000 0.032042 0.000000
# 6 0.000000 0.000000 0.000000 -0.006137 0.000000 0.017087
#
#
# Mechanical properties :
#
#
# Convention : Reuss Voigt Hill
#
# Bulk Modulus (GPa) = 29.32057 53.37902 41.34980
# Shear Modulus (GPa) = 32.66166 43.02508 37.84337
#
# Velocity S-wave (km/s) = 3.55994 4.08586 3.83193
# Velocity P-wave (km/s) = 5.31736 6.55521 5.96846
#
# Compressibility (1/GPa) = 0.03410575
#
# Stress axis : x y z
#
# Youngs Moduli (GPa) = 151.40625 88.95517 34.89404
#
# Poissons Ratio (x) = 0.25133 0.02362
# Poissons Ratio (y) = 0.42778 0.09412
# Poissons Ratio (z) = 0.10247 0.23993
#
# Static dielectric constant tensor:
#      x y z
#    x 1.956460 0.000000 0.036410 
#    y 0.000000 2.013570 0.000000 
#    z 0.036410 0.000000 2.147220 
# 
# From -- ./inp_files/1853.got.cif
#   From: 2010.05.17/outbox.cif.g08.bks.cpg/sg9_1_cif.got.tgz:1853.got - 2010.06.03 20:04:27.
