data_PCOD9138224
_publ_section_title
;
Structure prediction by ZEFSAII (Michael W. Deem and Ramdas Pophale) SiO2 
 PCOD9138224
Probable space group: C C
;
_chemical_formula_sum "Si O2"
_cell_formula_units_Z 24
_cell_length_a 13.768884
_cell_length_b 14.578212
_cell_length_c 5.319209
_cell_angle_alpha 90.000000
_cell_angle_beta 114.456015
_cell_angle_gamma 90.000000
_cell_volume 971.907091
_symmetry_space_group_name_H-M "C C"
_symmetry_group_IT_number 9
_symmetry_cell_setting 'monoclinic'
loop_
_space_group_symop_operation_xyz
x,y,z
x,-y,1/2+z
1/2+x,1/2+y,z
1/2+x,1/2-y,1/2+z
loop_
_atom_site_type_symbol
_atom_site_label
_atom_site_fract_x
_atom_site_fract_y
_atom_site_fract_z
Si Si1 0.751960 0.966350 0.106420
Si Si2 0.366570 0.694807 0.875293
Si Si3 0.507262 0.033249 0.223155
Si Si4 0.886490 0.687828 0.897952
Si Si5 0.168405 0.103261 0.553235
Si Si6 0.082544 0.105980 0.963119
O O1 0.762134 0.868093 0.249746
O O2 0.800313 0.032070 0.375472
O O3 0.629726 0.989020 0.913207
O O4 0.364067 0.759040 0.630579
O O5 0.386021 0.747677 0.154540
O O6 0.462890 0.622321 0.926531
O O7 0.492361 0.129724 0.067357
O O8 0.460215 0.034353 0.456776
O O9 0.790905 0.614008 0.758749
O O10 0.152181 0.147643 0.263473
O O11 0.123073 0.999414 0.477808
O O12 0.101997 0.147729 0.709720
#
# Coordination Sequence:
#
# PCOD9138224 Si02
#       6
#     4   4   4   4   4   4
#     4  10  23  43  70  94 127 181 237 282 337 427
#     4  12  26  42  68 105 143 181 229 303 361 407
#     4  10  23  43  70  94 127 181 237 282 337 427
#     4  12  26  42  68 105 143 181 229 303 361 407
#     4  10  23  41  66  99 134 184 233 282 347 431
#     4  10  23  41  66  99 134 184 233 282 347 431
#
# _framework density 24.693719999999999
#
# number of rings (size 3 to 8) (size 9 to 14) (size 15 to 20)
#    0.000    1.333    0.000    4.000    9.333    4.000 
#    0.000    0.000    0.000    0.000    0.000    0.000 
#    0.000    0.000    0.000    0.000    0.000    0.000 
#
# Total GULP energy -66952.276650 kJ/mol
# GULP energy per Si atom -5579.356387 kJ/mol
# Density = 2.463752 g / cm^3
# Si number density = 24.693720 Si / 1000 Ang^3
#
#
#
# Elastic Constant Matrix: (Units=GPa)
#
#
# Indices 1 2 3 4 5 6 
#
# 1 52.0586 19.1981 25.5349 0.0000 -10.6724 0.0000
# 2 19.1981 84.3105 58.2759 0.0000 0.0577 0.0000
# 3 25.5349 58.2759 223.2037 0.0000 -48.3907 0.0000
# 4 0.0000 0.0000 0.0000 41.9509 0.0000 -1.2633
# 5 -10.6724 0.0577 -48.3907 0.0000 44.2045 0.0000
# 6 0.0000 0.0000 0.0000 -1.2633 0.0000 31.2682
#
#
#
# Elastic Compliance Matrix: (Units=1/GPa)
#
#
# Indices 1 2 3 4 5 6 
#
# 1 0.022172 -0.004986 -0.000095 0.000000 0.005255 0.000000
# 2 -0.004986 0.016669 -0.005307 0.000000 -0.007035 0.000000
# 3 -0.000095 -0.005307 0.007701 0.000000 0.008414 0.000000
# 4 0.000000 0.000000 0.000000 0.023866 0.000000 0.000964
# 5 0.005255 -0.007035 0.008414 0.000000 0.033111 0.000000
# 6 0.000000 0.000000 0.000000 0.000964 0.000000 0.032020
#
#
# Mechanical properties :
#
#
# Convention : Reuss Voigt Hill
#
# Bulk Modulus (GPa) = 38.81240 62.84339 50.82789
# Shear Modulus (GPa) = 30.32032 40.58899 35.45466
#
# Velocity S-wave (km/s) = 3.50788 4.05865 3.79327
# Velocity P-wave (km/s) = 5.67085 6.88970 6.30977
#
# Compressibility (1/GPa) = 0.02576496
#
# Stress axis : x y z
#
# Youngs Moduli (GPa) = 45.10169 59.99017 129.85535
#
# Poissons Ratio (x) = 0.29914 0.01237
# Poissons Ratio (y) = 0.22490 0.68914
# Poissons Ratio (z) = 0.00430 0.31837
#
# Static dielectric constant tensor:
#      x y z
#    x 2.098030 0.000000 -0.087080 
#    y 0.000000 1.281590 0.000000 
#    z -0.087080 0.000000 2.038130 
# 
# From -- ./inp_files/1534.got.cif
#   From: 2010.05.17/outbox.cif.g08.bks.cpg/sg9_1_cif.got.tgz:1534.got - 2010.06.03 20:04:27.
