data_PCOD9139524
_publ_section_title
;
Structure prediction by ZEFSAII (Michael W. Deem and Ramdas Pophale) SiO2 
 PCOD9139524
Probable space group: C C
;
_chemical_formula_sum "Si O2"
_cell_formula_units_Z 32
_cell_length_a 24.376117
_cell_length_b 6.211209
_cell_length_c 25.101622
_cell_angle_alpha 90.000000
_cell_angle_beta 158.339653
_cell_angle_gamma 90.000000
_cell_volume 1402.783927
_symmetry_space_group_name_H-M "C C"
_symmetry_group_IT_number 9
_symmetry_cell_setting 'monoclinic'
loop_
_space_group_symop_operation_xyz
x,y,z
x,-y,1/2+z
1/2+x,1/2+y,z
1/2+x,1/2-y,1/2+z
loop_
_atom_site_type_symbol
_atom_site_label
_atom_site_fract_x
_atom_site_fract_y
_atom_site_fract_z
Si Si1 0.232570 0.456685 0.845970
Si Si2 0.957336 0.028171 0.257908
Si Si3 0.425233 0.760493 0.830024
Si Si4 0.139923 0.391048 0.473015
Si Si5 0.449501 0.228139 0.607371
Si Si6 0.722379 0.360639 0.153197
Si Si7 0.912641 0.914053 0.902414
Si Si8 0.171368 0.054566 0.868742
O O1 0.309466 0.396909 0.860047
O O2 0.204253 0.251287 0.858680
O O3 0.075062 0.575740 0.694352
O O4 0.349571 0.620489 0.979370
O O5 0.794413 0.041642 0.084592
O O6 0.032313 0.260599 0.336295
O O7 0.925035 0.922596 0.285555
O O8 0.078973 0.882384 0.337734
O O9 0.429846 0.651054 0.892008
O O10 0.274992 0.897032 0.693123
O O11 0.553796 0.920988 0.926172
O O12 0.188710 0.229652 0.564472
O O13 0.551941 0.385514 0.735587
O O14 0.325326 0.068839 0.520605
O O15 0.849505 0.234879 0.298652
O O16 0.579904 0.339434 0.062182
#
# Coordination Sequence:
#
# PCOD9139524 Si02
#       8
#     4   4   4   4   4   4   4   4
#     4  11  27  47  73 104 141 188 243 302 358 426
#     4  12  26  42  72 101 139 186 231 288 353 423
#     4  12  24  42  70 102 139 183 229 276 359 427
#     4  12  23  46  65 106 144 177 231 291 347 431
#     4  10  25  49  71 103 138 177 246 298 359 426
#     4  12  24  46  65 102 145 176 227 288 346 426
#     4  12  28  42  74 102 142 183 231 289 353 427
#     4  11  25  48  72 102 140 188 240 304 359 420
#
# _framework density 22.811779999999999
#
# number of rings (size 3 to 8) (size 9 to 14) (size 15 to 20)
#    0.000    0.500    5.000    2.250    5.250    5.000 
#    0.000    0.000    0.000    0.000    0.000    0.000 
#    0.000    0.000    0.000    0.000    0.000    0.000 
#
# Total GULP energy -89452.233512 kJ/mol
# GULP energy per Si atom -5590.764595 kJ/mol
# Density = 2.275986 g / cm^3
# Si number density = 22.811780 Si / 1000 Ang^3
#
#
#
# Elastic Constant Matrix: (Units=GPa)
#
#
# Indices 1 2 3 4 5 6 
#
# 1 112.4696 30.3714 29.7424 -0.0001 36.8502 -0.0004
# 2 30.3714 84.4966 39.4874 -0.0005 10.4929 -0.0020
# 3 29.7424 39.4874 146.9152 -0.0002 35.2120 -0.0005
# 4 -0.0001 -0.0005 -0.0002 44.8419 -0.0001 4.6289
# 5 36.8502 10.4929 35.2120 -0.0001 40.0103 -0.0005
# 6 -0.0004 -0.0020 -0.0005 4.6289 -0.0005 31.2292
#
#
#
# Elastic Compliance Matrix: (Units=1/GPa)
#
#
# Indices 1 2 3 4 5 6 
#
# 1 0.013839 -0.004012 0.001368 0.000000 -0.012897 0.000000
# 2 -0.004012 0.014704 -0.003930 0.000000 0.003298 0.000001
# 3 0.001368 -0.003930 0.009684 0.000000 -0.008751 0.000000
# 4 0.000000 0.000000 0.000000 0.022647 0.000000 -0.003357
# 5 -0.012897 0.003298 -0.008751 0.000000 0.043709 0.000001
# 6 0.000000 0.000001 0.000000 -0.003357 0.000001 0.032519
#
#
# Mechanical properties :
#
#
# Convention : Reuss Voigt Hill
#
# Bulk Modulus (GPa) = 39.87586 60.34266 50.10926
# Shear Modulus (GPa) = 31.52404 39.50165 35.51285
#
# Velocity S-wave (km/s) = 3.72145 4.16581 3.94988
# Velocity P-wave (km/s) = 5.99866 7.04616 6.54341
#
# Compressibility (1/GPa) = 0.02507783
#
# Stress axis : x y z
#
# Youngs Moduli (GPa) = 72.26125 68.00865 103.26751
#
# Poissons Ratio (x) = 0.27284 -0.14126
# Poissons Ratio (y) = 0.28990 0.40587
# Poissons Ratio (z) = -0.09885 0.26729
#
# Static dielectric constant tensor:
#      x y z
#    x 1.852510 0.000000 0.021510 
#    y 0.000000 1.866510 0.000000 
#    z 0.021510 0.000000 1.868800 
# 
# From -- ./inp_files/12562.got.cif
#   From: 2010.05.17/outbox.cif.g08.bks.cpg/sg9_7_cif.got.tgz:12562.got - 2010.06.03 20:04:27.
