data_PCOD9139279
_publ_section_title
;
Structure prediction by ZEFSAII (Michael W. Deem and Ramdas Pophale) SiO2 
 PCOD9139279
Probable space group: C C
;
_chemical_formula_sum "Si O2"
_cell_formula_units_Z 32
_cell_length_a 18.285356
_cell_length_b 14.572042
_cell_length_c 9.087427
_cell_angle_alpha 90.000000
_cell_angle_beta 32.170760
_cell_angle_gamma 90.000000
_cell_volume 1289.255536
_symmetry_space_group_name_H-M "C C"
_symmetry_group_IT_number 9
_symmetry_cell_setting 'monoclinic'
loop_
_space_group_symop_operation_xyz
x,y,z
x,-y,1/2+z
1/2+x,1/2+y,z
1/2+x,1/2-y,1/2+z
loop_
_atom_site_type_symbol
_atom_site_label
_atom_site_fract_x
_atom_site_fract_y
_atom_site_fract_z
Si Si1 0.862210 0.606573 0.615130
Si Si2 0.142278 0.117672 0.764092
Si Si3 0.327867 0.103554 0.184716
Si Si4 0.399650 0.706563 0.516598
Si Si5 0.042789 0.923215 0.000695
Si Si6 0.771793 0.071403 0.168101
Si Si7 0.154960 0.604564 0.050799
Si Si8 0.379259 0.288236 0.718530
O O1 0.711235 0.619917 0.805178
O O2 0.884210 0.498836 0.598339
O O3 0.858043 0.679639 0.752867
O O4 0.997107 0.628515 0.288661
O O5 0.272704 0.122356 0.439887
O O6 0.036228 0.195221 0.905328
O O7 0.063680 0.021167 0.886641
O O8 0.428005 0.184954 0.967768
O O9 0.189075 0.100655 0.323138
O O10 0.500017 0.650231 0.450734
O O11 0.380747 0.673620 0.381417
O O12 0.251846 0.688330 0.840952
O O13 0.920762 0.934089 0.329658
O O14 0.672610 0.087288 0.196453
O O15 0.787462 0.155390 0.258278
O O16 0.718023 0.983022 0.352602
#
# Coordination Sequence:
#
# PCOD9139279 Si02
#       8
#     4   4   4   4   4   4   4   4
#     4  11  30  46  69 107 156 189 246 295 375 436
#     4  11  25  46  79 102 147 195 240 306 362 433
#     4  11  26  47  73 107 148 195 239 308 369 428
#     4  11  26  45  76 108 143 193 251 299 367 433
#     4  10  24  47  79 110 143 189 253 301 358 446
#     4  11  24  45  78 106 145 191 246 298 364 432
#     4  11  25  47  72 108 151 192 237 306 366 439
#     4  12  26  47  76 108 143 194 252 301 361 443
#
# _framework density 24.820526000000001
#
# number of rings (size 3 to 8) (size 9 to 14) (size 15 to 20)
#    0.000    1.000    1.250    3.750   14.000    0.000 
#    2.250    0.000    0.000    0.000    0.000    0.000 
#    0.000    0.000    0.000    0.000    0.000    0.000 
#
# Total GULP energy -89483.882169 kJ/mol
# GULP energy per Si atom -5592.742636 kJ/mol
# Density = 2.476403 g / cm^3
# Si number density = 24.820526 Si / 1000 Ang^3
#
#
#
# Elastic Constant Matrix: (Units=GPa)
#
#
# Indices 1 2 3 4 5 6 
#
# 1 130.6371 61.1137 35.1829 0.0000 8.7793 0.0000
# 2 61.1137 133.6346 12.0677 0.0000 2.8727 0.0000
# 3 35.1829 12.0677 52.9545 0.0000 -2.5050 0.0000
# 4 0.0000 0.0000 0.0000 23.8882 0.0000 -5.8552
# 5 8.7793 2.8727 -2.5050 0.0000 39.0662 0.0000
# 6 0.0000 0.0000 0.0000 -5.8552 0.0000 33.2038
#
#
#
# Elastic Compliance Matrix: (Units=1/GPa)
#
#
# Indices 1 2 3 4 5 6 
#
# 1 0.011959 -0.004778 -0.006989 0.000000 -0.002784 0.000000
# 2 -0.004778 0.009567 0.001015 0.000000 0.000435 0.000000
# 3 -0.006989 0.001015 0.023438 0.000000 0.002999 0.000000
# 4 0.000000 0.000000 0.000000 0.043753 0.000000 0.007715
# 5 -0.002784 0.000435 0.002999 0.000000 0.026384 0.000000
# 6 0.000000 0.000000 0.000000 0.007715 0.000000 0.031478
#
#
# Mechanical properties :
#
#
# Convention : Reuss Voigt Hill
#
# Bulk Modulus (GPa) = 42.62425 59.32832 50.97628
# Shear Modulus (GPa) = 28.42478 33.15575 30.79026
#
# Velocity S-wave (km/s) = 3.38777 3.65885 3.52592
# Velocity P-wave (km/s) = 5.70201 6.46563 6.09579
#
# Compressibility (1/GPa) = 0.02346082
#
# Stress axis : x y z
#
# Youngs Moduli (GPa) = 83.61592 104.52278 42.66587
#
# Poissons Ratio (x) = 0.49944 0.29818
# Poissons Ratio (y) = 0.39954 -0.04331
# Poissons Ratio (z) = 0.58436 -0.10610
#
# Static dielectric constant tensor:
#      x y z
#    x 1.977850 0.000000 0.033260 
#    y 0.000000 2.004900 0.000000 
#    z 0.033260 0.000000 1.981870 
# 
# From -- ./inp_files/10902.got.cif
#   From: 2010.05.17/outbox.cif.g08.bks.cpg/sg9_6_cif.got.tgz:10902.got - 2010.06.03 20:04:27.
