data_PCOD9139675
_publ_section_title
;
Structure prediction by ZEFSAII (Michael W. Deem and Ramdas Pophale) SiO2 
 PCOD9139675
Probable space group: C C
;
_chemical_formula_sum "Si O2"
_cell_formula_units_Z 24
_cell_length_a 14.474518
_cell_length_b 16.707594
_cell_length_c 5.185929
_cell_angle_alpha 90.000000
_cell_angle_beta 99.296354
_cell_angle_gamma 90.000000
_cell_volume 1237.664050
_symmetry_space_group_name_H-M "C C"
_symmetry_group_IT_number 9
_symmetry_cell_setting 'monoclinic'
loop_
_space_group_symop_operation_xyz
x,y,z
x,-y,1/2+z
1/2+x,1/2+y,z
1/2+x,1/2-y,1/2+z
loop_
_atom_site_type_symbol
_atom_site_label
_atom_site_fract_x
_atom_site_fract_y
_atom_site_fract_z
Si Si1 0.541550 0.812424 0.841240
Si Si2 0.348339 0.217529 0.374656
Si Si3 0.534777 0.920177 0.345820
Si Si4 0.848584 0.470425 0.753125
Si Si5 0.750676 0.217512 0.326945
Si Si6 0.742326 0.041419 0.091407
O O1 0.457141 0.757570 0.903622
O O2 0.509800 0.857345 0.562574
O O3 0.639274 0.771934 0.811986
O O4 0.557185 0.873367 0.089893
O O5 0.299752 0.230906 0.626435
O O6 0.352640 0.122129 0.325750
O O7 0.294615 0.262711 0.122776
O O8 0.448266 0.980961 0.264666
O O9 0.629254 0.959738 0.499208
O O10 0.799537 0.482332 0.459810
O O11 0.763148 0.126911 0.227316
O O12 0.775676 0.976825 0.317282
#
# Coordination Sequence:
#
# PCOD9139675 Si02
#       6
#     4   4   4   4   4   4
#     4  11  22  38  60  83 128 171 196 254 308 370
#     4  12  23  39  59  87 133 172 198 258 308 380
#     4  11  19  33  55  94 121 151 196 242 324 396
#     4  12  20  33  55  92 123 158 194 244 317 393
#     4  11  25  40  55  93 128 166 215 238 320 391
#     4  11  21  35  58  85 121 158 193 258 309 376
#
# _framework density 19.391366999999999
#
# number of rings (size 3 to 8) (size 9 to 14) (size 15 to 20)
#    0.000    0.667    3.333    8.000    2.333    0.000 
#    0.000    0.000    0.000    0.000    0.000   23.333 
#    0.000    0.000    0.000    0.000    0.000    0.000 
#
# Total GULP energy -66950.197448 kJ/mol
# GULP energy per Si atom -5579.183121 kJ/mol
# Density = 1.934723 g / cm^3
# Si number density = 19.391367 Si / 1000 Ang^3
#
#
#
# Elastic Constant Matrix: (Units=GPa)
#
#
# Indices 1 2 3 4 5 6 
#
# 1 85.5433 14.0198 12.2251 0.0000 -12.5518 0.0000
# 2 14.0198 35.6549 1.2237 0.0000 6.1259 0.0000
# 3 12.2251 1.2237 94.2325 0.0000 -21.2685 0.0000
# 4 0.0000 0.0000 0.0000 50.0800 0.0000 -5.2460
# 5 -12.5518 6.1259 -21.2685 0.0000 32.4877 0.0000
# 6 0.0000 0.0000 0.0000 -5.2460 0.0000 20.1723
#
#
#
# Elastic Compliance Matrix: (Units=1/GPa)
#
#
# Indices 1 2 3 4 5 6 
#
# 1 0.013721 -0.006477 -0.000263 0.000000 0.006351 0.000000
# 2 -0.006477 0.032333 -0.001784 0.000000 -0.009767 0.000000
# 3 -0.000263 -0.001784 0.012581 0.000000 0.008471 0.000000
# 4 0.000000 0.000000 0.000000 0.020527 0.000000 0.005338
# 5 0.006351 -0.009767 0.008471 0.000000 0.040622 0.000000
# 6 0.000000 0.000000 0.000000 0.005338 0.000000 0.050961
#
#
# Mechanical properties :
#
#
# Convention : Reuss Voigt Hill
#
# Bulk Modulus (GPa) = 24.04577 30.04088 27.04332
# Shear Modulus (GPa) = 24.79471 33.07881 28.93676
#
# Velocity S-wave (km/s) = 3.57970 4.13468 3.86716
# Velocity P-wave (km/s) = 5.43257 6.19028 5.82376
#
# Compressibility (1/GPa) = 0.04158736
#
# Stress axis : x y z
#
# Youngs Moduli (GPa) = 72.88141 30.92822 79.48294
#
# Poissons Ratio (x) = 0.20033 0.02087
# Poissons Ratio (y) = 0.47207 0.14180
# Poissons Ratio (z) = 0.01914 0.05518
#
# Static dielectric constant tensor:
#      x y z
#    x 1.711970 0.000000 -0.025650 
#    y 0.000000 1.716770 0.000000 
#    z -0.025650 0.000000 1.786810 
# 
# From -- ./inp_files/2412.got.cif
#   From: 2010.05.17/outbox.cif.g08.bks.cpg/sg9_2_cif.got.tgz:2412.got - 2010.06.03 20:04:27.
