data_PCOD9139040
_publ_section_title
;
Structure prediction by ZEFSAII (Michael W. Deem and Ramdas Pophale) SiO2 
 PCOD9139040
Probable space group: C C
;
_chemical_formula_sum "Si O2"
_cell_formula_units_Z 28
_cell_length_a 13.124758
_cell_length_b 6.670364
_cell_length_c 16.375045
_cell_angle_alpha 90.000000
_cell_angle_beta 107.731555
_cell_angle_gamma 90.000000
_cell_volume 1365.480620
_symmetry_space_group_name_H-M "C C"
_symmetry_group_IT_number 9
_symmetry_cell_setting 'monoclinic'
loop_
_space_group_symop_operation_xyz
x,y,z
x,-y,1/2+z
1/2+x,1/2+y,z
1/2+x,1/2-y,1/2+z
loop_
_atom_site_type_symbol
_atom_site_label
_atom_site_fract_x
_atom_site_fract_y
_atom_site_fract_z
Si Si1 0.531330 0.387663 0.527190
Si Si2 0.411761 0.399246 0.863806
Si Si3 0.297018 0.992568 0.318688
Si Si4 0.191191 0.473131 0.069652
Si Si5 0.293171 0.682683 0.948979
Si Si6 0.389363 0.311951 0.212801
Si Si7 0.105236 0.211195 0.677474
O O1 0.510591 0.522606 0.441740
O O2 0.412528 0.301084 0.516907
O O3 0.573531 0.529010 0.609176
O O4 0.610105 0.205199 0.530819
O O5 0.391731 0.164547 0.859208
O O6 0.311986 0.504400 0.887466
O O7 0.415452 0.494277 0.775157
O O8 0.197708 0.869028 0.259232
O O9 0.268631 0.118810 0.392184
O O10 0.337045 0.149123 0.260197
O O11 0.303755 0.375011 0.123918
O O12 0.148258 0.605208 0.134266
O O13 0.211708 0.615409 0.997617
O O14 0.498202 0.233758 0.199902
#
# Coordination Sequence:
#
# PCOD9139040 Si02
#       7
#     4   4   4   4   4   4   4
#     4  10  24  44  66 100 135 176 235 279 350 411
#     4   9  22  45  67  95 141 177 228 288 339 417
#     4  11  23  48  70 100 140 189 225 286 362 401
#     4  12  24  45  71 102 139 185 227 291 351 409
#     4   9  24  45  69  98 142 176 233 291 330 432
#     4  11  23  45  66 102 139 170 236 289 333 422
#     4  12  26  40  73 101 132 187 228 284 351 412
#
# _framework density 20.505600000000001
#
# number of rings (size 3 to 8) (size 9 to 14) (size 15 to 20)
#    0.857    0.571    4.286    0.000    2.000    5.714 
#    0.000    0.000    0.000    0.000    0.000    0.000 
#    0.000    0.000    0.000    0.000    0.000    0.000 
#
# Total GULP energy -78206.058791 kJ/mol
# GULP energy per Si atom -5586.147057 kJ/mol
# Density = 2.045893 g / cm^3
# Si number density = 20.505600 Si / 1000 Ang^3
#
#
#
# Elastic Constant Matrix: (Units=GPa)
#
#
# Indices 1 2 3 4 5 6 
#
# 1 93.1828 24.3303 26.5686 0.0000 1.6571 0.0000
# 2 24.3303 83.4347 42.9523 0.0000 12.4616 0.0000
# 3 26.5686 42.9523 71.2987 0.0000 20.1154 0.0000
# 4 0.0000 0.0000 0.0000 -3.7686 0.0000 -29.8777
# 5 1.6571 12.4616 20.1154 0.0000 24.4757 0.0000
# 6 0.0000 0.0000 0.0000 -29.8777 0.0000 -9.9080
#
#
#
# Elastic Compliance Matrix: (Units=1/GPa)
#
#
# Indices 1 2 3 4 5 6 
#
# 1 0.012464 -0.001826 -0.004646 0.000000 0.003904 0.000000
# 2 -0.001826 0.017643 -0.009697 0.000000 -0.000889 0.000000
# 3 -0.004646 -0.009697 0.026189 0.000000 -0.016272 0.000000
# 4 0.000000 0.000000 0.000000 0.011584 0.000000 -0.034931
# 5 0.003904 -0.000889 -0.016272 0.000000 0.054419 0.000000
# 6 0.000000 0.000000 0.000000 -0.034931 0.000000 0.004406
#
#
# Mechanical properties :
#
#
# Convention : Reuss Voigt Hill
#
# Bulk Modulus (GPa) = 41.73992 48.40207 45.07100
# Shear Modulus (GPa) = 29.93509 12.43082 21.18295
#
# Velocity S-wave (km/s) = 3.82494 2.46482 3.21757
# Velocity P-wave (km/s) = 6.31716 5.63524 5.98592
#
# Compressibility (1/GPa) = 0.02395788
#
# Stress axis : x y z
#
# Youngs Moduli (GPa) = 80.23392 56.68017 38.18334
#
# Poissons Ratio (x) = 0.10349 0.17740
# Poissons Ratio (y) = 0.14650 0.37027
# Poissons Ratio (z) = 0.37276 0.54964
#
# Static dielectric constant tensor:
#      x y z
#    x 1.727660 0.000000 0.007150 
#    y 0.000000 1.704180 0.000000 
#    z 0.007150 0.000000 1.723060 
# 
# From -- ./inp_files/30406.got.cif
#   From: 2010.05.17/outbox.cif.g08.bks.cpg/sg9_16_cif.got.tgz:30406.got - 2010.06.03 20:04:27.
