data_PCOD9139323
_publ_section_title
;
Structure prediction by ZEFSAII (Michael W. Deem and Ramdas Pophale) SiO2 
 PCOD9139323
Probable space group: C C
;
_chemical_formula_sum "Si O2"
_cell_formula_units_Z 32
_cell_length_a 11.149679
_cell_length_b 9.170885
_cell_length_c 21.181337
_cell_angle_alpha 90.000000
_cell_angle_beta 146.380783
_cell_angle_gamma 90.000000
_cell_volume 1199.164227
_symmetry_space_group_name_H-M "C C"
_symmetry_group_IT_number 9
_symmetry_cell_setting 'monoclinic'
loop_
_space_group_symop_operation_xyz
x,y,z
x,-y,1/2+z
1/2+x,1/2+y,z
1/2+x,1/2-y,1/2+z
loop_
_atom_site_type_symbol
_atom_site_label
_atom_site_fract_x
_atom_site_fract_y
_atom_site_fract_z
Si Si1 0.142170 0.701507 0.206370
Si Si2 0.830094 0.891732 0.992574
Si Si3 0.548692 0.863341 0.181985
Si Si4 0.126049 0.107514 0.433125
Si Si5 0.088332 0.896440 0.528821
Si Si6 0.846722 0.637786 0.261782
Si Si7 0.303691 0.603233 0.618300
Si Si8 0.124296 0.891863 0.794342
O O1 0.401691 0.696220 0.326951
O O2 0.020361 0.773973 0.091760
O O3 0.071416 0.534651 0.185723
O O4 0.017917 0.792717 0.206389
O O5 0.598373 0.538886 0.962834
O O6 0.788247 0.964800 0.041868
O O7 0.598219 0.831761 0.872407
O O8 0.722248 0.791833 0.210559
O O9 0.594396 0.780201 0.267277
O O10 0.313025 0.814688 0.054942
O O11 0.389062 0.483581 0.469784
O O12 0.217866 0.076466 0.403840
O O13 0.263266 0.938096 0.661147
O O14 0.112251 0.722603 0.535808
O O15 0.755302 0.564439 0.287126
O O16 0.388020 0.469336 0.695710
#
# Coordination Sequence:
#
# PCOD9139323 Si02
#       8
#     4   4   4   4   4   4   4   4
#     4  10  25  47  77 120 164 221 286 355 428 516
#     4  10  24  49  81 121 163 222 290 352 433 524
#     4  10  25  48  76 120 158 228 276 352 443 505
#     4  12  27  49  78 121 172 215 298 357 429 537
#     4  12  26  47  84 118 164 225 280 359 438 512
#     4  10  25  51  80 110 168 220 286 347 443 525
#     4  10  24  50  74 122 157 216 290 334 444 509
#     4  10  26  53  78 118 164 225 282 364 430 524
#
# _framework density 26.685254
#
# number of rings (size 3 to 8) (size 9 to 14) (size 15 to 20)
#    1.500    0.000    2.500    0.000    8.750    2.000 
#    9.000    0.000    0.000    0.000    0.000    0.000 
#    0.000    0.000    0.000    0.000    0.000    0.000 
#
# Total GULP energy -89261.985787 kJ/mol
# GULP energy per Si atom -5578.874112 kJ/mol
# Density = 2.662452 g / cm^3
# Si number density = 26.685254 Si / 1000 Ang^3
#
#
#
# Elastic Constant Matrix: (Units=GPa)
#
#
# Indices 1 2 3 4 5 6 
#
# 1 125.9160 38.1392 42.8705 0.0000 -29.4715 0.0000
# 2 38.1392 149.9160 49.1248 0.0001 4.9160 0.0000
# 3 42.8705 49.1248 167.4672 0.0008 11.6725 0.0003
# 4 0.0000 0.0001 0.0008 32.8447 0.0001 4.7147
# 5 -29.4715 4.9160 11.6725 0.0001 55.0600 0.0000
# 6 0.0000 0.0000 0.0003 4.7147 0.0000 20.3803
#
#
#
# Elastic Compliance Matrix: (Units=1/GPa)
#
#
# Indices 1 2 3 4 5 6 
#
# 1 0.011068 -0.002162 -0.002665 0.000000 0.006682 0.000000
# 2 -0.002162 0.007804 -0.001631 0.000000 -0.001508 0.000000
# 3 -0.002665 -0.001631 0.007329 0.000000 -0.002835 0.000000
# 4 0.000000 0.000000 0.000000 0.031492 0.000000 -0.007285
# 5 0.006682 -0.001508 -0.002835 0.000000 0.022474 0.000000
# 6 0.000000 0.000000 0.000000 -0.007285 0.000000 0.050752
#
#
# Mechanical properties :
#
#
# Convention : Reuss Voigt Hill
#
# Bulk Modulus (GPa) = 75.26258 78.17426 76.71842
# Shear Modulus (GPa) = 33.72363 42.53464 38.12913
#
# Velocity S-wave (km/s) = 3.55879 3.99675 3.78411
# Velocity P-wave (km/s) = 6.71950 7.11738 6.92130
#
# Compressibility (1/GPa) = 0.01328682
#
# Stress axis : x y z
#
# Youngs Moduli (GPa) = 90.35159 128.13689 136.43504
#
# Poissons Ratio (x) = 0.27698 0.36360
# Poissons Ratio (y) = 0.19530 0.22250
# Poissons Ratio (z) = 0.24079 0.20897
#
# Static dielectric constant tensor:
#      x y z
#    x 2.204040 0.000000 0.025620 
#    y 0.000000 2.077420 0.000000 
#    z 0.025620 0.000000 2.163250 
# 
# From -- ./inp_files/36582.got.cif
#   From: 2010.05.17/outbox.cif.g08.bks.cpg/sg9_19_cif.got.tgz:36582.got - 2010.06.03 20:04:27.
