data_PCOD9139478
_publ_section_title
;
Structure prediction by ZEFSAII (Michael W. Deem and Ramdas Pophale) SiO2 
 PCOD9139478
Probable space group: C C
;
_chemical_formula_sum "Si O2"
_cell_formula_units_Z 32
_cell_length_a 15.820249
_cell_length_b 17.561860
_cell_length_c 5.407023
_cell_angle_alpha 90.000000
_cell_angle_beta 55.467323
_cell_angle_gamma 90.000000
_cell_volume 1237.557603
_symmetry_space_group_name_H-M "C C"
_symmetry_group_IT_number 9
_symmetry_cell_setting 'monoclinic'
loop_
_space_group_symop_operation_xyz
x,y,z
x,-y,1/2+z
1/2+x,1/2+y,z
1/2+x,1/2-y,1/2+z
loop_
_atom_site_type_symbol
_atom_site_label
_atom_site_fract_x
_atom_site_fract_y
_atom_site_fract_z
Si Si1 0.451020 0.958235 0.254760
Si Si2 0.077928 0.278219 0.460934
Si Si3 0.884215 0.043969 0.294735
Si Si4 0.706077 0.225099 0.162090
Si Si5 0.033710 0.166772 0.142188
Si Si6 0.371970 0.834452 0.070510
Si Si7 0.169061 0.415402 0.985572
Si Si8 0.201912 0.953097 0.194707
O O1 0.404694 0.874540 0.274478
O O2 0.574012 0.962136 0.043572
O O3 0.420823 0.991799 0.567167
O O4 0.036472 0.198538 0.416018
O O5 0.188122 0.257466 0.405608
O O6 0.114271 0.349958 0.238346
O O7 0.979011 0.314264 0.763400
O O8 0.925120 0.130962 0.250030
O O9 0.760951 0.046237 0.478776
O O10 0.918003 0.001731 0.985203
O O11 0.594546 0.260992 0.426056
O O12 0.796429 0.262807 0.167158
O O13 0.713647 0.135172 0.186265
O O14 0.106122 0.098444 0.934817
O O15 0.298039 0.896858 0.067704
O O16 0.199607 0.983591 0.917855
#
# Coordination Sequence:
#
# PCOD9139478 Si02
#       8
#     4   4   4   4   4   4   4   4
#     4  12  25  46  72 103 144 191 241 306 367 441
#     4  11  25  47  75 110 150 203 247 324 379 445
#     4  12  29  47  77 112 150 205 249 304 375 457
#     4  10  25  46  72 109 146 199 248 322 376 440
#     4  10  26  46  74 109 150 199 257 310 383 446
#     4  11  25  45  76 107 149 191 260 304 388 453
#     4  11  26  46  70 109 149 198 253 311 376 453
#     4  11  25  47  74 109 148 196 249 317 374 449
#
# _framework density 25.857381
#
# number of rings (size 3 to 8) (size 9 to 14) (size 15 to 20)
#    0.000    1.000    1.250    3.000   10.500    1.000 
#    6.750    0.000    0.000    0.000    0.000    0.000 
#    0.000    0.000    0.000    0.000    0.000    0.000 
#
# Total GULP energy -89279.523226 kJ/mol
# GULP energy per Si atom -5579.970202 kJ/mol
# Density = 2.579853 g / cm^3
# Si number density = 25.857381 Si / 1000 Ang^3
#
#
#
# Elastic Constant Matrix: (Units=GPa)
#
#
# Indices 1 2 3 4 5 6 
#
# 1 119.1154 36.3383 39.5018 0.0000 6.6982 0.0000
# 2 36.3383 69.5939 20.7453 0.0000 9.3563 0.0000
# 3 39.5018 20.7453 58.3953 0.0000 5.4819 0.0000
# 4 0.0000 0.0000 0.0000 29.5758 0.0000 14.5185
# 5 6.6982 9.3563 5.4819 0.0000 37.0844 0.0000
# 6 0.0000 0.0000 0.0000 14.5185 0.0000 38.5914
#
#
#
# Elastic Compliance Matrix: (Units=1/GPa)
#
#
# Indices 1 2 3 4 5 6 
#
# 1 0.011849 -0.004234 -0.006501 0.000000 -0.000111 0.000000
# 2 -0.004234 0.017981 -0.003214 0.000000 -0.003297 0.000000
# 3 -0.006501 -0.003214 0.022794 0.000000 -0.001384 0.000000
# 4 0.000000 0.000000 0.000000 0.041470 0.000000 -0.015601
# 5 -0.000111 -0.003297 -0.001384 0.000000 0.028022 0.000000
# 6 0.000000 0.000000 0.000000 -0.015601 0.000000 0.031782
#
#
# Mechanical properties :
#
#
# Convention : Reuss Voigt Hill
#
# Bulk Modulus (GPa) = 40.44330 48.91947 44.68139
# Shear Modulus (GPa) = 26.31051 31.08495 28.69773
#
# Velocity S-wave (km/s) = 3.19333 3.47099 3.33505
# Velocity P-wave (km/s) = 5.41030 5.91809 5.66988
#
# Compressibility (1/GPa) = 0.02472597
#
# Stress axis : x y z
#
# Youngs Moduli (GPa) = 84.39555 55.61337 43.87140
#
# Poissons Ratio (x) = 0.23548 0.28519
# Poissons Ratio (y) = 0.35735 0.14101
# Poissons Ratio (z) = 0.54863 0.17875
#
# Static dielectric constant tensor:
#      x y z
#    x 2.215500 0.000000 0.219640 
#    y 0.000000 2.114660 0.000000 
#    z 0.219640 0.000000 2.363540 
# 
# From -- ./inp_files/2573.got.cif
#   From: 2010.05.17/outbox.cif.g08.bks.cpg/sg9_2_cif.got.tgz:2573.got - 2010.06.03 20:04:27.
