data_PCOD9139059
_publ_section_title
;
Structure prediction by ZEFSAII (Michael W. Deem and Ramdas Pophale) SiO2 
 PCOD9139059
Probable space group: C C
;
_chemical_formula_sum "Si O2"
_cell_formula_units_Z 28
_cell_length_a 7.379268
_cell_length_b 12.469468
_cell_length_c 18.400335
_cell_angle_alpha 90.000000
_cell_angle_beta 136.517793
_cell_angle_gamma 90.000000
_cell_volume 1165.083296
_symmetry_space_group_name_H-M "C C"
_symmetry_group_IT_number 9
_symmetry_cell_setting 'monoclinic'
loop_
_space_group_symop_operation_xyz
x,y,z
x,-y,1/2+z
1/2+x,1/2+y,z
1/2+x,1/2-y,1/2+z
loop_
_atom_site_type_symbol
_atom_site_label
_atom_site_fract_x
_atom_site_fract_y
_atom_site_fract_z
Si Si1 0.090240 0.382965 0.117040
Si Si2 0.430303 0.648282 0.062802
Si Si3 0.530460 0.109693 0.062598
Si Si4 0.081210 0.283479 0.336238
Si Si5 0.329844 0.048732 0.681352
Si Si6 0.195353 0.371531 0.776389
Si Si7 0.507042 0.695083 0.835897
O O1 0.064595 0.482496 0.056481
O O2 0.365448 0.389607 0.241064
O O3 0.074007 0.260931 0.086909
O O4 0.859736 0.405023 0.109008
O O5 0.275661 0.662343 0.093071
O O6 0.611888 0.543561 0.121093
O O7 0.214524 0.644773 0.937043
O O8 0.554674 0.128543 0.155882
O O9 0.256859 0.150806 0.951464
O O10 0.283009 0.270002 0.328388
O O11 0.826915 0.350562 0.234213
O O12 0.986588 0.170893 0.342602
O O13 0.608577 0.988068 0.779020
O O14 0.095297 0.291255 0.809306
#
# Coordination Sequence:
#
# PCOD9139059 Si02
#       7
#     4   4   4   4   4   4   4
#     4  10  24  45  69  97 143 184 233 295 341 420
#     4  12  24  45  72 105 140 188 237 288 359 419
#     4  11  25  44  73 105 142 190 236 289 360 421
#     4  11  25  45  71 104 143 187 236 290 359 417
#     4  10  24  44  68 101 141 182 234 294 341 426
#     4  11  23  46  71 100 146 182 233 295 342 420
#     4  11  23  47  70 106 143 183 239 289 352 419
#
# _framework density 24.032613999999999
#
# number of rings (size 3 to 8) (size 9 to 14) (size 15 to 20)
#    0.000    1.143    2.857    3.429    2.000    4.571 
#    5.143    0.000    0.000    0.000    0.000    0.000 
#    0.000    0.000    0.000    0.000    0.000    0.000 
#
# Total GULP energy -78221.036507 kJ/mol
# GULP energy per Si atom -5587.216893 kJ/mol
# Density = 2.397792 g / cm^3
# Si number density = 24.032614 Si / 1000 Ang^3
#
#
#
# Elastic Constant Matrix: (Units=GPa)
#
#
# Indices 1 2 3 4 5 6 
#
# 1 93.3278 11.2271 -9.1940 0.0000 -4.1091 0.0000
# 2 11.2271 96.9847 6.6096 0.0000 2.1685 0.0000
# 3 -9.1940 6.6096 57.0237 0.0000 -8.8933 0.0000
# 4 0.0000 0.0000 0.0000 31.6906 0.0000 -2.7458
# 5 -4.1091 2.1685 -8.8933 0.0000 31.3983 0.0000
# 6 0.0000 0.0000 0.0000 -2.7458 0.0000 40.6035
#
#
#
# Elastic Compliance Matrix: (Units=1/GPa)
#
#
# Indices 1 2 3 4 5 6 
#
# 1 0.011225 -0.001508 0.002333 0.000000 0.002234 0.000000
# 2 -0.001508 0.010633 -0.001696 0.000000 -0.001412 0.000000
# 3 0.002333 -0.001696 0.019015 0.000000 0.005808 0.000000
# 4 0.000000 0.000000 0.000000 0.031741 0.000000 0.002147
# 5 0.002234 -0.001412 0.005808 0.000000 0.033884 0.000000
# 6 0.000000 0.000000 0.000000 0.002147 0.000000 0.024774
#
#
# Mechanical properties :
#
#
# Convention : Reuss Voigt Hill
#
# Bulk Modulus (GPa) = 25.55587 29.40242 27.47915
# Shear Modulus (GPa) = 34.23331 36.65138 35.44234
#
# Velocity S-wave (km/s) = 3.77829 3.90945 3.84443
# Velocity P-wave (km/s) = 5.44893 5.71308 5.58257
#
# Compressibility (1/GPa) = 0.03912995
#
# Stress axis : x y z
#
# Youngs Moduli (GPa) = 89.09045 94.04990 52.58973
#
# Poissons Ratio (x) = 0.14186 -0.12269
# Poissons Ratio (y) = 0.13438 0.08918
# Poissons Ratio (z) = -0.20785 0.15949
#
# Static dielectric constant tensor:
#      x y z
#    x 1.968650 0.000000 0.033970 
#    y 0.000000 1.921390 0.000000 
#    z 0.033970 0.000000 1.945060 
# 
# From -- ./inp_files/22936.got.cif
#   From: 2010.05.17/outbox.cif.g08.bks.cpg/sg9_12_cif.got.tgz:22936.got - 2010.06.03 20:04:27.
