data_PCOD9139122
_publ_section_title
;
Structure prediction by ZEFSAII (Michael W. Deem and Ramdas Pophale) SiO2 
 PCOD9139122
Probable space group: C C
;
_chemical_formula_sum "Si O2"
_cell_formula_units_Z 28
_cell_length_a 16.207265
_cell_length_b 6.710558
_cell_length_c 20.891484
_cell_angle_alpha 90.000000
_cell_angle_beta 148.810348
_cell_angle_gamma 90.000000
_cell_volume 1176.685825
_symmetry_space_group_name_H-M "C C"
_symmetry_group_IT_number 9
_symmetry_cell_setting 'monoclinic'
loop_
_space_group_symop_operation_xyz
x,y,z
x,-y,1/2+z
1/2+x,1/2+y,z
1/2+x,1/2-y,1/2+z
loop_
_atom_site_type_symbol
_atom_site_label
_atom_site_fract_x
_atom_site_fract_y
_atom_site_fract_z
Si Si1 0.903280 0.249856 0.337390
Si Si2 0.183302 0.223298 0.908214
Si Si3 0.111932 0.377219 0.995121
Si Si4 0.617207 0.065009 0.782188
Si Si5 0.467839 0.577229 0.990234
Si Si6 0.937980 0.895172 0.721263
Si Si7 0.042084 0.249773 0.624608
O O1 0.971246 0.182375 0.314724
O O2 0.712508 0.220478 0.203191
O O3 0.959228 0.477732 0.385201
O O4 0.960131 0.108730 0.434171
O O5 0.145754 0.453424 0.867945
O O6 0.155601 0.225131 0.966273
O O7 0.357320 0.181206 0.993663
O O8 0.059295 0.076207 0.793533
O O9 0.261705 0.522212 0.099429
O O10 0.082198 0.244636 0.038265
O O11 0.578456 0.879566 0.711273
O O12 0.786679 0.155200 0.874227
O O13 0.479028 0.223108 0.698504
O O14 0.517903 0.484502 0.091695
#
# Coordination Sequence:
#
# PCOD9139122 Si02
#       7
#     4   4   4   4   4   4   4
#     4  11  24  45  68 106 145 190 246 306 367 442
#     4  11  24  45  68 106 145 190 246 306 367 442
#     4  12  26  42  74 107 145 196 246 308 374 437
#     4  10  24  46  70 105 146 192 245 303 369 439
#     4  10  24  46  70 105 146 192 245 303 369 439
#     4  12  26  42  74 107 145 196 246 308 374 437
#     4  10  24  44  74  98 150 196 246 304 362 446
#
# _framework density 23.795646999999999
#
# number of rings (size 3 to 8) (size 9 to 14) (size 15 to 20)
#    0.000    1.143    2.857    1.714    4.000    8.000 
#    0.000   10.000    0.000    0.000    0.000    0.000 
#    0.000    0.000    0.000    0.000    0.000    0.000 
#
# Total GULP energy -78063.921601 kJ/mol
# GULP energy per Si atom -5575.994400 kJ/mol
# Density = 2.374149 g / cm^3
# Si number density = 23.795647 Si / 1000 Ang^3
#
#
#
# Elastic Constant Matrix: (Units=GPa)
#
#
# Indices 1 2 3 4 5 6 
#
# 1 102.0546 68.8698 38.7861 0.0000 23.7678 0.0000
# 2 68.8698 81.2486 30.7137 0.0000 10.7748 0.0000
# 3 38.7861 30.7137 62.9652 0.0000 24.6088 0.0000
# 4 0.0000 0.0000 0.0000 31.1745 0.0000 5.2726
# 5 23.7678 10.7748 24.6088 0.0000 29.4287 0.0000
# 6 0.0000 0.0000 0.0000 5.2726 0.0000 47.6083
#
#
#
# Elastic Compliance Matrix: (Units=1/GPa)
#
#
# Indices 1 2 3 4 5 6 
#
# 1 0.027842 -0.021236 -0.001549 0.000000 -0.013417 0.000000
# 2 -0.021236 0.031305 -0.006555 0.000000 0.011170 0.000000
# 3 -0.001549 -0.006555 0.027639 0.000000 -0.019462 0.000000
# 4 0.000000 0.000000 0.000000 0.032690 0.000000 -0.003620
# 5 -0.013417 0.011170 -0.019462 0.000000 0.057001 0.000000
# 6 0.000000 0.000000 0.000000 -0.003620 0.000000 0.021406
#
#
# Mechanical properties :
#
#
# Convention : Reuss Voigt Hill
#
# Bulk Modulus (GPa) = 35.57656 58.11196 46.84426
# Shear Modulus (GPa) = 18.80191 28.83555 23.81873
#
# Velocity S-wave (km/s) = 2.81399 3.48487 3.16724
# Velocity P-wave (km/s) = 5.05385 6.37704 5.75361
#
# Compressibility (1/GPa) = 0.02810839
#
# Stress axis : x y z
#
# Youngs Moduli (GPa) = 35.91632 31.94397 36.18039
#
# Poissons Ratio (x) = 0.67836 0.05603
# Poissons Ratio (y) = 0.76271 0.23715
# Poissons Ratio (z) = 0.05562 0.20938
#
# Static dielectric constant tensor:
#      x y z
#    x 1.919060 0.000000 -0.046250 
#    y 0.000000 1.888520 0.000000 
#    z -0.046250 0.000000 1.912010 
# 
# From -- ./inp_files/31520.got.cif
#   From: 2010.05.17/outbox.cif.g08.bks.cpg/sg9_16_cif.got.tgz:31520.got - 2010.06.03 20:04:27.
