data_PCOD9139550
_publ_section_title
;
Structure prediction by ZEFSAII (Michael W. Deem and Ramdas Pophale) SiO2 
 PCOD9139550
Probable space group: C C
;
_chemical_formula_sum "Si O2"
_cell_formula_units_Z 20
_cell_length_a 18.582171
_cell_length_b 4.979001
_cell_length_c 16.413682
_cell_angle_alpha 90.000000
_cell_angle_beta 153.390083
_cell_angle_gamma 90.000000
_cell_volume 680.203978
_symmetry_space_group_name_H-M "C C"
_symmetry_group_IT_number 9
_symmetry_cell_setting 'monoclinic'
loop_
_space_group_symop_operation_xyz
x,y,z
x,-y,1/2+z
1/2+x,1/2+y,z
1/2+x,1/2-y,1/2+z
loop_
_atom_site_type_symbol
_atom_site_label
_atom_site_fract_x
_atom_site_fract_y
_atom_site_fract_z
Si Si1 0.380810 0.037581 0.088160
Si Si2 0.586388 0.589052 0.682733
Si Si3 0.880441 0.060290 0.197766
Si Si4 0.205373 0.078661 0.632153
Si Si5 0.430441 0.257224 0.395020
O O1 0.441162 0.768234 0.191980
O O2 0.345457 0.274081 0.119295
O O3 0.498043 0.182438 0.143698
O O4 0.219289 0.971020 0.876727
O O5 0.674312 0.696310 0.691011
O O6 0.472312 0.367010 0.525067
O O7 0.415274 0.955122 0.351672
O O8 0.728179 0.217028 0.079942
O O9 0.001241 0.964545 0.395798
O O10 0.233399 0.748086 0.682782
#
# Coordination Sequence:
#
# PCOD9139550 Si02
#       5
#     4   4   4   4   4
#     4  12  29  50  77 122 160 198 262 330 411 442
#     4  10  28  52  76 118 156 212 250 336 380 486
#     4  12  27  50  79 116 156 204 262 328 387 476
#     4  10  25  51  82 113 151 218 264 321 378 493
#     4  10  25  51  82 113 151 218 264 321 378 493
#
# _framework density 29.402944999999999
#
# number of rings (size 3 to 8) (size 9 to 14) (size 15 to 20)
#    1.200    0.000    2.000    1.200    8.400    1.600 
#   10.800    0.000    0.000    0.000    0.000    0.000 
#    0.000    0.000    0.000    0.000    0.000    0.000 
#
# Total GULP energy -55731.592985 kJ/mol
# GULP energy per Si atom -5573.159299 kJ/mol
# Density = 2.933602 g / cm^3
# Si number density = 29.402945 Si / 1000 Ang^3
#
#
#
# Elastic Constant Matrix: (Units=GPa)
#
#
# Indices 1 2 3 4 5 6 
#
# 1 139.2020 36.0554 38.6674 0.0003 -23.6944 0.0000
# 2 36.0554 151.5490 94.0745 0.0022 3.1623 0.0021
# 3 38.6674 94.0745 294.8469 0.0002 -14.3839 0.0006
# 4 0.0003 0.0022 0.0002 49.4000 0.0004 17.6258
# 5 -23.6944 3.1623 -14.3839 0.0004 39.9339 0.0004
# 6 0.0000 0.0021 0.0006 17.6258 0.0004 40.7134
#
#
#
# Elastic Compliance Matrix: (Units=1/GPa)
#
#
# Indices 1 2 3 4 5 6 
#
# 1 0.008661 -0.002023 -0.000236 0.000000 0.005214 0.000000
# 2 -0.002023 0.008806 -0.002684 0.000000 -0.002864 0.000000
# 3 -0.000236 -0.002684 0.004359 0.000000 0.001643 0.000000
# 4 0.000000 0.000000 0.000000 0.023941 0.000000 -0.010365
# 5 0.005214 -0.002864 0.001643 0.000000 0.028953 0.000000
# 6 0.000000 0.000000 0.000000 -0.010365 0.000000 0.029049
#
#
# Mechanical properties :
#
#
# Convention : Reuss Voigt Hill
#
# Bulk Modulus (GPa) = 83.75342 102.57695 93.16518
# Shear Modulus (GPa) = 42.50452 53.79618 48.15035
#
# Velocity S-wave (km/s) = 3.80621 4.28204 4.05112
# Velocity P-wave (km/s) = 6.91830 7.70780 7.32370
#
# Compressibility (1/GPa) = 0.01193981
#
# Stress axis : x y z
#
# Youngs Moduli (GPa) = 115.46270 113.56362 229.40806
#
# Poissons Ratio (x) = 0.22971 0.05416
# Poissons Ratio (y) = 0.23355 0.61573
# Poissons Ratio (z) = 0.02726 0.30481
#
# Static dielectric constant tensor:
#      x y z
#    x 2.529740 0.000000 0.195280 
#    y 0.000000 2.073870 0.000000 
#    z 0.195280 0.000000 2.399210 
# 
# From -- ./inp_files/17336.got.cif
#   From: 2010.05.17/outbox.cif.g08.bks.cpg/sg9_9_cif.got.tgz:17336.got - 2010.06.03 20:04:27.
