data_PCOD9139473
_publ_section_title
;
Structure prediction by ZEFSAII (Michael W. Deem and Ramdas Pophale) SiO2 
 PCOD9139473
Probable space group: C C
;
_chemical_formula_sum "Si O2"
_cell_formula_units_Z 28
_cell_length_a 27.901009
_cell_length_b 10.674015
_cell_length_c 12.330270
_cell_angle_alpha 90.000000
_cell_angle_beta 160.597446
_cell_angle_gamma 90.000000
_cell_volume 1219.899590
_symmetry_space_group_name_H-M "C C"
_symmetry_group_IT_number 9
_symmetry_cell_setting 'monoclinic'
loop_
_space_group_symop_operation_xyz
x,y,z
x,-y,1/2+z
1/2+x,1/2+y,z
1/2+x,1/2-y,1/2+z
loop_
_atom_site_type_symbol
_atom_site_label
_atom_site_fract_x
_atom_site_fract_y
_atom_site_fract_z
Si Si1 0.912510 0.560319 0.428140
Si Si2 0.973843 0.726002 0.769872
Si Si3 0.674649 0.453967 0.250152
Si Si4 0.906084 0.613396 0.095424
Si Si5 0.652525 0.076239 0.325351
Si Si6 0.394145 0.392642 0.164071
Si Si7 0.223023 0.610180 0.712873
O O1 0.955949 0.654042 0.617828
O O2 0.879114 0.424659 0.412812
O O3 0.055973 0.542084 0.660847
O O4 0.769200 0.592609 0.054717
O O5 0.820324 0.783957 0.472893
O O6 0.080966 0.845446 0.992556
O O7 0.044559 0.649629 0.017221
O O8 0.802119 0.481352 0.437570
O O9 0.559145 0.561966 0.028562
O O10 0.882664 0.751499 0.094727
O O11 0.076918 0.590535 0.466302
O O12 0.801917 0.075148 0.575832
O O13 0.687603 0.143741 0.513895
O O14 0.314384 0.482488 0.907324
#
# Coordination Sequence:
#
# PCOD9139473 Si02
#       7
#     4   4   4   4   4   4   4
#     4  11  25  45  73 108 146 194 242 302 370 429
#     4  11  23  45  72 102 149 187 240 305 358 436
#     4  11  25  46  73 107 147 190 244 303 357 440
#     4  11  25  46  75 102 147 189 240 305 355 439
#     4  11  22  46  69 100 149 188 235 306 360 427
#     4  11  25  48  71 107 145 189 247 296 369 432
#     4  10  25  46  71 104 145 191 236 305 365 433
#
# _framework density 22.952708999999999
#
# number of rings (size 3 to 8) (size 9 to 14) (size 15 to 20)
#    0.000    1.143    1.429    4.286    4.000    2.286 
#   10.286    1.429    0.000    0.000    0.000    0.000 
#    0.000    0.000    0.000    0.000    0.000    0.000 
#
# Total GULP energy -78106.187138 kJ/mol
# GULP energy per Si atom -5579.013367 kJ/mol
# Density = 2.290047 g / cm^3
# Si number density = 22.952709 Si / 1000 Ang^3
#
#
#
# Elastic Constant Matrix: (Units=GPa)
#
#
# Indices 1 2 3 4 5 6 
#
# 1 126.7524 32.8590 70.2218 0.0000 8.1522 0.0000
# 2 32.8590 89.8888 43.2589 0.0000 9.4437 0.0000
# 3 70.2218 43.2589 162.5836 0.0000 21.6505 0.0000
# 4 0.0000 0.0000 0.0000 38.8584 0.0000 0.3343
# 5 8.1522 9.4437 21.6505 0.0000 39.7616 0.0000
# 6 0.0000 0.0000 0.0000 0.3343 0.0000 16.5896
#
#
#
# Elastic Compliance Matrix: (Units=1/GPa)
#
#
# Indices 1 2 3 4 5 6 
#
# 1 0.010665 -0.001954 -0.004159 0.000000 0.000542 0.000000
# 2 -0.001954 0.013177 -0.002478 0.000000 -0.001380 0.000000
# 3 -0.004159 -0.002478 0.009072 0.000000 -0.003499 0.000000
# 4 0.000000 0.000000 0.000000 0.025739 0.000000 -0.000519
# 5 0.000542 -0.001380 -0.003499 0.000000 0.027271 0.000000
# 6 0.000000 0.000000 0.000000 -0.000519 0.000000 0.060289
#
#
# Mechanical properties :
#
#
# Convention : Reuss Voigt Hill
#
# Bulk Modulus (GPa) = 63.56511 74.65602 69.11056
# Shear Modulus (GPa) = 29.64904 34.56758 32.10831
#
# Velocity S-wave (km/s) = 3.59798 3.88498 3.74423
# Velocity P-wave (km/s) = 6.70930 7.26090 6.99054
#
# Compressibility (1/GPa) = 0.01573190
#
# Stress axis : x y z
#
# Youngs Moduli (GPa) = 93.76435 75.89098 110.22827
#
# Poissons Ratio (x) = 0.14831 0.45839
# Poissons Ratio (y) = 0.18324 0.27317
# Poissons Ratio (z) = 0.38992 0.18807
#
# Static dielectric constant tensor:
#      x y z
#    x 1.879760 0.000000 0.012810 
#    y 0.000000 1.947290 0.000000 
#    z 0.012810 0.000000 1.878230 
# 
# From -- ./inp_files/21290.got.cif
#   From: 2010.05.17/outbox.cif.g08.bks.cpg/sg9_11_cif.got.tgz:21290.got - 2010.06.03 20:04:27.
