data_PCOD9139447
_publ_section_title
;
Structure prediction by ZEFSAII (Michael W. Deem and Ramdas Pophale) SiO2 
 PCOD9139447
Probable space group: C C
;
_chemical_formula_sum "Si O2"
_cell_formula_units_Z 32
_cell_length_a 21.890399
_cell_length_b 7.635966
_cell_length_c 17.227799
_cell_angle_alpha 90.000000
_cell_angle_beta 25.489446
_cell_angle_gamma 90.000000
_cell_volume 1239.264620
_symmetry_space_group_name_H-M "C C"
_symmetry_group_IT_number 9
_symmetry_cell_setting 'monoclinic'
loop_
_space_group_symop_operation_xyz
x,y,z
x,-y,1/2+z
1/2+x,1/2+y,z
1/2+x,1/2-y,1/2+z
loop_
_atom_site_type_symbol
_atom_site_label
_atom_site_fract_x
_atom_site_fract_y
_atom_site_fract_z
Si Si1 0.327990 0.133702 0.493940
Si Si2 0.182240 0.355855 0.965449
Si Si3 0.479347 0.264018 0.565067
Si Si4 0.637403 0.743315 0.349707
Si Si5 0.548747 0.239123 0.119872
Si Si6 0.853505 0.955124 0.564945
Si Si7 0.422180 0.949674 0.520150
Si Si8 0.592008 0.438199 0.679461
O O1 0.400475 0.201505 0.332468
O O2 0.277758 0.290073 0.608505
O O3 0.212032 0.993463 0.602933
O O4 0.449693 0.047257 0.408022
O O5 0.138914 0.558876 0.021909
O O6 0.114724 0.266351 0.964831
O O7 0.119313 0.246163 0.108815
O O8 0.350201 0.324974 0.768249
O O9 0.458794 0.388230 0.512723
O O10 0.447986 0.074443 0.563571
O O11 0.547048 0.720092 0.531093
O O12 0.523625 0.783796 0.413943
O O13 0.756353 0.595947 0.209777
O O14 0.737854 0.915928 0.232883
O O15 0.606077 0.408988 0.098424
O O16 0.941098 0.039463 0.393903
#
# Coordination Sequence:
#
# PCOD9139447 Si02
#       8
#     4   4   4   4   4   4   4   4
#     4  10  26  48  71 102 154 196 240 309 373 444
#     4  12  25  45  76 106 147 194 247 303 367 436
#     4  11  23  47  73 108 143 194 247 305 367 440
#     4  12  26  47  75 111 144 195 253 313 372 440
#     4  11  25  46  69 107 149 194 244 310 364 438
#     4  10  25  45  73 104 146 197 246 301 377 442
#     4  11  27  46  75 107 151 189 252 313 370 445
#     4  11  27  46  72 109 148 199 247 298 380 445
#
# _framework density 25.821764000000002
#
# number of rings (size 3 to 8) (size 9 to 14) (size 15 to 20)
#    0.000    1.000    2.500    1.500   14.000    3.000 
#    0.000    0.000    0.000    0.000    0.000    0.000 
#    0.000    0.000    0.000    0.000    0.000    0.000 
#
# Total GULP energy -89647.273479 kJ/mol
# GULP energy per Si atom -5602.954592 kJ/mol
# Density = 2.576299 g / cm^3
# Si number density = 25.821764 Si / 1000 Ang^3
#
#
#
# Elastic Constant Matrix: (Units=GPa)
#
#
# Indices 1 2 3 4 5 6 
#
# 1 89.4567 8.6704 11.9973 -0.0002 8.1475 0.0000
# 2 8.6704 89.9298 4.3436 -0.0008 12.2010 0.0002
# 3 11.9973 4.3436 73.3512 -0.0003 17.2850 0.0001
# 4 -0.0002 -0.0008 -0.0003 34.5348 0.0001 8.6750
# 5 8.1475 12.2010 17.2850 0.0001 39.2544 0.0000
# 6 0.0000 0.0002 0.0001 8.6750 0.0000 43.4013
#
#
#
# Elastic Compliance Matrix: (Units=1/GPa)
#
#
# Indices 1 2 3 4 5 6 
#
# 1 0.011596 -0.000844 -0.001497 0.000000 -0.001485 0.000000
# 2 -0.000844 0.011673 0.000291 0.000000 -0.003581 0.000000
# 3 -0.001497 0.000291 0.015407 0.000000 -0.006564 0.000000
# 4 0.000000 0.000000 0.000000 0.030487 0.000000 -0.006094
# 5 -0.001485 -0.003581 -0.006564 0.000000 0.029787 0.000000
# 6 0.000000 0.000000 0.000000 -0.006094 0.000000 0.024259
#
#
# Mechanical properties :
#
#
# Convention : Reuss Voigt Hill
#
# Bulk Modulus (GPa) = 28.92139 33.64002 31.28071
# Shear Modulus (GPa) = 36.01395 38.61987 37.31691
#
# Velocity S-wave (km/s) = 3.73864 3.87154 3.80567
# Velocity P-wave (km/s) = 5.46454 5.74814 5.60814
#
# Compressibility (1/GPa) = 0.03457648
#
# Stress axis : x y z
#
# Youngs Moduli (GPa) = 86.23346 85.66797 64.90367
#
# Poissons Ratio (x) = 0.07232 0.09714
# Poissons Ratio (y) = 0.07280 -0.01887
# Poissons Ratio (z) = 0.12906 -0.02490
#
# Static dielectric constant tensor:
#      x y z
#    x 1.991270 0.000000 0.001900 
#    y 0.000000 2.094490 0.000000 
#    z 0.001900 0.000000 1.987690 
# 
# From -- ./inp_files/27340.got.cif
#   From: 2010.05.17/outbox.cif.g08.bks.cpg/sg9_14_cif.got.tgz:27340.got - 2010.06.03 20:04:27.
