data_PCOD9139138
_publ_section_title
;
Structure prediction by ZEFSAII (Michael W. Deem and Ramdas Pophale) SiO2 
 PCOD9139138
Probable space group: C C
;
_chemical_formula_sum "Si O2"
_cell_formula_units_Z 32
_cell_length_a 7.209969
_cell_length_b 11.793760
_cell_length_c 21.838751
_cell_angle_alpha 90.000000
_cell_angle_beta 54.918226
_cell_angle_gamma 90.000000
_cell_volume 1519.649129
_symmetry_space_group_name_H-M "C C"
_symmetry_group_IT_number 9
_symmetry_cell_setting 'monoclinic'
loop_
_space_group_symop_operation_xyz
x,y,z
x,-y,1/2+z
1/2+x,1/2+y,z
1/2+x,1/2-y,1/2+z
loop_
_atom_site_type_symbol
_atom_site_label
_atom_site_fract_x
_atom_site_fract_y
_atom_site_fract_z
Si Si1 0.288480 0.941610 0.391530
Si Si2 0.211292 0.701689 0.820400
Si Si3 0.961188 0.461137 0.575850
Si Si4 0.225817 0.101726 0.517637
Si Si5 0.730592 0.969066 0.757705
Si Si6 0.348525 0.323494 0.431396
Si Si7 0.612751 0.692888 0.217938
Si Si8 0.720511 0.078780 0.637306
O O1 0.214918 0.204262 0.266922
O O2 0.228143 0.005470 0.465125
O O3 0.446175 0.833230 0.376507
O O4 0.069216 0.901569 0.396888
O O5 0.320901 0.587176 0.770473
O O6 0.307332 0.715095 0.869579
O O7 0.135262 0.393876 0.498781
O O8 0.099975 0.527895 0.601461
O O9 0.826103 0.549853 0.559982
O O10 0.783448 0.378411 0.643180
O O11 0.364460 0.210628 0.469245
O O12 0.963429 0.131927 0.575639
O O13 0.761566 0.979756 0.679318
O O14 0.463689 0.976285 0.822715
O O15 0.870418 0.868275 0.760798
O O16 0.586458 0.820593 0.196982
#
# Coordination Sequence:
#
# PCOD9139138 Si02
#       8
#     4   4   4   4   4   4   4   4
#     4  10  24  45  68 101 139 177 233 284 343 419
#     4   9  24  45  67 102 134 183 232 283 351 411
#     4  12  25  43  70 100 138 184 227 292 340 412
#     4  12  25  42  69 103 139 180 233 286 348 419
#     4   9  22  45  70  96 144 177 225 294 337 413
#     4  12  25  44  72 100 139 187 233 282 357 414
#     4  11  23  48  71  97 147 179 232 293 345 414
#     4  11  24  44  67 105 134 183 235 276 353 418
#
# _framework density 21.057493000000001
#
# number of rings (size 3 to 8) (size 9 to 14) (size 15 to 20)
#    0.750    0.500    5.000    0.000    1.750    6.000 
#    0.000    0.000    0.000    0.000    0.000    0.000 
#    0.000    0.000    0.000    0.000    0.000    0.000 
#
# Total GULP energy -89360.171010 kJ/mol
# GULP energy per Si atom -5585.010688 kJ/mol
# Density = 2.100956 g / cm^3
# Si number density = 21.057493 Si / 1000 Ang^3
#
#
#
# Elastic Constant Matrix: (Units=GPa)
#
#
# Indices 1 2 3 4 5 6 
#
# 1 100.4583 41.7228 50.8750 0.0001 17.6333 0.0000
# 2 41.7228 71.6819 26.4383 0.0000 18.1964 0.0000
# 3 50.8750 26.4383 87.4181 0.0001 18.9791 0.0000
# 4 0.0001 0.0000 0.0001 36.1944 -0.0001 -0.8099
# 5 17.6333 18.1964 18.9791 -0.0001 35.7801 0.0001
# 6 0.0000 0.0000 0.0000 -0.8099 0.0001 34.1584
#
#
#
# Elastic Compliance Matrix: (Units=1/GPa)
#
#
# Indices 1 2 3 4 5 6 
#
# 1 0.016698 -0.006744 -0.007500 0.000000 -0.000821 0.000000
# 2 -0.006744 0.019735 -0.000662 0.000000 -0.006361 0.000000
# 3 -0.007500 -0.000662 0.017098 0.000000 -0.005036 0.000000
# 4 0.000000 0.000000 0.000000 0.027643 0.000000 0.000655
# 5 -0.000821 -0.006361 -0.005036 0.000000 0.034260 0.000000
# 6 0.000000 0.000000 0.000000 0.000655 0.000000 0.029291
#
#
# Mechanical properties :
#
#
# Convention : Reuss Voigt Hill
#
# Bulk Modulus (GPa) = 42.16282 55.29229 48.72755
# Shear Modulus (GPa) = 27.40577 30.59472 29.00025
#
# Velocity S-wave (km/s) = 3.61151 3.81585 3.71508
# Velocity P-wave (km/s) = 6.12020 6.76232 6.44926
#
# Compressibility (1/GPa) = 0.02371758
#
# Stress axis : x y z
#
# Youngs Moduli (GPa) = 59.88871 50.67055 58.48770
#
# Poissons Ratio (x) = 0.34175 0.43863
# Poissons Ratio (y) = 0.40392 0.03874
# Poissons Ratio (z) = 0.44914 0.03357
#
# Static dielectric constant tensor:
#      x y z
#    x 1.722640 0.000000 -0.024280 
#    y 0.000000 1.775390 0.000000 
#    z -0.024280 0.000000 1.777550 
# 
# From -- ./inp_files/32004.got.cif
#   From: 2010.05.17/outbox.cif.g08.bks.cpg/sg9_17_cif.got.tgz:32004.got - 2010.06.03 20:04:27.
