data_PCOD9139768
_publ_section_title
;
Structure prediction by ZEFSAII (Michael W. Deem and Ramdas Pophale) SiO2 
 PCOD9139768
Probable space group: C C
;
_chemical_formula_sum "Si O2"
_cell_formula_units_Z 28
_cell_length_a 16.068685
_cell_length_b 18.898620
_cell_length_c 5.484482
_cell_angle_alpha 90.000000
_cell_angle_beta 59.717264
_cell_angle_gamma 90.000000
_cell_volume 1438.243079
_symmetry_space_group_name_H-M "C C"
_symmetry_group_IT_number 9
_symmetry_cell_setting 'monoclinic'
loop_
_space_group_symop_operation_xyz
x,y,z
x,-y,1/2+z
1/2+x,1/2+y,z
1/2+x,1/2-y,1/2+z
loop_
_atom_site_type_symbol
_atom_site_label
_atom_site_fract_x
_atom_site_fract_y
_atom_site_fract_z
Si Si1 0.312180 0.957812 0.470860
Si Si2 0.237127 0.191076 0.963266
Si Si3 0.191096 0.457081 0.223303
Si Si4 0.495324 0.887099 0.377744
Si Si5 0.412084 0.226992 0.344811
Si Si6 0.597444 0.775035 0.875964
Si Si7 0.265425 0.684313 0.794613
O O1 0.248858 0.886897 0.548374
O O2 0.424655 0.934101 0.318315
O O3 0.294890 0.998828 0.748885
O O4 0.333453 0.208543 0.666128
O O5 0.146175 0.207114 0.926810
O O6 0.232927 0.249601 0.178905
O O7 0.206705 0.504838 0.440623
O O8 0.079814 0.430487 0.383332
O O9 0.257925 0.387753 0.156470
O O10 0.428053 0.843915 0.663698
O O11 0.547761 0.826945 0.142228
O O12 0.515067 0.244441 0.306497
O O13 0.366897 0.290811 0.255128
O O14 0.684831 0.818663 0.624738
#
# Coordination Sequence:
#
# PCOD9139768 Si02
#       7
#     4   4   4   4   4   4   4
#     4  12  26  41  64  98 142 177 210 271 342 410
#     4  11  23  40  65  91 132 178 227 267 322 394
#     4  12  26  41  64  98 142 177 210 271 342 410
#     4  12  22  40  62 104 132 176 206 274 346 402
#     4  11  21  38  67  95 129 169 227 276 321 380
#     4  11  21  38  67  95 129 169 227 276 321 380
#     4  11  23  40  65  91 132 178 227 267 322 394
#
# _framework density 19.468195999999999
#
# number of rings (size 3 to 8) (size 9 to 14) (size 15 to 20)
#    0.000    0.571    5.714    2.571    4.000    0.000 
#    0.000    0.000    0.000    1.714    0.000    0.000 
#    0.000    0.000    0.000    0.000    0.000    0.000 
#
# Total GULP energy -78278.404442 kJ/mol
# GULP energy per Si atom -5591.314603 kJ/mol
# Density = 1.942389 g / cm^3
# Si number density = 19.468196 Si / 1000 Ang^3
#
#
#
# Elastic Constant Matrix: (Units=GPa)
#
#
# Indices 1 2 3 4 5 6 
#
# 1 133.7025 62.1362 0.5406 0.0000 26.1468 0.0000
# 2 62.1362 123.2377 18.2115 0.0000 24.3159 0.0000
# 3 0.5406 18.2115 53.1423 0.0000 16.0436 0.0000
# 4 0.0000 0.0000 0.0000 26.7038 0.0000 10.8603
# 5 26.1468 24.3159 16.0436 0.0000 21.9605 0.0000
# 6 0.0000 0.0000 0.0000 10.8603 0.0000 50.8029
#
#
#
# Elastic Compliance Matrix: (Units=1/GPa)
#
#
# Indices 1 2 3 4 5 6 
#
# 1 0.012095 -0.004193 0.005465 0.000000 -0.013751 0.000000
# 2 -0.004193 0.011837 -0.002007 0.000000 -0.006648 0.000000
# 3 0.005465 -0.002007 0.026613 0.000000 -0.023727 0.000000
# 4 0.000000 0.000000 0.000000 0.041014 0.000000 -0.008768
# 5 -0.013751 -0.006648 -0.023727 0.000000 0.086604 0.000000
# 6 0.000000 0.000000 0.000000 -0.008768 0.000000 0.021558
#
#
# Mechanical properties :
#
#
# Convention : Reuss Voigt Hill
#
# Bulk Modulus (GPa) = 20.37667 52.42877 36.40272
# Shear Modulus (GPa) = 22.98360 35.17307 29.07833
#
# Velocity S-wave (km/s) = 3.43967 4.25513 3.86895
# Velocity P-wave (km/s) = 5.12489 7.15056 6.22073
#
# Compressibility (1/GPa) = 0.04907573
#
# Stress axis : x y z
#
# Youngs Moduli (GPa) = 82.68088 84.48370 37.57603
#
# Poissons Ratio (x) = 0.35421 -0.20535
# Poissons Ratio (y) = 0.34665 0.07540
# Poissons Ratio (z) = -0.45185 0.16952
#
# Static dielectric constant tensor:
#      x y z
#    x 1.703260 0.000000 0.048210 
#    y 0.000000 1.690770 0.000000 
#    z 0.048210 0.000000 1.705780 
# 
# From -- ./inp_files/1642.got.cif
#   From: 2010.05.17/outbox.cif.g08.bks.cpg/sg9_1_cif.got.tgz:1642.got - 2010.06.03 20:04:27.
