data_PCOD9139571
_publ_section_title
;
Structure prediction by ZEFSAII (Michael W. Deem and Ramdas Pophale) SiO2 
 PCOD9139571
Probable space group: C C
;
_chemical_formula_sum "Si O2"
_cell_formula_units_Z 28
_cell_length_a 15.542009
_cell_length_b 6.418823
_cell_length_c 18.577014
_cell_angle_alpha 90.000000
_cell_angle_beta 46.261604
_cell_angle_gamma 90.000000
_cell_volume 1338.994272
_symmetry_space_group_name_H-M "C C"
_symmetry_group_IT_number 9
_symmetry_cell_setting 'monoclinic'
loop_
_space_group_symop_operation_xyz
x,y,z
x,-y,1/2+z
1/2+x,1/2+y,z
1/2+x,1/2-y,1/2+z
loop_
_atom_site_type_symbol
_atom_site_label
_atom_site_fract_x
_atom_site_fract_y
_atom_site_fract_z
Si Si1 0.617470 0.234341 0.454770
Si Si2 0.915863 0.453386 0.579515
Si Si3 0.027595 0.005724 0.767640
Si Si4 0.761086 0.944569 0.480810
Si Si5 0.564409 0.623884 0.581325
Si Si6 0.213504 0.648694 0.660105
Si Si7 0.222199 0.740773 0.244935
O O1 0.692023 0.108348 0.470459
O O2 0.562943 0.432894 0.526503
O O3 0.697227 0.292877 0.341627
O O4 0.520555 0.073239 0.478103
O O5 0.820528 0.315383 0.592758
O O6 0.842054 0.640132 0.656535
O O7 0.978601 0.304412 0.601216
O O8 0.026193 0.058918 0.683558
O O9 0.117583 0.160299 0.756886
O O10 0.090533 0.777841 0.735999
O O11 0.899118 0.034160 0.879195
O O12 0.729752 0.005841 0.580710
O O13 0.698198 0.720871 0.505050
O O14 0.229554 0.501730 0.720210
#
# Coordination Sequence:
#
# PCOD9139571 Si02
#       7
#     4   4   4   4   4   4   4
#     4  11  26  44  68 100 133 178 227 274 339 398
#     4  10  26  42  70  94 138 174 222 278 334 394
#     4  11  26  42  70  98 136 180 222 280 342 396
#     4  11  26  42  70  98 136 180 222 280 342 396
#     4  11  24  47  66 101 136 175 231 277 334 411
#     4  11  24  47  66 101 136 175 231 277 334 411
#     4  11  26  44  68 100 133 178 227 274 339 398
#
# _framework density 20.911218000000002
#
# number of rings (size 3 to 8) (size 9 to 14) (size 15 to 20)
#    0.000    1.143    2.857    0.857   12.000    3.429 
#    0.000    0.000    0.000    0.000    0.000    0.000 
#    0.000    0.000    0.000    0.000    0.000    0.000 
#
# Total GULP energy -78219.478696 kJ/mol
# GULP energy per Si atom -5587.105621 kJ/mol
# Density = 2.086362 g / cm^3
# Si number density = 20.911218 Si / 1000 Ang^3
#
#
#
# Elastic Constant Matrix: (Units=GPa)
#
#
# Indices 1 2 3 4 5 6 
#
# 1 36.8401 15.7563 15.9376 0.0000 -11.3382 0.0000
# 2 15.7563 87.6370 12.0953 0.0000 -16.6036 0.0000
# 3 15.9376 12.0953 66.3675 0.0000 -16.3192 0.0000
# 4 0.0000 0.0000 0.0000 20.4303 0.0000 0.2793
# 5 -11.3382 -16.6036 -16.3192 0.0000 40.8874 0.0000
# 6 0.0000 0.0000 0.0000 0.2793 0.0000 25.7165
#
#
#
# Elastic Compliance Matrix: (Units=1/GPa)
#
#
# Indices 1 2 3 4 5 6 
#
# 1 0.033059 -0.004157 -0.005923 0.000000 0.005115 0.000000
# 2 -0.004157 0.012961 -0.000392 0.000000 0.003954 0.000000
# 3 -0.005923 -0.000392 0.017872 0.000000 0.005332 0.000000
# 4 0.000000 0.000000 0.000000 0.048954 0.000000 -0.000532
# 5 0.005115 0.003954 0.005332 0.000000 0.029610 0.000000
# 6 0.000000 0.000000 0.000000 -0.000532 0.000000 0.038891
#
#
# Mechanical properties :
#
#
# Convention : Reuss Voigt Hill
#
# Bulk Modulus (GPa) = 23.28360 30.93589 27.10975
# Shear Modulus (GPa) = 23.08312 27.21054 25.14683
#
# Velocity S-wave (km/s) = 3.32605 3.61119 3.47155
# Velocity P-wave (km/s) = 5.09007 5.67570 5.39084
#
# Compressibility (1/GPa) = 0.04294868
#
# Stress axis : x y z
#
# Youngs Moduli (GPa) = 30.24883 77.15262 55.95194
#
# Poissons Ratio (x) = 0.32073 0.33143
# Poissons Ratio (y) = 0.12575 0.02191
# Poissons Ratio (z) = 0.17918 0.03021
#
# Static dielectric constant tensor:
#      x y z
#    x 1.754950 0.000000 -0.024720 
#    y 0.000000 1.751050 0.000000 
#    z -0.024720 0.000000 1.712400 
# 
# From -- ./inp_files/18825.got.cif
#   From: 2010.05.17/outbox.cif.g08.bks.cpg/sg9_10_cif.got.tgz:18825.got - 2010.06.03 20:04:27.
