data_PCOD9139516
_publ_section_title
;
Structure prediction by ZEFSAII (Michael W. Deem and Ramdas Pophale) SiO2 
 PCOD9139516
Probable space group: C C
;
_chemical_formula_sum "Si O2"
_cell_formula_units_Z 32
_cell_length_a 8.833989
_cell_length_b 20.039863
_cell_length_c 13.511297
_cell_angle_alpha 90.000000
_cell_angle_beta 30.929032
_cell_angle_gamma 90.000000
_cell_volume 1229.395046
_symmetry_space_group_name_H-M "C C"
_symmetry_group_IT_number 9
_symmetry_cell_setting 'monoclinic'
loop_
_space_group_symop_operation_xyz
x,y,z
x,-y,1/2+z
1/2+x,1/2+y,z
1/2+x,1/2-y,1/2+z
loop_
_atom_site_type_symbol
_atom_site_label
_atom_site_fract_x
_atom_site_fract_y
_atom_site_fract_z
Si Si1 0.664310 0.342484 0.528640
Si Si2 0.432658 0.058745 0.579949
Si Si3 0.339549 0.499588 0.507574
Si Si4 0.647514 0.048274 0.815702
Si Si5 0.485183 0.647322 0.756979
Si Si6 0.020014 0.204493 0.309957
Si Si7 0.572580 0.289687 0.998266
Si Si8 0.193861 0.353924 0.620179
O O1 0.477472 0.337371 0.734923
O O2 0.445139 0.354820 0.561831
O O3 0.901733 0.400784 0.412876
O O4 0.832974 0.272879 0.411130
O O5 0.690673 0.050273 0.514203
O O6 0.310568 0.129655 0.612100
O O7 0.504746 0.017478 0.441283
O O8 0.151500 0.025357 0.792505
O O9 0.355829 0.530174 0.607698
O O10 0.137118 0.432305 0.630285
O O11 0.820233 0.080787 0.810925
O O12 0.467446 0.687409 0.665548
O O13 0.329857 0.674758 0.941977
O O14 0.367572 0.223819 0.103063
O O15 0.984919 0.176507 0.440694
O O16 0.916027 0.310300 0.807967
#
# Coordination Sequence:
#
# PCOD9139516 Si02
#       8
#     4   4   4   4   4   4   4   4
#     4  11  25  48  71 101 143 180 240 295 352 420
#     4  11  24  42  63 102 143 178 235 275 335 424
#     4  11  26  41  68 103 143 186 227 278 347 419
#     4  12  23  41  72  98 140 185 227 282 347 419
#     4  11  24  44  68 105 139 188 230 282 351 418
#     4  10  25  48  73 103 131 190 237 296 357 409
#     4  11  24  46  74  99 140 180 238 291 354 415
#     4  11  25  46  71 105 143 181 234 289 353 424
#
# _framework density 26.029063000000001
#
# number of rings (size 3 to 8) (size 9 to 14) (size 15 to 20)
#    0.000    1.000    3.750    3.000    7.000    2.000 
#    4.500    0.000    0.000    0.000    0.000    0.000 
#    0.000    0.000    0.000    0.000    0.000    0.000 
#
# Total GULP energy -89533.152346 kJ/mol
# GULP energy per Si atom -5595.822022 kJ/mol
# Density = 2.596982 g / cm^3
# Si number density = 26.029063 Si / 1000 Ang^3
#
#
#
# Elastic Constant Matrix: (Units=GPa)
#
#
# Indices 1 2 3 4 5 6 
#
# 1 174.5734 23.1324 45.2443 0.0148 28.7504 0.0030
# 2 23.1324 39.5249 6.4873 0.0255 -4.5637 -0.0029
# 3 45.2443 6.4873 82.1869 0.0029 17.1428 0.0508
# 4 0.0148 0.0255 0.0029 46.5464 0.0087 0.1388
# 5 28.7504 -4.5637 17.1428 0.0087 55.6089 -0.0187
# 6 0.0030 -0.0029 0.0508 0.1388 -0.0187 37.3398
#
#
#
# Elastic Compliance Matrix: (Units=1/GPa)
#
#
# Indices 1 2 3 4 5 6 
#
# 1 0.007683 -0.004360 -0.003187 0.000001 -0.003348 0.000002
# 2 -0.004360 0.028557 -0.000869 -0.000015 0.004866 0.000006
# 3 -0.003187 -0.000869 0.014601 0.000001 -0.002924 -0.000021
# 4 0.000001 -0.000015 0.000001 0.021484 -0.000005 -0.000080
# 5 -0.003348 0.004866 -0.002924 -0.000005 0.021014 0.000015
# 6 0.000002 0.000006 -0.000021 -0.000080 0.000015 0.026781
#
#
# Mechanical properties :
#
#
# Convention : Reuss Voigt Hill
#
# Bulk Modulus (GPa) = 29.40449 49.55702 39.48075
# Shear Modulus (GPa) = 33.71788 42.66042 38.18915
#
# Velocity S-wave (km/s) = 3.60306 4.05279 3.83453
# Velocity P-wave (km/s) = 5.35077 6.40161 5.89963
#
# Compressibility (1/GPa) = 0.03400841
#
# Stress axis : x y z
#
# Youngs Moduli (GPa) = 130.15079 35.01794 68.49035
#
# Poissons Ratio (x) = 0.15268 0.21830
# Poissons Ratio (y) = 0.56748 0.05950
# Poissons Ratio (z) = 0.41483 0.03042
#
# Static dielectric constant tensor:
#      x y z
#    x 1.958990 -0.000010 -0.015230 
#    y -0.000010 2.228010 0.000030 
#    z -0.015230 0.000030 2.042980 
# 
# From -- ./inp_files/23836.got.cif
#   From: 2010.05.17/outbox.cif.g08.bks.cpg/sg9_12_cif.got.tgz:23836.got - 2010.06.03 20:04:27.
