data_PCOD9139221
_publ_section_title
;
Structure prediction by ZEFSAII (Michael W. Deem and Ramdas Pophale) SiO2 
 PCOD9139221
Probable space group: C C
;
_chemical_formula_sum "Si O2"
_cell_formula_units_Z 28
_cell_length_a 14.259625
_cell_length_b 13.641480
_cell_length_c 8.098831
_cell_angle_alpha 90.000000
_cell_angle_beta 44.710740
_cell_angle_gamma 90.000000
_cell_volume 1108.340682
_symmetry_space_group_name_H-M "C C"
_symmetry_group_IT_number 9
_symmetry_cell_setting 'monoclinic'
loop_
_space_group_symop_operation_xyz
x,y,z
x,-y,1/2+z
1/2+x,1/2+y,z
1/2+x,1/2-y,1/2+z
loop_
_atom_site_type_symbol
_atom_site_label
_atom_site_fract_x
_atom_site_fract_y
_atom_site_fract_z
Si Si1 0.571020 0.684187 0.817560
Si Si2 0.549299 0.387509 0.826195
Si Si3 0.192870 0.033429 0.456352
Si Si4 0.636420 0.885773 0.556511
Si Si5 0.977566 0.460255 0.444623
Si Si6 0.087765 0.306485 0.127104
Si Si7 0.348511 0.560808 0.293323
O O1 0.680293 0.604360 0.629559
O O2 0.608924 0.771005 0.635049
O O3 0.581755 0.744735 0.970038
O O4 0.442105 0.611996 0.029010
O O5 0.666640 0.427584 0.562269
O O6 0.576944 0.431313 0.972966
O O7 0.558441 0.271671 0.807902
O O8 0.424519 0.424122 0.873392
O O9 0.332130 0.039044 0.196901
O O10 0.574473 0.911735 0.457629
O O11 0.544194 0.939511 0.807231
O O12 0.776903 0.950768 0.380729
O O13 0.978989 0.391090 0.281840
O O14 0.225258 0.364336 0.956659
#
# Coordination Sequence:
#
# PCOD9139221 Si02
#       7
#     4   4   4   4   4   4   4
#     4  11  26  46  73 112 148 202 249 317 389 448
#     4  11  25  45  72 104 151 197 247 317 380 451
#     4  12  27  46  70 110 149 198 254 305 392 465
#     4  11  24  47  74 109 148 195 254 318 384 451
#     4  11  25  45  74 109 143 199 251 312 386 460
#     4  10  24  46  72 109 142 198 251 315 385 447
#     4  10  25  47  75 109 151 195 258 314 378 468
#
# _framework density 25.262988
#
# number of rings (size 3 to 8) (size 9 to 14) (size 15 to 20)
#    0.000    1.143    0.000    5.143    8.000    6.857 
#    5.143    0.000    0.000    0.000    0.000    0.000 
#    0.000    0.000    0.000    0.000    0.000    0.000 
#
# Total GULP energy -78091.084240 kJ/mol
# GULP energy per Si atom -5577.934589 kJ/mol
# Density = 2.520549 g / cm^3
# Si number density = 25.262988 Si / 1000 Ang^3
#
#
#
# Elastic Constant Matrix: (Units=GPa)
#
#
# Indices 1 2 3 4 5 6 
#
# 1 88.2104 17.1115 23.5379 0.0000 -4.8758 0.0000
# 2 17.1115 147.0565 36.5277 0.0000 -10.0709 0.0000
# 3 23.5379 36.5277 161.7375 0.0000 -25.3909 0.0000
# 4 0.0000 0.0000 0.0000 39.6880 0.0000 21.1647
# 5 -4.8758 -10.0709 -25.3909 0.0000 40.4283 0.0000
# 6 0.0000 0.0000 0.0000 21.1647 0.0000 26.5794
#
#
#
# Elastic Compliance Matrix: (Units=1/GPa)
#
#
# Indices 1 2 3 4 5 6 
#
# 1 0.011938 -0.001006 -0.001468 0.000000 0.000267 0.000000
# 2 -0.001006 0.007316 -0.001374 0.000000 0.000838 0.000000
# 3 -0.001468 -0.001374 0.007350 0.000000 0.004097 0.000000
# 4 0.000000 0.000000 0.000000 0.043793 0.000000 -0.034871
# 5 0.000267 0.000838 0.004097 0.000000 0.027549 0.000000
# 6 0.000000 0.000000 0.000000 -0.034871 0.000000 0.065391
#
#
# Mechanical properties :
#
#
# Convention : Reuss Voigt Hill
#
# Bulk Modulus (GPa) = 52.89079 61.26205 57.07642
# Shear Modulus (GPa) = 28.19502 42.66096 35.42799
#
# Velocity S-wave (km/s) = 3.34437 4.11381 3.74888
# Velocity P-wave (km/s) = 5.99121 6.84594 6.43279
#
# Compressibility (1/GPa) = 0.01890688
#
# Stress axis : x y z
#
# Youngs Moduli (GPa) = 83.76438 136.68792 136.05338
#
# Poissons Ratio (x) = 0.13753 0.19976
# Poissons Ratio (y) = 0.08428 0.18698
# Poissons Ratio (z) = 0.12299 0.18785
#
# Static dielectric constant tensor:
#      x y z
#    x 2.074810 0.000000 0.017830 
#    y 0.000000 2.032160 0.000000 
#    z 0.017830 0.000000 2.004840 
# 
# From -- ./inp_files/9640.got.cif
#   From: 2010.05.17/outbox.cif.g08.bks.cpg/sg9_5_cif.got.tgz:9640.got - 2010.06.03 20:04:27.
