data_PCOD9139678
_publ_section_title
;
Structure prediction by ZEFSAII (Michael W. Deem and Ramdas Pophale) SiO2 
 PCOD9139678
Probable space group: C C
;
_chemical_formula_sum "Si O2"
_cell_formula_units_Z 20
_cell_length_a 8.185872
_cell_length_b 18.282409
_cell_length_c 5.292530
_cell_angle_alpha 90.000000
_cell_angle_beta 96.145524
_cell_angle_gamma 90.000000
_cell_volume 787.514747
_symmetry_space_group_name_H-M "C C"
_symmetry_group_IT_number 9
_symmetry_cell_setting 'monoclinic'
loop_
_space_group_symop_operation_xyz
x,y,z
x,-y,1/2+z
1/2+x,1/2+y,z
1/2+x,1/2-y,1/2+z
loop_
_atom_site_type_symbol
_atom_site_label
_atom_site_fract_x
_atom_site_fract_y
_atom_site_fract_z
Si Si1 0.304040 0.957339 0.221190
Si Si2 0.660691 0.102355 0.636452
Si Si3 0.006345 0.752860 0.465522
Si Si4 0.146185 0.813288 0.985116
Si Si5 0.386499 0.518670 0.957015
O O1 0.488977 0.926334 0.212091
O O2 0.292694 0.977373 0.514138
O O3 0.188390 0.892248 0.104867
O O4 0.623846 0.181320 0.521770
O O5 0.799375 0.094719 0.878051
O O6 0.739625 0.042454 0.458647
O O7 0.064875 0.808337 0.695361
O O8 0.820978 0.727790 0.489373
O O9 0.032865 0.777279 0.181930
O O10 0.480477 0.490198 0.729336
#
# Coordination Sequence:
#
# PCOD9139678 Si02
#       5
#     4   4   4   4   4
#     4  11  19  34  59  92 117 155 214 281 303 359
#     4   9  18  28  55  82 127 143 196 264 325 336
#     4  11  24  41  62  97 134 171 217 254 332 392
#     4  11  25  41  66  99 128 177 209 267 328 389
#     4   8  14  24  42  78 104 144 180 254 306 334
#
# _framework density 25.396349000000001
#
# number of rings (size 3 to 8) (size 9 to 14) (size 15 to 20)
#    1.200    0.800    2.000    2.400    2.800    3.200 
#    0.000    0.000    0.000    0.000   52.000    0.000 
#    0.000    0.000    0.000    0.000    0.000    0.000 
#
# Total GULP energy -55927.724013 kJ/mol
# GULP energy per Si atom -5592.772401 kJ/mol
# Density = 2.533855 g / cm^3
# Si number density = 25.396349 Si / 1000 Ang^3
#
#
#
# Elastic Constant Matrix: (Units=GPa)
#
#
# Indices 1 2 3 4 5 6 
#
# 1 100.5102 15.2289 29.3945 0.0000 -3.8373 0.0000
# 2 15.2289 63.6124 -2.9855 0.0000 -19.6810 0.0000
# 3 29.3945 -2.9855 123.0894 0.0000 -19.3363 0.0000
# 4 0.0000 0.0000 0.0000 29.6180 0.0000 6.7288
# 5 -3.8373 -19.6810 -19.3363 0.0000 52.5679 0.0000
# 6 0.0000 0.0000 0.0000 6.7288 0.0000 35.4891
#
#
#
# Elastic Compliance Matrix: (Units=1/GPa)
#
#
# Indices 1 2 3 4 5 6 
#
# 1 0.011274 -0.003312 -0.003012 0.000000 -0.001525 0.000000
# 2 -0.003312 0.019042 0.002478 0.000000 0.007799 0.000000
# 3 -0.003012 0.002478 0.009568 0.000000 0.004227 0.000000
# 4 0.000000 0.000000 0.000000 0.035283 0.000000 -0.006690
# 5 -0.001525 0.007799 0.004227 0.000000 0.023386 0.000000
# 6 0.000000 0.000000 0.000000 -0.006690 0.000000 0.029446
#
#
# Mechanical properties :
#
#
# Convention : Reuss Voigt Hill
#
# Bulk Modulus (GPa) = 31.06448 41.16533 36.11490
# Shear Modulus (GPa) = 34.14778 39.90661 37.02719
#
# Velocity S-wave (km/s) = 3.67085 3.96833 3.82248
# Velocity P-wave (km/s) = 5.49775 6.10256 5.80803
#
# Compressibility (1/GPa) = 0.03219111
#
# Stress axis : x y z
#
# Youngs Moduli (GPa) = 88.70143 52.51450 104.51880
#
# Poissons Ratio (x) = 0.17394 0.31483
# Poissons Ratio (y) = 0.29379 -0.25900
# Poissons Ratio (z) = 0.26718 -0.13013
#
# Static dielectric constant tensor:
#      x y z
#    x 1.973650 0.000000 -0.001260 
#    y 0.000000 2.028880 0.000000 
#    z -0.001260 0.000000 2.016100 
# 
# From -- ./inp_files/601.got.cif
#   From: 2010.05.17/outbox.cif.g08.bks.cpg/sg9_1_cif.got.tgz:601.got - 2010.06.03 20:04:27.
