data_PCOD9139239
_publ_section_title
;
Structure prediction by ZEFSAII (Michael W. Deem and Ramdas Pophale) SiO2 
 PCOD9139239
Probable space group: C C
;
_chemical_formula_sum "Si O2"
_cell_formula_units_Z 28
_cell_length_a 10.608647
_cell_length_b 21.574128
_cell_length_c 8.241567
_cell_angle_alpha 90.000000
_cell_angle_beta 138.598737
_cell_angle_gamma 90.000000
_cell_volume 1247.441583
_symmetry_space_group_name_H-M "C C"
_symmetry_group_IT_number 9
_symmetry_cell_setting 'monoclinic'
loop_
_space_group_symop_operation_xyz
x,y,z
x,-y,1/2+z
1/2+x,1/2+y,z
1/2+x,1/2-y,1/2+z
loop_
_atom_site_type_symbol
_atom_site_label
_atom_site_fract_x
_atom_site_fract_y
_atom_site_fract_z
Si Si1 0.315110 0.498659 0.828400
Si Si2 0.552808 0.825815 0.825368
Si Si3 0.417073 0.407752 0.171267
Si Si4 0.974252 0.192598 0.266117
Si Si5 0.175737 0.197002 0.812655
Si Si6 0.147420 0.410144 0.435193
Si Si7 0.857370 0.676959 0.491868
O O1 0.436467 0.540696 0.825744
O O2 0.147865 0.458676 0.582582
O O3 0.444025 0.445861 0.032684
O O4 0.229616 0.546373 0.872968
O O5 0.390642 0.828134 0.530361
O O6 0.670844 0.764147 0.892578
O O7 0.700918 0.881981 0.971002
O O8 0.448637 0.821050 0.899827
O O9 0.552900 0.349620 0.302647
O O10 0.079202 0.200025 0.541960
O O11 0.131165 0.168534 0.289242
O O12 0.799002 0.145242 0.113690
O O13 0.901578 0.257715 0.124106
O O14 0.958598 0.377266 0.190942
#
# Coordination Sequence:
#
# PCOD9139239 Si02
#       7
#     4   4   4   4   4   4   4
#     4  10  24  46  74  90 136 196 220 280 326 414
#     4  12  26  42  70 105 140 176 225 288 350 407
#     4  11  24  48  70  98 138 179 236 272 344 401
#     4  12  26  42  70 105 140 176 225 288 350 407
#     4  12  26  42  70 105 140 176 225 288 350 407
#     4  11  24  48  70  98 138 179 236 272 344 401
#     4  12  26  42  70 105 140 176 225 288 350 407
#
# _framework density 22.445938999999999
#
# number of rings (size 3 to 8) (size 9 to 14) (size 15 to 20)
#    0.000    0.571    5.714    1.714    8.000    0.000 
#    0.000    8.571    0.000    0.000    0.000    0.000 
#    0.000    0.000    0.000    0.000    0.000    0.000 
#
# Total GULP energy -78315.406300 kJ/mol
# GULP energy per Si atom -5593.957593 kJ/mol
# Density = 2.239485 g / cm^3
# Si number density = 22.445939 Si / 1000 Ang^3
#
#
#
# Elastic Constant Matrix: (Units=GPa)
#
#
# Indices 1 2 3 4 5 6 
#
# 1 51.0732 7.7206 3.2472 0.0000 -5.6645 0.0000
# 2 7.7206 79.1092 13.5719 0.0000 -16.7169 0.0000
# 3 3.2472 13.5719 53.7063 0.0000 -4.6355 0.0000
# 4 0.0000 0.0000 0.0000 16.0819 0.0000 -12.6425
# 5 -5.6645 -16.7169 -4.6355 0.0000 39.7345 0.0000
# 6 0.0000 0.0000 0.0000 -12.6425 0.0000 18.8403
#
#
#
# Elastic Compliance Matrix: (Units=1/GPa)
#
#
# Indices 1 2 3 4 5 6 
#
# 1 0.020075 -0.001378 -0.000675 0.000000 0.002203 0.000000
# 2 -0.001378 0.014476 -0.003097 0.000000 0.005532 0.000000
# 3 -0.000675 -0.003097 0.019519 0.000000 0.000878 0.000000
# 4 0.000000 0.000000 0.000000 0.131609 0.000000 0.088314
# 5 0.002203 0.005532 0.000878 0.000000 0.027911 0.000000
# 6 0.000000 0.000000 0.000000 0.088314 0.000000 0.112340
#
#
# Mechanical properties :
#
#
# Convention : Reuss Voigt Hill
#
# Bulk Modulus (GPa) = 22.84714 25.88535 24.36624
# Shear Modulus (GPa) = 14.25230 25.55459 19.90344
#
# Velocity S-wave (km/s) = 2.52258 3.37782 2.98103
# Velocity P-wave (km/s) = 4.32266 5.17400 4.76737
#
# Compressibility (1/GPa) = 0.04376916
#
# Stress axis : x y z
#
# Youngs Moduli (GPa) = 49.81231 69.08156 51.23194
#
# Poissons Ratio (x) = 0.09518 0.03460
# Poissons Ratio (y) = 0.06863 0.15868
# Poissons Ratio (z) = 0.03365 0.21396
#
# Static dielectric constant tensor:
#      x y z
#    x 1.852580 0.000000 -0.052910 
#    y 0.000000 1.769260 0.000000 
#    z -0.052910 0.000000 1.876910 
# 
# From -- ./inp_files/6005.got.cif
#   From: 2010.05.17/outbox.cif.g08.bks.cpg/sg9_4_cif.got.tgz:6005.got - 2010.06.03 20:04:27.
