data_PCOD9139809
_publ_section_title
;
Structure prediction by ZEFSAII (Michael W. Deem and Ramdas Pophale) SiO2 
 PCOD9139809
Probable space group: C C
;
_chemical_formula_sum "Si O2"
_cell_formula_units_Z 20
_cell_length_a 7.781312
_cell_length_b 11.582382
_cell_length_c 14.082020
_cell_angle_alpha 90.000000
_cell_angle_beta 144.023457
_cell_angle_gamma 90.000000
_cell_volume 745.571894
_symmetry_space_group_name_H-M "C C"
_symmetry_group_IT_number 9
_symmetry_cell_setting 'monoclinic'
loop_
_space_group_symop_operation_xyz
x,y,z
x,-y,1/2+z
1/2+x,1/2+y,z
1/2+x,1/2-y,1/2+z
loop_
_atom_site_type_symbol
_atom_site_label
_atom_site_fract_x
_atom_site_fract_y
_atom_site_fract_z
Si Si1 0.459910 0.671710 0.633280
Si Si2 0.473755 0.963899 0.196760
Si Si3 0.894315 0.229761 0.960452
Si Si4 0.614647 0.424723 0.713738
Si Si5 0.391624 0.345052 0.880056
O O1 0.454457 0.542300 0.671856
O O2 0.356931 0.671107 0.478195
O O3 0.785593 0.726206 0.785215
O O4 0.235008 0.751286 0.589094
O O5 0.720268 0.868014 0.325209
O O6 0.330014 0.019794 0.228623
O O7 0.656133 0.066420 0.231981
O O8 0.207775 0.905654 0.021979
O O9 0.761636 0.349951 0.861767
O O10 0.407497 0.331223 0.569276
#
# Coordination Sequence:
#
# PCOD9139809 Si02
#       5
#     4   4   4   4   4
#     4  11  22  44  70 101 140 184 225 294 334 416
#     4  11  21  42  71 100 135 186 219 285 341 407
#     4  12  21  43  71  99 137 185 227 284 346 401
#     4  11  24  43  71  98 139 179 230 285 339 408
#     4  11  22  42  71  98 145 178 231 280 352 396
#
# _framework density 26.825046
#
# number of rings (size 3 to 8) (size 9 to 14) (size 15 to 20)
#    0.000    0.800    8.000    0.000    0.000    4.800 
#    3.600    0.000    8.800    0.000    0.000    0.000 
#    0.000    0.000    0.000    0.000    0.000    0.000 
#
# Total GULP energy -55902.971351 kJ/mol
# GULP energy per Si atom -5590.297135 kJ/mol
# Density = 2.676399 g / cm^3
# Si number density = 26.825046 Si / 1000 Ang^3
#
#
#
# Elastic Constant Matrix: (Units=GPa)
#
#
# Indices 1 2 3 4 5 6 
#
# 1 54.6435 52.6544 32.4463 0.0008 -7.2467 -0.0001
# 2 52.6544 209.0617 94.2615 -0.0002 -6.9272 -0.0001
# 3 32.4463 94.2615 176.0855 0.0073 14.5585 0.0017
# 4 0.0008 -0.0002 0.0073 70.5706 0.0015 9.6462
# 5 -7.2467 -6.9272 14.5585 0.0015 31.1700 -0.0004
# 6 -0.0001 -0.0001 0.0017 9.6462 -0.0004 41.5733
#
#
#
# Elastic Compliance Matrix: (Units=1/GPa)
#
#
# Indices 1 2 3 4 5 6 
#
# 1 0.025467 -0.005116 -0.002444 0.000000 0.005925 0.000000
# 2 -0.005116 0.007634 -0.003314 0.000000 0.002055 0.000000
# 3 -0.002444 -0.003314 0.008333 -0.000001 -0.005197 0.000000
# 4 0.000000 0.000000 -0.000001 0.014634 0.000000 -0.003396
# 5 0.005925 0.002055 -0.005197 0.000000 0.036344 0.000001
# 6 0.000000 0.000000 0.000000 -0.003396 0.000001 0.024842
#
#
# Mechanical properties :
#
#
# Convention : Reuss Voigt Hill
#
# Bulk Modulus (GPa) = 50.79565 88.72391 69.75978
# Shear Modulus (GPa) = 34.34927 46.02468 40.18698
#
# Velocity S-wave (km/s) = 3.58228 4.14664 3.87475
# Velocity P-wave (km/s) = 6.00727 7.48819 6.78824
#
# Compressibility (1/GPa) = 0.01968673
#
# Stress axis : x y z
#
# Youngs Moduli (GPa) = 39.26635 130.99294 120.00465
#
# Poissons Ratio (x) = 0.67015 0.29329
# Poissons Ratio (y) = 0.20088 0.39768
# Poissons Ratio (z) = 0.09597 0.43409
#
# Static dielectric constant tensor:
#      x y z
#    x 2.353360 0.000000 0.171160 
#    y 0.000000 2.046740 0.000000 
#    z 0.171160 0.000000 2.081500 
# 
# From -- ./inp_files/36681.got.cif
#   From: 2010.05.17/outbox.cif.g08.bks.cpg/sg9_19_cif.got.tgz:36681.got - 2010.06.03 20:04:27.
