data_PCOD9139845
_publ_section_title
;
Structure prediction by ZEFSAII (Michael W. Deem and Ramdas Pophale) SiO2 
 PCOD9139845
Probable space group: C C
;
_chemical_formula_sum "Si O2"
_cell_formula_units_Z 32
_cell_length_a 18.844136
_cell_length_b 8.112760
_cell_length_c 14.469766
_cell_angle_alpha 90.000000
_cell_angle_beta 35.045400
_cell_angle_gamma 90.000000
_cell_volume 1270.248575
_symmetry_space_group_name_H-M "C C"
_symmetry_group_IT_number 9
_symmetry_cell_setting 'monoclinic'
loop_
_space_group_symop_operation_xyz
x,y,z
x,-y,1/2+z
1/2+x,1/2+y,z
1/2+x,1/2-y,1/2+z
loop_
_atom_site_type_symbol
_atom_site_label
_atom_site_fract_x
_atom_site_fract_y
_atom_site_fract_z
Si Si1 0.250000 0.927379 0.831330
Si Si2 0.785604 0.421763 0.997739
Si Si3 0.249688 0.541693 0.821250
Si Si4 0.004454 0.410052 0.478882
Si Si5 0.775737 0.872316 0.978047
Si Si6 0.853758 0.890280 0.543514
Si Si7 0.096002 0.040252 0.336173
Si Si8 0.995788 0.385362 0.272226
O O1 0.265509 0.735178 0.785865
O O2 0.382341 0.986182 0.654734
O O3 0.149442 0.020292 0.876545
O O4 0.214838 0.921227 0.976056
O O5 0.799784 0.264042 0.047343
O O6 0.714822 0.552627 0.140755
O O7 0.925081 0.454377 0.809511
O O8 0.326150 0.411044 0.680317
O O9 0.288214 0.510645 0.885430
O O10 0.111538 0.518590 0.929899
O O11 0.999470 0.446645 0.375301
O O12 0.029205 0.211009 0.438248
O O13 0.633493 0.823015 0.107255
O O14 0.785052 0.955975 0.067956
O O15 0.891917 0.749174 0.855253
O O16 0.000229 0.924614 0.383968
#
# Coordination Sequence:
#
# PCOD9139845 Si02
#       8
#     4   4   4   4   4   4   4   4
#     4  11  23  46  76 109 143 202 251 305 386 470
#     4  12  28  45  75 115 152 194 258 324 382 456
#     4  11  24  46  74 105 146 195 252 310 380 460
#     4  11  21  44  77 102 142 199 252 302 382 456
#     4  12  26  49  76 110 145 205 250 313 378 466
#     4  12  26  46  74 109 150 195 252 319 380 456
#     4  11  25  44  73 111 151 195 253 318 382 457
#     4  12  25  48  75 105 153 195 250 313 386 451
#
# _framework density 25.191922000000002
#
# number of rings (size 3 to 8) (size 9 to 14) (size 15 to 20)
#    0.000    0.500    6.250    1.500    1.750    4.000 
#    4.500    0.000    0.000    0.000    0.000    0.000 
#    0.000    0.000    0.000    0.000    0.000    0.000 
#
# Total GULP energy -89140.101717 kJ/mol
# GULP energy per Si atom -5571.256357 kJ/mol
# Density = 2.513458 g / cm^3
# Si number density = 25.191922 Si / 1000 Ang^3
#
#
#
# Elastic Constant Matrix: (Units=GPa)
#
#
# Indices 1 2 3 4 5 6 
#
# 1 122.5976 1.4065 20.4861 0.0000 2.7306 0.0000
# 2 1.4065 47.5949 2.1866 0.0000 -6.3637 0.0000
# 3 20.4861 2.1866 45.6709 0.0000 -21.6425 0.0000
# 4 0.0000 0.0000 0.0000 18.0677 0.0000 0.8995
# 5 2.7306 -6.3637 -21.6425 0.0000 52.6672 0.0000
# 6 0.0000 0.0000 0.0000 0.8995 0.0000 36.1964
#
#
#
# Elastic Compliance Matrix: (Units=1/GPa)
#
#
# Indices 1 2 3 4 5 6 
#
# 1 0.009118 -0.000387 -0.005362 0.000000 -0.002723 0.000000
# 2 -0.000387 0.021374 0.000477 0.000000 0.002799 0.000000
# 3 -0.005362 0.000477 0.030346 0.000000 0.012806 0.000000
# 4 0.000000 0.000000 0.000000 0.055416 0.000000 -0.001377
# 5 -0.002723 0.002799 0.012806 0.000000 0.024729 0.000000
# 6 0.000000 0.000000 0.000000 -0.001377 0.000000 0.027661
#
#
# Mechanical properties :
#
#
# Convention : Reuss Voigt Hill
#
# Bulk Modulus (GPa) = 19.88309 29.33575 24.60942
# Shear Modulus (GPa) = 25.51625 34.17188 29.84406
#
# Velocity S-wave (km/s) = 3.18602 3.68701 3.44563
# Velocity P-wave (km/s) = 4.63078 5.45854 5.06161
#
# Compressibility (1/GPa) = 0.05029400
#
# Stress axis : x y z
#
# Youngs Moduli (GPa) = 109.67602 46.78500 32.95295
#
# Poissons Ratio (x) = 0.01811 0.17668
# Poissons Ratio (y) = 0.04246 -0.01570
# Poissons Ratio (z) = 0.58803 -0.02229
#
# Static dielectric constant tensor:
#      x y z
#    x 2.047400 0.000000 -0.086020 
#    y 0.000000 2.066720 0.000000 
#    z -0.086020 0.000000 2.081750 
# 
# From -- ./inp_files/26723.got.cif
#   From: 2010.05.17/outbox.cif.g08.bks.cpg/sg9_14_cif.got.tgz:26723.got - 2010.06.03 20:04:27.
