data_PCOD9139190
_publ_section_title
;
Structure prediction by ZEFSAII (Michael W. Deem and Ramdas Pophale) SiO2 
 PCOD9139190
Probable space group: C C
;
_chemical_formula_sum "Si O2"
_cell_formula_units_Z 32
_cell_length_a 8.102336
_cell_length_b 14.628022
_cell_length_c 11.775514
_cell_angle_alpha 90.000000
_cell_angle_beta 69.373194
_cell_angle_gamma 90.000000
_cell_volume 1306.179226
_symmetry_space_group_name_H-M "C C"
_symmetry_group_IT_number 9
_symmetry_cell_setting 'monoclinic'
loop_
_space_group_symop_operation_xyz
x,y,z
x,-y,1/2+z
1/2+x,1/2+y,z
1/2+x,1/2-y,1/2+z
loop_
_atom_site_type_symbol
_atom_site_label
_atom_site_fract_x
_atom_site_fract_y
_atom_site_fract_z
Si Si1 0.363520 0.410400 0.561610
Si Si2 0.775861 0.430385 0.140863
Si Si3 0.064122 0.966555 0.867613
Si Si4 0.477851 0.180614 0.773330
Si Si5 0.758090 0.860153 0.832637
Si Si6 0.010815 0.597564 0.014526
Si Si7 0.891978 0.284733 0.965079
Si Si8 0.301974 0.202213 0.242369
O O1 0.523697 0.477858 0.491905
O O2 0.286438 0.412523 0.706787
O O3 0.205186 0.428732 0.510801
O O4 0.425144 0.305828 0.529279
O O5 0.609954 0.460758 0.257236
O O6 0.923257 0.392711 0.193656
O O7 0.866621 0.518033 0.062180
O O8 0.744349 0.347107 0.061555
O O9 0.219019 0.892419 0.813201
O O10 0.890149 0.907859 0.886583
O O11 0.322608 0.255478 0.808863
O O12 0.655191 0.239302 0.712920
O O13 0.500931 0.134591 0.890059
O O14 0.557387 0.852855 0.917042
O O15 0.952871 0.675587 0.118546
O O16 0.858324 0.250924 0.845471
#
# Coordination Sequence:
#
# PCOD9139190 Si02
#       8
#     4   4   4   4   4   4   4   4
#     4  12  24  45  70 103 138 182 232 289 347 415
#     4  11  26  42  72 103 138 189 225 295 350 417
#     4  10  26  44  69 103 136 179 233 288 350 409
#     4  11  24  46  69 104 136 187 234 282 356 414
#     4  11  25  46  71 105 139 184 234 290 352 417
#     4  11  25  43  70 102 142 179 231 292 350 417
#     4  12  24  44  71  99 143 178 236 279 350 415
#     4  10  24  46  68 101 138 184 229 287 347 418
#
# _framework density 24.498933999999998
#
# number of rings (size 3 to 8) (size 9 to 14) (size 15 to 20)
#    0.000    1.000    3.750    1.500    7.000    4.000 
#    0.000    0.000    0.000    0.000    0.000    0.000 
#    0.000    0.000    0.000    0.000    0.000    0.000 
#
# Total GULP energy -89566.428488 kJ/mol
# GULP energy per Si atom -5597.901780 kJ/mol
# Density = 2.444317 g / cm^3
# Si number density = 24.498934 Si / 1000 Ang^3
#
#
#
# Elastic Constant Matrix: (Units=GPa)
#
#
# Indices 1 2 3 4 5 6 
#
# 1 55.4210 0.2211 4.1180 0.0000 -2.4405 0.0000
# 2 0.2211 68.6300 15.8262 0.0000 -10.1258 0.0000
# 3 4.1180 15.8262 63.3040 0.0000 4.2420 0.0000
# 4 0.0000 0.0000 0.0000 23.1035 0.0000 2.8948
# 5 -2.4405 -10.1258 4.2420 0.0000 39.2947 0.0000
# 6 0.0000 0.0000 0.0000 2.8948 0.0000 17.0207
#
#
#
# Elastic Compliance Matrix: (Units=1/GPa)
#
#
# Indices 1 2 3 4 5 6 
#
# 1 0.018207 0.000470 -0.001396 0.000000 0.001403 0.000000
# 2 0.000470 0.016281 -0.004416 0.000000 0.004701 0.000000
# 3 -0.001396 -0.004416 0.017198 0.000000 -0.003081 0.000000
# 4 0.000000 0.000000 0.000000 0.044226 0.000000 -0.007522
# 5 0.001403 0.004701 -0.003081 0.000000 0.027080 0.000000
# 6 0.000000 0.000000 0.000000 -0.007522 0.000000 0.060031
#
#
# Mechanical properties :
#
#
# Convention : Reuss Voigt Hill
#
# Bulk Modulus (GPa) = 24.38833 25.29841 24.84337
# Shear Modulus (GPa) = 24.11090 27.02977 25.57034
#
# Velocity S-wave (km/s) = 3.14054 3.32521 3.23419
# Velocity P-wave (km/s) = 4.80906 5.00913 4.91012
#
# Compressibility (1/GPa) = 0.04100321
#
# Stress axis : x y z
#
# Youngs Moduli (GPa) = 54.92297 61.41992 58.14596
#
# Poissons Ratio (x) = -0.02888 0.08117
# Poissons Ratio (y) = -0.02583 0.25677
# Poissons Ratio (z) = 0.07667 0.27123
#
# Static dielectric constant tensor:
#      x y z
#    x 1.925330 0.000000 0.018820 
#    y 0.000000 1.953090 0.000000 
#    z 0.018820 0.000000 1.916260 
# 
# From -- ./inp_files/14563.got.cif
#   From: 2010.05.17/outbox.cif.g08.bks.cpg/sg9_8_cif.got.tgz:14563.got - 2010.06.03 20:04:27.
