data_PCOD9139203
_publ_section_title
;
Structure prediction by ZEFSAII (Michael W. Deem and Ramdas Pophale) SiO2 
 PCOD9139203
Probable space group: C C
;
_chemical_formula_sum "Si O2"
_cell_formula_units_Z 28
_cell_length_a 5.091213
_cell_length_b 21.827525
_cell_length_c 10.136753
_cell_angle_alpha 90.000000
_cell_angle_beta 107.768913
_cell_angle_gamma 90.000000
_cell_volume 1072.744216
_symmetry_space_group_name_H-M "C C"
_symmetry_group_IT_number 9
_symmetry_cell_setting 'monoclinic'
loop_
_space_group_symop_operation_xyz
x,y,z
x,-y,1/2+z
1/2+x,1/2+y,z
1/2+x,1/2-y,1/2+z
loop_
_atom_site_type_symbol
_atom_site_label
_atom_site_fract_x
_atom_site_fract_y
_atom_site_fract_z
Si Si1 0.081510 0.866790 0.419470
Si Si2 0.958494 0.471203 0.376674
Si Si3 0.733586 0.593616 0.211327
Si Si4 0.969432 0.131918 0.613924
Si Si5 0.014539 0.555605 0.617107
Si Si6 0.767913 0.175554 0.213724
Si Si7 0.440093 0.759006 0.465059
O O1 0.052271 0.906984 0.547157
O O2 0.187567 0.799972 0.477355
O O3 0.909838 0.854526 0.260935
O O4 0.323921 0.905446 0.382740
O O5 0.782524 0.527272 0.283436
O O6 0.012644 0.493882 0.532220
O O7 0.157080 0.459641 0.281137
O O8 0.534446 0.633581 0.271053
O O9 0.009341 0.634010 0.224632
O O10 0.685967 0.097098 0.542485
O O11 0.986365 0.195642 0.545122
O O12 0.222554 0.087627 0.607540
O O13 0.688761 0.197419 0.052935
O O14 0.849304 0.237343 0.306137
#
# Coordination Sequence:
#
# PCOD9139203 Si02
#       7
#     4   4   4   4   4   4   4
#     4  10  24  46  70 108 142 190 236 298 368 428
#     4  11  23  50  70 108 146 189 244 305 362 441
#     4  11  25  46  73 106 142 190 245 302 366 432
#     4  11  25  46  73 106 142 190 245 302 366 432
#     4  11  26  44  76 103 144 192 242 302 369 431
#     4  11  26  44  76 103 144 192 242 302 369 431
#     4  11  23  50  70 108 146 189 244 305 362 441
#
# _framework density 26.101284
#
# number of rings (size 3 to 8) (size 9 to 14) (size 15 to 20)
#    0.000    1.143    2.857    1.714    0.000   13.714 
#    0.000    0.000    0.000    0.000    0.000    0.000 
#    0.000    0.000    0.000    0.000    0.000    0.000 
#
# Total GULP energy -77967.087042 kJ/mol
# GULP energy per Si atom -5569.077646 kJ/mol
# Density = 2.604188 g / cm^3
# Si number density = 26.101284 Si / 1000 Ang^3
#
#
#
# Elastic Constant Matrix: (Units=GPa)
#
#
# Indices 1 2 3 4 5 6 
#
# 1 117.6560 46.7522 1.3112 0.0000 -15.7413 0.0000
# 2 46.7522 97.9050 -17.8768 0.0000 5.5500 0.0000
# 3 1.3112 -17.8768 90.4733 0.0000 -1.4921 0.0000
# 4 0.0000 0.0000 0.0000 90.5899 0.0000 -67.5510
# 5 -15.7413 5.5500 -1.4921 0.0000 16.9033 0.0000
# 6 0.0000 0.0000 0.0000 -67.5510 0.0000 127.6275
#
#
#
# Elastic Compliance Matrix: (Units=1/GPa)
#
#
# Indices 1 2 3 4 5 6 
#
# 1 0.013524 -0.007569 -0.001445 0.000000 0.014952 0.000000
# 2 -0.007569 0.015020 0.002884 0.000000 -0.011726 0.000000
# 3 -0.001445 0.002884 0.011623 0.000000 -0.001267 0.000000
# 4 0.000000 0.000000 0.000000 0.018236 0.000000 0.009652
# 5 0.014952 -0.011726 -0.001267 0.000000 0.076822 0.000000
# 6 0.000000 0.000000 0.000000 0.009652 0.000000 0.012944
#
#
# Mechanical properties :
#
#
# Convention : Reuss Voigt Hill
#
# Bulk Modulus (GPa) = 35.83469 40.71195 38.27332
# Shear Modulus (GPa) = 29.45831 65.41398 47.43614
#
# Velocity S-wave (km/s) = 3.36313 5.01159 4.26771
# Velocity P-wave (km/s) = 5.37027 7.00853 6.24337
#
# Compressibility (1/GPa) = 0.02790592
#
# Stress axis : x y z
#
# Youngs Moduli (GPa) = 73.94460 66.57841 86.03690
#
# Poissons Ratio (x) = 0.50395 0.12433
# Poissons Ratio (y) = 0.55971 -0.24814
# Poissons Ratio (z) = 0.10685 -0.19202
#
# Static dielectric constant tensor:
#      x y z
#    x 2.299270 0.000000 0.225750 
#    y 0.000000 0.845270 0.000000 
#    z 0.225750 0.000000 2.271570 
# 
# From -- ./inp_files/13230.got.cif
#   From: 2010.05.17/outbox.cif.g08.bks.cpg/sg9_7_cif.got.tgz:13230.got - 2010.06.03 20:04:27.
