data_PCOD9139652
_publ_section_title
;
Structure prediction by ZEFSAII (Michael W. Deem and Ramdas Pophale) SiO2 
 PCOD9139652
Probable space group: C C
;
_chemical_formula_sum "Si O2"
_cell_formula_units_Z 20
_cell_length_a 12.315948
_cell_length_b 9.389476
_cell_length_c 9.005644
_cell_angle_alpha 90.000000
_cell_angle_beta 40.695863
_cell_angle_gamma 90.000000
_cell_volume 679.048283
_symmetry_space_group_name_H-M "C C"
_symmetry_group_IT_number 9
_symmetry_cell_setting 'monoclinic'
loop_
_space_group_symop_operation_xyz
x,y,z
x,-y,1/2+z
1/2+x,1/2+y,z
1/2+x,1/2-y,1/2+z
loop_
_atom_site_type_symbol
_atom_site_label
_atom_site_fract_x
_atom_site_fract_y
_atom_site_fract_z
Si Si1 0.438550 0.254003 0.820500
Si Si2 0.753071 0.039885 0.717829
Si Si3 0.614659 0.434936 0.867319
Si Si4 0.582774 0.749959 0.841911
Si Si5 0.925807 0.427898 0.759287
O O1 0.491342 0.257321 0.595388
O O2 0.414998 0.081849 0.855299
O O3 0.300930 0.369925 0.019470
O O4 0.585127 0.320488 0.769457
O O5 0.716652 0.877010 0.714040
O O6 0.926192 0.059195 0.629032
O O7 0.588805 0.077098 0.982190
O O8 0.465462 0.194989 0.333800
O O9 0.644944 0.589267 0.763214
O O10 0.762929 0.595425 0.326695
#
# Coordination Sequence:
#
# PCOD9139652 Si02
#       5
#     4   4   4   4   4
#     4   9  25  54  89 131 190 237 304 393 459 552
#     4   9  25  51  90 130 187 240 302 383 468 552
#     4  10  26  54  90 130 190 241 300 389 472 549
#     4  11  25  49  96 139 179 248 321 379 464 570
#     4  11  25  54  97 132 182 248 313 376 473 561
#
# _framework density 29.45299
#
# number of rings (size 3 to 8) (size 9 to 14) (size 15 to 20)
#    1.200    0.800    0.000    0.000    8.400    4.800 
#    7.200    8.000    8.800    0.000    0.000    0.000 
#    0.000    0.000    0.000    0.000    0.000    0.000 
#
# Total GULP energy -56045.133169 kJ/mol
# GULP energy per Si atom -5604.513317 kJ/mol
# Density = 2.938595 g / cm^3
# Si number density = 29.452990 Si / 1000 Ang^3
#
#
#
# Elastic Constant Matrix: (Units=GPa)
#
#
# Indices 1 2 3 4 5 6 
#
# 1 313.7662 126.5354 114.4076 0.0000 -24.3713 0.0000
# 2 126.5354 253.8222 119.0878 0.0000 15.9534 0.0000
# 3 114.4076 119.0878 224.6581 0.0000 -7.5802 0.0000
# 4 0.0000 0.0000 0.0000 83.9180 0.0000 3.2755
# 5 -24.3713 15.9534 -7.5802 0.0000 65.1765 0.0000
# 6 0.0000 0.0000 0.0000 3.2755 0.0000 23.9417
#
#
#
# Elastic Compliance Matrix: (Units=1/GPa)
#
#
# Indices 1 2 3 4 5 6 
#
# 1 0.004529 -0.001772 -0.001301 0.000000 0.001976 0.000000
# 2 -0.001772 0.006112 -0.002420 0.000000 -0.002440 0.000000
# 3 -0.001301 -0.002420 0.006425 0.000000 0.000853 0.000000
# 4 0.000000 0.000000 0.000000 0.011980 0.000000 -0.001639
# 5 0.001976 -0.002440 0.000853 0.000000 0.016778 0.000000
# 6 0.000000 0.000000 0.000000 -0.001639 0.000000 0.041992
#
#
# Mechanical properties :
#
#
# Convention : Reuss Voigt Hill
#
# Bulk Modulus (GPa) = 164.43188 168.03423 166.23305
# Shear Modulus (GPa) = 49.58883 63.42160 56.50521
#
# Velocity S-wave (km/s) = 4.10769 4.64542 4.38481
# Velocity P-wave (km/s) = 8.85705 9.27085 9.06631
#
# Compressibility (1/GPa) = 0.00608155
#
# Stress axis : x y z
#
# Youngs Moduli (GPa) = 220.77800 163.61893 155.64217
#
# Poissons Ratio (x) = 0.28993 0.20244
# Poissons Ratio (y) = 0.39122 0.37661
# Poissons Ratio (z) = 0.28715 0.39591
#
# Static dielectric constant tensor:
#      x y z
#    x 2.346170 0.000000 -0.117370 
#    y 0.000000 2.298270 0.000000 
#    z -0.117370 0.000000 2.481300 
# 
# From -- ./inp_files/27695.got.cif
#   From: 2010.05.17/outbox.cif.g08.bks.cpg/sg9_14_cif.got.tgz:27695.got - 2010.06.03 20:04:27.
