data_PCOD9139973
_publ_section_title
;
Structure prediction by ZEFSAII (Michael W. Deem and Ramdas Pophale) SiO2 
 PCOD9139973
Probable space group: C C
;
_chemical_formula_sum "Si O2"
_cell_formula_units_Z 28
_cell_length_a 13.701472
_cell_length_b 5.217089
_cell_length_c 18.026526
_cell_angle_alpha 90.000000
_cell_angle_beta 100.004446
_cell_angle_gamma 90.000000
_cell_volume 1268.974888
_symmetry_space_group_name_H-M "C C"
_symmetry_group_IT_number 9
_symmetry_cell_setting 'monoclinic'
loop_
_space_group_symop_operation_xyz
x,y,z
x,-y,1/2+z
1/2+x,1/2+y,z
1/2+x,1/2-y,1/2+z
loop_
_atom_site_type_symbol
_atom_site_label
_atom_site_fract_x
_atom_site_fract_y
_atom_site_fract_z
Si Si1 0.530100 0.264510 0.831870
Si Si2 0.588653 0.806276 0.594377
Si Si3 0.613581 0.252996 0.269075
Si Si4 0.096805 0.935765 0.479592
Si Si5 0.423145 0.144261 0.500721
Si Si6 0.817406 0.742229 0.874833
Si Si7 0.754113 0.997865 0.000986
O O1 0.550021 0.493679 0.777033
O O2 0.589441 0.347064 0.915461
O O3 0.414605 0.270805 0.837740
O O4 0.568746 0.993710 0.806051
O O5 0.616679 0.811350 0.682925
O O6 0.569629 0.525623 0.558727
O O7 0.678503 0.876613 0.550100
O O8 0.491685 0.973666 0.563899
O O9 0.722166 0.325983 0.314149
O O10 0.198422 0.781317 0.495101
O O11 0.002645 0.755231 0.451928
O O12 0.357181 0.356669 0.534260
O O13 0.355449 0.953746 0.443212
O O14 0.779742 0.992903 0.915569
#
# Coordination Sequence:
#
# PCOD9139973 Si02
#       7
#     4   4   4   4   4   4   4
#     4  12  26  49  76 112 152 202 252 316 384 464
#     4  11  26  48  71 107 157 203 246 329 395 457
#     4  12  31  48  76 109 163 196 249 322 396 454
#     4  11  22  43  77 104 148 199 261 316 378 457
#     4  11  23  43  75 111 147 194 261 317 380 458
#     4  12  25  44  76 114 139 197 260 311 379 458
#     4  11  23  41  75 109 142 197 259 313 372 466
#
# _framework density 22.065054
#
# number of rings (size 3 to 8) (size 9 to 14) (size 15 to 20)
#    0.000    0.571    4.286    2.571    6.000    1.143 
#    2.571    0.000    3.143    0.000    0.000    0.000 
#    0.000    0.000    0.000    0.000    0.000    0.000 
#
# Total GULP energy -77938.252879 kJ/mol
# GULP energy per Si atom -5567.018063 kJ/mol
# Density = 2.201483 g / cm^3
# Si number density = 22.065054 Si / 1000 Ang^3
#
#
#
# Elastic Constant Matrix: (Units=GPa)
#
#
# Indices 1 2 3 4 5 6 
#
# 1 172.6942 85.5144 61.2803 0.0000 -10.0517 0.0000
# 2 85.5144 32.0871 -7.9670 0.0000 -19.0889 0.0000
# 3 61.2803 -7.9670 100.5654 0.0000 -9.4527 0.0000
# 4 0.0000 0.0000 0.0000 10.2158 0.0000 3.5122
# 5 -10.0517 -19.0889 -9.4527 0.0000 22.0231 0.0000
# 6 0.0000 0.0000 0.0000 3.5122 0.0000 33.6850
#
#
#
# Elastic Compliance Matrix: (Units=1/GPa)
#
#
# Indices 1 2 3 4 5 6 
#
# 1 -0.002241 0.015072 0.003846 0.000000 0.013692 0.000000
# 2 0.015072 -0.023475 -0.012827 0.000000 -0.018974 0.000000
# 3 0.003846 -0.012827 0.005943 0.000000 -0.006812 0.000000
# 4 0.000000 0.000000 0.000000 0.101527 0.000000 -0.010586
# 5 0.013692 -0.018974 -0.006812 0.000000 0.032286 0.000000
# 6 0.000000 0.000000 0.000000 -0.010586 0.000000 0.030791
#
#
# Mechanical properties :
#
#
# Convention : Reuss Voigt Hill
#
# Bulk Modulus (GPa) = -131.73724 64.77800 -33.47962
# Shear Modulus (GPa) = 38.42623 24.28605 31.35614
#
# Velocity S-wave (km/s) = 4.17765 3.32121 3.77381
# Velocity P-wave (km/s) = 6.04676 6.64295 1.94493
#
# Compressibility (1/GPa) = -0.00759087
#
# Stress axis : x y z
#
# Youngs Moduli (GPa) = -446.31363 -42.59793 168.25118
#
# Poissons Ratio (x) = 0.64203 -0.64715
# Poissons Ratio (y) = 6.72677 2.15823
# Poissons Ratio (z) = 1.71667 -0.54642
#
# Static dielectric constant tensor:
#      x y z
#    x 1.898130 0.000000 0.040100 
#    y 0.000000 2.060280 0.000000 
#    z 0.040100 0.000000 1.790970 
# 
# From -- ./inp_files/30300.got.cif
#   From: 2010.05.17/outbox.cif.g08.bks.cpg/sg9_16_cif.got.tgz:30300.got - 2010.06.03 20:04:27.
