data_PCOD9139784
_publ_section_title
;
Structure prediction by ZEFSAII (Michael W. Deem and Ramdas Pophale) SiO2 
 PCOD9139784
Probable space group: C C
;
_chemical_formula_sum "Si O2"
_cell_formula_units_Z 32
_cell_length_a 20.280256
_cell_length_b 12.117680
_cell_length_c 18.114450
_cell_angle_alpha 90.000000
_cell_angle_beta 20.459579
_cell_angle_gamma 90.000000
_cell_volume 1556.048078
_symmetry_space_group_name_H-M "C C"
_symmetry_group_IT_number 9
_symmetry_cell_setting 'monoclinic'
loop_
_space_group_symop_operation_xyz
x,y,z
x,-y,1/2+z
1/2+x,1/2+y,z
1/2+x,1/2-y,1/2+z
loop_
_atom_site_type_symbol
_atom_site_label
_atom_site_fract_x
_atom_site_fract_y
_atom_site_fract_z
Si Si1 0.335890 0.126714 0.861530
Si Si2 0.978123 0.926426 0.513897
Si Si3 0.936269 0.633083 0.925269
Si Si4 0.852892 0.131509 0.552870
Si Si5 0.239828 0.635047 0.405743
Si Si6 0.776568 0.168473 0.085124
Si Si7 0.973618 0.982961 0.785629
Si Si8 0.344422 0.894561 0.057099
O O1 0.416185 0.158389 0.859219
O O2 0.243004 0.235428 0.923338
O O3 0.524328 0.099040 0.618559
O O4 0.180223 0.030469 0.032709
O O5 0.875436 0.891909 0.695626
O O6 0.892639 0.852251 0.538025
O O7 0.201612 0.897879 0.276652
O O8 0.917890 0.051148 0.551088
O O9 0.144118 0.610197 0.739770
O O10 0.864958 0.737077 0.047493
O O11 0.827674 0.518911 0.047579
O O12 0.981349 0.097361 0.348570
O O13 0.324657 0.567760 0.385155
O O14 0.566765 0.128961 0.325604
O O15 0.773611 0.299345 0.075643
O O16 0.883132 0.096470 0.911301
#
# Coordination Sequence:
#
# PCOD9139784 Si02
#       8
#     4   4   4   4   4   4   4   4
#     4  12  22  37  65 100 132 172 223 283 339 389
#     4  11  26  41  63  98 139 176 218 275 340 408
#     4  12  20  39  72  98 129 164 232 291 333 386
#     4  11  21  40  65 103 128 164 224 284 335 395
#     4  12  24  39  63  99 140 176 219 277 341 406
#     4  11  24  40  63  94 136 170 231 269 336 400
#     4  11  22  41  59  96 131 169 219 277 335 395
#     4  12  23  41  66 100 131 181 218 282 337 397
#
# _framework density 20.564919
#
# number of rings (size 3 to 8) (size 9 to 14) (size 15 to 20)
#    0.000    0.500    7.500    3.000    1.750    1.000 
#    0.000    0.000    0.000    6.000    0.000    0.000 
#    0.000    0.000    0.000    0.000    0.000    0.000 
#
# Total GULP energy -89248.463893 kJ/mol
# GULP energy per Si atom -5578.028993 kJ/mol
# Density = 2.051811 g / cm^3
# Si number density = 20.564919 Si / 1000 Ang^3
#
#
#
# Elastic Constant Matrix: (Units=GPa)
#
#
# Indices 1 2 3 4 5 6 
#
# 1 34.0055 17.3322 31.1482 0.0003 -1.5625 -0.0001
# 2 17.3322 130.2965 83.1510 0.0012 -1.2881 -0.0004
# 3 31.1482 83.1510 146.1665 -0.0050 3.0741 0.0024
# 4 0.0003 0.0012 -0.0050 27.7420 0.0018 -2.3957
# 5 -1.5625 -1.2881 3.0741 0.0018 33.5970 -0.0007
# 6 -0.0001 -0.0004 0.0024 -2.3957 -0.0007 16.2068
#
#
#
# Elastic Compliance Matrix: (Units=1/GPa)
#
#
# Indices 1 2 3 4 5 6 
#
# 1 0.036742 0.000261 -0.008030 -0.000002 0.002454 0.000001
# 2 0.000261 0.012091 -0.006957 -0.000002 0.001112 0.000001
# 3 -0.008030 -0.006957 0.012548 0.000003 -0.001788 -0.000002
# 4 -0.000002 -0.000002 0.000003 0.036513 -0.000002 0.005397
# 5 0.002454 0.001112 -0.001788 -0.000002 0.030085 0.000001
# 6 0.000001 0.000001 -0.000002 0.005397 0.000001 0.062500
#
#
# Mechanical properties :
#
#
# Convention : Reuss Voigt Hill
#
# Bulk Modulus (GPa) = 31.31960 63.74793 47.53377
# Shear Modulus (GPa) = 21.68502 27.43163 24.55832
#
# Velocity S-wave (km/s) = 3.25078 3.65623 3.45945
# Velocity P-wave (km/s) = 5.41782 6.99212 6.25470
#
# Compressibility (1/GPa) = 0.03192889
#
# Stress axis : x y z
#
# Youngs Moduli (GPa) = 27.21698 82.70596 79.69257
#
# Poissons Ratio (x) = -0.02161 0.63992
# Poissons Ratio (y) = -0.00711 0.55445
# Poissons Ratio (z) = 0.21855 0.57542
#
# Static dielectric constant tensor:
#      x y z
#    x 1.730250 0.000000 -0.050370 
#    y 0.000000 1.793180 0.000000 
#    z -0.050370 0.000000 1.844680 
# 
# From -- ./inp_files/31313.got.cif
#   From: 2010.05.17/outbox.cif.g08.bks.cpg/sg9_16_cif.got.tgz:31313.got - 2010.06.03 20:04:27.
