data_PCOD9139942
_publ_section_title
;
Structure prediction by ZEFSAII (Michael W. Deem and Ramdas Pophale) SiO2 
 PCOD9139942
Probable space group: C C
;
_chemical_formula_sum "Si O2"
_cell_formula_units_Z 28
_cell_length_a 12.001896
_cell_length_b 19.520589
_cell_length_c 6.855009
_cell_angle_alpha 90.000000
_cell_angle_beta 47.815407
_cell_angle_gamma 90.000000
_cell_volume 1190.036654
_symmetry_space_group_name_H-M "C C"
_symmetry_group_IT_number 9
_symmetry_cell_setting 'monoclinic'
loop_
_space_group_symop_operation_xyz
x,y,z
x,-y,1/2+z
1/2+x,1/2+y,z
1/2+x,1/2-y,1/2+z
loop_
_atom_site_type_symbol
_atom_site_label
_atom_site_fract_x
_atom_site_fract_y
_atom_site_fract_z
Si Si1 0.831260 0.733853 0.046130
Si Si2 0.502082 0.361608 0.323202
Si Si3 0.539612 0.777573 0.628201
Si Si4 0.039380 0.052922 0.392084
Si Si5 0.508780 0.859276 0.045395
Si Si6 0.307968 0.385905 0.917767
Si Si7 0.220563 0.081280 0.815764
O O1 0.669387 0.743094 0.340886
O O2 0.926413 0.694607 0.100191
O O3 0.858887 0.814436 0.960702
O O4 0.890085 0.694489 0.783661
O O5 0.453736 0.286319 0.324228
O O6 0.392472 0.391322 0.613418
O O7 0.664433 0.359062 0.237945
O O8 0.513400 0.407753 0.121434
O O9 0.577012 0.827245 0.764794
O O10 0.877604 0.054031 0.471091
O O11 0.134936 0.985311 0.331430
O O12 0.148322 0.092132 0.113087
O O13 0.398724 0.921590 0.117289
O O14 0.635433 0.879004 0.054211
#
# Coordination Sequence:
#
# PCOD9139942 Si02
#       7
#     4   4   4   4   4   4   4
#     4  12  24  41  65 108 152 195 235 297 378 457
#     4  11  22  42  72 101 143 194 244 289 369 451
#     4  12  24  40  70 108 151 197 232 293 384 446
#     4  11  23  47  76  99 135 196 261 300 368 438
#     4  12  27  44  68 113 156 187 248 314 374 439
#     4  11  25  43  67 105 149 191 243 311 368 440
#     4  11  25  45  74 102 138 194 255 310 357 441
#
# _framework density 23.528684999999999
#
# number of rings (size 3 to 8) (size 9 to 14) (size 15 to 20)
#    0.000    0.571    5.714    2.571    4.000    0.000 
#    0.000    2.857    0.000    0.000    0.000    0.000 
#    0.000    0.000    0.000    0.000    0.000    0.000 
#
# Total GULP energy -78068.313745 kJ/mol
# GULP energy per Si atom -5576.308125 kJ/mol
# Density = 2.347513 g / cm^3
# Si number density = 23.528685 Si / 1000 Ang^3
#
#
#
# Elastic Constant Matrix: (Units=GPa)
#
#
# Indices 1 2 3 4 5 6 
#
# 1 141.3776 32.1797 52.7609 0.0000 -4.5267 0.0000
# 2 32.1797 65.6639 18.1806 0.0000 2.1885 0.0000
# 3 52.7609 18.1806 126.8814 0.0000 13.4323 0.0000
# 4 0.0000 0.0000 0.0000 28.9846 0.0000 6.0762
# 5 -4.5267 2.1885 13.4323 0.0000 44.8753 0.0000
# 6 0.0000 0.0000 0.0000 6.0762 0.0000 30.3770
#
#
#
# Elastic Compliance Matrix: (Units=1/GPa)
#
#
# Indices 1 2 3 4 5 6 
#
# 1 0.009309 -0.003644 -0.003580 0.000000 0.002188 0.000000
# 2 -0.003644 0.017285 -0.000861 0.000000 -0.000953 0.000000
# 3 -0.003580 -0.000861 0.009839 0.000000 -0.003264 0.000000
# 4 0.000000 0.000000 0.000000 0.036011 0.000000 -0.007203
# 5 0.002188 -0.000953 -0.003264 0.000000 0.023528 0.000000
# 6 0.000000 0.000000 0.000000 -0.007203 0.000000 0.034360
#
#
# Mechanical properties :
#
#
# Convention : Reuss Voigt Hill
#
# Bulk Modulus (GPa) = 49.35057 60.01838 54.68448
# Shear Modulus (GPa) = 32.62503 36.23417 34.42960
#
# Velocity S-wave (km/s) = 3.72776 3.92854 3.82946
# Velocity P-wave (km/s) = 6.28875 6.79278 6.54562
#
# Compressibility (1/GPa) = 0.02026319
#
# Stress axis : x y z
#
# Youngs Moduli (GPa) = 107.42446 57.85452 101.63474
#
# Poissons Ratio (x) = 0.21080 0.36390
# Poissons Ratio (y) = 0.39141 0.08748
# Poissons Ratio (z) = 0.38463 0.04980
#
# Static dielectric constant tensor:
#      x y z
#    x 2.017680 0.000000 -0.011400 
#    y 0.000000 1.968240 0.000000 
#    z -0.011400 0.000000 1.892750 
# 
# From -- ./inp_files/2022.got.cif
#   From: 2010.05.17/outbox.cif.g08.bks.cpg/sg9_2_cif.got.tgz:2022.got - 2010.06.03 20:04:27.
