data_PCOD9139175
_publ_section_title
;
Structure prediction by ZEFSAII (Michael W. Deem and Ramdas Pophale) SiO2 
 PCOD9139175
Probable space group: C C
;
_chemical_formula_sum "Si O2"
_cell_formula_units_Z 32
_cell_length_a 13.255480
_cell_length_b 8.802506
_cell_length_c 11.320487
_cell_angle_alpha 90.000000
_cell_angle_beta 76.194936
_cell_angle_gamma 90.000000
_cell_volume 1282.734435
_symmetry_space_group_name_H-M "C C"
_symmetry_group_IT_number 9
_symmetry_cell_setting 'monoclinic'
loop_
_space_group_symop_operation_xyz
x,y,z
x,-y,1/2+z
1/2+x,1/2+y,z
1/2+x,1/2-y,1/2+z
loop_
_atom_site_type_symbol
_atom_site_label
_atom_site_fract_x
_atom_site_fract_y
_atom_site_fract_z
Si Si1 0.232820 0.661956 0.567260
Si Si2 0.844145 0.741910 0.620309
Si Si3 0.828602 0.408430 0.716993
Si Si4 0.821033 0.984928 0.830715
Si Si5 0.700470 0.758363 0.434328
Si Si6 0.547467 0.581367 0.769154
Si Si7 0.068330 0.119012 0.025687
Si Si8 0.573563 0.117249 0.154793
O O1 0.292177 0.772254 0.641118
O O2 0.319435 0.586777 0.460714
O O3 0.166606 0.772073 0.501972
O O4 0.148077 0.531500 0.630456
O O5 0.812626 0.572758 0.664929
O O6 0.822377 0.858433 0.731532
O O7 0.776949 0.775699 0.524495
O O8 0.965407 0.775100 0.559829
O O9 0.752658 0.379734 0.849506
O O10 0.952020 0.415206 0.707208
O O11 0.721154 0.091704 0.851181
O O12 0.922950 0.087222 0.788371
O O13 0.589881 0.790091 0.525626
O O14 0.577377 0.475489 0.647735
O O15 0.596141 0.748384 0.741931
O O16 0.562979 0.531673 0.901411
#
# Coordination Sequence:
#
# PCOD9139175 Si02
#       8
#     4   4   4   4   4   4   4   4
#     4  11  28  47  76 114 156 207 272 331 421 495
#     4  11  25  48  75 109 158 203 266 339 409 488
#     4  12  27  51  75 116 159 208 268 349 403 503
#     4  10  24  45  76 108 153 203 257 333 408 482
#     4  11  26  47  76 112 152 206 269 330 419 492
#     4  11  25  46  81 107 163 202 270 334 415 485
#     4  11  25  49  73 117 152 216 265 341 411 503
#     4  11  26  49  76 115 153 215 263 337 412 504
#
# _framework density 24.946704
#
# number of rings (size 3 to 8) (size 9 to 14) (size 15 to 20)
#    0.000    1.000    3.750    0.000   10.500    2.000 
#    4.500    0.000    0.000    0.000    0.000    0.000 
#    0.000    0.000    0.000    0.000    0.000    0.000 
#
# Total GULP energy -89362.439050 kJ/mol
# GULP energy per Si atom -5585.152441 kJ/mol
# Density = 2.488992 g / cm^3
# Si number density = 24.946704 Si / 1000 Ang^3
#
#
#
# Elastic Constant Matrix: (Units=GPa)
#
#
# Indices 1 2 3 4 5 6 
#
# 1 82.9324 14.0789 25.1508 0.0000 -3.5159 0.0000
# 2 14.0789 104.7186 50.5922 0.0000 9.2801 0.0000
# 3 25.1508 50.5922 129.7358 0.0000 12.3018 0.0000
# 4 0.0000 0.0000 0.0000 44.1521 0.0000 -1.4982
# 5 -3.5159 9.2801 12.3018 0.0000 42.2681 0.0000
# 6 0.0000 0.0000 0.0000 -1.4982 0.0000 44.9821
#
#
#
# Elastic Compliance Matrix: (Units=1/GPa)
#
#
# Indices 1 2 3 4 5 6 
#
# 1 0.013000 -0.000756 -0.002410 0.000000 0.001949 0.000000
# 2 -0.000756 0.011878 -0.004352 0.000000 -0.001404 0.000000
# 3 -0.002410 -0.004352 0.010079 0.000000 -0.002178 0.000000
# 4 0.000000 0.000000 0.000000 0.022675 0.000000 0.000755
# 5 0.001949 -0.001404 -0.002178 0.000000 0.024763 0.000000
# 6 0.000000 0.000000 0.000000 0.000755 0.000000 0.022256
#
#
# Mechanical properties :
#
#
# Convention : Reuss Voigt Hill
#
# Bulk Modulus (GPa) = 50.20080 55.22563 52.71321
# Shear Modulus (GPa) = 39.57953 41.45145 40.51549
#
# Velocity S-wave (km/s) = 3.98749 4.08070 4.03436
# Velocity P-wave (km/s) = 6.43172 6.66245 6.54810
#
# Compressibility (1/GPa) = 0.01992000
#
# Stress axis : x y z
#
# Youngs Moduli (GPa) = 76.92364 84.18778 99.21608
#
# Poissons Ratio (x) = 0.06365 0.23912
# Poissons Ratio (y) = 0.05816 0.43182
# Poissons Ratio (z) = 0.18540 0.36641
#
# Static dielectric constant tensor:
#      x y z
#    x 1.951650 0.000000 -0.019310 
#    y 0.000000 2.041840 0.000000 
#    z -0.019310 0.000000 2.075400 
# 
# From -- ./inp_files/17827.got.cif
#   From: 2010.05.17/outbox.cif.g08.bks.cpg/sg9_9_cif.got.tgz:17827.got - 2010.06.03 20:04:27.
