data_PCOD9139869
_publ_section_title
;
Structure prediction by ZEFSAII (Michael W. Deem and Ramdas Pophale) SiO2 
 PCOD9139869
Probable space group: C C
;
_chemical_formula_sum "Si O2"
_cell_formula_units_Z 28
_cell_length_a 21.846943
_cell_length_b 9.047184
_cell_length_c 10.564521
_cell_angle_alpha 90.000000
_cell_angle_beta 30.267590
_cell_angle_gamma 90.000000
_cell_volume 1052.490497
_symmetry_space_group_name_H-M "C C"
_symmetry_group_IT_number 9
_symmetry_cell_setting 'monoclinic'
loop_
_space_group_symop_operation_xyz
x,y,z
x,-y,1/2+z
1/2+x,1/2+y,z
1/2+x,1/2-y,1/2+z
loop_
_atom_site_type_symbol
_atom_site_label
_atom_site_fract_x
_atom_site_fract_y
_atom_site_fract_z
Si Si1 0.229870 0.859666 0.474790
Si Si2 0.535281 0.768015 0.117353
Si Si3 0.144384 0.601240 0.767764
Si Si4 0.679799 0.801295 0.591161
Si Si5 0.429661 0.723036 0.955853
Si Si6 0.892100 0.434408 0.804315
Si Si7 0.338036 0.595897 0.612525
O O1 0.133432 0.798319 0.544332
O O2 0.191656 0.764882 0.662702
O O3 0.263147 0.020682 0.471425
O O4 0.361661 0.814933 0.185834
O O5 0.461001 0.927204 0.255019
O O6 0.423180 0.659175 0.348386
O O7 0.611299 0.764462 0.849447
O O8 0.184480 0.481138 0.594786
O O9 0.211087 0.548721 0.775055
O O10 0.000994 0.604631 0.017478
O O11 0.572239 0.747750 0.691515
O O12 0.804317 0.791247 0.285201
O O13 0.373945 0.793961 0.928009
O O14 0.404436 0.554191 0.031868
#
# Coordination Sequence:
#
# PCOD9139869 Si02
#       7
#     4   4   4   4   4   4   4
#     4  12  24  49  77 112 163 209 274 340 406 500
#     4  11  26  51  78 116 168 214 279 343 415 503
#     4  11  21  47  78 108 152 213 268 329 405 493
#     4  11  23  46  85 115 153 220 274 332 416 494
#     4  12  23  46  78 116 156 207 278 341 400 495
#     4  11  24  46  80 111 159 221 266 330 422 480
#     4  12  25  49  82 118 165 212 275 347 416 489
#
# _framework density 26.603567000000002
#
# number of rings (size 3 to 8) (size 9 to 14) (size 15 to 20)
#    0.000    0.571    7.143    2.571    0.000    0.000 
#   15.429    0.000    0.000    0.000    0.000    0.000 
#    0.000    0.000    0.000    0.000    0.000    0.000 
#
# Total GULP energy -78044.173230 kJ/mol
# GULP energy per Si atom -5574.583802 kJ/mol
# Density = 2.654302 g / cm^3
# Si number density = 26.603567 Si / 1000 Ang^3
#
#
#
# Elastic Constant Matrix: (Units=GPa)
#
#
# Indices 1 2 3 4 5 6 
#
# 1 98.8314 25.0652 36.0068 0.0000 -13.9225 0.0000
# 2 25.0652 12.9724 28.8318 0.0000 3.1625 0.0000
# 3 36.0068 28.8318 103.3554 0.0000 -6.2389 0.0000
# 4 0.0000 0.0000 0.0000 55.6754 0.0000 -2.4169
# 5 -13.9225 3.1625 -6.2389 0.0000 57.9264 0.0000
# 6 0.0000 0.0000 0.0000 -2.4169 0.0000 42.5346
#
#
#
# Elastic Compliance Matrix: (Units=1/GPa)
#
#
# Indices 1 2 3 4 5 6 
#
# 1 0.037045 -0.131548 0.024924 0.000000 0.018770 0.000000
# 2 -0.131548 0.688775 -0.151474 0.000000 -0.085536 0.000000
# 3 0.024924 -0.151474 0.044397 0.000000 0.019042 0.000000
# 4 0.000000 0.000000 0.000000 0.018006 0.000000 0.001023
# 5 0.018770 -0.085536 0.019042 0.000000 0.028495 0.000000
# 6 0.000000 0.000000 0.000000 0.001023 0.000000 0.023568
#
#
# Mechanical properties :
#
#
# Convention : Reuss Voigt Hill
#
# Bulk Modulus (GPa) = 3.93670 43.88520 23.91095
# Shear Modulus (GPa) = 3.46944 39.57762 21.52353
#
# Velocity S-wave (km/s) = 1.14322 3.86123 2.84746
# Velocity P-wave (km/s) = 1.79599 6.03412 4.45175
#
# Compressibility (1/GPa) = 0.25402009
#
# Stress axis : x y z
#
# Youngs Moduli (GPa) = 26.99432 1.45185 22.52424
#
# Poissons Ratio (x) = 0.19099 -0.56139
# Poissons Ratio (y) = 3.55106 3.41183
# Poissons Ratio (z) = -0.67280 0.21992
#
# Static dielectric constant tensor:
#      x y z
#    x 2.251320 0.000000 -0.001280 
#    y 0.000000 2.142890 0.000000 
#    z -0.001280 0.000000 2.053330 
# 
# From -- ./inp_files/20796.got.cif
#   From: 2010.05.17/outbox.cif.g08.bks.cpg/sg9_11_cif.got.tgz:20796.got - 2010.06.03 20:04:27.
