data_PCOD9139247
_publ_section_title
;
Structure prediction by ZEFSAII (Michael W. Deem and Ramdas Pophale) SiO2 
 PCOD9139247
Probable space group: C C
;
_chemical_formula_sum "Si O2"
_cell_formula_units_Z 24
_cell_length_a 13.195038
_cell_length_b 8.597619
_cell_length_c 18.021367
_cell_angle_alpha 90.000000
_cell_angle_beta 24.308371
_cell_angle_gamma 90.000000
_cell_volume 841.592907
_symmetry_space_group_name_H-M "C C"
_symmetry_group_IT_number 9
_symmetry_cell_setting 'monoclinic'
loop_
_space_group_symop_operation_xyz
x,y,z
x,-y,1/2+z
1/2+x,1/2+y,z
1/2+x,1/2-y,1/2+z
loop_
_atom_site_type_symbol
_atom_site_label
_atom_site_fract_x
_atom_site_fract_y
_atom_site_fract_z
Si Si1 0.217050 0.939253 0.254010
Si Si2 0.632544 0.056218 0.779979
Si Si3 0.148833 0.223221 0.949311
Si Si4 0.972073 0.766246 0.308255
Si Si5 0.525772 0.782567 0.498888
Si Si6 0.077804 0.941086 0.641732
O O1 0.240646 0.883159 0.321610
O O2 0.967460 0.884255 0.381765
O O3 0.313695 0.110075 0.177323
O O4 0.427889 0.835450 0.071809
O O5 0.859818 0.136319 0.585643
O O6 0.663828 0.107095 0.846715
O O7 0.084420 0.608956 0.269768
O O8 0.354640 0.123893 0.962154
O O9 0.371210 0.339588 0.822112
O O10 0.032704 0.106933 0.086560
O O11 0.721362 0.733118 0.431023
O O12 0.093199 0.887228 0.167068
#
# Coordination Sequence:
#
# PCOD9139247 Si02
#       6
#     4   4   4   4   4   4
#     4  11  24  48  84 133 177 238 298 374 452 551
#     4  12  30  54  85 129 180 238 310 375 448 543
#     4  10  24  46  92 131 185 232 303 374 456 547
#     4  12  29  51  92 128 186 239 304 369 463 540
#     4  12  29  55  87 132 183 239 308 375 456 544
#     4  11  24  52  86 135 179 242 297 373 461 543
#
# _framework density 28.51735
#
# number of rings (size 3 to 8) (size 9 to 14) (size 15 to 20)
#    0.000    0.667    3.333    2.000    4.667    2.667 
#    0.000    0.000    0.000    0.000    0.000    0.000 
#    0.000    0.000    0.000    0.000    0.000    0.000 
#
# Total GULP energy -67036.000585 kJ/mol
# GULP energy per Si atom -5586.333382 kJ/mol
# Density = 2.845244 g / cm^3
# Si number density = 28.517350 Si / 1000 Ang^3
#
#
#
# Elastic Constant Matrix: (Units=GPa)
#
#
# Indices 1 2 3 4 5 6 
#
# 1 139.9512 114.9755 31.3495 -0.0002 3.1697 -0.0010
# 2 114.9755 216.4927 82.6830 0.0063 -3.0084 -0.0027
# 3 31.3495 82.6830 129.7115 0.0012 -0.9346 -0.0019
# 4 -0.0002 0.0063 0.0012 71.6273 0.0042 1.6156
# 5 3.1697 -3.0084 -0.9346 0.0042 52.9981 -0.0002
# 6 -0.0010 -0.0027 -0.0019 1.6156 -0.0002 58.6555
#
#
#
# Elastic Compliance Matrix: (Units=1/GPa)
#
#
# Indices 1 2 3 4 5 6 
#
# 1 0.013013 -0.007564 0.001668 0.000001 -0.001178 0.000000
# 2 -0.007564 0.010507 -0.004862 -0.000001 0.000963 0.000000
# 3 0.001668 -0.004862 0.010404 0.000000 -0.000192 0.000000
# 4 0.000001 -0.000001 0.000000 0.013970 -0.000001 -0.000385
# 5 -0.001178 0.000963 -0.000192 -0.000001 0.018990 0.000000
# 6 0.000000 0.000000 0.000000 -0.000385 0.000000 0.017059
#
#
# Mechanical properties :
#
#
# Convention : Reuss Voigt Hill
#
# Bulk Modulus (GPa) = 80.59902 104.90796 92.75349
# Shear Modulus (GPa) = 45.62225 53.79935 49.71080
#
# Velocity S-wave (km/s) = 4.00410 4.34815 4.17967
# Velocity P-wave (km/s) = 7.04993 7.87882 7.47588
#
# Compressibility (1/GPa) = 0.01240710
#
# Stress axis : x y z
#
# Youngs Moduli (GPa) = 76.84755 95.17643 96.11487
#
# Poissons Ratio (x) = 0.71995 -0.16035
# Poissons Ratio (y) = 0.58131 0.46734
# Poissons Ratio (z) = -0.12821 0.46277
#
# Static dielectric constant tensor:
#      x y z
#    x 2.476700 0.000000 0.039500 
#    y 0.000000 2.289960 0.000010 
#    z 0.039500 0.000010 2.243640 
# 
# From -- ./inp_files/8877.got.cif
#   From: 2010.05.17/outbox.cif.g08.bks.cpg/sg9_5_cif.got.tgz:8877.got - 2010.06.03 20:04:27.
