data_PCOD9139763
_publ_section_title
;
Structure prediction by ZEFSAII (Michael W. Deem and Ramdas Pophale) SiO2 
 PCOD9139763
Probable space group: C C
;
_chemical_formula_sum "Si O2"
_cell_formula_units_Z 32
_cell_length_a 6.871923
_cell_length_b 20.052961
_cell_length_c 11.671722
_cell_angle_alpha 90.000000
_cell_angle_beta 125.019466
_cell_angle_gamma 90.000000
_cell_volume 1317.203558
_symmetry_space_group_name_H-M "C C"
_symmetry_group_IT_number 9
_symmetry_cell_setting 'monoclinic'
loop_
_space_group_symop_operation_xyz
x,y,z
x,-y,1/2+z
1/2+x,1/2+y,z
1/2+x,1/2-y,1/2+z
loop_
_atom_site_type_symbol
_atom_site_label
_atom_site_fract_x
_atom_site_fract_y
_atom_site_fract_z
Si Si1 0.946540 0.559496 0.253330
Si Si2 0.973518 0.791958 0.005100
Si Si3 0.368986 0.153985 0.033124
Si Si4 0.527817 0.803420 0.196804
Si Si5 0.309060 0.464052 0.664623
Si Si6 0.434560 0.669283 0.236014
Si Si7 0.446754 0.920390 0.349520
Si Si8 0.242990 0.392475 0.071618
O O1 0.809136 0.615301 0.129646
O O2 0.848291 0.484945 0.247528
O O3 0.153670 0.544507 0.228291
O O4 0.057735 0.589687 0.406773
O O5 0.888332 0.808948 0.850523
O O6 0.814769 0.731897 0.002609
O O7 0.952094 0.854976 0.078485
O O8 0.253749 0.784203 0.085842
O O9 0.656161 0.159935 0.106172
O O10 0.285983 0.110662 0.897063
O O11 0.610354 0.727254 0.250043
O O12 0.531203 0.858075 0.300065
O O13 0.632000 0.841469 0.124580
O O14 0.514556 0.407902 0.746731
O O15 0.339650 0.542431 0.666421
O O16 0.168631 0.450813 0.497179
#
# Coordination Sequence:
#
# PCOD9139763 Si02
#       8
#     4   4   4   4   4   4   4   4
#     4   9  16  33  59  84 114 151 201 236 288 361
#     4  11  21  38  60  84 124 157 190 256 305 350
#     4   9  18  33  59  83 111 164 191 235 313 347
#     4  11  22  35  60  93 113 151 204 243 295 360
#     4   9  18  34  65  84 113 170 192 239 311 357
#     4   9  18  38  58  81 124 157 191 243 307 350
#     4   9  16  31  57  83 113 152 194 237 291 357
#     4  11  21  38  64  88 116 158 207 241 296 366
#
# _framework density 24.293890000000001
#
# number of rings (size 3 to 8) (size 9 to 14) (size 15 to 20)
#    0.000    2.500    5.000    0.000    0.000    0.000 
#    2.250    2.500    0.000    0.000    0.000    0.000 
#    0.000    0.000    0.000    0.000    0.000    0.000 
#
# Total GULP energy -89072.680896 kJ/mol
# GULP energy per Si atom -5567.042556 kJ/mol
# Density = 2.423860 g / cm^3
# Si number density = 24.293890 Si / 1000 Ang^3
#
#
#
# Elastic Constant Matrix: (Units=GPa)
#
#
# Indices 1 2 3 4 5 6 
#
# 1 33.3828 16.3751 15.4571 0.0000 -11.9206 0.0000
# 2 16.3751 215.7797 48.6612 0.0000 -30.7965 0.0000
# 3 15.4571 48.6612 103.4774 0.0000 -27.5491 0.0000
# 4 0.0000 0.0000 0.0000 13.6514 0.0000 -12.0905
# 5 -11.9206 -30.7965 -27.5491 0.0000 33.6980 0.0000
# 6 0.0000 0.0000 0.0000 -12.0905 0.0000 32.7955
#
#
#
# Elastic Compliance Matrix: (Units=1/GPa)
#
#
# Indices 1 2 3 4 5 6 
#
# 1 0.034865 -0.000737 -0.002246 0.000000 0.009823 0.000000
# 2 -0.000737 0.005546 -0.001557 0.000000 0.003535 0.000000
# 3 -0.002246 -0.001557 0.012963 0.000000 0.008380 0.000000
# 4 0.000000 0.000000 0.000000 0.108765 0.000000 0.040098
# 5 0.009823 0.003535 0.008380 0.000000 0.043232 0.000000
# 6 0.000000 0.000000 0.000000 0.040098 0.000000 0.045275
#
#
# Mechanical properties :
#
#
# Convention : Reuss Voigt Hill
#
# Bulk Modulus (GPa) = 22.57674 57.06963 39.82319
# Shear Modulus (GPa) = 18.21562 34.17209 26.19386
#
# Velocity S-wave (km/s) = 2.74122 3.75455 3.28717
# Velocity P-wave (km/s) = 4.39687 6.50676 5.55294
#
# Compressibility (1/GPa) = 0.04429337
#
# Stress axis : x y z
#
# Youngs Moduli (GPa) = 28.68204 180.31398 77.14518
#
# Poissons Ratio (x) = 0.13295 0.17326
# Poissons Ratio (y) = 0.02115 0.12010
# Poissons Ratio (z) = 0.06442 0.28071
#
# Static dielectric constant tensor:
#      x y z
#    x 1.989830 0.000000 0.070140 
#    y 0.000000 2.512750 0.000000 
#    z 0.070140 0.000000 1.991060 
# 
# From -- ./inp_files/15117.got.cif
#   From: 2010.05.17/outbox.cif.g08.bks.cpg/sg9_8_cif.got.tgz:15117.got - 2010.06.03 20:04:27.
