data_PCOD9139237
_publ_section_title
;
Structure prediction by ZEFSAII (Michael W. Deem and Ramdas Pophale) SiO2 
 PCOD9139237
Probable space group: C C
;
_chemical_formula_sum "Si O2"
_cell_formula_units_Z 28
_cell_length_a 22.054786
_cell_length_b 4.990459
_cell_length_c 10.447846
_cell_angle_alpha 90.000000
_cell_angle_beta 118.741404
_cell_angle_gamma 90.000000
_cell_volume 1008.254346
_symmetry_space_group_name_H-M "C C"
_symmetry_group_IT_number 9
_symmetry_cell_setting 'monoclinic'
loop_
_space_group_symop_operation_xyz
x,y,z
x,-y,1/2+z
1/2+x,1/2+y,z
1/2+x,1/2-y,1/2+z
loop_
_atom_site_type_symbol
_atom_site_label
_atom_site_fract_x
_atom_site_fract_y
_atom_site_fract_z
Si Si1 0.527630 0.881788 0.150820
Si Si2 0.120125 0.331613 0.552901
Si Si3 0.038119 0.886081 0.311533
Si Si4 0.733575 0.522152 0.767381
Si Si5 0.885195 0.988151 0.748690
Si Si6 0.741357 0.799053 0.513667
Si Si7 0.380436 0.988686 0.913344
O O1 0.563675 0.976801 0.058121
O O2 0.553297 0.082347 0.287377
O O3 0.540252 0.571691 0.186757
O O4 0.445384 0.926565 0.066142
O O5 0.085447 0.069032 0.451789
O O6 0.179707 0.457521 0.521611
O O7 0.169170 0.217717 0.716840
O O8 0.957378 0.902363 0.269065
O O9 0.744070 0.549920 0.622380
O O10 0.809337 0.602970 0.897477
O O11 0.719386 0.276688 0.848094
O O12 0.818005 0.921450 0.595806
O O13 0.904196 0.711155 0.837191
O O14 0.861355 0.209987 0.826659
#
# Coordination Sequence:
#
# PCOD9139237 Si02
#       7
#     4   4   4   4   4   4   4
#     4  12  26  46  76 111 151 205 257 321 391 470
#     4  10  24  46  74 110 162 202 256 318 391 478
#     4  12  26  46  75 110 152 201 262 317 393 466
#     4   9  21  45  77 109 156 201 261 317 394 462
#     4  11  23  46  75 109 146 198 259 325 385 459
#     4   9  21  45  71 115 147 207 252 323 380 471
#     4  11  23  46  74 110 146 198 261 323 390 456
#
# _framework density 27.770772000000001
#
# number of rings (size 3 to 8) (size 9 to 14) (size 15 to 20)
#    0.857    0.571    1.429    3.429    0.000    1.143 
#    7.714    4.286    0.000    0.000    0.000    0.000 
#    0.000    0.000    0.000    0.000    0.000    0.000 
#
# Total GULP energy -78287.115157 kJ/mol
# GULP energy per Si atom -5591.936797 kJ/mol
# Density = 2.770756 g / cm^3
# Si number density = 27.770772 Si / 1000 Ang^3
#
#
#
# Elastic Constant Matrix: (Units=GPa)
#
#
# Indices 1 2 3 4 5 6 
#
# 1 136.6796 -5.9517 23.9404 0.0000 24.6359 0.0000
# 2 -5.9517 87.4658 24.6043 0.0000 -2.3326 0.0000
# 3 23.9404 24.6043 92.5995 0.0000 10.0245 0.0000
# 4 0.0000 0.0000 0.0000 38.1370 0.0000 -0.6458
# 5 24.6359 -2.3326 10.0245 0.0000 57.6141 0.0000
# 6 0.0000 0.0000 0.0000 -0.6458 0.0000 36.1130
#
#
#
# Elastic Compliance Matrix: (Units=1/GPa)
#
#
# Indices 1 2 3 4 5 6 
#
# 1 0.008295 0.001068 -0.002088 0.000000 -0.003140 0.000000
# 2 0.001068 0.012562 -0.003689 0.000000 0.000694 0.000000
# 3 -0.002088 -0.003689 0.012474 0.000000 -0.001427 0.000000
# 4 0.000000 0.000000 0.000000 0.026229 0.000000 0.000469
# 5 -0.003140 0.000694 -0.001427 0.000000 0.018976 0.000000
# 6 0.000000 0.000000 0.000000 0.000469 0.000000 0.027699
#
#
# Mechanical properties :
#
#
# Convention : Reuss Voigt Hill
#
# Bulk Modulus (GPa) = 41.82018 44.65898 43.23958
# Shear Modulus (GPa) = 40.44524 44.64962 42.54743
#
# Velocity S-wave (km/s) = 3.82042 4.01408 3.91844
# Velocity P-wave (km/s) = 5.87814 6.13188 6.00635
#
# Compressibility (1/GPa) = 0.02391190
#
# Stress axis : x y z
#
# Youngs Moduli (GPa) = 120.55904 79.60539 80.16819
#
# Poissons Ratio (x) = -0.08503 0.16742
# Poissons Ratio (y) = -0.12877 0.29574
# Poissons Ratio (z) = 0.25177 0.29367
#
# Static dielectric constant tensor:
#      x y z
#    x 2.154110 0.000000 -0.043690 
#    y 0.000000 2.143950 0.000000 
#    z -0.043690 0.000000 2.257660 
# 
# From -- ./inp_files/20515.got.cif
#   From: 2010.05.17/outbox.cif.g08.bks.cpg/sg9_11_cif.got.tgz:20515.got - 2010.06.03 20:04:27.
