data_PCOD9139873
_publ_section_title
;
Structure prediction by ZEFSAII (Michael W. Deem and Ramdas Pophale) SiO2 
 PCOD9139873
Probable space group: C C
;
_chemical_formula_sum "Si O2"
_cell_formula_units_Z 28
_cell_length_a 10.304618
_cell_length_b 10.452144
_cell_length_c 9.332545
_cell_angle_alpha 90.000000
_cell_angle_beta 91.920374
_cell_angle_gamma 90.000000
_cell_volume 1004.600499
_symmetry_space_group_name_H-M "C C"
_symmetry_group_IT_number 9
_symmetry_cell_setting 'monoclinic'
loop_
_space_group_symop_operation_xyz
x,y,z
x,-y,1/2+z
1/2+x,1/2+y,z
1/2+x,1/2-y,1/2+z
loop_
_atom_site_type_symbol
_atom_site_label
_atom_site_fract_x
_atom_site_fract_y
_atom_site_fract_z
Si Si1 0.613330 0.987647 0.973140
Si Si2 0.926929 0.163259 0.252026
Si Si3 0.829665 0.441021 0.417981
Si Si4 0.545403 0.511343 0.509900
Si Si5 0.166558 0.344759 0.238448
Si Si6 0.645353 0.234688 0.169829
Si Si7 0.378745 0.151230 0.214409
O O1 0.667326 0.020220 0.819138
O O2 0.787063 0.768158 0.745909
O O3 0.648074 0.123708 0.050234
O O4 0.673315 0.878860 0.071984
O O5 0.953345 0.066373 0.382611
O O6 0.030277 0.278377 0.269232
O O7 0.968276 0.085813 0.110300
O O8 0.277456 0.246589 0.282958
O O9 0.839350 0.507603 0.259241
O O10 0.863417 0.333305 0.541228
O O11 0.957377 0.525925 0.474913
O O12 0.022333 0.695826 0.261492
O O13 0.602308 0.631148 0.601283
O O14 0.676299 0.454661 0.444677
#
# Coordination Sequence:
#
# PCOD9139873 Si02
#       7
#     4   4   4   4   4   4   4
#     4  11  25  46  83 108 166 208 281 334 421 500
#     4  12  28  52  87 119 173 217 285 356 422 504
#     4  11  21  48  79 114 153 213 260 343 402 502
#     4  12  25  55  83 123 168 221 283 346 428 503
#     4  12  25  52  76 118 154 221 274 347 418 508
#     4  11  27  51  77 123 166 219 270 345 413 507
#     4  11  25  48  81 113 162 209 271 331 418 494
#
# _framework density 27.871775
#
# number of rings (size 3 to 8) (size 9 to 14) (size 15 to 20)
#    0.000    0.571    4.286    2.571    2.000    4.571 
#    7.714    1.429    0.000    0.000    0.000    0.000 
#    0.000    0.000    0.000    0.000    0.000    0.000 
#
# Total GULP energy -78308.765697 kJ/mol
# GULP energy per Si atom -5593.483264 kJ/mol
# Density = 2.780834 g / cm^3
# Si number density = 27.871775 Si / 1000 Ang^3
#
#
#
# Elastic Constant Matrix: (Units=GPa)
#
#
# Indices 1 2 3 4 5 6 
#
# 1 198.9070 21.4269 25.6612 0.0000 6.3719 0.0000
# 2 21.4269 56.9314 8.1640 0.0000 -1.0407 0.0000
# 3 25.6612 8.1640 114.6451 0.0000 -11.3237 0.0000
# 4 0.0000 0.0000 0.0000 41.3625 0.0000 -5.2801
# 5 6.3719 -1.0407 -11.3237 0.0000 31.0081 0.0000
# 6 0.0000 0.0000 0.0000 -5.2801 0.0000 52.6435
#
#
#
# Elastic Compliance Matrix: (Units=1/GPa)
#
#
# Indices 1 2 3 4 5 6 
#
# 1 0.005445 -0.001901 -0.001245 0.000000 -0.001638 0.000000
# 2 -0.001901 0.018410 -0.000815 0.000000 0.000711 0.000000
# 3 -0.001245 -0.000815 0.009422 0.000000 0.003669 0.000000
# 4 0.000000 0.000000 0.000000 0.024490 0.000000 0.002456
# 5 -0.001638 0.000711 0.003669 0.000000 0.033950 0.000000
# 6 0.000000 0.000000 0.000000 0.002456 0.000000 0.019242
#
#
# Mechanical properties :
#
#
# Convention : Reuss Voigt Hill
#
# Bulk Modulus (GPa) = 39.44049 53.44309 46.44179
# Shear Modulus (GPa) = 39.26688 46.01825 42.64257
#
# Velocity S-wave (km/s) = 3.75752 4.06774 3.91571
# Velocity P-wave (km/s) = 5.74515 6.42482 6.09447
#
# Compressibility (1/GPa) = 0.02535466
#
# Stress axis : x y z
#
# Youngs Moduli (GPa) = 183.64334 54.31744 106.13716
#
# Poissons Ratio (x) = 0.10325 0.13216
# Poissons Ratio (y) = 0.34907 0.08654
# Poissons Ratio (z) = 0.22868 0.04429
#
# Static dielectric constant tensor:
#      x y z
#    x 2.107810 0.000000 0.040980 
#    y 0.000000 2.281350 0.000000 
#    z 0.040980 0.000000 2.374270 
# 
# From -- ./inp_files/10528.got.cif
#   From: 2010.05.17/outbox.cif.g08.bks.cpg/sg9_6_cif.got.tgz:10528.got - 2010.06.03 20:04:27.
