data_PCOD9139648
_publ_section_title
;
Structure prediction by ZEFSAII (Michael W. Deem and Ramdas Pophale) SiO2 
 PCOD9139648
Probable space group: C C
;
_chemical_formula_sum "Si O2"
_cell_formula_units_Z 16
_cell_length_a 14.603612
_cell_length_b 4.784197
_cell_length_c 8.018528
_cell_angle_alpha 90.000000
_cell_angle_beta 75.731493
_cell_angle_gamma 90.000000
_cell_volume 542.944696
_symmetry_space_group_name_H-M "C C"
_symmetry_group_IT_number 9
_symmetry_cell_setting 'monoclinic'
loop_
_space_group_symop_operation_xyz
x,y,z
x,-y,1/2+z
1/2+x,1/2+y,z
1/2+x,1/2-y,1/2+z
loop_
_atom_site_type_symbol
_atom_site_label
_atom_site_fract_x
_atom_site_fract_y
_atom_site_fract_z
Si Si1 0.350540 0.193049 0.416420
Si Si2 0.226579 0.577963 0.688543
Si Si3 0.607708 0.686552 0.958778
Si Si4 0.983298 0.807851 0.816371
O O1 0.304080 0.351034 0.594000
O O2 0.270972 0.227141 0.310179
O O3 0.402460 0.899702 0.415915
O O4 0.434558 0.393029 0.316195
O O5 0.194412 0.772678 0.549189
O O6 0.140864 0.382022 0.792680
O O7 0.522932 0.783148 0.118901
O O8 0.569144 0.395389 0.902380
#
# Coordination Sequence:
#
# PCOD9139648 Si02
#       4
#     4   4   4   4
#     4  11  27  51  82 121 166 217 273 339 411 490
#     4  10  26  52  86 123 166 216 276 340 412 490
#     4  11  27  51  84 121 166 217 274 339 412 490
#     4  12  28  52  80 119 166 218 271 336 411 490
#
# _framework density 29.468931999999999
#
# number of rings (size 3 to 8) (size 9 to 14) (size 15 to 20)
#    0.000    1.000    0.000    3.000    0.000   26.000 
#    0.000    2.500    0.000    0.000    0.000    0.000 
#    0.000    0.000    0.000    0.000    0.000    0.000 
#
# Total GULP energy -44916.396109 kJ/mol
# GULP energy per Si atom -5614.549514 kJ/mol
# Density = 2.940186 g / cm^3
# Si number density = 29.468932 Si / 1000 Ang^3
#
#
#
# Elastic Constant Matrix: (Units=GPa)
#
#
# Indices 1 2 3 4 5 6 
#
# 1 188.8777 80.5776 57.9325 0.0000 -7.8084 0.0000
# 2 80.5776 192.8219 65.6849 0.0000 -2.5882 0.0000
# 3 57.9325 65.6849 153.0222 0.0000 -12.2811 0.0000
# 4 0.0000 0.0000 0.0000 57.1091 0.0000 1.6430
# 5 -7.8084 -2.5882 -12.2811 0.0000 69.9838 0.0000
# 6 0.0000 0.0000 0.0000 1.6430 0.0000 75.4711
#
#
#
# Elastic Compliance Matrix: (Units=1/GPa)
#
#
# Indices 1 2 3 4 5 6 
#
# 1 0.006763 -0.002295 -0.001543 0.000000 0.000399 0.000000
# 2 -0.002295 0.006857 -0.002104 0.000000 -0.000372 0.000000
# 3 -0.001543 -0.002104 0.008117 0.000000 0.001174 0.000000
# 4 0.000000 0.000000 0.000000 0.017521 0.000000 -0.000381
# 5 0.000399 -0.000372 0.001174 0.000000 0.014526 0.000000
# 6 0.000000 0.000000 0.000000 -0.000381 0.000000 0.013258
#
#
# Mechanical properties :
#
#
# Convention : Reuss Voigt Hill
#
# Bulk Modulus (GPa) = 101.50598 104.79019 103.14809
# Shear Modulus (GPa) = 60.81788 62.54794 61.68291
#
# Velocity S-wave (km/s) = 4.54783 4.61206 4.58006
# Velocity P-wave (km/s) = 7.88016 7.99989 7.94025
#
# Compressibility (1/GPa) = 0.00985164
#
# Stress axis : x y z
#
# Youngs Moduli (GPa) = 147.85291 145.83337 123.20119
#
# Poissons Ratio (x) = 0.33473 0.19014
# Poissons Ratio (y) = 0.33936 0.25925
# Poissons Ratio (z) = 0.22818 0.30688
#
# Static dielectric constant tensor:
#      x y z
#    x 2.410060 0.000000 0.056850 
#    y 0.000000 2.183200 0.000000 
#    z 0.056850 0.000000 2.271900 
# 
# From -- ./inp_files/4606.got.cif
#   From: 2010.05.17/outbox.cif.g08.bks.cpg/sg9_3_cif.got.tgz:4606.got - 2010.06.03 20:04:27.
