data_PCOD9139898
_publ_section_title
;
Structure prediction by ZEFSAII (Michael W. Deem and Ramdas Pophale) SiO2 
 PCOD9139898
Probable space group: C C
;
_chemical_formula_sum "Si O2"
_cell_formula_units_Z 32
_cell_length_a 13.752130
_cell_length_b 12.902003
_cell_length_c 25.998366
_cell_angle_alpha 90.000000
_cell_angle_beta 164.630645
_cell_angle_gamma 90.000000
_cell_volume 1222.602512
_symmetry_space_group_name_H-M "C C"
_symmetry_group_IT_number 9
_symmetry_cell_setting 'monoclinic'
loop_
_space_group_symop_operation_xyz
x,y,z
x,-y,1/2+z
1/2+x,1/2+y,z
1/2+x,1/2-y,1/2+z
loop_
_atom_site_type_symbol
_atom_site_label
_atom_site_fract_x
_atom_site_fract_y
_atom_site_fract_z
Si Si1 0.402100 0.088396 0.445140
Si Si2 0.574269 0.864294 0.553404
Si Si3 0.206358 0.430945 0.430754
Si Si4 0.089680 0.450131 0.256782
Si Si5 0.865878 0.231407 0.290421
Si Si6 0.955145 0.634241 0.357030
Si Si7 0.197209 0.350795 0.204345
Si Si8 0.313779 0.331498 0.872006
O O1 0.550465 0.124579 0.465771
O O2 0.660034 0.107378 0.626906
O O3 0.993775 0.137423 0.244600
O O4 0.374582 0.963978 0.429966
O O5 0.363754 0.757289 0.438542
O O6 0.649427 0.861534 0.652288
O O7 0.296111 0.421823 0.415828
O O8 0.883654 0.346942 0.276030
O O9 0.527794 0.397057 0.632802
O O10 0.126131 0.548050 0.406832
O O11 0.251979 0.422410 0.283040
O O12 0.039034 0.573638 0.235873
O O13 0.704179 0.390520 0.064977
O O14 0.284988 0.192679 0.501786
O O15 0.743064 0.235501 0.285522
O O16 0.965736 0.752691 0.344717
#
# Coordination Sequence:
#
# PCOD9139898 Si02
#       8
#     4   4   4   4   4   4   4   4
#     4  11  22  43  67  93 131 171 227 268 326 397
#     4  11  22  41  64  93 128 176 210 272 325 384
#     4  11  22  40  65  95 130 172 217 267 325 393
#     4  11  22  42  66  97 129 170 219 264 327 398
#     4   9  19  37  63  87 125 169 216 253 325 381
#     4  11  23  39  64  94 129 173 219 270 328 383
#     4   9  22  39  67  93 125 176 214 268 326 387
#     4  11  22  41  66  94 129 171 214 268 324 385
#
# _framework density 26.173674999999999
#
# number of rings (size 3 to 8) (size 9 to 14) (size 15 to 20)
#    0.000    1.500    1.250    5.250    3.500    0.000 
#    2.250    2.500    0.000    0.000    0.000    0.000 
#    0.000    0.000    0.000    0.000    0.000    0.000 
#
# Total GULP energy -89438.035912 kJ/mol
# GULP energy per Si atom -5589.877245 kJ/mol
# Density = 2.611410 g / cm^3
# Si number density = 26.173675 Si / 1000 Ang^3
#
#
#
# Elastic Constant Matrix: (Units=GPa)
#
#
# Indices 1 2 3 4 5 6 
#
# 1 137.5108 56.5004 43.2325 0.0696 -46.6433 -0.0116
# 2 56.5004 153.8387 34.2851 0.0485 -11.2504 0.0338
# 3 43.2325 34.2851 66.6851 0.2593 -23.2232 -0.0005
# 4 0.0696 0.0485 0.2593 36.8640 0.0092 -1.1871
# 5 -46.6433 -11.2504 -23.2232 0.0092 32.5770 -0.0252
# 6 -0.0116 0.0338 -0.0005 -1.1871 -0.0252 40.6097
#
#
#
# Elastic Compliance Matrix: (Units=1/GPa)
#
#
# Indices 1 2 3 4 5 6 
#
# 1 0.016761 -0.004327 -0.001070 -0.000023 0.021741 0.000021
# 2 -0.004327 0.008460 -0.003571 0.000023 -0.005820 -0.000011
# 3 -0.001070 -0.003571 0.022033 -0.000151 0.012941 0.000007
# 4 -0.000023 0.000023 -0.000151 0.027153 -0.000140 0.000794
# 5 0.021741 -0.005820 0.012941 -0.000140 0.069041 0.000050
# 6 0.000021 -0.000011 0.000007 0.000794 0.000050 0.024648
#
#
# Mechanical properties :
#
#
# Convention : Reuss Voigt Hill
#
# Bulk Modulus (GPa) = 34.10959 69.56340 51.83649
# Shear Modulus (GPa) = 25.53552 36.94458 31.24005
#
# Velocity S-wave (km/s) = 3.12688 3.76109 3.45855
# Velocity P-wave (km/s) = 5.10850 6.74510 5.98303
#
# Compressibility (1/GPa) = 0.02931727
#
# Stress axis : x y z
#
# Youngs Moduli (GPa) = 59.66147 118.20528 45.38655
#
# Poissons Ratio (x) = 0.51153 0.04856
# Poissons Ratio (y) = 0.25818 0.16207
# Poissons Ratio (z) = 0.06384 0.42210
#
# Static dielectric constant tensor:
#      x y z
#    x 2.030040 0.000070 0.035870 
#    y 0.000070 2.048600 -0.000180 
#    z 0.035870 -0.000180 2.096850 
# 
# From -- ./inp_files/9233.got.cif
#   From: 2010.05.17/outbox.cif.g08.bks.cpg/sg9_5_cif.got.tgz:9233.got - 2010.06.03 20:04:27.
