data_PCOD9139029
_publ_section_title
;
Structure prediction by ZEFSAII (Michael W. Deem and Ramdas Pophale) SiO2 
 PCOD9139029
Probable space group: C C
;
_chemical_formula_sum "Si O2"
_cell_formula_units_Z 32
_cell_length_a 5.338990
_cell_length_b 26.434560
_cell_length_c 8.790870
_cell_angle_alpha 90.000000
_cell_angle_beta 104.514546
_cell_angle_gamma 90.000000
_cell_volume 1201.091554
_symmetry_space_group_name_H-M "C C"
_symmetry_group_IT_number 9
_symmetry_cell_setting 'monoclinic'
loop_
_space_group_symop_operation_xyz
x,y,z
x,-y,1/2+z
1/2+x,1/2+y,z
1/2+x,1/2-y,1/2+z
loop_
_atom_site_type_symbol
_atom_site_label
_atom_site_fract_x
_atom_site_fract_y
_atom_site_fract_z
Si Si1 0.602130 0.103938 0.766620
Si Si2 0.363491 0.386134 0.887697
Si Si3 0.068283 0.350759 0.582534
Si Si4 0.186785 0.526264 0.553838
Si Si5 0.628676 0.706510 0.179914
Si Si6 0.035025 0.687417 0.513687
Si Si7 0.216407 0.956224 0.761337
Si Si8 0.518464 0.546098 0.927280
O O1 0.566057 0.047501 0.692692
O O2 0.489729 0.140851 0.622209
O O3 0.913134 0.098608 0.846623
O O4 0.510529 0.122180 0.915339
O O5 0.121689 0.387133 0.734231
O O6 0.377204 0.428493 0.021386
O O7 0.588045 0.404724 0.807458
O O8 0.290016 0.333068 0.959809
O O9 0.342358 0.319051 0.625220
O O10 0.824487 0.316708 0.586573
O O11 0.306121 0.473321 0.519448
O O12 0.963208 0.534502 0.398343
O O13 0.592992 0.764747 0.127859
O O14 0.796346 0.699693 0.362737
O O15 0.246157 0.954432 0.584060
O O16 0.046024 0.005147 0.797551
#
# Coordination Sequence:
#
# PCOD9139029 Si02
#       8
#     4   4   4   4   4   4   4   4
#     4  11  23  44  68 105 142 186 245 296 356 434
#     4   9  22  41  68  95 136 179 231 288 350 421
#     4  11  25  47  74 109 143 189 235 296 360 434
#     4  10  24  44  62 100 138 185 238 293 355 421
#     4  11  26  50  75 107 148 189 235 300 372 430
#     4  10  24  47  73 103 143 185 240 296 365 434
#     4  11  23  41  67  93 137 188 231 297 358 420
#     4  11  23  42  63  98 139 183 239 290 358 426
#
# _framework density 26.642434000000002
#
# number of rings (size 3 to 8) (size 9 to 14) (size 15 to 20)
#    0.000    1.500    2.500    0.750    7.000    4.000 
#   11.250    0.000    0.000    0.000    0.000    0.000 
#    0.000    0.000    0.000    0.000    0.000    0.000 
#
# Total GULP energy -89275.911264 kJ/mol
# GULP energy per Si atom -5579.744454 kJ/mol
# Density = 2.658179 g / cm^3
# Si number density = 26.642434 Si / 1000 Ang^3
#
#
#
# Elastic Constant Matrix: (Units=GPa)
#
#
# Indices 1 2 3 4 5 6 
#
# 1 95.1317 42.0091 3.2955 0.0000 -1.3797 0.0000
# 2 42.0091 112.1040 51.3195 0.0000 -2.7010 0.0000
# 3 3.2955 51.3195 177.4784 0.0000 -21.7130 0.0000
# 4 0.0000 0.0000 0.0000 64.0158 0.0000 -5.8517
# 5 -1.3797 -2.7010 -21.7130 0.0000 30.7606 0.0000
# 6 0.0000 0.0000 0.0000 -5.8517 0.0000 39.4347
#
#
#
# Elastic Compliance Matrix: (Units=1/GPa)
#
#
# Indices 1 2 3 4 5 6 
#
# 1 0.012900 -0.005487 0.001487 0.000000 0.001147 0.000000
# 2 -0.005487 0.012664 -0.003781 0.000000 -0.001803 0.000000
# 3 0.001487 -0.003781 0.007298 0.000000 0.004886 0.000000
# 4 0.000000 0.000000 0.000000 0.015836 0.000000 0.002350
# 5 0.001147 -0.001803 0.004886 0.000000 0.035851 0.000000
# 6 0.000000 0.000000 0.000000 0.002350 0.000000 0.025707
#
#
# Mechanical properties :
#
#
# Convention : Reuss Voigt Hill
#
# Bulk Modulus (GPa) = 57.80069 64.21801 61.00935
# Shear Modulus (GPa) = 37.99866 46.04822 42.02344
#
# Velocity S-wave (km/s) = 3.78066 4.16189 3.97585
# Velocity P-wave (km/s) = 6.38749 6.87394 6.63517
#
# Compressibility (1/GPa) = 0.01730083
#
# Stress axis : x y z
#
# Youngs Moduli (GPa) = 77.51932 78.96517 137.02756
#
# Poissons Ratio (x) = 0.43331 -0.20383
# Poissons Ratio (y) = 0.42538 0.51803
# Poissons Ratio (z) = -0.11531 0.29853
#
# Static dielectric constant tensor:
#      x y z
#    x 2.302650 0.000000 0.053080 
#    y 0.000000 2.179390 0.000000 
#    z 0.053080 0.000000 2.157910 
# 
# From -- ./inp_files/4413.got.cif
#   From: 2010.05.17/outbox.cif.g08.bks.cpg/sg9_3_cif.got.tgz:4413.got - 2010.06.03 20:04:27.
