data_PCOD9139407
_publ_section_title
;
Structure prediction by ZEFSAII (Michael W. Deem and Ramdas Pophale) SiO2 
 PCOD9139407
Probable space group: C C
;
_chemical_formula_sum "Si O2"
_cell_formula_units_Z 32
_cell_length_a 13.512702
_cell_length_b 13.245062
_cell_length_c 19.061813
_cell_angle_alpha 90.000000
_cell_angle_beta 25.718159
_cell_angle_gamma 90.000000
_cell_volume 1480.453370
_symmetry_space_group_name_H-M "C C"
_symmetry_group_IT_number 9
_symmetry_cell_setting 'monoclinic'
loop_
_space_group_symop_operation_xyz
x,y,z
x,-y,1/2+z
1/2+x,1/2+y,z
1/2+x,1/2-y,1/2+z
loop_
_atom_site_type_symbol
_atom_site_label
_atom_site_fract_x
_atom_site_fract_y
_atom_site_fract_z
Si Si1 0.168050 0.453406 0.604280
Si Si2 0.481695 0.834159 0.487720
Si Si3 0.479123 0.258275 0.772230
Si Si4 0.025031 0.358539 0.104707
Si Si5 0.757764 0.649345 0.516159
Si Si6 0.907441 0.703078 0.191235
Si Si7 0.097553 0.832656 0.278094
Si Si8 0.511213 0.949696 0.336308
O O1 0.055503 0.539309 0.628615
O O2 0.407589 0.413830 0.422668
O O3 0.994658 0.360552 0.702094
O O4 0.189491 0.497243 0.669131
O O5 0.649391 0.740056 0.363937
O O6 0.469328 0.853099 0.578996
O O7 0.564664 0.923189 0.382993
O O8 0.224197 0.805730 0.631890
O O9 0.468328 0.224669 0.699218
O O10 0.455863 0.157768 0.835545
O O11 0.273270 0.332951 0.917222
O O12 0.826734 0.353637 0.174738
O O13 0.564559 0.697208 0.590445
O O14 0.658317 0.656746 0.658049
O O15 0.815106 0.534061 0.462661
O O16 0.978485 0.723804 0.369718
#
# Coordination Sequence:
#
# PCOD9139407 Si02
#       8
#     4   4   4   4   4   4   4   4
#     4  10  25  44  70 101 140 182 242 297 347 435
#     4  12  23  43  72 103 139 188 233 294 358 417
#     4  11  23  44  63 100 143 174 231 300 340 422
#     4  11  24  42  68  96 136 185 228 285 362 413
#     4  11  24  46  69 101 145 178 242 293 343 435
#     4  11  23  45  72 102 140 187 234 292 366 417
#     4  11  24  46  72 100 141 190 231 297 360 421
#     4  11  24  44  66  99 140 184 229 298 352 412
#
# _framework density 21.614999999999998
#
# number of rings (size 3 to 8) (size 9 to 14) (size 15 to 20)
#    0.000    1.000    2.500    4.500    3.500    2.000 
#    6.750    0.000    0.000    0.000    0.000    0.000 
#    0.000    0.000    0.000    0.000    0.000    0.000 
#
# Total GULP energy -89395.076979 kJ/mol
# GULP energy per Si atom -5587.192311 kJ/mol
# Density = 2.156580 g / cm^3
# Si number density = 21.615000 Si / 1000 Ang^3
#
#
#
# Elastic Constant Matrix: (Units=GPa)
#
#
# Indices 1 2 3 4 5 6 
#
# 1 87.4880 2.8412 31.7218 -0.0124 18.1955 -0.0078
# 2 2.8412 40.1447 18.0652 0.0069 5.9958 0.0131
# 3 31.7218 18.0652 110.5362 -0.0060 4.4678 0.0049
# 4 -0.0124 0.0069 -0.0060 33.6214 0.0093 10.3450
# 5 18.1955 5.9958 4.4678 0.0093 38.8067 0.0045
# 6 -0.0078 0.0131 0.0049 10.3450 0.0045 28.2568
#
#
#
# Elastic Compliance Matrix: (Units=1/GPa)
#
#
# Indices 1 2 3 4 5 6 
#
# 1 0.014207 0.001811 -0.004112 0.000005 -0.006468 0.000003
# 2 0.001811 0.027647 -0.004854 -0.000001 -0.004562 -0.000010
# 3 -0.004112 -0.004854 0.010963 0.000002 0.001416 -0.000002
# 4 0.000005 -0.000001 0.000002 0.033519 -0.000009 -0.012271
# 5 -0.006468 -0.004562 0.001416 -0.000009 0.029343 -0.000001
# 6 0.000003 -0.000010 -0.000002 -0.012271 -0.000001 0.039882
#
#
# Mechanical properties :
#
#
# Convention : Reuss Voigt Hill
#
# Bulk Modulus (GPa) = 25.96862 38.15838 32.06350
# Shear Modulus (GPa) = 27.36618 32.50636 29.93627
#
# Velocity S-wave (km/s) = 3.56205 3.88220 3.72556
# Velocity P-wave (km/s) = 5.38125 6.14713 5.77690
#
# Compressibility (1/GPa) = 0.03850802
#
# Stress axis : x y z
#
# Youngs Moduli (GPa) = 70.38609 36.16996 91.21719
#
# Poissons Ratio (x) = -0.06550 0.37506
# Poissons Ratio (y) = -0.12745 0.44274
# Poissons Ratio (z) = 0.28941 0.17556
#
# Static dielectric constant tensor:
#      x y z
#    x 1.780950 -0.000010 0.045540 
#    y -0.000010 1.792860 0.000000 
#    z 0.045540 0.000000 1.789220 
# 
# From -- ./inp_files/30158.got.cif
#   From: 2010.05.17/outbox.cif.g08.bks.cpg/sg9_16_cif.got.tgz:30158.got - 2010.06.03 20:04:27.
