data_PCOD9139779
_publ_section_title
;
Structure prediction by ZEFSAII (Michael W. Deem and Ramdas Pophale) SiO2 
 PCOD9139779
Probable space group: C C
;
_chemical_formula_sum "Si O2"
_cell_formula_units_Z 32
_cell_length_a 20.638372
_cell_length_b 5.374805
_cell_length_c 22.101001
_cell_angle_alpha 90.000000
_cell_angle_beta 29.078446
_cell_angle_gamma 90.000000
_cell_volume 1191.495204
_symmetry_space_group_name_H-M "C C"
_symmetry_group_IT_number 9
_symmetry_cell_setting 'monoclinic'
loop_
_space_group_symop_operation_xyz
x,y,z
x,-y,1/2+z
1/2+x,1/2+y,z
1/2+x,1/2-y,1/2+z
loop_
_atom_site_type_symbol
_atom_site_label
_atom_site_fract_x
_atom_site_fract_y
_atom_site_fract_z
Si Si1 0.142760 0.733608 0.366950
Si Si2 0.463610 0.271414 0.325648
Si Si3 0.455994 0.626216 0.481453
Si Si4 0.811022 0.722538 0.940385
Si Si5 0.363976 0.134053 0.755953
Si Si6 0.062778 0.326761 0.520954
Si Si7 0.165860 0.543133 0.734840
Si Si8 0.058122 0.019425 0.622384
O O1 0.238529 0.938516 0.316258
O O2 0.134375 0.559362 0.432220
O O3 0.217270 0.596170 0.252646
O O4 0.008067 0.841710 0.447696
O O5 0.383962 0.528667 0.404882
O O6 0.508719 0.325459 0.220119
O O7 0.366143 0.040573 0.419251
O O8 0.595787 0.168042 0.251369
O O9 0.487320 0.729049 0.523171
O O10 0.299007 0.658186 0.596994
O O11 0.557479 0.763610 0.351821
O O12 0.846117 0.697449 0.840570
O O13 0.651269 0.701855 0.074413
O O14 0.444544 0.389288 0.673681
O O15 0.462805 0.922362 0.653761
O O16 0.147635 0.159711 0.498212
#
# Coordination Sequence:
#
# PCOD9139779 Si02
#       8
#     4   4   4   4   4   4   4   4
#     4  11  24  41  72 115 157 209 271 339 414 490
#     4  11  28  52  76 113 155 212 274 338 402 495
#     4  11  25  48  79 118 162 215 276 347 419 497
#     4  11  26  47  77 110 155 209 269 335 417 480
#     4  11  22  41  67 109 154 202 262 332 409 487
#     4  11  21  39  70 112 153 212 256 343 405 495
#     4  11  27  51  80 114 160 220 279 342 416 496
#     4  11  25  43  73 109 158 207 267 338 412 490
#
# _framework density 26.857009000000001
#
# number of rings (size 3 to 8) (size 9 to 14) (size 15 to 20)
#    0.000    1.000    1.250    4.500    7.000    4.000 
#    4.500    0.000    0.000    0.000    0.000    0.000 
#    0.000    0.000    0.000    0.000    0.000    0.000 
#
# Total GULP energy -89304.246256 kJ/mol
# GULP energy per Si atom -5581.515391 kJ/mol
# Density = 2.679588 g / cm^3
# Si number density = 26.857009 Si / 1000 Ang^3
#
#
#
# Elastic Constant Matrix: (Units=GPa)
#
#
# Indices 1 2 3 4 5 6 
#
# 1 107.9015 43.0966 55.2048 -0.0184 -10.7675 0.0134
# 2 43.0966 123.0158 40.7920 -0.0463 -4.9444 0.0373
# 3 55.2048 40.7920 125.2484 -0.0104 -7.4988 0.0173
# 4 -0.0184 -0.0463 -0.0104 28.7926 0.0181 0.7784
# 5 -10.7675 -4.9444 -7.4988 0.0181 46.9205 -0.0137
# 6 0.0134 0.0373 0.0173 0.7784 -0.0137 55.3631
#
#
#
# Elastic Compliance Matrix: (Units=1/GPa)
#
#
# Indices 1 2 3 4 5 6 
#
# 1 0.013021 -0.002936 -0.004667 0.000001 0.001933 0.000001
# 2 -0.002936 0.009787 -0.001890 0.000013 0.000055 -0.000005
# 3 -0.004667 -0.001890 0.010683 -0.000002 0.000437 -0.000001
# 4 0.000001 0.000013 -0.000002 0.034744 -0.000012 -0.000489
# 5 0.001933 0.000055 0.000437 -0.000012 0.021832 0.000005
# 6 0.000001 -0.000005 -0.000001 -0.000489 0.000005 0.018069
#
#
# Mechanical properties :
#
#
# Convention : Reuss Voigt Hill
#
# Bulk Modulus (GPa) = 68.94684 70.48363 69.71523
# Shear Modulus (GPa) = 37.89078 40.68672 39.28875
#
# Velocity S-wave (km/s) = 3.76018 3.89644 3.82892
# Velocity P-wave (km/s) = 6.67679 6.82232 6.74995
#
# Compressibility (1/GPa) = 0.01450393
#
# Stress axis : x y z
#
# Youngs Moduli (GPa) = 76.79743 102.17976 93.60740
#
# Poissons Ratio (x) = 0.30005 0.43688
# Poissons Ratio (y) = 0.22551 0.17690
# Poissons Ratio (z) = 0.35843 0.19310
#
# Static dielectric constant tensor:
#      x y z
#    x 2.073190 -0.000140 -0.041980 
#    y -0.000140 2.353290 0.000030 
#    z -0.041980 0.000030 2.127800 
# 
# From -- ./inp_files/35918.got.cif
#   From: 2010.05.17/outbox.cif.g08.bks.cpg/sg9_18_cif.got.tgz:35918.got - 2010.06.03 20:04:27.
