data_PCOD9139347
_publ_section_title
;
Structure prediction by ZEFSAII (Michael W. Deem and Ramdas Pophale) SiO2 
 PCOD9139347
Probable space group: C C
;
_chemical_formula_sum "Si O2"
_cell_formula_units_Z 20
_cell_length_a 6.799399
_cell_length_b 16.267829
_cell_length_c 7.790451
_cell_angle_alpha 90.000000
_cell_angle_beta 114.634422
_cell_angle_gamma 90.000000
_cell_volume 783.285073
_symmetry_space_group_name_H-M "C C"
_symmetry_group_IT_number 9
_symmetry_cell_setting 'monoclinic'
loop_
_space_group_symop_operation_xyz
x,y,z
x,-y,1/2+z
1/2+x,1/2+y,z
1/2+x,1/2-y,1/2+z
loop_
_atom_site_type_symbol
_atom_site_label
_atom_site_fract_x
_atom_site_fract_y
_atom_site_fract_z
Si Si1 0.928310 0.332451 0.610320
Si Si2 0.574462 0.452473 0.407481
Si Si3 0.392731 0.651984 0.118388
Si Si4 0.303197 0.874884 0.939795
Si Si5 0.259562 0.330350 0.204935
O O1 0.759015 0.384274 0.437634
O O2 0.916960 0.375237 0.793720
O O3 0.838794 0.239771 0.603086
O O4 0.166607 0.342429 0.627338
O O5 0.502693 0.845511 0.129073
O O6 0.700188 0.538030 0.456525
O O7 0.373474 0.419199 0.219871
O O8 0.582580 0.675560 0.317278
O O9 0.476627 0.566150 0.063687
O O10 0.364964 0.697108 0.925889
#
# Coordination Sequence:
#
# PCOD9139347 Si02
#       5
#     4   4   4   4   4
#     4  11  23  51  78 113 155 202 269 320 383 469
#     4   9  24  47  73 111 151 202 261 310 389 461
#     4   9  25  49  74 110 159 194 269 306 393 460
#     4  11  24  48  78 110 158 205 262 319 391 463
#     4  10  24  53  77 108 161 203 255 325 392 453
#
# _framework density 25.53349
#
# number of rings (size 3 to 8) (size 9 to 14) (size 15 to 20)
#    1.200    0.800    0.000    1.200    2.800    4.800 
#   21.600    0.000    0.000    0.000    0.000    0.000 
#    0.000    0.000    0.000    0.000    0.000    0.000 
#
# Total GULP energy -55715.262773 kJ/mol
# GULP energy per Si atom -5571.526277 kJ/mol
# Density = 2.547537 g / cm^3
# Si number density = 25.533490 Si / 1000 Ang^3
#
#
#
# Elastic Constant Matrix: (Units=GPa)
#
#
# Indices 1 2 3 4 5 6 
#
# 1 265.6105 80.9015 52.0343 0.0000 20.7159 0.0000
# 2 80.9015 150.7014 36.8489 0.0000 18.1462 0.0000
# 3 52.0343 36.8489 38.9641 0.0000 25.4727 0.0000
# 4 0.0000 0.0000 0.0000 17.8146 0.0000 -5.3445
# 5 20.7159 18.1462 25.4727 0.0000 62.7555 0.0000
# 6 0.0000 0.0000 0.0000 -5.3445 0.0000 49.3396
#
#
#
# Elastic Compliance Matrix: (Units=1/GPa)
#
#
# Indices 1 2 3 4 5 6 
#
# 1 0.005421 -0.001412 -0.006807 0.000000 0.001382 0.000000
# 2 -0.001412 0.009057 -0.007177 0.000000 0.000760 0.000000
# 3 -0.006807 -0.007177 0.052701 0.000000 -0.017069 0.000000
# 4 0.000000 0.000000 0.000000 0.058019 0.000000 0.006285
# 5 0.001382 0.000760 -0.017069 0.000000 0.022187 0.000000
# 6 0.000000 0.000000 0.000000 0.006285 0.000000 0.020948
#
#
# Mechanical properties :
#
#
# Convention : Reuss Voigt Hill
#
# Bulk Modulus (GPa) = 27.48204 88.31616 57.89910
# Shear Modulus (GPa) = 23.66809 45.01470 34.34139
#
# Velocity S-wave (km/s) = 3.04788 4.20333 3.67134
# Velocity P-wave (km/s) = 4.81379 7.63025 6.37939
#
# Compressibility (1/GPa) = 0.03638740
#
# Stress axis : x y z
#
# Youngs Moduli (GPa) = 184.47592 110.41311 18.97482
#
# Poissons Ratio (x) = 0.15590 0.12917
# Poissons Ratio (y) = 0.26047 0.13618
# Poissons Ratio (z) = 1.25577 0.79240
#
# Static dielectric constant tensor:
#      x y z
#    x 1.999140 0.000000 0.035850 
#    y 0.000000 2.228910 0.000000 
#    z 0.035850 0.000000 2.156880 
# 
# From -- ./inp_files/12934.got.cif
#   From: 2010.05.17/outbox.cif.g08.bks.cpg/sg9_7_cif.got.tgz:12934.got - 2010.06.03 20:04:27.
