data_PCOD9139168
_publ_section_title
;
Structure prediction by ZEFSAII (Michael W. Deem and Ramdas Pophale) SiO2 
 PCOD9139168
Probable space group: C C
;
_chemical_formula_sum "Si O2"
_cell_formula_units_Z 32
_cell_length_a 11.825579
_cell_length_b 8.527029
_cell_length_c 14.472333
_cell_angle_alpha 90.000000
_cell_angle_beta 60.754911
_cell_angle_gamma 90.000000
_cell_volume 1273.335929
_symmetry_space_group_name_H-M "C C"
_symmetry_group_IT_number 9
_symmetry_cell_setting 'monoclinic'
loop_
_space_group_symop_operation_xyz
x,y,z
x,-y,1/2+z
1/2+x,1/2+y,z
1/2+x,1/2-y,1/2+z
loop_
_atom_site_type_symbol
_atom_site_label
_atom_site_fract_x
_atom_site_fract_y
_atom_site_fract_z
Si Si1 0.322690 0.253452 0.336130
Si Si2 0.425257 0.091062 0.746985
Si Si3 0.981647 0.121771 0.604417
Si Si4 0.436550 0.569444 0.951160
Si Si5 0.734389 0.568285 0.056800
Si Si6 0.599159 0.691338 0.290772
Si Si7 0.687606 0.225757 0.402868
Si Si8 0.006367 0.526943 0.018639
O O1 0.407433 0.356990 0.230404
O O2 0.335907 0.329586 0.431839
O O3 0.183566 0.233087 0.345254
O O4 0.378293 0.076139 0.304373
O O5 0.534459 0.160554 0.769173
O O6 0.307247 0.215917 0.793682
O O7 0.479151 0.070956 0.622952
O O8 0.998196 0.293711 0.554606
O O9 0.905121 0.010834 0.562146
O O10 0.123250 0.048595 0.565465
O O11 0.488688 0.428638 0.866231
O O12 0.561679 0.677633 0.920334
O O13 0.692664 0.615215 0.176865
O O14 0.880143 0.506600 0.004890
O O15 0.726883 0.714052 0.989481
O O16 0.636809 0.048715 0.425555
#
# Coordination Sequence:
#
# PCOD9139168 Si02
#       8
#     4   4   4   4   4   4   4   4
#     4  11  24  49  74 103 155 200 248 320 380 451
#     4  11  25  47  72 110 149 199 257 307 381 453
#     4  10  24  45  73 109 146 196 254 308 380 457
#     4  11  25  46  73 107 148 196 254 312 378 452
#     4  11  22  45  72 104 154 193 243 317 374 448
#     4  12  23  46  74 105 151 199 246 317 371 450
#     4  11  25  46  76 108 148 198 254 308 384 451
#     4  11  24  48  76 106 153 201 248 321 380 450
#
# _framework density 25.130839999999999
#
# number of rings (size 3 to 8) (size 9 to 14) (size 15 to 20)
#    0.000    1.000    6.250    0.000    3.500    0.000 
#    6.750    5.000    0.000    0.000    0.000    0.000 
#    0.000    0.000    0.000    0.000    0.000    0.000 
#
# Total GULP energy -89729.261216 kJ/mol
# GULP energy per Si atom -5608.078826 kJ/mol
# Density = 2.507364 g / cm^3
# Si number density = 25.130840 Si / 1000 Ang^3
#
#
#
# Elastic Constant Matrix: (Units=GPa)
#
#
# Indices 1 2 3 4 5 6 
#
# 1 150.2598 56.6238 21.3534 0.0000 21.8329 0.0000
# 2 56.6238 114.0472 32.9589 0.0000 11.0344 0.0000
# 3 21.3534 32.9589 88.9621 0.0000 12.6149 0.0000
# 4 0.0000 0.0000 0.0000 41.1955 0.0000 7.6081
# 5 21.8329 11.0344 12.6149 0.0000 38.0681 0.0000
# 6 0.0000 0.0000 0.0000 7.6081 0.0000 55.0089
#
#
#
# Elastic Compliance Matrix: (Units=1/GPa)
#
#
# Indices 1 2 3 4 5 6 
#
# 1 0.008703 -0.003924 -0.000093 0.000000 -0.003823 0.000000
# 2 -0.003924 0.011698 -0.003390 0.000000 -0.000017 0.000000
# 3 -0.000093 -0.003390 0.012982 0.000000 -0.003266 0.000000
# 4 0.000000 0.000000 0.000000 0.024911 0.000000 -0.003445
# 5 -0.003823 -0.000017 -0.003266 0.000000 0.029548 0.000000
# 6 0.000000 0.000000 0.000000 -0.003445 0.000000 0.018655
#
#
# Mechanical properties :
#
#
# Convention : Reuss Voigt Hill
#
# Bulk Modulus (GPa) = 53.85267 63.90460 58.87863
# Shear Modulus (GPa) = 39.21578 43.01003 41.11290
#
# Velocity S-wave (km/s) = 3.95456 4.14145 4.04908
# Velocity P-wave (km/s) = 6.50590 6.95361 6.73348
#
# Compressibility (1/GPa) = 0.01856918
#
# Stress axis : x y z
#
# Youngs Moduli (GPa) = 114.90897 85.48656 77.02995
#
# Poissons Ratio (x) = 0.33545 0.00716
# Poissons Ratio (y) = 0.45090 0.26110
# Poissons Ratio (z) = 0.01068 0.28976
#
# Static dielectric constant tensor:
#      x y z
#    x 1.946140 0.000000 -0.015190 
#    y 0.000000 2.009400 0.000000 
#    z -0.015190 0.000000 2.004930 
# 
# From -- ./inp_files/24351.got.cif
#   From: 2010.05.17/outbox.cif.g08.bks.cpg/sg9_13_cif.got.tgz:24351.got - 2010.06.03 20:04:27.
