data_PCOD9139011
_publ_section_title
;
Structure prediction by ZEFSAII (Michael W. Deem and Ramdas Pophale) SiO2 
 PCOD9139011
Probable space group: C C
;
_chemical_formula_sum "Si O2"
_cell_formula_units_Z 32
_cell_length_a 5.233567
_cell_length_b 31.292467
_cell_length_c 8.520102
_cell_angle_alpha 90.000000
_cell_angle_beta 110.761660
_cell_angle_gamma 90.000000
_cell_volume 1304.737965
_symmetry_space_group_name_H-M "C C"
_symmetry_group_IT_number 9
_symmetry_cell_setting 'monoclinic'
loop_
_space_group_symop_operation_xyz
x,y,z
x,-y,1/2+z
1/2+x,1/2+y,z
1/2+x,1/2-y,1/2+z
loop_
_atom_site_type_symbol
_atom_site_label
_atom_site_fract_x
_atom_site_fract_y
_atom_site_fract_z
Si Si1 0.931980 0.314083 0.026000
Si Si2 0.098389 0.445171 0.876571
Si Si3 0.224222 0.185917 0.927418
Si Si4 0.388946 0.360410 0.917530
Si Si5 0.557803 0.554829 0.076849
Si Si6 0.267257 0.360410 0.535886
Si Si7 0.828099 0.249679 0.726710
Si Si8 0.828096 0.021272 0.726711
O O1 0.075488 0.282631 0.178631
O O2 0.691261 0.345241 0.023849
O O3 0.824188 0.280197 0.874595
O O4 0.167292 0.341018 0.988210
O O5 0.340544 0.411053 0.905599
O O6 0.161001 0.489698 0.804162
O O7 0.828095 0.427931 0.726711
O O8 0.116571 0.453446 0.067913
O O9 0.464945 0.154760 0.929568
O O10 0.332007 0.219802 0.078827
O O11 0.988912 0.158981 0.965204
O O12 0.080713 0.217369 0.774789
O O13 0.328104 0.345168 0.726708
O O14 0.315648 0.588946 0.047818
O O15 0.495191 0.510302 0.149259
O O16 0.539624 0.546553 0.885508
#
# Coordination Sequence:
#
# PCOD9139011 Si02
#       8
#     4   4   4   4   4   4   4   4
#     4  11  25  43  70 100 136 184 235 290 360 429
#     4  11  23  44  73 103 148 192 242 301 366 429
#     4  11  25  43  70 100 136 184 235 290 360 429
#     4  12  23  43  69 100 140 190 232 285 362 432
#     4  11  23  44  73 103 148 192 242 301 366 429
#     4  12  23  43  69 100 140 190 232 285 362 432
#     4  10  24  45  70 100 140 178 236 302 354 423
#     4  10  24  43  72 110 140 188 252 298 360 443
#
# _framework density 24.525998999999999
#
# number of rings (size 3 to 8) (size 9 to 14) (size 15 to 20)
#    0.000    1.000    3.750    2.250    0.000    8.000 
#    0.000    2.500    0.000    0.000    0.000    0.000 
#    0.000    0.000    0.000    0.000    0.000    0.000 
#
# Total GULP energy -89520.194456 kJ/mol
# GULP energy per Si atom -5595.012153 kJ/mol
# Density = 2.447018 g / cm^3
# Si number density = 24.525999 Si / 1000 Ang^3
#
#
#
# Elastic Constant Matrix: (Units=GPa)
#
#
# Indices 1 2 3 4 5 6 
#
# 1 147.3474 58.3105 39.9966 0.0000 15.6719 0.0000
# 2 58.3105 101.1895 36.5166 0.0000 14.6973 0.0000
# 3 39.9966 36.5166 117.2858 0.0000 19.5152 0.0000
# 4 0.0000 0.0000 0.0000 24.7979 0.0000 12.3011
# 5 15.6719 14.6973 19.5152 0.0000 32.7801 0.0000
# 6 0.0000 0.0000 0.0000 12.3011 0.0000 37.6030
#
#
#
# Elastic Compliance Matrix: (Units=1/GPa)
#
#
# Indices 1 2 3 4 5 6 
#
# 1 0.009128 -0.004519 -0.001462 0.000000 -0.001468 0.000000
# 2 -0.004519 0.013692 -0.002286 0.000000 -0.002617 0.000000
# 3 -0.001462 -0.002286 0.010489 0.000000 -0.004520 0.000000
# 4 0.000000 0.000000 0.000000 0.048137 0.000000 -0.015747
# 5 -0.001468 -0.002617 -0.004520 0.000000 0.035072 0.000000
# 6 0.000000 0.000000 0.000000 -0.015747 0.000000 0.031745
#
#
# Mechanical properties :
#
#
# Convention : Reuss Voigt Hill
#
# Bulk Modulus (GPa) = 59.61577 70.60778 65.11177
# Shear Modulus (GPa) = 29.34457 34.43614 31.89035
#
# Velocity S-wave (km/s) = 3.46275 3.75115 3.60983
# Velocity P-wave (km/s) = 6.35197 6.90022 6.63176
#
# Compressibility (1/GPa) = 0.01677408
#
# Stress axis : x y z
#
# Youngs Moduli (GPa) = 109.55313 73.03557 95.34203
#
# Poissons Ratio (x) = 0.33008 0.13934
# Poissons Ratio (y) = 0.49512 0.21798
# Poissons Ratio (z) = 0.16011 0.16698
#
# Static dielectric constant tensor:
#      x y z
#    x 1.982220 0.000000 0.003660 
#    y 0.000000 1.906940 0.000000 
#    z 0.003660 0.000000 2.068580 
# 
# From -- ./inp_files/4522.got.cif
#   From: 2010.05.17/outbox.cif.g08.bks.cpg/sg9_3_cif.got.tgz:4522.got - 2010.06.03 20:04:27.
