data_PCOD9139760
_publ_section_title
;
Structure prediction by ZEFSAII (Michael W. Deem and Ramdas Pophale) SiO2 
 PCOD9139760
Probable space group: C C
;
_chemical_formula_sum "Si O2"
_cell_formula_units_Z 32
_cell_length_a 5.791545
_cell_length_b 23.232937
_cell_length_c 9.868543
_cell_angle_alpha 90.000000
_cell_angle_beta 103.947264
_cell_angle_gamma 90.000000
_cell_volume 1288.709931
_symmetry_space_group_name_H-M "C C"
_symmetry_group_IT_number 9
_symmetry_cell_setting 'monoclinic'
loop_
_space_group_symop_operation_xyz
x,y,z
x,-y,1/2+z
1/2+x,1/2+y,z
1/2+x,1/2-y,1/2+z
loop_
_atom_site_type_symbol
_atom_site_label
_atom_site_fract_x
_atom_site_fract_y
_atom_site_fract_z
Si Si1 0.687210 0.404488 0.670120
Si Si2 0.163819 0.691528 0.496927
Si Si3 0.127488 0.211346 0.414479
Si Si4 0.443946 0.299655 0.566242
Si Si5 0.624917 0.829164 0.288472
Si Si6 0.580755 0.973959 0.861644
Si Si7 0.280205 0.915439 0.375876
Si Si8 0.380074 0.519958 0.657616
O O1 0.536117 0.347184 0.684907
O O2 0.770366 0.394033 0.528332
O O3 0.524678 0.461510 0.644816
O O4 0.906065 0.423045 0.794585
O O5 0.388228 0.681568 0.432659
O O6 0.150218 0.760463 0.528472
O O7 0.196724 0.660658 0.645139
O O8 0.884877 0.682882 0.418944
O O9 0.223461 0.254598 0.551941
O O10 0.071797 0.260650 0.295337
O O11 0.331636 0.338107 0.427172
O O12 0.407653 0.868192 0.301564
O O13 0.435417 0.026260 0.906504
O O14 0.683705 0.000022 0.737738
O O15 0.776604 0.957494 0.000861
O O16 0.046702 0.936750 0.264393
#
# Coordination Sequence:
#
# PCOD9139760 Si02
#       8
#     4   4   4   4   4   4   4   4
#     4  11  21  37  67  93 129 176 230 283 340 419
#     4   9  18  37  59  89 127 162 204 288 333 396
#     4   8  20  33  58  92 125 156 221 268 341 395
#     4   8  21  35  61  93 120 161 231 270 338 411
#     4   9  20  37  65  92 125 170 226 282 339 416
#     4  11  23  40  62  93 139 176 222 287 350 405
#     4  11  22  36  64  98 127 175 236 276 345 417
#     4  11  23  39  62  94 136 180 220 290 344 409
#
# _framework density 24.831033999999999
#
# number of rings (size 3 to 8) (size 9 to 14) (size 15 to 20)
#    1.500    0.500    2.500    1.500    0.000    3.000 
#    0.000    0.000   11.000    0.000    0.000    0.000 
#    0.000    0.000    0.000    0.000    0.000    0.000 
#
# Total GULP energy -89301.772098 kJ/mol
# GULP energy per Si atom -5581.360756 kJ/mol
# Density = 2.477452 g / cm^3
# Si number density = 24.831034 Si / 1000 Ang^3
#
#
#
# Elastic Constant Matrix: (Units=GPa)
#
#
# Indices 1 2 3 4 5 6 
#
# 1 116.3599 50.0810 26.6198 0.0000 -6.3399 0.0000
# 2 50.0810 99.6370 -1.3026 0.0000 -6.4671 0.0000
# 3 26.6198 -1.3026 55.2996 0.0000 -1.2071 0.0000
# 4 0.0000 0.0000 0.0000 30.8959 0.0000 -4.0999
# 5 -6.3399 -6.4671 -1.2071 0.0000 45.1922 0.0000
# 6 0.0000 0.0000 0.0000 -4.0999 0.0000 34.6066
#
#
#
# Elastic Compliance Matrix: (Units=1/GPa)
#
#
# Indices 1 2 3 4 5 6 
#
# 1 0.012887 -0.006515 -0.006342 0.000000 0.000706 0.000000
# 2 -0.006515 0.013428 0.003476 0.000000 0.001100 0.000000
# 3 -0.006342 0.003476 0.021222 0.000000 0.000175 0.000000
# 4 0.000000 0.000000 0.000000 0.032884 0.000000 0.003896
# 5 0.000706 0.001100 0.000175 0.000000 0.022389 0.000000
# 6 0.000000 0.000000 0.000000 0.003896 0.000000 0.029358
#
#
# Mechanical properties :
#
#
# Convention : Reuss Voigt Hill
#
# Bulk Modulus (GPa) = 34.75020 46.89921 40.82470
# Shear Modulus (GPa) = 31.14893 35.19882 33.17388
#
# Velocity S-wave (km/s) = 3.54564 3.76910 3.65908
# Velocity P-wave (km/s) = 5.54862 6.15385 5.85905
#
# Compressibility (1/GPa) = 0.02877682
#
# Stress axis : x y z
#
# Youngs Moduli (GPa) = 77.59668 74.47253 47.12158
#
# Poissons Ratio (x) = 0.48516 0.29883
# Poissons Ratio (y) = 0.50551 -0.16381
# Poissons Ratio (z) = 0.49209 -0.25889
#
# Static dielectric constant tensor:
#      x y z
#    x 1.946140 0.000000 0.025680 
#    y 0.000000 1.716830 0.000000 
#    z 0.025680 0.000000 2.156060 
# 
# From -- ./inp_files/4515.got.cif
#   From: 2010.05.17/outbox.cif.g08.bks.cpg/sg9_3_cif.got.tgz:4515.got - 2010.06.03 20:04:27.
