data_PCOD9139274
_publ_section_title
;
Structure prediction by ZEFSAII (Michael W. Deem and Ramdas Pophale) SiO2 
 PCOD9139274
Probable space group: C C
;
_chemical_formula_sum "Si O2"
_cell_formula_units_Z 20
_cell_length_a 10.043246
_cell_length_b 8.829561
_cell_length_c 12.278968
_cell_angle_alpha 90.000000
_cell_angle_beta 132.228364
_cell_angle_gamma 90.000000
_cell_volume 806.275948
_symmetry_space_group_name_H-M "C C"
_symmetry_group_IT_number 9
_symmetry_cell_setting 'monoclinic'
loop_
_space_group_symop_operation_xyz
x,y,z
x,-y,1/2+z
1/2+x,1/2+y,z
1/2+x,1/2-y,1/2+z
loop_
_atom_site_type_symbol
_atom_site_label
_atom_site_fract_x
_atom_site_fract_y
_atom_site_fract_z
Si Si1 0.305630 0.690727 0.907460
Si Si2 0.676558 0.295675 0.062501
Si Si3 0.169446 0.269001 0.000462
Si Si4 0.765606 0.141201 0.322118
Si Si5 0.848024 0.588585 0.265782
O O1 0.509388 0.675820 0.972189
O O2 0.220194 0.532532 0.825662
O O3 0.236795 0.840250 0.805230
O O4 0.286212 0.724916 0.023080
O O5 0.660905 0.188056 0.157861
O O6 0.780263 0.440366 0.170162
O O7 0.477557 0.340087 0.914528
O O8 0.228512 0.254388 0.908029
O O9 0.050121 0.423260 0.925709
O O10 0.334577 0.226306 0.169002
#
# Coordination Sequence:
#
# PCOD9139274 Si02
#       5
#     4   4   4   4   4
#     4  10  28  48  75 102 152 188 243 297 361 427
#     4  12  28  46  77 107 149 188 250 291 368 424
#     4  10  24  47  76 100 150 188 241 295 368 414
#     4  12  28  48  73 112 143 194 239 304 357 438
#     4  10  24  47  75 105 142 192 237 301 352 433
#
# _framework density 24.805402000000001
#
# number of rings (size 3 to 8) (size 9 to 14) (size 15 to 20)
#    1.200    0.000    2.000    1.200   11.200    0.000 
#    0.000    0.000    0.000    0.000    0.000    0.000 
#    0.000    0.000    0.000    0.000    0.000    0.000 
#
# Total GULP energy -55708.552281 kJ/mol
# GULP energy per Si atom -5570.855228 kJ/mol
# Density = 2.474894 g / cm^3
# Si number density = 24.805402 Si / 1000 Ang^3
#
#
#
# Elastic Constant Matrix: (Units=GPa)
#
#
# Indices 1 2 3 4 5 6 
#
# 1 112.9921 34.3820 26.4944 0.0000 -33.0666 0.0000
# 2 34.3820 99.6638 46.4503 0.0000 -11.4850 0.0000
# 3 26.4944 46.4503 94.3441 0.0000 -27.6212 0.0000
# 4 0.0000 0.0000 0.0000 52.6173 0.0000 -5.6832
# 5 -33.0666 -11.4850 -27.6212 0.0000 58.6790 0.0000
# 6 0.0000 0.0000 0.0000 -5.6832 0.0000 19.7356
#
#
#
# Elastic Compliance Matrix: (Units=1/GPa)
#
#
# Indices 1 2 3 4 5 6 
#
# 1 0.011581 -0.003381 0.000150 0.000000 0.005935 0.000000
# 2 -0.003381 0.014024 -0.006622 0.000000 -0.002278 0.000000
# 3 0.000150 -0.006622 0.015615 0.000000 0.006139 0.000000
# 4 0.000000 0.000000 0.000000 0.019615 0.000000 0.005649
# 5 0.005935 -0.002278 0.006139 0.000000 0.022830 0.000000
# 6 0.000000 0.000000 0.000000 0.005649 0.000000 0.052296
#
#
# Mechanical properties :
#
#
# Convention : Reuss Voigt Hill
#
# Bulk Modulus (GPa) = 46.48265 57.96148 52.22206
# Shear Modulus (GPa) = 30.70530 39.51795 35.11163
#
# Velocity S-wave (km/s) = 3.52212 3.99572 3.76637
# Velocity P-wave (km/s) = 5.94307 6.68617 6.32554
#
# Compressibility (1/GPa) = 0.02151340
#
# Stress axis : x y z
#
# Youngs Moduli (GPa) = 86.35146 71.30625 64.04128
#
# Poissons Ratio (x) = 0.24109 -0.00961
# Poissons Ratio (y) = 0.29196 0.42408
# Poissons Ratio (z) = -0.01296 0.47219
#
# Static dielectric constant tensor:
#      x y z
#    x 2.003320 0.000000 0.057800 
#    y 0.000000 2.032670 0.000000 
#    z 0.057800 0.000000 1.979740 
# 
# From -- ./inp_files/6699.got.cif
#   From: 2010.05.17/outbox.cif.g08.bks.cpg/sg9_4_cif.got.tgz:6699.got - 2010.06.03 20:04:27.
