data_PCOD9139890
_publ_section_title
;
Structure prediction by ZEFSAII (Michael W. Deem and Ramdas Pophale) SiO2 
 PCOD9139890
Probable space group: C C
;
_chemical_formula_sum "Si O2"
_cell_formula_units_Z 28
_cell_length_a 12.222484
_cell_length_b 17.039911
_cell_length_c 12.856991
_cell_angle_alpha 90.000000
_cell_angle_beta 25.918453
_cell_angle_gamma 90.000000
_cell_volume 1170.411237
_symmetry_space_group_name_H-M "C C"
_symmetry_group_IT_number 9
_symmetry_cell_setting 'monoclinic'
loop_
_space_group_symop_operation_xyz
x,y,z
x,-y,1/2+z
1/2+x,1/2+y,z
1/2+x,1/2-y,1/2+z
loop_
_atom_site_type_symbol
_atom_site_label
_atom_site_fract_x
_atom_site_fract_y
_atom_site_fract_z
Si Si1 0.632670 0.168413 0.863920
Si Si2 0.315136 0.989978 0.644697
Si Si3 0.726470 0.212485 0.019034
Si Si4 0.333913 0.544861 0.422799
Si Si5 0.509142 0.930721 0.803519
Si Si6 0.546438 0.446243 0.066162
Si Si7 0.948777 0.227576 0.325501
O O1 0.571669 0.229272 0.823585
O O2 0.896968 0.121278 0.632379
O O3 0.437966 0.096280 0.032625
O O4 0.632835 0.205614 0.979131
O O5 0.073648 0.986928 0.778602
O O6 0.480185 0.057816 0.450764
O O7 0.207482 0.999287 0.851036
O O8 0.509721 0.257341 0.268640
O O9 0.715572 0.127555 0.082512
O O10 0.089909 0.516361 0.692728
O O11 0.354101 0.499740 0.295557
O O12 0.368048 0.637156 0.397244
O O13 0.251244 0.907268 0.967063
O O14 0.676796 0.268345 0.548155
#
# Coordination Sequence:
#
# PCOD9139890 Si02
#       7
#     4   4   4   4   4   4   4
#     4  12  23  42  66 111 145 185 235 306 390 441
#     4  11  22  39  68  98 135 191 242 304 365 442
#     4  12  26  41  68 100 144 189 233 304 377 442
#     4  11  24  42  67  99 152 196 244 303 376 459
#     4  11  24  43  65 100 145 195 256 301 368 461
#     4  11  22  42  68 101 146 197 249 299 377 460
#     4  12  25  41  66 107 151 189 233 305 379 441
#
# _framework density 23.923214000000002
#
# number of rings (size 3 to 8) (size 9 to 14) (size 15 to 20)
#    0.000    0.571    4.286    4.286    4.000    0.000 
#    0.000    0.000    0.000    1.714    0.000    0.000 
#    0.000    0.000    0.000    0.000    0.000    0.000 
#
# Total GULP energy -78238.602884 kJ/mol
# GULP energy per Si atom -5588.471635 kJ/mol
# Density = 2.386876 g / cm^3
# Si number density = 23.923214 Si / 1000 Ang^3
#
#
#
# Elastic Constant Matrix: (Units=GPa)
#
#
# Indices 1 2 3 4 5 6 
#
# 1 31.1936 14.5195 16.1588 -0.0485 -6.4199 -0.0106
# 2 14.5195 100.7266 39.9186 -0.2282 -2.5395 0.3233
# 3 16.1588 39.9186 144.8254 -0.1685 1.7669 0.1727
# 4 -0.0485 -0.2282 -0.1685 53.7209 0.1215 0.2052
# 5 -6.4199 -2.5395 1.7669 0.1215 44.4852 -0.0913
# 6 -0.0106 0.3233 0.1727 0.2052 -0.0913 40.7040
#
#
#
# Elastic Compliance Matrix: (Units=1/GPa)
#
#
# Indices 1 2 3 4 5 6 
#
# 1 0.036532 -0.003924 -0.003058 -0.000005 0.005170 0.000065
# 2 -0.003924 0.011593 -0.002760 0.000037 0.000205 -0.000081
# 3 -0.003058 -0.002760 0.008018 0.000013 -0.000917 -0.000015
# 4 -0.000005 0.000037 0.000013 0.018615 -0.000050 -0.000094
# 5 0.005170 0.000205 -0.000917 -0.000050 0.023274 0.000056
# 6 0.000065 -0.000081 -0.000015 -0.000094 0.000056 0.024569
#
#
# Mechanical properties :
#
#
# Convention : Reuss Voigt Hill
#
# Bulk Modulus (GPa) = 27.27786 46.43772 36.85779
# Shear Modulus (GPa) = 32.40344 41.52526 36.96435
#
# Velocity S-wave (km/s) = 3.68431 4.17078 3.93507
# Velocity P-wave (km/s) = 5.43377 6.53048 6.00721
#
# Compressibility (1/GPa) = 0.03665977
#
# Stress axis : x y z
#
# Youngs Moduli (GPa) = 27.37297 86.26051 124.72010
#
# Poissons Ratio (x) = 0.33850 0.38135
# Poissons Ratio (y) = 0.10742 0.34421
# Poissons Ratio (z) = 0.08370 0.23807
#
# Static dielectric constant tensor:
#      x y z
#    x 1.917110 -0.000040 0.016460 
#    y -0.000040 1.937450 0.000160 
#    z 0.016460 0.000160 2.016140 
# 
# From -- ./inp_files/2376.got.cif
#   From: 2010.05.17/outbox.cif.g08.bks.cpg/sg9_2_cif.got.tgz:2376.got - 2010.06.03 20:04:27.
