data_PCOD9139415
_publ_section_title
;
Structure prediction by ZEFSAII (Michael W. Deem and Ramdas Pophale) SiO2 
 PCOD9139415
Probable space group: C C
;
_chemical_formula_sum "Si O2"
_cell_formula_units_Z 28
_cell_length_a 13.091321
_cell_length_b 9.356995
_cell_length_c 18.689147
_cell_angle_alpha 90.000000
_cell_angle_beta 148.463424
_cell_angle_gamma 90.000000
_cell_volume 1197.420100
_symmetry_space_group_name_H-M "C C"
_symmetry_group_IT_number 9
_symmetry_cell_setting 'monoclinic'
loop_
_space_group_symop_operation_xyz
x,y,z
x,-y,1/2+z
1/2+x,1/2+y,z
1/2+x,1/2-y,1/2+z
loop_
_atom_site_type_symbol
_atom_site_label
_atom_site_fract_x
_atom_site_fract_y
_atom_site_fract_z
Si Si1 0.738270 0.521770 0.651920
Si Si2 0.793309 0.639581 0.972211
Si Si3 0.822849 0.067008 0.050754
Si Si4 0.422537 0.884780 0.121535
Si Si5 0.506754 0.166710 0.392862
Si Si6 0.852698 0.116870 0.902150
Si Si7 0.646226 0.325005 0.231899
O O1 0.877806 0.533146 0.668210
O O2 0.518290 0.503804 0.491907
O O3 0.750955 0.644922 0.719103
O O4 0.807447 0.381647 0.736070
O O5 0.618129 0.716151 0.910739
O O6 0.776835 0.688182 0.880197
O O7 0.798820 0.469822 0.988092
O O8 0.991571 0.699748 0.126085
O O9 0.859992 0.223665 0.102831
O O10 0.795266 0.102165 0.950403
O O11 0.011846 0.964954 0.167197
O O12 0.646923 0.972274 0.977327
O O13 0.650796 0.892261 0.239206
O O14 0.456280 0.237896 0.438059
#
# Coordination Sequence:
#
# PCOD9139415 Si02
#       7
#     4   4   4   4   4   4   4
#     4  11  24  45  73 105 150 197 256 325 385 464
#     4  11  25  46  79 107 149 199 258 315 389 467
#     4  10  25  44  73 103 154 190 259 317 385 462
#     4  12  25  47  72 110 153 197 259 328 385 468
#     4  11  23  46  75 103 143 203 254 310 395 457
#     4  11  23  46  73 108 144 202 246 320 387 459
#     4  10  25  46  71 110 147 198 256 315 386 467
#
# _framework density 23.383607999999999
#
# number of rings (size 3 to 8) (size 9 to 14) (size 15 to 20)
#    0.000    1.143    2.857    2.571   10.000    1.143 
#    0.000    0.000    0.000    0.000    0.000    0.000 
#    0.000    0.000    0.000    0.000    0.000    0.000 
#
# Total GULP energy -78238.630168 kJ/mol
# GULP energy per Si atom -5588.473583 kJ/mol
# Density = 2.333039 g / cm^3
# Si number density = 23.383608 Si / 1000 Ang^3
#
#
#
# Elastic Constant Matrix: (Units=GPa)
#
#
# Indices 1 2 3 4 5 6 
#
# 1 76.7044 18.2196 31.3594 0.0000 5.0503 0.0000
# 2 18.2196 106.9712 32.5351 0.0002 -0.8021 0.0001
# 3 31.3594 32.5351 75.5355 0.0007 3.5531 0.0003
# 4 0.0000 0.0002 0.0007 21.2412 0.0002 -1.8252
# 5 5.0503 -0.8021 3.5531 0.0002 30.7685 0.0000
# 6 0.0000 0.0001 0.0003 -1.8252 0.0000 42.6027
#
#
#
# Elastic Compliance Matrix: (Units=1/GPa)
#
#
# Indices 1 2 3 4 5 6 
#
# 1 0.015873 -0.000853 -0.006132 0.000000 -0.001919 0.000000
# 2 -0.000853 0.010824 -0.004352 0.000000 0.000925 0.000000
# 3 -0.006132 -0.004352 0.017713 -0.000001 -0.001152 0.000000
# 4 0.000000 0.000000 -0.000001 0.047252 0.000000 0.002024
# 5 -0.001919 0.000925 -0.001152 0.000000 0.032973 0.000000
# 6 0.000000 0.000000 0.000000 0.002024 0.000000 0.023559
#
#
# Mechanical properties :
#
#
# Convention : Reuss Voigt Hill
#
# Bulk Modulus (GPa) = 46.00463 47.04882 46.52672
# Shear Modulus (GPa) = 28.07186 30.72893 29.40039
#
# Velocity S-wave (km/s) = 3.46857 3.62902 3.54970
# Velocity P-wave (km/s) = 5.97979 6.14197 6.06142
#
# Compressibility (1/GPa) = 0.02173694
#
# Stress axis : x y z
#
# Youngs Moduli (GPa) = 62.99970 92.38695 56.45492
#
# Poissons Ratio (x) = 0.07879 0.34620
# Poissons Ratio (y) = 0.05373 0.24567
# Poissons Ratio (z) = 0.38633 0.40203
#
# Static dielectric constant tensor:
#      x y z
#    x 1.859070 0.000000 -0.003560 
#    y 0.000000 1.908210 0.000000 
#    z -0.003560 0.000000 1.911210 
# 
# From -- ./inp_files/20782.got.cif
#   From: 2010.05.17/outbox.cif.g08.bks.cpg/sg9_11_cif.got.tgz:20782.got - 2010.06.03 20:04:27.
