data_PCOD9139060
_publ_section_title
;
Structure prediction by ZEFSAII (Michael W. Deem and Ramdas Pophale) SiO2 
 PCOD9139060
Probable space group: C C
;
_chemical_formula_sum "Si O2"
_cell_formula_units_Z 20
_cell_length_a 12.307196
_cell_length_b 13.560991
_cell_length_c 5.347118
_cell_angle_alpha 90.000000
_cell_angle_beta 58.558214
_cell_angle_gamma 90.000000
_cell_volume 761.388289
_symmetry_space_group_name_H-M "C C"
_symmetry_group_IT_number 9
_symmetry_cell_setting 'monoclinic'
loop_
_space_group_symop_operation_xyz
x,y,z
x,-y,1/2+z
1/2+x,1/2+y,z
1/2+x,1/2-y,1/2+z
loop_
_atom_site_type_symbol
_atom_site_label
_atom_site_fract_x
_atom_site_fract_y
_atom_site_fract_z
Si Si1 0.063530 0.248931 0.009110
Si Si2 0.429350 0.558368 0.385277
Si Si3 0.627513 0.059293 0.719444
Si Si4 0.336247 0.827347 0.993363
Si Si5 0.243259 0.975045 0.775764
O O1 0.005067 0.156052 0.220647
O O2 0.964316 0.270950 0.902127
O O3 0.207244 0.226512 0.740839
O O4 0.169643 0.006303 0.111983
O O5 0.445118 0.524964 0.652201
O O6 0.278120 0.580761 0.539952
O O7 0.565563 0.159196 0.694422
O O8 0.599041 0.021201 0.034092
O O9 0.302031 0.868932 0.757491
O O10 0.342937 0.934593 0.127426
#
# Coordination Sequence:
#
# PCOD9139060 Si02
#       5
#     4   4   4   4   4
#     4  12  24  46  70 110 132 190 230 294 338 426
#     4  10  24  47  68 100 143 184 227 287 350 414
#     4  10  24  47  68 100 143 184 227 287 350 414
#     4  10  24  44  68 102 136 182 234 286 342 416
#     4   8  20  44  68  98 134 182 228 294 340 400
#
# _framework density 26.267803000000001
#
# number of rings (size 3 to 8) (size 9 to 14) (size 15 to 20)
#    1.200    0.800    2.000    0.000    5.600    1.600 
#    7.200    0.000    0.000    0.000    0.000    0.000 
#    0.000    0.000    0.000    0.000    0.000    0.000 
#
# Total GULP energy -55917.024515 kJ/mol
# GULP energy per Si atom -5591.702452 kJ/mol
# Density = 2.620802 g / cm^3
# Si number density = 26.267803 Si / 1000 Ang^3
#
#
#
# Elastic Constant Matrix: (Units=GPa)
#
#
# Indices 1 2 3 4 5 6 
#
# 1 200.6171 62.3988 58.6359 0.0000 11.9158 0.0000
# 2 62.3988 127.4986 19.4290 0.0000 4.4550 0.0000
# 3 58.6359 19.4290 110.2864 0.0000 11.1435 0.0000
# 4 0.0000 0.0000 0.0000 14.9188 0.0000 7.5688
# 5 11.9158 4.4550 11.1435 0.0000 49.6893 0.0000
# 6 0.0000 0.0000 0.0000 7.5688 0.0000 41.8557
#
#
#
# Elastic Compliance Matrix: (Units=1/GPa)
#
#
# Indices 1 2 3 4 5 6 
#
# 1 0.006799 -0.002839 -0.003044 0.000000 -0.000693 0.000000
# 2 -0.002839 0.009254 -0.000108 0.000000 -0.000125 0.000000
# 3 -0.003044 -0.000108 0.010877 0.000000 -0.001699 0.000000
# 4 0.000000 0.000000 0.000000 0.073800 0.000000 -0.013345
# 5 -0.000693 -0.000125 -0.001699 0.000000 0.020684 0.000000
# 6 0.000000 0.000000 0.000000 -0.013345 0.000000 0.026305
#
#
# Mechanical properties :
#
#
# Convention : Reuss Voigt Hill
#
# Bulk Modulus (GPa) = 66.90979 79.92550 73.41765
# Shear Modulus (GPa) = 30.36139 41.15532 35.75836
#
# Velocity S-wave (km/s) = 3.40345 3.96252 3.69358
# Velocity P-wave (km/s) = 6.40095 7.17138 6.79709
#
# Compressibility (1/GPa) = 0.01494549
#
# Stress axis : x y z
#
# Youngs Moduli (GPa) = 147.08708 108.06644 91.93960
#
# Poissons Ratio (x) = 0.30682 0.27991
# Poissons Ratio (y) = 0.41761 0.00994
# Poissons Ratio (z) = 0.44780 0.01168
#
# Static dielectric constant tensor:
#      x y z
#    x 2.167340 0.000000 0.016470 
#    y 0.000000 2.027290 0.000000 
#    z 0.016470 0.000000 2.144360 
# 
# From -- ./inp_files/1588.got.cif
#   From: 2010.05.17/outbox.cif.g08.bks.cpg/sg9_1_cif.got.tgz:1588.got - 2010.06.03 20:04:27.
