data_PCOD9139717
_publ_section_title
;
Structure prediction by ZEFSAII (Michael W. Deem and Ramdas Pophale) SiO2 
 PCOD9139717
Probable space group: C C
;
_chemical_formula_sum "Si O2"
_cell_formula_units_Z 24
_cell_length_a 7.813188
_cell_length_b 16.974589
_cell_length_c 8.137618
_cell_angle_alpha 90.000000
_cell_angle_beta 49.477513
_cell_angle_gamma 90.000000
_cell_volume 820.398244
_symmetry_space_group_name_H-M "C C"
_symmetry_group_IT_number 9
_symmetry_cell_setting 'monoclinic'
loop_
_space_group_symop_operation_xyz
x,y,z
x,-y,1/2+z
1/2+x,1/2+y,z
1/2+x,1/2-y,1/2+z
loop_
_atom_site_type_symbol
_atom_site_label
_atom_site_fract_x
_atom_site_fract_y
_atom_site_fract_z
Si Si1 0.657390 0.519293 0.161880
Si Si2 0.634541 0.661464 0.937371
Si Si3 0.570425 0.917308 0.839805
Si Si4 0.883096 0.258836 0.814268
Si Si5 0.634790 0.818139 0.082792
Si Si6 0.367797 0.562679 0.623101
O O1 0.648467 0.575984 0.009324
O O2 0.573084 0.567062 0.368796
O O3 0.476923 0.452058 0.229179
O O4 0.890500 0.475529 0.037217
O O5 0.667314 0.726017 0.063103
O O6 0.464991 0.700190 0.911904
O O7 0.876466 0.669443 0.702797
O O8 0.453248 0.850025 0.805940
O O9 0.721097 0.986072 0.666898
O O10 0.729747 0.867627 0.867882
O O11 0.096723 0.241352 0.535180
O O12 0.715503 0.860786 0.195670
#
# Coordination Sequence:
#
# PCOD9139717 Si02
#       6
#     4   4   4   4   4   4
#     4  12  26  42  73 101 144 182 244 298 378 432
#     4  11  20  40  71 103 132 190 247 298 344 453
#     4  11  24  42  68 107 139 184 236 310 353 438
#     4  11  23  40  73 107 142 186 257 304 357 430
#     4  11  22  42  70 101 140 183 246 294 365 425
#     4  12  25  42  67 107 141 187 234 310 367 440
#
# _framework density 29.254085
#
# number of rings (size 3 to 8) (size 9 to 14) (size 15 to 20)
#    0.000    0.667    6.667    3.000    2.333    0.000 
#    0.000    0.000    7.333    2.000    0.000    0.000 
#    0.000    0.000    0.000    0.000    0.000    0.000 
#
# Total GULP energy -66925.551578 kJ/mol
# GULP energy per Si atom -5577.129298 kJ/mol
# Density = 2.918750 g / cm^3
# Si number density = 29.254085 Si / 1000 Ang^3
#
#
#
# Elastic Constant Matrix: (Units=GPa)
#
#
# Indices 1 2 3 4 5 6 
#
# 1 96.7995 27.9512 20.7863 0.0000 -19.2432 0.0000
# 2 27.9512 171.3251 36.0597 0.0000 -10.0269 0.0000
# 3 20.7863 36.0597 135.5429 0.0000 -11.5550 0.0000
# 4 0.0000 0.0000 0.0000 57.1772 0.0000 6.6580
# 5 -19.2432 -10.0269 -11.5550 0.0000 26.8342 0.0000
# 6 0.0000 0.0000 0.0000 6.6580 0.0000 59.1777
#
#
#
# Elastic Compliance Matrix: (Units=1/GPa)
#
#
# Indices 1 2 3 4 5 6 
#
# 1 0.012525 -0.001389 -0.000862 0.000000 0.008092 0.000000
# 2 -0.001389 0.006409 -0.001425 0.000000 0.000785 0.000000
# 3 -0.000862 -0.001425 0.008088 0.000000 0.002332 0.000000
# 4 0.000000 0.000000 0.000000 0.017722 0.000000 -0.001994
# 5 0.008092 0.000785 0.002332 0.000000 0.044367 0.000000
# 6 0.000000 0.000000 0.000000 -0.001994 0.000000 0.017123
#
#
# Mechanical properties :
#
#
# Convention : Reuss Voigt Hill
#
# Bulk Modulus (GPa) = 50.83412 63.69576 57.26494
# Shear Modulus (GPa) = 41.61765 49.89584 45.75674
#
# Velocity S-wave (km/s) = 3.77586 4.13437 3.95918
# Velocity P-wave (km/s) = 6.03523 6.67917 6.36535
#
# Compressibility (1/GPa) = 0.01967183
#
# Stress axis : x y z
#
# Youngs Moduli (GPa) = 79.83864 156.02242 123.64215
#
# Poissons Ratio (x) = 0.21664 0.10652
# Poissons Ratio (y) = 0.11086 0.17622
# Poissons Ratio (z) = 0.06879 0.22237
#
# Static dielectric constant tensor:
#      x y z
#    x 2.295160 0.000000 -0.044460 
#    y 0.000000 2.270280 0.000000 
#    z -0.044460 0.000000 2.585290 
# 
# From -- ./inp_files/5318.got.cif
#   From: 2010.05.17/outbox.cif.g08.bks.cpg/sg9_3_cif.got.tgz:5318.got - 2010.06.03 20:04:27.
