data_PCOD9139513
_publ_section_title
;
Structure prediction by ZEFSAII (Michael W. Deem and Ramdas Pophale) SiO2 
 PCOD9139513
Probable space group: C C
;
_chemical_formula_sum "Si O2"
_cell_formula_units_Z 24
_cell_length_a 14.770761
_cell_length_b 6.341017
_cell_length_c 11.984516
_cell_angle_alpha 90.000000
_cell_angle_beta 115.165283
_cell_angle_gamma 90.000000
_cell_volume 1015.948273
_symmetry_space_group_name_H-M "C C"
_symmetry_group_IT_number 9
_symmetry_cell_setting 'monoclinic'
loop_
_space_group_symop_operation_xyz
x,y,z
x,-y,1/2+z
1/2+x,1/2+y,z
1/2+x,1/2-y,1/2+z
loop_
_atom_site_type_symbol
_atom_site_label
_atom_site_fract_x
_atom_site_fract_y
_atom_site_fract_z
Si Si1 0.209070 0.713562 0.101710
Si Si2 0.321685 0.013887 0.003263
Si Si3 0.516655 0.106416 0.720564
Si Si4 0.392257 0.253840 0.855692
Si Si5 0.536653 0.547463 0.038938
Si Si6 0.141178 0.668174 0.430398
O O1 0.296793 0.674336 0.235749
O O2 0.262522 0.812621 0.019024
O O3 0.128717 0.884676 0.101681
O O4 0.156443 0.502580 0.035496
O O5 0.434781 0.416783 0.968826
O O6 0.420306 0.026420 0.130603
O O7 0.362505 0.033505 0.899440
O O8 0.482310 0.215791 0.817273
O O9 0.534588 0.286096 0.638422
O O10 0.605861 0.951266 0.800843
O O11 0.243403 0.204192 0.970891
O O12 0.558844 0.672106 0.935535
#
# Coordination Sequence:
#
# PCOD9139513 Si02
#       6
#     4   4   4   4   4   4
#     4  10  25  48  71 104 138 188 236 291 354 414
#     4  10  26  45  71 106 138 181 237 289 356 413
#     4  11  25  47  75 103 143 188 235 288 356 419
#     4  11  25  45  73 102 146 178 235 294 349 415
#     4  11  26  46  73 107 141 188 236 287 356 418
#     4  11  25  47  71 104 140 187 237 289 353 419
#
# _framework density 23.623252000000001
#
# number of rings (size 3 to 8) (size 9 to 14) (size 15 to 20)
#    0.000    1.333    1.667    1.000   11.667    0.000 
#    3.000    0.000    0.000    0.000    0.000    0.000 
#    0.000    0.000    0.000    0.000    0.000    0.000 
#
# Total GULP energy -67157.070226 kJ/mol
# GULP energy per Si atom -5596.422519 kJ/mol
# Density = 2.356948 g / cm^3
# Si number density = 23.623252 Si / 1000 Ang^3
#
#
#
# Elastic Constant Matrix: (Units=GPa)
#
#
# Indices 1 2 3 4 5 6 
#
# 1 90.3415 43.9944 16.7535 0.0000 1.2835 0.0000
# 2 43.9944 84.3612 24.0527 0.0000 3.4929 0.0000
# 3 16.7535 24.0527 41.4582 0.0000 -6.7930 0.0000
# 4 0.0000 0.0000 0.0000 50.3273 0.0000 5.8212
# 5 1.2835 3.4929 -6.7930 0.0000 48.5624 0.0000
# 6 0.0000 0.0000 0.0000 5.8212 0.0000 34.8702
#
#
#
# Elastic Compliance Matrix: (Units=1/GPa)
#
#
# Indices 1 2 3 4 5 6 
#
# 1 0.014952 -0.007265 -0.001849 0.000000 -0.000131 0.000000
# 2 -0.007265 0.017972 -0.007851 0.000000 -0.002199 0.000000
# 3 -0.001849 -0.007851 0.030216 0.000000 0.004840 0.000000
# 4 0.000000 0.000000 0.000000 0.020261 0.000000 -0.003382
# 5 -0.000131 -0.002199 0.004840 0.000000 0.021431 0.000000
# 6 0.000000 0.000000 0.000000 -0.003382 0.000000 0.029242
#
#
# Mechanical properties :
#
#
# Convention : Reuss Voigt Hill
#
# Bulk Modulus (GPa) = 34.23500 42.86246 38.54873
# Shear Modulus (GPa) = 28.13097 35.50933 31.82015
#
# Velocity S-wave (km/s) = 3.45457 3.88126 3.67411
# Velocity P-wave (km/s) = 5.51684 6.18620 5.86109
#
# Compressibility (1/GPa) = 0.02920987
#
# Stress axis : x y z
#
# Youngs Moduli (GPa) = 66.88253 55.64237 33.09509
#
# Poissons Ratio (x) = 0.40423 0.06119
# Poissons Ratio (y) = 0.48588 0.25984
# Poissons Ratio (z) = 0.12365 0.43687
#
# Static dielectric constant tensor:
#      x y z
#    x 1.918010 0.000000 -0.050890 
#    y 0.000000 1.897840 0.000000 
#    z -0.050890 0.000000 1.903730 
# 
# From -- ./inp_files/17412.got.cif
#   From: 2010.05.17/outbox.cif.g08.bks.cpg/sg9_9_cif.got.tgz:17412.got - 2010.06.03 20:04:27.
