data_PCOD9139242
_publ_section_title
;
Structure prediction by ZEFSAII (Michael W. Deem and Ramdas Pophale) SiO2 
 PCOD9139242
Probable space group: C C
;
_chemical_formula_sum "Si O2"
_cell_formula_units_Z 28
_cell_length_a 25.484049
_cell_length_b 7.150772
_cell_length_c 17.754128
_cell_angle_alpha 90.000000
_cell_angle_beta 19.228722
_cell_angle_gamma 90.000000
_cell_volume 1065.528843
_symmetry_space_group_name_H-M "C C"
_symmetry_group_IT_number 9
_symmetry_cell_setting 'monoclinic'
loop_
_space_group_symop_operation_xyz
x,y,z
x,-y,1/2+z
1/2+x,1/2+y,z
1/2+x,1/2-y,1/2+z
loop_
_atom_site_type_symbol
_atom_site_label
_atom_site_fract_x
_atom_site_fract_y
_atom_site_fract_z
Si Si1 0.721200 0.548303 0.924770
Si Si2 0.883651 0.694887 0.092922
Si Si3 0.740986 0.731509 0.120893
Si Si4 0.979337 0.766147 0.309653
Si Si5 0.127065 0.798213 0.270296
Si Si6 0.298048 0.586649 0.273116
Si Si7 0.972222 0.565937 0.701433
O O1 0.778206 0.478368 0.765432
O O2 0.720441 0.771357 0.939391
O O3 0.855840 0.474209 0.798844
O O4 0.561175 0.444356 0.161986
O O5 0.824563 0.749058 0.089236
O O6 0.843989 0.870015 0.202536
O O7 0.073875 0.658458 0.838290
O O8 0.679101 0.516562 0.196202
O O9 0.875135 0.731584 0.874008
O O10 0.790556 0.798261 0.573410
O O11 0.066302 0.735261 0.270733
O O12 0.007469 0.590373 0.217027
O O13 0.965032 0.807818 0.536732
O O14 0.141290 0.605439 0.432539
#
# Coordination Sequence:
#
# PCOD9139242 Si02
#       7
#     4   4   4   4   4   4   4
#     4  12  26  47  77 113 153 205 255 323 386 461
#     4  11  25  49  77 103 157 200 248 324 387 456
#     4  10  24  46  77 107 150 202 256 309 398 457
#     4  11  22  50  76 105 161 203 252 321 387 458
#     4  10  25  46  76 112 155 204 260 315 391 468
#     4  11  27  45  73 110 150 194 265 310 384 454
#     4  11  25  49  74 118 154 198 268 314 391 464
#
# _framework density 26.278033000000001
#
# number of rings (size 3 to 8) (size 9 to 14) (size 15 to 20)
#    0.000    1.143    4.286    0.857    8.000    1.143 
#    5.143    0.000    0.000    0.000    0.000    0.000 
#    0.000    0.000    0.000    0.000    0.000    0.000 
#
# Total GULP energy -78158.778362 kJ/mol
# GULP energy per Si atom -5582.769883 kJ/mol
# Density = 2.621822 g / cm^3
# Si number density = 26.278033 Si / 1000 Ang^3
#
#
#
# Elastic Constant Matrix: (Units=GPa)
#
#
# Indices 1 2 3 4 5 6 
#
# 1 91.3850 31.2739 20.8535 -0.0001 -24.2648 0.0000
# 2 31.2739 121.9400 35.4632 -0.0002 -9.0315 0.0000
# 3 20.8535 35.4632 214.8639 -0.0003 -30.3109 0.0000
# 4 -0.0001 -0.0002 -0.0003 42.8220 0.0000 -5.4974
# 5 -24.2648 -9.0315 -30.3109 0.0000 30.4414 0.0000
# 6 0.0000 0.0000 0.0000 -5.4974 0.0000 23.2046
#
#
#
# Elastic Compliance Matrix: (Units=1/GPa)
#
#
# Indices 1 2 3 4 5 6 
#
# 1 0.014978 -0.003184 0.000725 0.000000 0.011716 0.000000
# 2 -0.003184 0.009338 -0.001395 0.000000 -0.001157 0.000000
# 3 0.000725 -0.001395 0.005628 0.000000 0.005767 0.000000
# 4 0.000000 0.000000 0.000000 0.024085 0.000000 0.005706
# 5 0.011716 -0.001157 0.005767 0.000000 0.047588 0.000000
# 6 0.000000 0.000000 0.000000 0.005706 0.000000 0.044447
#
#
# Mechanical properties :
#
#
# Convention : Reuss Voigt Hill
#
# Bulk Modulus (GPa) = 44.97847 67.04111 56.00979
# Shear Modulus (GPa) = 31.02053 42.00017 36.51035
#
# Velocity S-wave (km/s) = 3.43953 4.00221 3.73149
# Velocity P-wave (km/s) = 5.73824 6.85015 6.31870
#
# Compressibility (1/GPa) = 0.02223286
#
# Stress axis : x y z
#
# Youngs Moduli (GPa) = 66.76506 107.09463 177.69389
#
# Poissons Ratio (x) = 0.34103 -0.12876
# Poissons Ratio (y) = 0.21261 0.24795
# Poissons Ratio (z) = -0.04838 0.14944
#
# Static dielectric constant tensor:
#      x y z
#    x 2.082190 0.000000 -0.013670 
#    y 0.000000 2.112930 0.000000 
#    z -0.013670 0.000000 2.197110 
# 
# From -- ./inp_files/31569.got.cif
#   From: 2010.05.17/outbox.cif.g08.bks.cpg/sg9_16_cif.got.tgz:31569.got - 2010.06.03 20:04:27.
