data_PCOD9139804
_publ_section_title
;
Structure prediction by ZEFSAII (Michael W. Deem and Ramdas Pophale) SiO2 
 PCOD9139804
Probable space group: C C
;
_chemical_formula_sum "Si O2"
_cell_formula_units_Z 32
_cell_length_a 19.590149
_cell_length_b 15.726931
_cell_length_c 14.081716
_cell_angle_alpha 90.000000
_cell_angle_beta 160.397012
_cell_angle_gamma 90.000000
_cell_volume 1455.562070
_symmetry_space_group_name_H-M "C C"
_symmetry_group_IT_number 9
_symmetry_cell_setting 'monoclinic'
loop_
_space_group_symop_operation_xyz
x,y,z
x,-y,1/2+z
1/2+x,1/2+y,z
1/2+x,1/2-y,1/2+z
loop_
_atom_site_type_symbol
_atom_site_label
_atom_site_fract_x
_atom_site_fract_y
_atom_site_fract_z
Si Si1 0.461940 0.217086 0.939770
Si Si2 0.599963 0.485383 0.234786
Si Si3 0.697200 0.165858 0.424945
Si Si4 0.385896 0.157890 0.184055
Si Si5 0.092461 0.884322 0.045459
Si Si6 0.941538 0.591144 0.763995
Si Si7 0.629916 0.039197 0.639906
Si Si8 0.742606 0.029699 0.994259
O O1 0.269801 0.173303 0.736931
O O2 0.464435 0.185179 0.834203
O O3 0.646703 0.187219 0.249296
O O4 0.461038 0.318681 0.937437
O O5 0.692275 0.405960 0.417569
O O6 0.652759 0.459438 0.195827
O O7 0.728120 0.566008 0.438564
O O8 0.361629 0.507248 0.926364
O O9 0.494870 0.161549 0.224355
O O10 0.822108 0.246694 0.626081
O O11 0.784257 0.071238 0.547336
O O12 0.548713 0.117224 0.470106
O O13 0.954227 0.921816 0.781573
O O14 0.981818 0.536020 0.911862
O O15 0.108141 0.556759 0.908290
O O16 0.623294 0.054059 0.742990
#
# Coordination Sequence:
#
# PCOD9139804 Si02
#       8
#     4   4   4   4   4   4   4   4
#     4  12  23  41  68 103 136 179 236 296 345 412
#     4  11  21  42  68  97 142 174 229 290 344 415
#     4  12  22  43  69 103 139 179 237 289 345 419
#     4  11  25  43  67 108 139 178 237 292 355 412
#     4  12  24  41  68 104 139 182 233 289 356 417
#     4  11  23  42  69 101 135 179 234 290 348 417
#     4  11  24  44  67 100 143 181 227 289 354 423
#     4  12  24  44  70 100 141 186 235 287 355 423
#
# _framework density 21.984635000000001
#
# number of rings (size 3 to 8) (size 9 to 14) (size 15 to 20)
#    0.000    0.500    7.500    1.500    1.750    0.000 
#    0.000    6.250    0.000    0.000    0.000    0.000 
#    0.000    0.000    0.000    0.000    0.000    0.000 
#
# Total GULP energy -89435.085006 kJ/mol
# GULP energy per Si atom -5589.692813 kJ/mol
# Density = 2.193460 g / cm^3
# Si number density = 21.984635 Si / 1000 Ang^3
#
#
#
# Elastic Constant Matrix: (Units=GPa)
#
#
# Indices 1 2 3 4 5 6 
#
# 1 82.5864 29.3899 29.2903 0.0000 -20.7878 0.0000
# 2 29.3899 98.8325 53.1040 0.0000 -5.9471 0.0000
# 3 29.2903 53.1040 116.7552 0.0000 -14.4081 0.0000
# 4 0.0000 0.0000 0.0000 45.7102 0.0000 -3.4029
# 5 -20.7878 -5.9471 -14.4081 0.0000 36.4059 0.0000
# 6 0.0000 0.0000 0.0000 -3.4029 0.0000 32.3110
#
#
#
# Elastic Compliance Matrix: (Units=1/GPa)
#
#
# Indices 1 2 3 4 5 6 
#
# 1 0.015839 -0.003472 -0.001417 0.000000 0.007916 0.000000
# 2 -0.003472 0.014154 -0.005810 0.000000 -0.001970 0.000000
# 3 -0.001417 -0.005810 0.011928 0.000000 0.002962 0.000000
# 4 0.000000 0.000000 0.000000 0.022050 0.000000 0.002322
# 5 0.007916 -0.001970 0.002962 0.000000 0.032839 0.000000
# 6 0.000000 0.000000 0.000000 0.002322 0.000000 0.031194
#
#
# Mechanical properties :
#
#
# Convention : Reuss Voigt Hill
#
# Bulk Modulus (GPa) = 48.72546 57.97139 53.34843
# Shear Modulus (GPa) = 32.00128 35.31140 33.65634
#
# Velocity S-wave (km/s) = 3.81940 4.01207 3.91692
# Velocity P-wave (km/s) = 6.45461 6.92016 6.69143
#
# Compressibility (1/GPa) = 0.02052315
#
# Stress axis : x y z
#
# Youngs Moduli (GPa) = 63.13340 70.65295 83.83292
#
# Poissons Ratio (x) = 0.24532 0.11883
# Poissons Ratio (y) = 0.21921 0.48703
# Poissons Ratio (z) = 0.08949 0.41046
#
# Static dielectric constant tensor:
#      x y z
#    x 1.869500 0.000000 0.038050 
#    y 0.000000 1.804120 0.000000 
#    z 0.038050 0.000000 1.810430 
# 
# From -- ./inp_files/7440.got.cif
#   From: 2010.05.17/outbox.cif.g08.bks.cpg/sg9_4_cif.got.tgz:7440.got - 2010.06.03 20:04:27.
