data_PCOD9139004
_publ_section_title
;
Structure prediction by ZEFSAII (Michael W. Deem and Ramdas Pophale) SiO2 
 PCOD9139004
Probable space group: C C
;
_chemical_formula_sum "Si O2"
_cell_formula_units_Z 32
_cell_length_a 10.350533
_cell_length_b 17.838039
_cell_length_c 8.260618
_cell_angle_alpha 90.000000
_cell_angle_beta 64.816968
_cell_angle_gamma 90.000000
_cell_volume 1380.220386
_symmetry_space_group_name_H-M "C C"
_symmetry_group_IT_number 9
_symmetry_cell_setting 'monoclinic'
loop_
_space_group_symop_operation_xyz
x,y,z
x,-y,1/2+z
1/2+x,1/2+y,z
1/2+x,1/2-y,1/2+z
loop_
_atom_site_type_symbol
_atom_site_label
_atom_site_fract_x
_atom_site_fract_y
_atom_site_fract_z
Si Si1 0.135610 0.441700 0.000000
Si Si2 0.929887 0.712258 0.956890
Si Si3 0.611974 0.769691 0.061262
Si Si4 0.256851 0.901459 0.959151
Si Si5 0.469261 0.396404 0.301188
Si Si6 0.956983 0.740172 0.312099
Si Si7 0.841256 0.018879 0.134374
Si Si8 0.873170 0.452514 0.573476
O O1 0.091023 0.359028 0.067879
O O2 0.261633 0.466311 0.050075
O O3 0.014251 0.505833 0.069770
O O4 0.211460 0.436155 0.784849
O O5 0.770355 0.744337 0.023098
O O6 0.994617 0.725748 0.102823
O O7 0.919054 0.621507 0.951780
O O8 0.015127 0.752277 0.766667
O O9 0.567018 0.745480 0.902706
O O10 0.365699 0.831992 0.912515
O O11 0.260365 0.922052 0.766817
O O12 0.117825 0.878836 0.134093
O O13 0.306385 0.979887 0.009220
O O14 0.377027 0.320454 0.346778
O O15 0.408701 0.462795 0.225241
O O16 0.459153 0.429080 0.487256
#
# Coordination Sequence:
#
# PCOD9139004 Si02
#       8
#     4   4   4   4   4   4   4   4
#     4  11  22  44  72 103 145 189 259 307 385 470
#     4  11  29  47  74 113 158 203 263 327 395 469
#     4  12  27  48  74 111 154 205 257 325 397 470
#     4  11  24  44  72 105 144 197 255 314 391 458
#     4  11  25  46  70 105 150 191 247 321 391 463
#     4  11  28  46  75 107 153 204 254 315 397 466
#     4  10  24  43  71 106 140 195 241 319 388 468
#     4  11  23  44  74 108 142 200 250 322 378 464
#
# _framework density 23.184705000000001
#
# number of rings (size 3 to 8) (size 9 to 14) (size 15 to 20)
#    0.000    1.000    1.250    3.750    8.750    2.000 
#    4.500    0.000    0.000    0.000    0.000    0.000 
#    0.000    0.000    0.000    0.000    0.000    0.000 
#
# Total GULP energy -89293.268190 kJ/mol
# GULP energy per Si atom -5580.829262 kJ/mol
# Density = 2.313194 g / cm^3
# Si number density = 23.184705 Si / 1000 Ang^3
#
#
#
# Elastic Constant Matrix: (Units=GPa)
#
#
# Indices 1 2 3 4 5 6 
#
# 1 57.9734 1.4604 59.2595 0.0000 3.1925 0.0000
# 2 1.4604 102.8130 43.7227 0.0000 9.6395 0.0000
# 3 59.2595 43.7227 134.1896 0.0000 -6.0121 0.0000
# 4 0.0000 0.0000 0.0000 20.0654 0.0000 8.2602
# 5 3.1925 9.6395 -6.0121 0.0000 21.3692 0.0000
# 6 0.0000 0.0000 0.0000 8.2602 0.0000 30.6930
#
#
#
# Elastic Compliance Matrix: (Units=1/GPa)
#
#
# Indices 1 2 3 4 5 6 
#
# 1 0.040346 0.010339 -0.021941 0.000000 -0.016864 0.000000
# 2 0.010339 0.014816 -0.009887 0.000000 -0.011010 0.000000
# 3 -0.021941 -0.009887 0.020974 0.000000 0.013639 0.000000
# 4 0.000000 0.000000 0.000000 0.056046 0.000000 -0.015083
# 5 -0.016864 -0.011010 0.013639 0.000000 0.058119 0.000000
# 6 0.000000 0.000000 0.000000 -0.015083 0.000000 0.036640
#
#
# Mechanical properties :
#
#
# Convention : Reuss Voigt Hill
#
# Bulk Modulus (GPa) = 30.15872 55.98458 43.07165
# Shear Modulus (GPa) = 17.79538 27.12776 22.46157
#
# Velocity S-wave (km/s) = 2.77347 3.42434 3.11595
# Velocity P-wave (km/s) = 4.82623 6.31145 5.61814
#
# Compressibility (1/GPa) = 0.03315791
#
# Stress axis : x y z
#
# Youngs Moduli (GPa) = 24.78586 67.49381 47.67804
#
# Poissons Ratio (x) = -0.69781 1.04612
# Poissons Ratio (y) = -0.25626 0.47137
# Poissons Ratio (z) = 0.54383 0.66728
#
# Static dielectric constant tensor:
#      x y z
#    x 1.880580 0.000000 0.024630 
#    y 0.000000 1.868370 0.000000 
#    z 0.024630 0.000000 2.015200 
# 
# From -- ./inp_files/8030.got.cif
#   From: 2010.05.17/outbox.cif.g08.bks.cpg/sg9_5_cif.got.tgz:8030.got - 2010.06.03 20:04:27.
