data_PCOD9139369
_publ_section_title
;
Structure prediction by ZEFSAII (Michael W. Deem and Ramdas Pophale) SiO2 
 PCOD9139369
Probable space group: C C
;
_chemical_formula_sum "Si O2"
_cell_formula_units_Z 24
_cell_length_a 17.565802
_cell_length_b 4.861131
_cell_length_c 12.532337
_cell_angle_alpha 90.000000
_cell_angle_beta 102.925950
_cell_angle_gamma 90.000000
_cell_volume 1043.014887
_symmetry_space_group_name_H-M "C C"
_symmetry_group_IT_number 9
_symmetry_cell_setting 'monoclinic'
loop_
_space_group_symop_operation_xyz
x,y,z
x,-y,1/2+z
1/2+x,1/2+y,z
1/2+x,1/2-y,1/2+z
loop_
_atom_site_type_symbol
_atom_site_label
_atom_site_fract_x
_atom_site_fract_y
_atom_site_fract_z
Si Si1 0.065220 0.592542 0.716540
Si Si2 0.449608 0.072001 0.494377
Si Si3 0.666443 0.859160 0.581677
Si Si4 0.023266 0.905257 0.907381
Si Si5 0.701572 0.730124 0.809603
Si Si6 0.776687 0.793650 0.435519
O O1 0.127592 0.606254 0.638132
O O2 0.041708 0.835131 0.789301
O O3 0.115924 0.371698 0.802634
O O4 0.988906 0.517503 0.622959
O O5 0.498620 0.296467 0.441147
O O6 0.363293 0.189634 0.480085
O O7 0.453908 0.796305 0.426089
O O8 0.597252 0.708384 0.497182
O O9 0.699024 0.662800 0.684328
O O10 0.735614 0.930539 0.524818
O O11 0.724345 0.468249 0.884952
O O12 0.765078 0.970011 0.844810
#
# Coordination Sequence:
#
# PCOD9139369 Si02
#       6
#     4   4   4   4   4   4
#     4   9  23  47  70 103 130 191 233 277 344 420
#     4  11  27  41  69 103 143 179 227 293 354 405
#     4   9  22  42  72  95 131 182 233 285 326 420
#     4  11  23  44  70  97 138 183 233 285 338 423
#     4  10  25  41  71  98 134 183 235 280 341 415
#     4  12  24  45  66 106 140 178 231 294 351 399
#
# _framework density 23.010216
#
# number of rings (size 3 to 8) (size 9 to 14) (size 15 to 20)
#    1.000    0.667    1.667    1.000    4.667    6.667 
#    0.000    0.000    0.000    0.000    0.000    0.000 
#    0.000    0.000    0.000    0.000    0.000    0.000 
#
# Total GULP energy -66895.038186 kJ/mol
# GULP energy per Si atom -5574.586515 kJ/mol
# Density = 2.295784 g / cm^3
# Si number density = 23.010216 Si / 1000 Ang^3
#
#
#
# Elastic Constant Matrix: (Units=GPa)
#
#
# Indices 1 2 3 4 5 6 
#
# 1 104.1176 -5.4235 53.0173 0.0000 8.0300 0.0000
# 2 -5.4235 82.9461 14.9611 0.0000 9.9167 0.0000
# 3 53.0173 14.9611 87.2332 0.0000 11.7236 0.0000
# 4 0.0000 0.0000 0.0000 8.7847 0.0000 8.6337
# 5 8.0300 9.9167 11.7236 0.0000 20.5126 0.0000
# 6 0.0000 0.0000 0.0000 8.6337 0.0000 31.5657
#
#
#
# Elastic Compliance Matrix: (Units=1/GPa)
#
#
# Indices 1 2 3 4 5 6 
#
# 1 0.014498 0.002801 -0.009042 0.000000 -0.001862 0.000000
# 2 0.002801 0.013515 -0.003244 0.000000 -0.005776 0.000000
# 3 -0.009042 -0.003244 0.018229 0.000000 -0.005310 0.000000
# 4 0.000000 0.000000 0.000000 0.155684 0.000000 -0.042582
# 5 -0.001862 -0.005776 -0.005310 0.000000 0.055307 0.000000
# 6 0.000000 0.000000 0.000000 -0.042582 0.000000 0.043327
#
#
# Mechanical properties :
#
#
# Convention : Reuss Voigt Hill
#
# Bulk Modulus (GPa) = 36.66628 44.37853 40.52241
# Shear Modulus (GPa) = 15.21513 26.28873 20.75193
#
# Velocity S-wave (km/s) = 2.57424 3.38373 3.00635
# Velocity P-wave (km/s) = 4.98046 5.88171 5.44974
#
# Compressibility (1/GPa) = 0.02727301
#
# Stress axis : x y z
#
# Youngs Moduli (GPa) = 68.97430 73.99219 54.85811
#
# Poissons Ratio (x) = -0.20729 0.49601
# Poissons Ratio (y) = -0.19323 0.17797
# Poissons Ratio (z) = 0.62364 0.24005
#
# Static dielectric constant tensor:
#      x y z
#    x 1.893020 0.000000 -0.031490 
#    y 0.000000 1.925410 0.000000 
#    z -0.031490 0.000000 1.926640 
# 
# From -- ./inp_files/18858.got.cif
#   From: 2010.05.17/outbox.cif.g08.bks.cpg/sg9_10_cif.got.tgz:18858.got - 2010.06.03 20:04:27.
