data_PCOD9139655
_publ_section_title
;
Structure prediction by ZEFSAII (Michael W. Deem and Ramdas Pophale) SiO2 
 PCOD9139655
Probable space group: C C
;
_chemical_formula_sum "Si O2"
_cell_formula_units_Z 32
_cell_length_a 11.107528
_cell_length_b 13.429872
_cell_length_c 20.134666
_cell_angle_alpha 90.000000
_cell_angle_beta 28.546326
_cell_angle_gamma 90.000000
_cell_volume 1435.300140
_symmetry_space_group_name_H-M "C C"
_symmetry_group_IT_number 9
_symmetry_cell_setting 'monoclinic'
loop_
_space_group_symop_operation_xyz
x,y,z
x,-y,1/2+z
1/2+x,1/2+y,z
1/2+x,1/2-y,1/2+z
loop_
_atom_site_type_symbol
_atom_site_label
_atom_site_fract_x
_atom_site_fract_y
_atom_site_fract_z
Si Si1 0.293560 0.795977 0.306900
Si Si2 0.809937 0.613404 0.171964
Si Si3 0.688961 0.621812 0.085443
Si Si4 0.071599 0.673589 0.801531
Si Si5 0.182615 0.004066 0.351304
Si Si6 0.725650 0.216982 0.030404
Si Si7 0.461391 0.181289 0.290213
Si Si8 0.365112 0.531517 0.131456
O O1 0.482517 0.708782 0.194925
O O2 0.340195 0.809837 0.362781
O O3 0.007370 0.781137 0.423756
O O4 0.349536 0.907155 0.253374
O O5 0.762019 0.576953 0.121160
O O6 0.745430 0.731104 0.206569
O O7 0.621421 0.556046 0.312001
O O8 0.089679 0.615723 0.068719
O O9 0.580266 0.545234 0.083405
O O10 0.945486 0.669893 0.934110
O O11 0.211267 0.569651 0.720193
O O12 0.326689 0.086707 0.323358
O O13 0.965362 0.973986 0.507571
O O14 0.558365 0.243755 0.178162
O O15 0.778847 0.273426 0.934481
O O16 0.696320 0.130935 0.214238
#
# Coordination Sequence:
#
# PCOD9139655 Si02
#       8
#     4   4   4   4   4   4   4   4
#     4  11  22  42  73  98 137 179 236 289 339 422
#     4  10  27  43  68 103 147 179 233 291 352 416
#     4  11  24  46  67 107 140 180 233 290 355 415
#     4  11  24  43  71 103 134 187 233 290 344 421
#     4  11  23  44  67 104 130 190 233 280 347 420
#     4  11  23  43  66 106 138 188 229 293 349 417
#     4  11  22  40  71 102 136 178 243 283 352 419
#     4  12  21  43  75  97 136 183 240 282 348 430
#
# _framework density 22.294989000000001
#
# number of rings (size 3 to 8) (size 9 to 14) (size 15 to 20)
#    0.000    1.000    5.000    0.750    7.000    0.000 
#    2.250    2.500    0.000    0.000    0.000    0.000 
#    0.000    0.000    0.000    0.000    0.000    0.000 
#
# Total GULP energy -89157.200838 kJ/mol
# GULP energy per Si atom -5572.325052 kJ/mol
# Density = 2.224424 g / cm^3
# Si number density = 22.294989 Si / 1000 Ang^3
#
#
#
# Elastic Constant Matrix: (Units=GPa)
#
#
# Indices 1 2 3 4 5 6 
#
# 1 106.8264 9.5320 34.8455 0.0048 17.2757 -0.0039
# 2 9.5320 31.2080 18.5232 -0.0078 9.4010 -0.0015
# 3 34.8455 18.5232 88.5495 -0.0144 6.3702 -0.0064
# 4 0.0048 -0.0078 -0.0144 28.1714 -0.0028 3.5873
# 5 17.2757 9.4010 6.3702 -0.0028 29.4248 0.0014
# 6 -0.0039 -0.0015 -0.0064 3.5873 0.0014 24.8039
#
#
#
# Elastic Compliance Matrix: (Units=1/GPa)
#
#
# Indices 1 2 3 4 5 6 
#
# 1 0.011703 0.000873 -0.004341 -0.000005 -0.006210 0.000002
# 2 0.000873 0.039928 -0.007864 0.000006 -0.011567 0.000000
# 3 -0.004341 -0.007864 0.014508 0.000006 0.001920 0.000002
# 4 -0.000005 0.000006 0.000006 0.036163 0.000003 -0.005230
# 5 -0.006210 -0.011567 0.001920 0.000003 0.040911 -0.000004
# 6 0.000002 0.000000 0.000002 -0.005230 -0.000004 0.041073
#
#
# Mechanical properties :
#
#
# Convention : Reuss Voigt Hill
#
# Bulk Modulus (GPa) = 23.00141 39.15392 31.07767
# Shear Modulus (GPa) = 22.57921 27.39225 24.98573
#
# Velocity S-wave (km/s) = 3.18582 3.50898 3.35130
# Velocity P-wave (km/s) = 4.88588 5.83242 5.38001
#
# Compressibility (1/GPa) = 0.04347560
#
# Stress axis : x y z
#
# Youngs Moduli (GPa) = 85.44461 25.04496 68.92599
#
# Poissons Ratio (x) = -0.02186 0.29923
# Poissons Ratio (y) = -0.07458 0.54202
# Poissons Ratio (z) = 0.37094 0.19695
#
# Static dielectric constant tensor:
#      x y z
#    x 1.918780 0.000000 -0.058120 
#    y 0.000000 1.867880 0.000000 
#    z -0.058120 0.000000 1.879920 
# 
# From -- ./inp_files/20271.got.cif
#   From: 2010.05.17/outbox.cif.g08.bks.cpg/sg9_11_cif.got.tgz:20271.got - 2010.06.03 20:04:27.
