data_PCOD9139627
_publ_section_title
;
Structure prediction by ZEFSAII (Michael W. Deem and Ramdas Pophale) SiO2 
 PCOD9139627
Probable space group: C C
;
_chemical_formula_sum "Si O2"
_cell_formula_units_Z 20
_cell_length_a 4.754011
_cell_length_b 19.973853
_cell_length_c 8.559534
_cell_angle_alpha 90.000000
_cell_angle_beta 99.770351
_cell_angle_gamma 90.000000
_cell_volume 800.989735
_symmetry_space_group_name_H-M "C C"
_symmetry_group_IT_number 9
_symmetry_cell_setting 'monoclinic'
loop_
_space_group_symop_operation_xyz
x,y,z
x,-y,1/2+z
1/2+x,1/2+y,z
1/2+x,1/2-y,1/2+z
loop_
_atom_site_type_symbol
_atom_site_label
_atom_site_fract_x
_atom_site_fract_y
_atom_site_fract_z
Si Si1 0.721470 0.089750 0.828570
Si Si2 0.778955 0.321241 0.393456
Si Si3 0.557983 0.821241 0.763195
Si Si4 0.418469 0.009229 0.078325
Si Si5 0.115470 0.089750 0.328081
O O1 0.517737 0.153950 0.795614
O O2 0.650292 0.037772 0.686062
O O3 0.034159 0.121151 0.869714
O O4 0.802782 0.121152 0.286935
O O5 0.668469 0.250000 0.328325
O O6 0.918466 0.314988 0.578326
O O7 0.319207 0.846051 0.861040
O O8 0.594884 0.947530 0.469545
O O9 0.242056 0.052470 0.187106
O O10 0.186644 0.962228 0.970588
#
# Coordination Sequence:
#
# PCOD9139627 Si02
#       5
#     4   4   4   4   4
#     4  11  26  48  78 109 152 191 256 301 381 437
#     4  12  28  49  76 107 150 199 255 307 365 447
#     4  12  28  49  76 107 150 199 255 307 365 447
#     4  10  26  48  80 112 152 198 242 312 378 450
#     4  11  26  48  78 109 152 191 256 301 381 437
#
# _framework density 24.969110000000001
#
# number of rings (size 3 to 8) (size 9 to 14) (size 15 to 20)
#    0.000    0.800    2.000    2.400    5.600    9.600 
#    0.000    0.000    0.000    0.000    0.000    0.000 
#    0.000    0.000    0.000    0.000    0.000    0.000 
#
# Total GULP energy -56090.687842 kJ/mol
# GULP energy per Si atom -5609.068784 kJ/mol
# Density = 2.491228 g / cm^3
# Si number density = 24.969110 Si / 1000 Ang^3
#
#
#
# Elastic Constant Matrix: (Units=GPa)
#
#
# Indices 1 2 3 4 5 6 
#
# 1 153.3260 25.2923 32.9449 0.0000 32.7517 0.0000
# 2 25.2923 122.0489 53.0685 0.0000 32.5267 0.0000
# 3 32.9449 53.0685 108.1457 0.0000 27.2916 0.0000
# 4 0.0000 0.0000 0.0000 47.9043 0.0000 11.8735
# 5 32.7517 32.5267 27.2916 0.0000 34.1779 0.0000
# 6 0.0000 0.0000 0.0000 11.8735 0.0000 28.5177
#
#
#
# Elastic Compliance Matrix: (Units=1/GPa)
#
#
# Indices 1 2 3 4 5 6 
#
# 1 0.008290 0.000804 -0.000904 0.000000 -0.007987 0.000000
# 2 0.000804 0.012186 -0.003887 0.000000 -0.009264 0.000000
# 3 -0.000904 -0.003887 0.012871 0.000000 -0.005712 0.000000
# 4 0.000000 0.000000 0.000000 0.023277 0.000000 -0.009692
# 5 -0.007987 -0.009264 -0.005712 0.000000 0.050290 0.000000
# 6 0.000000 0.000000 0.000000 -0.009692 0.000000 0.039101
#
#
# Mechanical properties :
#
#
# Convention : Reuss Voigt Hill
#
# Bulk Modulus (GPa) = 39.41338 67.34800 53.38069
# Shear Modulus (GPa) = 30.77944 40.26765 35.52354
#
# Velocity S-wave (km/s) = 3.51479 4.02020 3.77596
# Velocity P-wave (km/s) = 5.68250 6.96996 6.35890
#
# Compressibility (1/GPa) = 0.02537209
#
# Stress axis : x y z
#
# Youngs Moduli (GPa) = 120.63019 82.06350 77.69352
#
# Poissons Ratio (x) = -0.06596 0.07025
# Poissons Ratio (y) = -0.09696 0.30198
# Poissons Ratio (z) = 0.10908 0.31896
#
# Static dielectric constant tensor:
#      x y z
#    x 2.010320 0.000000 0.062270 
#    y 0.000000 1.981580 0.000000 
#    z 0.062270 0.000000 2.018920 
# 
# From -- ./inp_files/3647.got.cif
#   From: 2010.05.17/outbox.cif.g08.bks.cpg/sg9_2_cif.got.tgz:3647.got - 2010.06.03 20:04:27.
