data_PCOD9139118
_publ_section_title
;
Structure prediction by ZEFSAII (Michael W. Deem and Ramdas Pophale) SiO2 
 PCOD9139118
Probable space group: C C
;
_chemical_formula_sum "Si O2"
_cell_formula_units_Z 28
_cell_length_a 16.505713
_cell_length_b 9.529713
_cell_length_c 21.483579
_cell_angle_alpha 90.000000
_cell_angle_beta 19.189287
_cell_angle_gamma 90.000000
_cell_volume 1110.726978
_symmetry_space_group_name_H-M "C C"
_symmetry_group_IT_number 9
_symmetry_cell_setting 'monoclinic'
loop_
_space_group_symop_operation_xyz
x,y,z
x,-y,1/2+z
1/2+x,1/2+y,z
1/2+x,1/2-y,1/2+z
loop_
_atom_site_type_symbol
_atom_site_label
_atom_site_fract_x
_atom_site_fract_y
_atom_site_fract_z
Si Si1 0.654870 0.581336 0.708480
Si Si2 0.211737 0.934289 0.941476
Si Si3 0.744450 0.972598 0.910509
Si Si4 0.956809 0.305221 0.219546
Si Si5 0.548404 0.101219 0.318792
Si Si6 0.725885 0.793299 0.336624
Si Si7 0.888104 0.108672 0.500878
O O1 0.437937 0.551593 0.815109
O O2 0.635825 0.737840 0.750289
O O3 0.908261 0.569510 0.485217
O O4 0.576037 0.474757 0.819988
O O5 0.350193 0.916386 0.906450
O O6 0.334884 0.833315 0.799978
O O7 0.237614 0.093211 0.900661
O O8 0.942259 0.872726 0.144408
O O9 0.888714 0.856471 0.765476
O O10 0.560450 0.877853 0.083240
O O11 0.171568 0.326225 0.115393
O O12 0.764169 0.996513 0.140667
O O13 0.618994 0.909262 0.460772
O O14 0.528006 0.730086 0.434681
#
# Coordination Sequence:
#
# PCOD9139118 Si02
#       7
#     4   4   4   4   4   4   4
#     4  11  21  40  79 113 147 214 267 328 383 491
#     4  11  22  42  75 108 149 205 266 316 393 474
#     4  11  22  41  74 110 150 205 273 325 393 471
#     4  10  24  44  74 110 149 209 277 321 379 496
#     4  11  19  42  79 109 151 207 273 322 384 490
#     4  12  24  44  72 114 160 205 250 339 404 467
#     4  10  26  43  69 116 162 207 262 337 408 467
#
# _framework density 25.208715000000002
#
# number of rings (size 3 to 8) (size 9 to 14) (size 15 to 20)
#    0.000    1.143    4.286    1.714    4.000    2.286 
#    5.143    0.000   12.571    0.000    0.000    0.000 
#    0.000    0.000    0.000    0.000    0.000    0.000 
#
# Total GULP energy -78551.590474 kJ/mol
# GULP energy per Si atom -5610.827891 kJ/mol
# Density = 2.515134 g / cm^3
# Si number density = 25.208715 Si / 1000 Ang^3
#
#
#
# Elastic Constant Matrix: (Units=GPa)
#
#
# Indices 1 2 3 4 5 6 
#
# 1 89.8670 71.0423 61.4945 -0.0070 10.3595 0.0536
# 2 71.0423 175.0979 59.9606 -0.0359 -1.9782 0.0234
# 3 61.4945 59.9606 165.5418 -0.0571 22.1116 0.0396
# 4 -0.0070 -0.0359 -0.0571 50.4424 0.0109 1.1646
# 5 10.3595 -1.9782 22.1116 0.0109 32.0728 -0.0329
# 6 0.0536 0.0234 0.0396 1.1646 -0.0329 51.1935
#
#
#
# Elastic Compliance Matrix: (Units=1/GPa)
#
#
# Indices 1 2 3 4 5 6 
#
# 1 0.019793 -0.006534 -0.004492 -0.000006 -0.003700 -0.000017
# 2 -0.006534 0.008826 -0.001238 0.000003 0.003509 0.000006
# 3 -0.004492 -0.001238 0.008783 0.000010 -0.004681 -0.000005
# 4 -0.000006 0.000003 0.000010 0.019835 -0.000012 -0.000451
# 5 -0.003700 0.003509 -0.004681 -0.000012 0.035817 0.000029
# 6 -0.000017 0.000006 -0.000005 -0.000451 0.000029 0.019544
#
#
# Mechanical properties :
#
#
# Convention : Reuss Voigt Hill
#
# Bulk Modulus (GPa) = 77.67740 90.61130 84.14435
# Shear Modulus (GPa) = 35.35613 42.60902 38.98258
#
# Velocity S-wave (km/s) = 3.74911 4.11572 3.93669
# Velocity P-wave (km/s) = 7.04427 7.65559 7.35628
#
# Compressibility (1/GPa) = 0.01287376
#
# Stress axis : x y z
#
# Youngs Moduli (GPa) = 50.52237 113.30326 113.85635
#
# Poissons Ratio (x) = 0.74036 0.51141
# Poissons Ratio (y) = 0.33013 0.14097
# Poissons Ratio (z) = 0.22693 0.14028
#
# Static dielectric constant tensor:
#      x y z
#    x 1.969920 0.000020 0.042320 
#    y 0.000020 1.917710 0.000030 
#    z 0.042320 0.000030 2.055610 
# 
# From -- ./inp_files/31282.got.cif
#   From: 2010.05.17/outbox.cif.g08.bks.cpg/sg9_16_cif.got.tgz:31282.got - 2010.06.03 20:04:27.
