data_PCOD9139041
_publ_section_title
;
Structure prediction by ZEFSAII (Michael W. Deem and Ramdas Pophale) SiO2 
 PCOD9139041
Probable space group: C C
;
_chemical_formula_sum "Si O2"
_cell_formula_units_Z 32
_cell_length_a 21.821716
_cell_length_b 9.115350
_cell_length_c 9.894955
_cell_angle_alpha 90.000000
_cell_angle_beta 134.091258
_cell_angle_gamma 90.000000
_cell_volume 1413.647424
_symmetry_space_group_name_H-M "C C"
_symmetry_group_IT_number 9
_symmetry_cell_setting 'monoclinic'
loop_
_space_group_symop_operation_xyz
x,y,z
x,-y,1/2+z
1/2+x,1/2+y,z
1/2+x,1/2-y,1/2+z
loop_
_atom_site_type_symbol
_atom_site_label
_atom_site_fract_x
_atom_site_fract_y
_atom_site_fract_z
Si Si1 0.255570 0.477568 0.896320
Si Si2 0.271370 0.980496 0.944942
Si Si3 0.520897 0.649370 0.353091
Si Si4 0.859129 0.781819 0.442168
Si Si5 0.637572 0.276970 0.241039
Si Si6 0.577340 0.690932 0.938155
Si Si7 0.659150 0.240927 0.858974
Si Si8 0.895281 0.738156 0.203035
O O1 0.291685 0.586049 0.838100
O O2 0.178760 0.368987 0.745141
O O3 0.213478 0.591379 0.938856
O O4 0.333034 0.368718 0.055969
O O5 0.311063 0.869995 0.896908
O O6 0.227100 0.872158 0.984275
O O7 0.196038 0.087981 0.781788
O O8 0.343482 0.088109 0.109666
O O9 0.543825 0.697780 0.539494
O O10 0.546347 0.478521 0.382126
O O11 0.583548 0.739159 0.349118
O O12 0.424893 0.681775 0.162837
O O13 0.909945 0.774513 0.382183
O O14 0.637924 0.276993 0.403698
O O15 0.488026 0.775558 0.780921
O O16 0.619947 0.731443 0.147274
#
# Coordination Sequence:
#
# PCOD9139041 Si02
#       8
#     4   4   4   4   4   4   4   4
#     4  10  26  42  66 105 135 174 220 288 337 404
#     4  10  24  44  66 101 127 180 225 286 334 404
#     4  12  23  44  67 104 132 182 232 276 340 411
#     4  11  25  46  71  98 141 178 231 281 346 405
#     4  11  26  42  71 100 138 178 228 280 343 405
#     4  12  23  46  67  99 140 183 225 276 346 411
#     4  11  24  42  71  96 137 179 228 277 337 409
#     4  11  25  46  71  97 142 182 223 284 349 401
#
# _framework density 22.636478
#
# number of rings (size 3 to 8) (size 9 to 14) (size 15 to 20)
#    0.000    1.000    5.000    0.000   10.500    2.000 
#    2.250    0.000    0.000    0.000    0.000    0.000 
#    0.000    0.000    0.000    0.000    0.000    0.000 
#
# Total GULP energy -89414.170006 kJ/mol
# GULP energy per Si atom -5588.385625 kJ/mol
# Density = 2.258496 g / cm^3
# Si number density = 22.636478 Si / 1000 Ang^3
#
#
#
# Elastic Constant Matrix: (Units=GPa)
#
#
# Indices 1 2 3 4 5 6 
#
# 1 64.0671 9.3096 10.6855 0.0000 2.4744 0.0000
# 2 9.3096 120.6716 27.4355 0.0000 12.9763 0.0000
# 3 10.6855 27.4355 93.5507 0.0000 2.3012 0.0000
# 4 0.0000 0.0000 0.0000 20.1067 0.0000 6.6862
# 5 2.4744 12.9763 2.3012 0.0000 37.1022 0.0000
# 6 0.0000 0.0000 0.0000 6.6862 0.0000 15.2988
#
#
#
# Elastic Compliance Matrix: (Units=1/GPa)
#
#
# Indices 1 2 3 4 5 6 
#
# 1 0.016015 -0.000803 -0.001577 0.000000 -0.000689 0.000000
# 2 -0.000803 0.009253 -0.002548 0.000000 -0.003025 0.000000
# 3 -0.001577 -0.002548 0.011610 0.000000 0.000276 0.000000
# 4 0.000000 0.000000 0.000000 0.058192 0.000000 -0.025432
# 5 -0.000689 -0.003025 0.000276 0.000000 0.028039 0.000000
# 6 0.000000 0.000000 0.000000 -0.025432 0.000000 0.076480
#
#
# Mechanical properties :
#
#
# Convention : Reuss Voigt Hill
#
# Bulk Modulus (GPa) = 37.00484 41.46119 39.23301
# Shear Modulus (GPa) = 22.88838 29.89213 26.39026
#
# Velocity S-wave (km/s) = 3.18327 3.63785 3.41813
# Velocity P-wave (km/s) = 5.46753 6.00009 5.73999
#
# Compressibility (1/GPa) = 0.02702349
#
# Stress axis : x y z
#
# Youngs Moduli (GPa) = 62.44178 108.06865 86.13387
#
# Poissons Ratio (x) = 0.08677 0.13582
# Poissons Ratio (y) = 0.05013 0.21944
# Poissons Ratio (z) = 0.09846 0.27532
#
# Static dielectric constant tensor:
#      x y z
#    x 1.816220 0.000000 -0.004020 
#    y 0.000000 1.835850 0.000000 
#    z -0.004020 0.000000 1.837790 
# 
# From -- ./inp_files/12421.got.cif
#   From: 2010.05.17/outbox.cif.g08.bks.cpg/sg9_7_cif.got.tgz:12421.got - 2010.06.03 20:04:27.
