data_PCOD9139217
_publ_section_title
;
Structure prediction by ZEFSAII (Michael W. Deem and Ramdas Pophale) SiO2 
 PCOD9139217
Probable space group: C C
;
_chemical_formula_sum "Si O2"
_cell_formula_units_Z 24
_cell_length_a 22.647533
_cell_length_b 9.095759
_cell_length_c 10.122271
_cell_angle_alpha 90.000000
_cell_angle_beta 150.436366
_cell_angle_gamma 90.000000
_cell_volume 1028.793129
_symmetry_space_group_name_H-M "C C"
_symmetry_group_IT_number 9
_symmetry_cell_setting 'monoclinic'
loop_
_space_group_symop_operation_xyz
x,y,z
x,-y,1/2+z
1/2+x,1/2+y,z
1/2+x,1/2-y,1/2+z
loop_
_atom_site_type_symbol
_atom_site_label
_atom_site_fract_x
_atom_site_fract_y
_atom_site_fract_z
Si Si1 0.247930 0.938106 0.853070
Si Si2 0.912833 0.943593 0.132955
Si Si3 0.598835 0.568685 0.332968
Si Si4 0.664629 0.900682 0.523667
Si Si5 0.857389 0.181819 0.205194
Si Si6 0.957011 0.639312 0.155429
O O1 0.168431 0.950429 0.830925
O O2 0.170349 0.963598 0.572876
O O3 0.311344 0.782692 0.995756
O O4 0.354464 0.053949 0.035793
O O5 0.975968 0.786900 0.277258
O O6 0.939684 0.063716 0.294464
O O7 0.770966 0.913926 0.839000
O O8 0.964361 0.013913 0.098090
O O9 0.609653 0.736422 0.407697
O O10 0.742644 0.901627 0.541842
O O11 0.567039 0.028758 0.347679
O O12 0.909744 0.290907 0.422209
#
# Coordination Sequence:
#
# PCOD9139217 Si02
#       6
#     4   4   4   4   4   4
#     4  11  22  49  73 110 149 203 241 311 378 442
#     4  11  25  45  70 110 140 197 253 309 367 444
#     4  11  25  46  76 107 156 193 257 308 370 459
#     4  10  24  49  71 108 144 201 245 309 378 450
#     4  10  24  46  71 113 153 189 259 303 378 455
#     4  11  24  49  73 108 150 201 249 316 373 450
#
# _framework density 23.328305
#
# number of rings (size 3 to 8) (size 9 to 14) (size 15 to 20)
#    0.000    1.333    5.000    1.000    7.000    4.000 
#    6.000    0.000    0.000    0.000    0.000    0.000 
#    0.000    0.000    0.000    0.000    0.000    0.000 
#
# Total GULP energy -66944.872308 kJ/mol
# GULP energy per Si atom -5578.739359 kJ/mol
# Density = 2.327521 g / cm^3
# Si number density = 23.328305 Si / 1000 Ang^3
#
#
#
# Elastic Constant Matrix: (Units=GPa)
#
#
# Indices 1 2 3 4 5 6 
#
# 1 95.3330 54.2215 39.5498 0.0000 2.6128 0.0000
# 2 54.2215 141.2440 68.9593 0.0000 23.8512 0.0000
# 3 39.5498 68.9593 95.6093 0.0000 22.1648 0.0000
# 4 0.0000 0.0000 0.0000 28.4518 0.0000 6.2908
# 5 2.6128 23.8512 22.1648 0.0000 44.6220 0.0000
# 6 0.0000 0.0000 0.0000 6.2908 0.0000 51.2799
#
#
#
# Elastic Compliance Matrix: (Units=1/GPa)
#
#
# Indices 1 2 3 4 5 6 
#
# 1 0.014331 -0.004302 -0.003575 0.000000 0.003237 0.000000
# 2 -0.004302 0.012410 -0.006433 0.000000 -0.003186 0.000000
# 3 -0.003575 -0.006433 0.017780 0.000000 -0.005184 0.000000
# 4 0.000000 0.000000 0.000000 0.036127 0.000000 -0.004432
# 5 0.003237 -0.003186 -0.005184 0.000000 0.026499 0.000000
# 6 0.000000 0.000000 0.000000 -0.004432 0.000000 0.020044
#
#
# Mechanical properties :
#
#
# Convention : Reuss Voigt Hill
#
# Bulk Modulus (GPa) = 62.89257 73.07194 67.98226
# Shear Modulus (GPa) = 31.03423 36.16779 33.60101
#
# Velocity S-wave (km/s) = 3.65132 3.94176 3.79932
# Velocity P-wave (km/s) = 6.69287 7.21858 6.96069
#
# Compressibility (1/GPa) = 0.01590013
#
# Stress axis : x y z
#
# Youngs Moduli (GPa) = 69.77785 80.57865 56.24451
#
# Poissons Ratio (x) = 0.34669 0.20109
# Poissons Ratio (y) = 0.30022 0.36180
# Poissons Ratio (z) = 0.24948 0.51833
#
# Static dielectric constant tensor:
#      x y z
#    x 1.895410 0.000000 -0.030710 
#    y 0.000000 1.903340 0.000000 
#    z -0.030710 0.000000 2.005220 
# 
# From -- ./inp_files/15905.got.cif
#   From: 2010.05.17/outbox.cif.g08.bks.cpg/sg9_8_cif.got.tgz:15905.got - 2010.06.03 20:04:27.
