data_PCOD9139795
_publ_section_title
;
Structure prediction by ZEFSAII (Michael W. Deem and Ramdas Pophale) SiO2 
 PCOD9139795
Probable space group: C C
;
_chemical_formula_sum "Si O2"
_cell_formula_units_Z 24
_cell_length_a 12.993374
_cell_length_b 14.518229
_cell_length_c 8.917326
_cell_angle_alpha 90.000000
_cell_angle_beta 137.838528
_cell_angle_gamma 90.000000
_cell_volume 1129.110890
_symmetry_space_group_name_H-M "C C"
_symmetry_group_IT_number 9
_symmetry_cell_setting 'monoclinic'
loop_
_space_group_symop_operation_xyz
x,y,z
x,-y,1/2+z
1/2+x,1/2+y,z
1/2+x,1/2-y,1/2+z
loop_
_atom_site_type_symbol
_atom_site_label
_atom_site_fract_x
_atom_site_fract_y
_atom_site_fract_z
Si Si1 0.022270 0.840280 0.936240
Si Si2 0.899717 0.335717 0.835571
Si Si3 0.761625 0.261450 0.994273
Si Si4 0.078129 0.182187 0.838594
Si Si5 0.843081 0.969106 0.198246
Si Si6 0.147072 0.572336 0.763970
O O1 0.894556 0.766708 0.750819
O O2 0.938608 0.938715 0.837790
O O3 0.154664 0.837603 0.953796
O O4 0.081526 0.810459 0.162953
O O5 0.018335 0.272053 0.867452
O O6 0.659871 0.169871 0.861038
O O7 0.989753 0.424049 0.000361
O O8 0.834372 0.286135 0.913828
O O9 0.746349 0.348871 0.573783
O O10 0.952230 0.104565 0.739043
O O11 0.781587 0.929989 0.287032
O O12 0.696984 0.994794 0.935872
#
# Coordination Sequence:
#
# PCOD9139795 Si02
#       6
#     4   4   4   4   4   4
#     4  11  24  41  68 100 138 180 231 291 344 410
#     4  12  23  42  74  98 138 184 242 278 347 426
#     4  11  21  41  70  99 130 182 236 276 341 419
#     4  12  23  43  68 104 137 187 233 294 340 417
#     4  11  24  45  68  95 144 179 229 293 358 397
#     4  11  23  46  68 100 135 186 225 288 350 417
#
# _framework density 21.255662000000001
#
# number of rings (size 3 to 8) (size 9 to 14) (size 15 to 20)
#    0.000    0.667    6.667    1.000    2.333    0.000 
#    6.000    0.000    0.000    0.000    0.000    0.000 
#    0.000    0.000    0.000    0.000    0.000    0.000 
#
# Total GULP energy -67017.516409 kJ/mol
# GULP energy per Si atom -5584.793034 kJ/mol
# Density = 2.120728 g / cm^3
# Si number density = 21.255662 Si / 1000 Ang^3
#
#
#
# Elastic Constant Matrix: (Units=GPa)
#
#
# Indices 1 2 3 4 5 6 
#
# 1 57.6140 13.6956 6.3606 0.0000 -15.2291 0.0000
# 2 13.6956 45.8930 17.9655 0.0000 3.3561 0.0000
# 3 6.3606 17.9655 150.3363 0.0000 -11.6830 0.0000
# 4 0.0000 0.0000 0.0000 22.3907 0.0000 7.1303
# 5 -15.2291 3.3561 -11.6830 0.0000 30.3798 0.0000
# 6 0.0000 0.0000 0.0000 7.1303 0.0000 28.8925
#
#
#
# Elastic Compliance Matrix: (Units=1/GPa)
#
#
# Indices 1 2 3 4 5 6 
#
# 1 0.022460 -0.008001 0.000979 0.000000 0.012519 0.000000
# 2 -0.008001 0.026117 -0.003421 0.000000 -0.008212 0.000000
# 3 0.000979 -0.003421 0.007305 0.000000 0.003678 0.000000
# 4 0.000000 0.000000 0.000000 0.048471 0.000000 -0.011962
# 5 0.012519 -0.008212 0.003678 0.000000 0.041514 0.000000
# 6 0.000000 0.000000 0.000000 -0.011962 0.000000 0.037563
#
#
# Mechanical properties :
#
#
# Convention : Reuss Voigt Hill
#
# Bulk Modulus (GPa) = 28.57484 36.65406 32.61445
# Shear Modulus (GPa) = 23.15013 30.72070 26.93541
#
# Velocity S-wave (km/s) = 3.30377 3.80583 3.56365
# Velocity P-wave (km/s) = 5.29394 6.04932 5.68419
#
# Compressibility (1/GPa) = 0.03499582
#
# Stress axis : x y z
#
# Youngs Moduli (GPa) = 44.52347 38.28900 136.89389
#
# Poissons Ratio (x) = 0.30636 -0.13399
# Poissons Ratio (y) = 0.35625 0.46827
# Poissons Ratio (z) = -0.04358 0.13097
#
# Static dielectric constant tensor:
#      x y z
#    x 1.756620 0.000000 -0.009300 
#    y 0.000000 1.749950 0.000000 
#    z -0.009300 0.000000 1.821230 
# 
# From -- ./inp_files/7315.got.cif
#   From: 2010.05.17/outbox.cif.g08.bks.cpg/sg9_4_cif.got.tgz:7315.got - 2010.06.03 20:04:27.
