data_PCOD9139090
_publ_section_title
;
Structure prediction by ZEFSAII (Michael W. Deem and Ramdas Pophale) SiO2 
 PCOD9139090
Probable space group: C C
;
_chemical_formula_sum "Si O2"
_cell_formula_units_Z 32
_cell_length_a 12.275962
_cell_length_b 9.811614
_cell_length_c 9.375048
_cell_angle_alpha 90.000000
_cell_angle_beta 102.052522
_cell_angle_gamma 90.000000
_cell_volume 1104.305085
_symmetry_space_group_name_H-M "C C"
_symmetry_group_IT_number 9
_symmetry_cell_setting 'monoclinic'
loop_
_space_group_symop_operation_xyz
x,y,z
x,-y,1/2+z
1/2+x,1/2+y,z
1/2+x,1/2-y,1/2+z
loop_
_atom_site_type_symbol
_atom_site_label
_atom_site_fract_x
_atom_site_fract_y
_atom_site_fract_z
Si Si1 0.978980 0.830652 0.502740
Si Si2 0.300426 0.118919 0.411626
Si Si3 0.115143 0.205007 0.553298
Si Si4 0.929443 0.938219 0.759285
Si Si5 0.234300 0.386585 0.056778
Si Si6 0.302754 0.811324 0.352432
Si Si7 0.962047 0.321353 0.736843
Si Si8 0.108005 0.432267 0.306899
O O1 0.871443 0.735002 0.516900
O O2 0.018478 0.895941 0.661143
O O3 0.028490 0.728405 0.398864
O O4 0.960193 0.960888 0.395299
O O5 0.180403 0.109352 0.454777
O O6 0.337123 0.179502 0.266748
O O7 0.340215 0.964419 0.400727
O O8 0.204888 0.193622 0.707336
O O9 0.004457 0.224619 0.622064
O O10 0.098849 0.331635 0.438922
O O11 0.891453 0.796887 0.817804
O O12 0.831625 0.016715 0.648181
O O13 0.152156 0.373504 0.170027
O O14 0.265986 0.246167 0.993492
O O15 0.197471 0.467276 0.902699
O O16 0.004542 0.474761 0.728586
#
# Coordination Sequence:
#
# PCOD9139090 Si02
#       8
#     4   4   4   4   4   4   4   4
#     4  10  24  44  70 104 146 186 249 302 363 444
#     4  10  26  45  68 111 150 189 240 315 373 431
#     4  12  23  46  72 101 143 194 246 305 358 442
#     4  12  19  42  71 103 139 192 247 299 357 454
#     4  12  20  36  74 105 130 194 248 293 359 440
#     4  12  23  42  74 106 148 192 247 304 381 429
#     4  10  24  46  73 103 149 191 244 307 365 448
#     4  12  21  41  72 101 139 188 255 297 354 446
#
# _framework density 28.977499999999999
#
# number of rings (size 3 to 8) (size 9 to 14) (size 15 to 20)
#    0.750    0.000    7.500    0.750    0.000    4.000 
#    4.500    0.000    0.000    0.000    0.000    0.000 
#    0.000    0.000    0.000    0.000    0.000    0.000 
#
# Total GULP energy -89245.166451 kJ/mol
# GULP energy per Si atom -5577.822903 kJ/mol
# Density = 2.891155 g / cm^3
# Si number density = 28.977500 Si / 1000 Ang^3
#
#
#
# Elastic Constant Matrix: (Units=GPa)
#
#
# Indices 1 2 3 4 5 6 
#
# 1 77.2398 39.7391 54.1438 0.0000 -38.1114 0.0000
# 2 39.7391 166.9879 52.8448 0.0000 -13.9675 0.0000
# 3 54.1438 52.8448 274.8903 0.0000 -28.4810 0.0000
# 4 0.0000 0.0000 0.0000 44.8416 0.0000 -15.4774
# 5 -38.1114 -13.9675 -28.4810 0.0000 71.1786 0.0000
# 6 0.0000 0.0000 0.0000 -15.4774 0.0000 40.9722
#
#
#
# Elastic Compliance Matrix: (Units=1/GPa)
#
#
# Indices 1 2 3 4 5 6 
#
# 1 0.021282 -0.003454 -0.002522 0.000000 0.009708 0.000000
# 2 -0.003454 0.006980 -0.000742 0.000000 -0.000777 0.000000
# 3 -0.002522 -0.000742 0.004300 0.000000 0.000225 0.000000
# 4 0.000000 0.000000 0.000000 0.025644 0.000000 0.009687
# 5 0.009708 -0.000777 0.000225 0.000000 0.019185 0.000000
# 6 0.000000 0.000000 0.000000 0.009687 0.000000 0.028066
#
#
# Mechanical properties :
#
#
# Convention : Reuss Voigt Hill
#
# Bulk Modulus (GPa) = 52.28455 90.28591 71.28523
# Shear Modulus (GPa) = 39.91377 56.22450 48.06914
#
# Velocity S-wave (km/s) = 3.71537 4.40964 4.07731
# Velocity P-wave (km/s) = 6.04050 7.55986 6.84248
#
# Compressibility (1/GPa) = 0.01912611
#
# Stress axis : x y z
#
# Youngs Moduli (GPa) = 46.98830 143.25882 232.53288
#
# Poissons Ratio (x) = 0.49489 0.58641
# Poissons Ratio (y) = 0.16232 0.17253
# Poissons Ratio (z) = 0.11850 0.10629
#
# Static dielectric constant tensor:
#      x y z
#    x 2.486480 0.000000 0.060210 
#    y 0.000000 2.268320 0.000000 
#    z 0.060210 0.000000 2.124280 
# 
# From -- ./inp_files/9131.got.cif
#   From: 2010.05.17/outbox.cif.g08.bks.cpg/sg9_5_cif.got.tgz:9131.got - 2010.06.03 20:04:27.
