data_PCOD9139483
_publ_section_title
;
Structure prediction by ZEFSAII (Michael W. Deem and Ramdas Pophale) SiO2 
 PCOD9139483
Probable space group: C C
;
_chemical_formula_sum "Si O2"
_cell_formula_units_Z 28
_cell_length_a 11.585146
_cell_length_b 8.278430
_cell_length_c 23.058962
_cell_angle_alpha 90.000000
_cell_angle_beta 28.259566
_cell_angle_gamma 90.000000
_cell_volume 1047.077229
_symmetry_space_group_name_H-M "C C"
_symmetry_group_IT_number 9
_symmetry_cell_setting 'monoclinic'
loop_
_space_group_symop_operation_xyz
x,y,z
x,-y,1/2+z
1/2+x,1/2+y,z
1/2+x,1/2-y,1/2+z
loop_
_atom_site_type_symbol
_atom_site_label
_atom_site_fract_x
_atom_site_fract_y
_atom_site_fract_z
Si Si1 0.886250 0.131241 0.728900
Si Si2 0.878933 0.758560 0.478434
Si Si3 0.382305 0.160202 0.783100
Si Si4 0.241337 0.452118 0.973301
Si Si5 0.728957 0.627019 0.197008
Si Si6 0.920250 0.315269 0.823332
Si Si7 0.420923 0.708933 0.150588
O O1 0.784792 0.253385 0.725685
O O2 0.799315 0.193870 0.830056
O O3 0.173685 0.162082 0.601392
O O4 0.873293 0.951474 0.709274
O O5 0.862493 0.702192 0.417545
O O6 0.130295 0.742300 0.401334
O O7 0.819248 0.948499 0.496666
O O8 0.623818 0.258659 0.692738
O O9 0.376093 0.144705 0.716171
O O10 0.367286 0.993840 0.823418
O O11 0.979678 0.533098 0.071240
O O12 0.181525 0.262477 0.010855
O O13 0.480765 0.465136 0.826776
O O14 0.213654 0.298159 0.694479
#
# Coordination Sequence:
#
# PCOD9139483 Si02
#       7
#     4   4   4   4   4   4   4
#     4  11  25  47  74 113 157 205 271 334 401 483
#     4  10  25  46  74 110 152 208 268 322 404 485
#     4  11  24  46  74 107 159 207 261 328 405 477
#     4  11  25  49  75 113 165 205 266 332 396 490
#     4  11  25  48  77 116 158 213 264 327 413 478
#     4  11  24  48  75 104 157 206 259 335 397 478
#     4  11  26  44  75 113 152 204 269 324 406 479
#
# _framework density 26.741104
#
# number of rings (size 3 to 8) (size 9 to 14) (size 15 to 20)
#    0.000    1.143    1.429    4.286    8.000    0.000 
#   10.286    0.000    0.000    0.000    0.000    0.000 
#    0.000    0.000    0.000    0.000    0.000    0.000 
#
# Total GULP energy -78237.584112 kJ/mol
# GULP energy per Si atom -5588.398865 kJ/mol
# Density = 2.668024 g / cm^3
# Si number density = 26.741104 Si / 1000 Ang^3
#
#
#
# Elastic Constant Matrix: (Units=GPa)
#
#
# Indices 1 2 3 4 5 6 
#
# 1 167.4242 57.7551 31.5610 -0.0002 -7.0207 0.0000
# 2 57.7551 135.3716 38.0294 0.0001 1.4073 0.0001
# 3 31.5610 38.0294 116.3404 -0.0013 -19.8932 0.0000
# 4 -0.0002 0.0001 -0.0013 45.6620 0.0004 -5.2077
# 5 -7.0207 1.4073 -19.8932 0.0004 46.4096 0.0000
# 6 0.0000 0.0001 0.0000 -5.2077 0.0000 49.9493
#
#
#
# Elastic Compliance Matrix: (Units=1/GPa)
#
#
# Indices 1 2 3 4 5 6 
#
# 1 0.007141 -0.002806 -0.000886 0.000000 0.000786 0.000000
# 2 -0.002806 0.009334 -0.002602 0.000000 -0.001823 0.000000
# 3 -0.000886 -0.002602 0.010442 0.000000 0.004421 0.000000
# 4 0.000000 0.000000 0.000000 0.022164 0.000000 0.002311
# 5 0.000786 -0.001823 0.004421 0.000000 0.023616 0.000000
# 6 0.000000 0.000000 0.000000 0.002311 0.000000 0.020261
#
#
# Mechanical properties :
#
#
# Convention : Reuss Voigt Hill
#
# Bulk Modulus (GPa) = 69.78080 74.86968 72.32524
# Shear Modulus (GPa) = 45.32237 47.85689 46.58963
#
# Velocity S-wave (km/s) = 4.12133 4.23500 4.17855
# Velocity P-wave (km/s) = 6.98561 7.20919 7.09828
#
# Compressibility (1/GPa) = 0.01433059
#
# Stress axis : x y z
#
# Youngs Moduli (GPa) = 140.04291 107.13555 95.76677
#
# Poissons Ratio (x) = 0.30061 0.08481
# Poissons Ratio (y) = 0.39294 0.24914
# Poissons Ratio (z) = 0.12402 0.27872
#
# Static dielectric constant tensor:
#      x y z
#    x 2.037130 0.000000 0.035560 
#    y 0.000000 2.208860 0.000000 
#    z 0.035560 0.000000 2.201310 
# 
# From -- ./inp_files/35294.got.cif
#   From: 2010.05.17/outbox.cif.g08.bks.cpg/sg9_18_cif.got.tgz:35294.got - 2010.06.03 20:04:27.
