data_PCOD9139209
_publ_section_title
;
Structure prediction by ZEFSAII (Michael W. Deem and Ramdas Pophale) SiO2 
 PCOD9139209
Probable space group: C C
;
_chemical_formula_sum "Si O2"
_cell_formula_units_Z 28
_cell_length_a 7.437900
_cell_length_b 19.777904
_cell_length_c 8.200106
_cell_angle_alpha 90.000000
_cell_angle_beta 93.293027
_cell_angle_gamma 90.000000
_cell_volume 1204.293584
_symmetry_space_group_name_H-M "C C"
_symmetry_group_IT_number 9
_symmetry_cell_setting 'monoclinic'
loop_
_space_group_symop_operation_xyz
x,y,z
x,-y,1/2+z
1/2+x,1/2+y,z
1/2+x,1/2-y,1/2+z
loop_
_atom_site_type_symbol
_atom_site_label
_atom_site_fract_x
_atom_site_fract_y
_atom_site_fract_z
Si Si1 0.033790 0.691260 0.568410
Si Si2 0.821894 0.395294 0.832440
Si Si3 0.543130 0.343914 0.588987
Si Si4 0.403061 0.022173 0.008376
Si Si5 0.318274 0.531294 0.930979
Si Si6 0.750175 0.368589 0.285966
Si Si7 0.388403 0.603555 0.595999
O O1 0.971271 0.768431 0.591490
O O2 0.238671 0.662667 0.574765
O O3 0.952392 0.664717 0.393529
O O4 0.932978 0.656521 0.716122
O O5 0.637377 0.362779 0.763232
O O6 0.836677 0.445660 0.987291
O O7 0.880435 0.439065 0.677394
O O8 0.420001 0.407881 0.532697
O O9 0.689518 0.332796 0.450712
O O10 0.611109 0.026378 0.972412
O O11 0.283905 0.057760 0.863134
O O12 0.331759 0.556463 0.746978
O O13 0.393880 0.455139 0.958636
O O14 0.580930 0.365699 0.155571
#
# Coordination Sequence:
#
# PCOD9139209 Si02
#       7
#     4   4   4   4   4   4   4
#     4  12  25  47  69 102 145 192 232 292 359 438
#     4  11  24  41  70 102 141 184 236 294 362 423
#     4  10  27  45  68 102 145 190 240 285 363 440
#     4  11  20  41  70 104 138 182 234 305 356 407
#     4  11  22  43  69 102 138 178 236 299 345 422
#     4  10  24  46  70  96 141 184 231 298 353 426
#     4  11  24  43  70 102 136 180 241 291 356 416
#
# _framework density 23.250146999999998
#
# number of rings (size 3 to 8) (size 9 to 14) (size 15 to 20)
#    0.000    1.143    2.857    2.571    4.000    4.571 
#    5.143    0.000    0.000    0.000    0.000    0.000 
#    0.000    0.000    0.000    0.000    0.000    0.000 
#
# Total GULP energy -78161.237039 kJ/mol
# GULP energy per Si atom -5582.945503 kJ/mol
# Density = 2.319723 g / cm^3
# Si number density = 23.250147 Si / 1000 Ang^3
#
#
#
# Elastic Constant Matrix: (Units=GPa)
#
#
# Indices 1 2 3 4 5 6 
#
# 1 81.4400 21.3946 17.1870 0.0000 26.1652 0.0000
# 2 21.3946 84.3912 11.7872 0.0000 5.9118 0.0000
# 3 17.1870 11.7872 83.8472 0.0000 14.4556 0.0000
# 4 0.0000 0.0000 0.0000 3.8149 0.0000 -2.2553
# 5 26.1652 5.9118 14.4556 0.0000 35.5156 0.0000
# 6 0.0000 0.0000 0.0000 -2.2553 0.0000 19.7535
#
#
#
# Elastic Compliance Matrix: (Units=1/GPa)
#
#
# Indices 1 2 3 4 5 6 
#
# 1 0.017122 -0.003382 -0.001029 0.000000 -0.011632 0.000000
# 2 -0.003382 0.012822 -0.001259 0.000000 0.000870 0.000000
# 3 -0.001029 -0.001259 0.013064 0.000000 -0.004350 0.000000
# 4 0.000000 0.000000 0.000000 0.281100 0.000000 0.032094
# 5 -0.011632 0.000870 -0.004350 0.000000 0.038352 0.000000
# 6 0.000000 0.000000 0.000000 0.032094 0.000000 0.054288
#
#
# Mechanical properties :
#
#
# Convention : Reuss Voigt Hill
#
# Bulk Modulus (GPa) = 31.57761 38.93509 35.25635
# Shear Modulus (GPa) = 11.39874 25.10411 18.25142
#
# Velocity S-wave (km/s) = 2.21660 3.28950 2.80483
# Velocity P-wave (km/s) = 4.49024 5.58662 5.06816
#
# Compressibility (1/GPa) = 0.03166801
#
# Stress axis : x y z
#
# Youngs Moduli (GPa) = 58.40492 77.99129 76.54453
#
# Poissons Ratio (x) = 0.26378 0.07874
# Poissons Ratio (y) = 0.19753 0.09639
# Poissons Ratio (z) = 0.06008 0.09821
#
# Static dielectric constant tensor:
#      x y z
#    x 1.908560 0.000000 -0.023890 
#    y 0.000000 1.951290 0.000000 
#    z -0.023890 0.000000 1.908900 
# 
# From -- ./inp_files/5329.got.cif
#   From: 2010.05.17/outbox.cif.g08.bks.cpg/sg9_3_cif.got.tgz:5329.got - 2010.06.03 20:04:27.
