data_PCOD9139325
_publ_section_title
;
Structure prediction by ZEFSAII (Michael W. Deem and Ramdas Pophale) SiO2 
 PCOD9139325
Probable space group: C C
;
_chemical_formula_sum "Si O2"
_cell_formula_units_Z 20
_cell_length_a 14.396075
_cell_length_b 6.009642
_cell_length_c 8.807977
_cell_angle_alpha 90.000000
_cell_angle_beta 81.295356
_cell_angle_gamma 90.000000
_cell_volume 753.247109
_symmetry_space_group_name_H-M "C C"
_symmetry_group_IT_number 9
_symmetry_cell_setting 'monoclinic'
loop_
_space_group_symop_operation_xyz
x,y,z
x,-y,1/2+z
1/2+x,1/2+y,z
1/2+x,1/2-y,1/2+z
loop_
_atom_site_type_symbol
_atom_site_label
_atom_site_fract_x
_atom_site_fract_y
_atom_site_fract_z
Si Si1 0.456570 0.549587 0.876490
Si Si2 0.070492 0.245511 0.584651
Si Si3 0.208015 0.017705 0.346276
Si Si4 0.172147 0.346671 0.094831
Si Si5 0.831752 0.199923 0.159187
O O1 0.535363 0.676680 0.759727
O O2 0.394577 0.410975 0.774582
O O3 0.502551 0.380356 0.985696
O O4 0.391448 0.715113 0.989368
O O5 0.079752 0.508839 0.586220
O O6 0.174273 0.166523 0.499162
O O7 0.194393 0.777936 0.432680
O O8 0.300183 0.942306 0.228627
O O9 0.157387 0.166381 0.229517
O O10 0.253219 0.508935 0.140110
#
# Coordination Sequence:
#
# PCOD9139325 Si02
#       5
#     4   4   4   4   4
#     4  10  24  49  83 124 160 204 269 333 424 469
#     4  11  25  51  79 118 165 212 265 334 400 498
#     4  12  26  46  80 117 153 219 268 324 394 496
#     4  12  26  47  80 114 162 215 269 326 390 493
#     4  11  23  49  80 121 160 200 267 343 404 480
#
# _framework density 26.551711999999998
#
# number of rings (size 3 to 8) (size 9 to 14) (size 15 to 20)
#    0.000    0.800    2.000    4.800    2.800    0.000 
#    0.000   24.000    0.000    0.000    0.000    0.000 
#    0.000    0.000    0.000    0.000    0.000    0.000 
#
# Total GULP energy -55816.374438 kJ/mol
# GULP energy per Si atom -5581.637444 kJ/mol
# Density = 2.649128 g / cm^3
# Si number density = 26.551712 Si / 1000 Ang^3
#
#
#
# Elastic Constant Matrix: (Units=GPa)
#
#
# Indices 1 2 3 4 5 6 
#
# 1 55.0363 27.5677 42.1570 0.0000 -9.2624 0.0000
# 2 27.5677 91.6437 58.8245 0.0000 -14.1984 0.0000
# 3 42.1570 58.8245 196.8364 0.0000 -27.9122 0.0000
# 4 0.0000 0.0000 0.0000 55.9772 0.0000 8.1388
# 5 -9.2624 -14.1984 -27.9122 0.0000 57.0975 0.0000
# 6 0.0000 0.0000 0.0000 8.1388 0.0000 27.7122
#
#
#
# Elastic Compliance Matrix: (Units=1/GPa)
#
#
# Indices 1 2 3 4 5 6 
#
# 1 0.023311 -0.004638 -0.003475 0.000000 0.000930 0.000000
# 2 -0.004638 0.014543 -0.003166 0.000000 0.001316 0.000000
# 3 -0.003475 -0.003166 0.007069 0.000000 0.002105 0.000000
# 4 0.000000 0.000000 0.000000 0.018661 0.000000 -0.005481
# 5 0.000930 0.001316 0.002105 0.000000 0.019021 0.000000
# 6 0.000000 0.000000 0.000000 -0.005481 0.000000 0.037695
#
#
# Mechanical properties :
#
#
# Convention : Reuss Voigt Hill
#
# Bulk Modulus (GPa) = 44.71126 66.73497 55.72311
# Shear Modulus (GPa) = 33.26380 42.48852 37.87616
#
# Velocity S-wave (km/s) = 3.54332 4.00461 3.78101
# Velocity P-wave (km/s) = 5.79793 6.82430 6.33195
#
# Compressibility (1/GPa) = 0.02236573
#
# Stress axis : x y z
#
# Youngs Moduli (GPa) = 42.89826 68.76026 141.45728
#
# Poissons Ratio (x) = 0.31890 0.49153
# Poissons Ratio (y) = 0.19896 0.44790
# Poissons Ratio (z) = 0.14906 0.21772
#
# Static dielectric constant tensor:
#      x y z
#    x 2.275390 0.000000 0.020400 
#    y 0.000000 2.035150 0.000000 
#    z 0.020400 0.000000 2.083660 
# 
# From -- ./inp_files/10235.got.cif
#   From: 2010.05.17/outbox.cif.g08.bks.cpg/sg9_6_cif.got.tgz:10235.got - 2010.06.03 20:04:27.
