data_PCOD9139540
_publ_section_title
;
Structure prediction by ZEFSAII (Michael W. Deem and Ramdas Pophale) SiO2 
 PCOD9139540
Probable space group: C C
;
_chemical_formula_sum "Si O2"
_cell_formula_units_Z 24
_cell_length_a 12.405825
_cell_length_b 10.456583
_cell_length_c 11.939547
_cell_angle_alpha 90.000000
_cell_angle_beta 42.581256
_cell_angle_gamma 90.000000
_cell_volume 1047.991661
_symmetry_space_group_name_H-M "C C"
_symmetry_group_IT_number 9
_symmetry_cell_setting 'monoclinic'
loop_
_space_group_symop_operation_xyz
x,y,z
x,-y,1/2+z
1/2+x,1/2+y,z
1/2+x,1/2-y,1/2+z
loop_
_atom_site_type_symbol
_atom_site_label
_atom_site_fract_x
_atom_site_fract_y
_atom_site_fract_z
Si Si1 0.987380 0.119973 0.847940
Si Si2 0.839735 0.851080 0.011756
Si Si3 0.848488 0.680460 0.627173
Si Si4 0.772246 0.804699 0.310191
Si Si5 0.450306 0.071691 0.138407
Si Si6 0.976396 0.348943 0.260094
O O1 0.913314 0.171887 0.789923
O O2 0.173689 0.142707 0.720705
O O3 0.935310 0.972426 0.893733
O O4 0.909829 0.204828 0.005474
O O5 0.932343 0.721310 0.908302
O O6 0.809579 0.874995 0.165789
O O7 0.663725 0.834024 0.095860
O O8 0.870440 0.715078 0.742247
O O9 0.946227 0.546652 0.554516
O O10 0.608583 0.848255 0.491901
O O11 0.791347 0.656566 0.259909
O O12 0.450620 0.999730 0.258918
#
# Coordination Sequence:
#
# PCOD9139540 Si02
#       6
#     4   4   4   4   4   4
#     4  12  26  46  74 109 146 193 243 314 366 448
#     4  12  27  47  76 107 153 190 253 308 374 444
#     4  10  26  47  74 104 146 197 243 300 376 443
#     4  12  26  46  72 112 144 201 242 315 362 442
#     4  10  26  48  73 108 152 187 257 298 381 434
#     4  10  25  50  71 108 145 204 236 311 371 451
#
# _framework density 22.900946000000001
#
# number of rings (size 3 to 8) (size 9 to 14) (size 15 to 20)
#    1.000    0.000    1.667    3.000    9.333    1.333 
#    3.000    0.000    0.000    0.000    0.000    0.000 
#    0.000    0.000    0.000    0.000    0.000    0.000 
#
# Total GULP energy -67009.470881 kJ/mol
# GULP energy per Si atom -5584.122573 kJ/mol
# Density = 2.284882 g / cm^3
# Si number density = 22.900946 Si / 1000 Ang^3
#
#
#
# Elastic Constant Matrix: (Units=GPa)
#
#
# Indices 1 2 3 4 5 6 
#
# 1 114.1318 4.5740 22.1750 0.0000 -3.9289 0.0000
# 2 4.5740 87.3289 43.6295 0.0000 -2.1731 0.0000
# 3 22.1750 43.6295 73.2654 0.0000 -8.8606 0.0000
# 4 0.0000 0.0000 0.0000 32.6659 0.0000 2.3087
# 5 -3.9289 -2.1731 -8.8606 0.0000 44.7834 0.0000
# 6 0.0000 0.0000 0.0000 2.3087 0.0000 35.8107
#
#
#
# Elastic Compliance Matrix: (Units=1/GPa)
#
#
# Indices 1 2 3 4 5 6 
#
# 1 0.009417 0.001316 -0.003613 0.000000 0.000175 0.000000
# 2 0.001316 0.016543 -0.010387 0.000000 -0.001137 0.000000
# 3 -0.003613 -0.010387 0.021339 0.000000 0.003401 0.000000
# 4 0.000000 0.000000 0.000000 0.030753 0.000000 -0.001983
# 5 0.000175 -0.001137 0.003401 0.000000 0.022963 0.000000
# 6 0.000000 0.000000 0.000000 -0.001983 0.000000 0.028052
#
#
# Mechanical properties :
#
#
# Convention : Reuss Voigt Hill
#
# Bulk Modulus (GPa) = 45.59612 46.16478 45.88045
# Shear Modulus (GPa) = 30.91256 36.27518 33.59387
#
# Velocity S-wave (km/s) = 3.67800 3.98427 3.83419
# Velocity P-wave (km/s) = 6.16363 6.43181 6.29914
#
# Compressibility (1/GPa) = 0.02193169
#
# Stress axis : x y z
#
# Youngs Moduli (GPa) = 106.19070 60.44765 46.86165
#
# Poissons Ratio (x) = -0.07955 0.16930
# Poissons Ratio (y) = -0.13975 0.48677
# Poissons Ratio (z) = 0.38364 0.62789
#
# Static dielectric constant tensor:
#      x y z
#    x 1.902340 0.000000 0.036800 
#    y 0.000000 1.865240 0.000000 
#    z 0.036800 0.000000 1.830440 
# 
# From -- ./inp_files/16339.got.cif
#   From: 2010.05.17/outbox.cif.g08.bks.cpg/sg9_9_cif.got.tgz:16339.got - 2010.06.03 20:04:27.
