data_PCOD9139229
_publ_section_title
;
Structure prediction by ZEFSAII (Michael W. Deem and Ramdas Pophale) SiO2 
 PCOD9139229
Probable space group: C C
;
_chemical_formula_sum "Si O2"
_cell_formula_units_Z 32
_cell_length_a 8.638109
_cell_length_b 31.299536
_cell_length_c 5.956993
_cell_angle_alpha 90.000000
_cell_angle_beta 126.008143
_cell_angle_gamma 90.000000
_cell_volume 1302.856136
_symmetry_space_group_name_H-M "C C"
_symmetry_group_IT_number 9
_symmetry_cell_setting 'monoclinic'
loop_
_space_group_symop_operation_xyz
x,y,z
x,-y,1/2+z
1/2+x,1/2+y,z
1/2+x,1/2-y,1/2+z
loop_
_atom_site_type_symbol
_atom_site_label
_atom_site_fract_x
_atom_site_fract_y
_atom_site_fract_z
Si Si1 0.954400 0.889544 0.234690
Si Si2 0.572567 0.099318 0.677834
Si Si3 0.081668 0.199108 0.357498
Si Si4 0.757364 0.146804 0.166753
Si Si5 0.810053 0.332990 0.699098
Si Si6 0.527419 0.994144 0.059350
Si Si7 0.958871 0.712062 0.926442
Si Si8 0.598509 0.479038 0.199299
O O1 0.792415 0.903327 0.276127
O O2 0.151918 0.865685 0.463716
O O3 0.011112 0.931700 0.142263
O O4 0.825405 0.857562 0.976521
O O5 0.443966 0.137097 0.467649
O O6 0.472293 0.055607 0.530565
O O7 0.617549 0.108591 0.977681
O O8 0.182101 0.204154 0.205605
O O9 0.260862 0.193097 0.671446
O O10 0.961563 0.156000 0.229047
O O11 0.971249 0.238946 0.368834
O O12 0.640941 0.187990 0.985026
O O13 0.954305 0.305016 0.673705
O O14 0.621972 0.001405 0.389431
O O15 0.331285 0.021057 0.894314
O O16 0.550544 0.500625 0.408364
#
# Coordination Sequence:
#
# PCOD9139229 Si02
#       8
#     4   4   4   4   4   4   4   4
#     4  12  27  46  79 109 150 199 256 319 381 461
#     4  12  27  46  79 109 150 199 256 319 381 461
#     4  12  26  47  74 108 152 197 248 321 384 459
#     4  12  26  48  72 114 150 190 262 316 388 458
#     4  12  26  48  76 110 148 202 254 312 390 458
#     4  10  24  46  73 109 152 201 254 311 388 462
#     4  12  26  47  74 108 152 197 248 321 384 459
#     4  10  24  46  73 109 152 201 254 311 388 462
#
# _framework density 24.561420999999999
#
# number of rings (size 3 to 8) (size 9 to 14) (size 15 to 20)
#    0.000    0.500    6.250    1.500    3.500    6.000 
#    2.250    0.000    0.000    0.000    0.000    0.000 
#    0.000    0.000    0.000    0.000    0.000    0.000 
#
# Total GULP energy -89068.238991 kJ/mol
# GULP energy per Si atom -5566.764937 kJ/mol
# Density = 2.450552 g / cm^3
# Si number density = 24.561421 Si / 1000 Ang^3
#
#
#
# Elastic Constant Matrix: (Units=GPa)
#
#
# Indices 1 2 3 4 5 6 
#
# 1 59.2627 27.9950 42.9726 0.0000 6.2574 0.0000
# 2 27.9950 79.2641 23.7002 0.0000 -4.6833 0.0000
# 3 42.9726 23.7002 101.0345 0.0000 1.6390 0.0000
# 4 0.0000 0.0000 0.0000 26.7074 0.0000 -3.8701
# 5 6.2574 -4.6833 1.6390 0.0000 39.0621 0.0000
# 6 0.0000 0.0000 0.0000 -3.8701 0.0000 28.9455
#
#
#
# Elastic Compliance Matrix: (Units=1/GPa)
#
#
# Indices 1 2 3 4 5 6 
#
# 1 0.028218 -0.007199 -0.010233 0.000000 -0.004954 0.000000
# 2 -0.007199 0.015527 -0.000629 0.000000 0.003041 0.000000
# 3 -0.010233 -0.000629 0.014382 0.000000 0.000960 0.000000
# 4 0.000000 0.000000 0.000000 0.038183 0.000000 0.005105
# 5 -0.004954 0.003041 0.000960 0.000000 0.026718 0.000000
# 6 0.000000 0.000000 0.000000 0.005105 0.000000 0.035230
#
#
# Mechanical properties :
#
#
# Convention : Reuss Voigt Hill
#
# Bulk Modulus (GPa) = 45.44706 47.65520 46.55113
# Shear Modulus (GPa) = 24.78749 28.60256 26.69502
#
# Velocity S-wave (km/s) = 3.18024 3.41623 3.30034
# Velocity P-wave (km/s) = 5.65941 5.91653 5.78940
#
# Compressibility (1/GPa) = 0.02200362
#
# Stress axis : x y z
#
# Youngs Moduli (GPa) = 35.43861 64.40543 69.53182
#
# Poissons Ratio (x) = 0.46367 0.71149
# Poissons Ratio (y) = 0.25513 0.04377
# Poissons Ratio (z) = 0.36263 0.04054
#
# Static dielectric constant tensor:
#      x y z
#    x 2.134020 0.000000 -0.176520 
#    y 0.000000 1.927720 0.000000 
#    z -0.176520 0.000000 2.033810 
# 
# From -- ./inp_files/1441.got.cif
#   From: 2010.05.17/outbox.cif.g08.bks.cpg/sg9_1_cif.got.tgz:1441.got - 2010.06.03 20:04:27.
