data_PCOD9139453
_publ_section_title
;
Structure prediction by ZEFSAII (Michael W. Deem and Ramdas Pophale) SiO2 
 PCOD9139453
Probable space group: C C
;
_chemical_formula_sum "Si O2"
_cell_formula_units_Z 32
_cell_length_a 19.260297
_cell_length_b 14.964334
_cell_length_c 12.644691
_cell_angle_alpha 90.000000
_cell_angle_beta 22.526970
_cell_angle_gamma 90.000000
_cell_volume 1396.244455
_symmetry_space_group_name_H-M "C C"
_symmetry_group_IT_number 9
_symmetry_cell_setting 'monoclinic'
loop_
_space_group_symop_operation_xyz
x,y,z
x,-y,1/2+z
1/2+x,1/2+y,z
1/2+x,1/2-y,1/2+z
loop_
_atom_site_type_symbol
_atom_site_label
_atom_site_fract_x
_atom_site_fract_y
_atom_site_fract_z
Si Si1 0.379340 0.739434 0.250000
Si Si2 0.251379 0.317913 0.713897
Si Si3 0.702470 0.454129 0.826000
Si Si4 0.913123 0.921582 0.833976
Si Si5 0.141771 0.875380 0.696548
Si Si6 0.062921 0.308576 0.690001
Si Si7 0.070339 0.467810 0.836391
Si Si8 0.989755 0.779671 0.100552
O O1 0.272688 0.686394 0.310005
O O2 0.398922 0.682194 0.327567
O O3 0.281513 0.831568 0.417974
O O4 0.580753 0.755814 0.925162
O O5 0.429946 0.271290 0.415309
O O6 0.183772 0.412038 0.764106
O O7 0.731148 0.437740 0.660128
O O8 0.888217 0.479579 0.621665
O O9 0.557472 0.530733 0.054447
O O10 0.605548 0.360510 0.992656
O O11 0.991840 0.928426 0.841247
O O12 0.719638 0.963962 0.085597
O O13 0.048509 0.795160 0.896309
O O14 0.013042 0.396154 0.827061
O O15 0.039227 0.308572 0.596117
O O16 0.275931 0.294858 0.410796
#
# Coordination Sequence:
#
# PCOD9139453 Si02
#       8
#     4   4   4   4   4   4   4   4
#     4  12  25  44  75 103 145 196 248 303 372 454
#     4  12  24  44  74 107 142 195 252 302 366 449
#     4  10  25  51  68 108 147 188 244 303 381 441
#     4  12  25  47  70 104 148 186 245 308 365 447
#     4  10  26  48  72 103 148 195 243 301 380 451
#     4  12  21  48  72 106 145 189 257 296 361 449
#     4  12  25  45  72 109 141 187 243 307 376 423
#     4  10  25  45  75 102 146 192 244 302 367 442
#
# _framework density 22.918621999999999
#
# number of rings (size 3 to 8) (size 9 to 14) (size 15 to 20)
#    0.750    0.000    5.000    1.500    5.250    1.000 
#    2.250    0.000    0.000    0.000    0.000    0.000 
#    0.000    0.000    0.000    0.000    0.000    0.000 
#
# Total GULP energy -89315.718423 kJ/mol
# GULP energy per Si atom -5582.232401 kJ/mol
# Density = 2.286646 g / cm^3
# Si number density = 22.918622 Si / 1000 Ang^3
#
#
#
# Elastic Constant Matrix: (Units=GPa)
#
#
# Indices 1 2 3 4 5 6 
#
# 1 73.6762 17.1207 13.2203 0.0003 -2.8243 0.0000
# 2 17.1207 48.5650 36.8961 0.0006 -7.7102 0.0000
# 3 13.2203 36.8961 153.3740 0.0010 -18.0446 0.0000
# 4 0.0003 0.0006 0.0010 35.5967 -0.0002 -11.5347
# 5 -2.8243 -7.7102 -18.0446 -0.0002 22.9175 -0.0001
# 6 0.0000 0.0000 0.0000 -11.5347 -0.0001 38.1427
#
#
#
# Elastic Compliance Matrix: (Units=1/GPa)
#
#
# Indices 1 2 3 4 5 6 
#
# 1 0.014784 -0.005188 -0.000019 0.000000 0.000062 0.000000
# 2 -0.005188 0.027367 -0.005652 0.000000 0.004118 0.000000
# 3 -0.000019 -0.005652 0.008439 0.000000 0.004741 0.000000
# 4 0.000000 0.000000 0.000000 0.031144 0.000000 0.009418
# 5 0.000062 0.004118 0.004741 0.000000 0.048761 0.000000
# 6 0.000000 0.000000 0.000000 0.009418 0.000000 0.029066
#
#
# Mechanical properties :
#
#
# Convention : Reuss Voigt Hill
#
# Bulk Modulus (GPa) = 34.63404 45.56548 40.09976
# Shear Modulus (GPa) = 26.19131 33.22326 29.70728
#
# Velocity S-wave (km/s) = 3.38419 3.81152 3.60419
# Velocity P-wave (km/s) = 5.51497 6.26856 5.90380
#
# Compressibility (1/GPa) = 0.02887333
#
# Stress axis : x y z
#
# Youngs Moduli (GPa) = 67.63984 36.53973 118.49628
#
# Poissons Ratio (x) = 0.18955 0.00227
# Poissons Ratio (y) = 0.35089 0.66974
# Poissons Ratio (z) = 0.00130 0.20652
#
# Static dielectric constant tensor:
#      x y z
#    x 1.964570 0.000000 0.045960 
#    y 0.000000 1.851150 0.000000 
#    z 0.045960 0.000000 1.843200 
# 
# From -- ./inp_files/27474.got.cif
#   From: 2010.05.17/outbox.cif.g08.bks.cpg/sg9_14_cif.got.tgz:27474.got - 2010.06.03 20:04:27.
