data_PCOD9139025
_publ_section_title
;
Structure prediction by ZEFSAII (Michael W. Deem and Ramdas Pophale) SiO2 
 PCOD9139025
Probable space group: C C
;
_chemical_formula_sum "Si O2"
_cell_formula_units_Z 32
_cell_length_a 15.889493
_cell_length_b 14.685165
_cell_length_c 8.946452
_cell_angle_alpha 90.000000
_cell_angle_beta 138.060722
_cell_angle_gamma 90.000000
_cell_volume 1395.207753
_symmetry_space_group_name_H-M "C C"
_symmetry_group_IT_number 9
_symmetry_cell_setting 'monoclinic'
loop_
_space_group_symop_operation_xyz
x,y,z
x,-y,1/2+z
1/2+x,1/2+y,z
1/2+x,1/2-y,1/2+z
loop_
_atom_site_type_symbol
_atom_site_label
_atom_site_fract_x
_atom_site_fract_y
_atom_site_fract_z
Si Si1 0.646000 0.965758 0.866480
Si Si2 0.517008 0.094807 0.494052
Si Si3 0.315147 0.663223 0.417547
Si Si4 0.637404 0.587747 0.521236
Si Si5 0.783019 0.351164 0.500564
Si Si6 0.022608 0.798035 0.630830
Si Si7 0.061106 0.894514 0.372795
Si Si8 0.353147 0.625164 0.148190
O O1 0.616549 0.931368 0.994353
O O2 0.691991 0.882908 0.824031
O O3 0.528805 0.017526 0.635889
O O4 0.755159 0.042952 0.002630
O O5 0.536541 0.194137 0.595939
O O6 0.384082 0.097541 0.234432
O O7 0.348230 0.757200 0.540045
O O8 0.431586 0.598482 0.613315
O O9 0.304414 0.678850 0.227735
O O10 0.732127 0.603921 0.780902
O O11 0.631771 0.665158 0.386523
O O12 0.641703 0.486595 0.463083
O O13 0.491153 0.589576 0.380691
O O14 0.657543 0.323878 0.426427
O O15 0.029095 0.864303 0.497236
O O16 0.892859 0.817982 0.552853
#
# Coordination Sequence:
#
# PCOD9139025 Si02
#       8
#     4   4   4   4   4   4   4   4
#     4  12  27  48  81 111 161 203 263 325 391 480
#     4  12  29  50  69 117 163 212 248 319 414 468
#     4  12  24  47  76 109 148 199 260 327 382 456
#     4  10  24  44  76 106 142 191 254 313 376 450
#     4  12  28  47  71 110 155 198 248 319 391 469
#     4  10  24  45  75 114 146 195 263 324 387 452
#     4  12  22  46  75 110 146 197 263 317 380 460
#     4  10  24  43  75 115 139 197 259 320 375 449
#
# _framework density 22.935652000000001
#
# number of rings (size 3 to 8) (size 9 to 14) (size 15 to 20)
#    0.750    0.000    5.000    1.500    7.000    1.000 
#    2.250    0.000    0.000    0.000    0.000    0.000 
#    0.000    0.000    0.000    0.000    0.000    0.000 
#
# Total GULP energy -89311.071174 kJ/mol
# GULP energy per Si atom -5581.941948 kJ/mol
# Density = 2.288345 g / cm^3
# Si number density = 22.935652 Si / 1000 Ang^3
#
#
#
# Elastic Constant Matrix: (Units=GPa)
#
#
# Indices 1 2 3 4 5 6 
#
# 1 105.3280 44.9670 17.9510 0.0000 -31.7070 0.0000
# 2 44.9670 87.7707 57.5654 0.0000 -2.0446 0.0000
# 3 17.9510 57.5654 125.3045 0.0000 -11.1835 0.0000
# 4 0.0000 0.0000 0.0000 25.7167 0.0000 -0.0884
# 5 -31.7070 -2.0446 -11.1835 0.0000 33.5902 0.0000
# 6 0.0000 0.0000 0.0000 -0.0884 0.0000 28.5151
#
#
#
# Elastic Compliance Matrix: (Units=1/GPa)
#
#
# Indices 1 2 3 4 5 6 
#
# 1 0.020291 -0.013158 0.004922 0.000000 0.019991 0.000000
# 2 -0.013158 0.024918 -0.010858 0.000000 -0.014519 0.000000
# 3 0.004922 -0.010858 0.013006 0.000000 0.008316 0.000000
# 4 0.000000 0.000000 0.000000 0.038886 0.000000 0.000121
# 5 0.019991 -0.014519 0.008316 0.000000 0.050526 0.000000
# 6 0.000000 0.000000 0.000000 0.000121 0.000000 0.035069
#
#
# Mechanical properties :
#
#
# Convention : Reuss Voigt Hill
#
# Bulk Modulus (GPa) = 49.93400 62.15223 56.04311
# Shear Modulus (GPa) = 21.97239 30.75905 26.36572
#
# Velocity S-wave (km/s) = 3.09852 3.66608 3.39418
# Velocity P-wave (km/s) = 5.88385 6.71398 6.31258
#
# Compressibility (1/GPa) = 0.02002644
#
# Stress axis : x y z
#
# Youngs Moduli (GPa) = 49.28377 40.13212 76.88855
#
# Poissons Ratio (x) = 0.52806 -0.37847
# Poissons Ratio (y) = 0.64848 0.83486
# Poissons Ratio (z) = -0.24259 0.43576
#
# Static dielectric constant tensor:
#      x y z
#    x 1.906240 0.000000 -0.021970 
#    y 0.000000 1.895110 0.000000 
#    z -0.021970 0.000000 1.855460 
# 
# From -- ./inp_files/10911.got.cif
#   From: 2010.05.17/outbox.cif.g08.bks.cpg/sg9_6_cif.got.tgz:10911.got - 2010.06.03 20:04:27.
