data_PCOD9139281
_publ_section_title
;
Structure prediction by ZEFSAII (Michael W. Deem and Ramdas Pophale) SiO2 
 PCOD9139281
Probable space group: C C
;
_chemical_formula_sum "Si O2"
_cell_formula_units_Z 28
_cell_length_a 5.702023
_cell_length_b 12.811104
_cell_length_c 17.058427
_cell_angle_alpha 90.000000
_cell_angle_beta 122.687500
_cell_angle_gamma 90.000000
_cell_volume 1048.757309
_symmetry_space_group_name_H-M "C C"
_symmetry_group_IT_number 9
_symmetry_cell_setting 'monoclinic'
loop_
_space_group_symop_operation_xyz
x,y,z
x,-y,1/2+z
1/2+x,1/2+y,z
1/2+x,1/2-y,1/2+z
loop_
_atom_site_type_symbol
_atom_site_label
_atom_site_fract_x
_atom_site_fract_y
_atom_site_fract_z
Si Si1 0.057740 0.532275 0.032580
Si Si2 0.583138 0.268698 0.063758
Si Si3 0.749474 0.384975 0.852722
Si Si4 0.177928 0.452312 0.232253
Si Si5 0.255947 0.258242 0.164472
Si Si6 0.656983 0.530220 0.174108
Si Si7 0.815976 0.133312 0.377035
O O1 0.974221 0.653396 0.016553
O O2 0.081609 0.492672 0.126990
O O3 0.387170 0.528722 0.072165
O O4 0.882178 0.460395 0.942637
O O5 0.399216 0.288874 0.108519
O O6 0.919771 0.255621 0.118012
O O7 0.508982 0.355588 0.987056
O O8 0.597646 0.449432 0.755557
O O9 0.511420 0.310790 0.846351
O O10 0.019589 0.335491 0.860452
O O11 0.341548 0.346804 0.242236
O O12 0.282677 0.522733 0.325132
O O13 0.860071 0.433076 0.205967
O O14 0.328117 0.135827 0.183483
#
# Coordination Sequence:
#
# PCOD9139281 Si02
#       7
#     4   4   4   4   4   4   4
#     4  11  23  44  75 100 147 194 239 301 380 431
#     4  11  24  45  69 105 142 187 248 305 365 454
#     4  11  25  43  71 100 144 188 238 306 354 446
#     4  11  23  44  74 100 146 191 244 301 373 444
#     4  11  25  43  78  99 141 198 240 307 379 434
#     4  10  24  48  66 112 144 189 260 303 363 463
#     4  11  24  45  63 106 142 179 243 303 354 442
#
# _framework density 26.698260999999999
#
# number of rings (size 3 to 8) (size 9 to 14) (size 15 to 20)
#    0.000    1.143    2.857    2.571    6.000    0.000 
#   10.286    0.000    0.000    0.000    0.000    0.000 
#    0.000    0.000    0.000    0.000    0.000    0.000 
#
# Total GULP energy -77967.851226 kJ/mol
# GULP energy per Si atom -5569.132230 kJ/mol
# Density = 2.663750 g / cm^3
# Si number density = 26.698261 Si / 1000 Ang^3
#
#
#
# Elastic Constant Matrix: (Units=GPa)
#
#
# Indices 1 2 3 4 5 6 
#
# 1 164.6784 35.6514 34.4689 0.0000 -29.4991 0.0000
# 2 35.6514 128.6412 55.1676 0.0000 -21.3530 0.0000
# 3 34.4689 55.1676 126.8567 0.0000 -3.9787 0.0000
# 4 0.0000 0.0000 0.0000 40.0017 0.0000 -5.1922
# 5 -29.4991 -21.3530 -3.9787 0.0000 49.6202 0.0000
# 6 0.0000 0.0000 0.0000 -5.1922 0.0000 41.8243
#
#
#
# Elastic Compliance Matrix: (Units=1/GPa)
#
#
# Indices 1 2 3 4 5 6 
#
# 1 0.007242 -0.000702 -0.001541 0.000000 0.003880 0.000000
# 2 -0.000702 0.010391 -0.004212 0.000000 0.003716 0.000000
# 3 -0.001541 -0.004212 0.010073 0.000000 -0.001921 0.000000
# 4 0.000000 0.000000 0.000000 0.025408 0.000000 0.003154
# 5 0.003880 0.003716 -0.001921 0.000000 0.023905 0.000000
# 6 0.000000 0.000000 0.000000 0.003154 0.000000 0.024301
#
#
# Mechanical properties :
#
#
# Convention : Reuss Voigt Hill
#
# Bulk Modulus (GPa) = 67.58182 74.52803 71.05492
# Shear Modulus (GPa) = 41.95986 45.94845 43.95416
#
# Velocity S-wave (km/s) = 3.96868 4.15303 4.06190
# Velocity P-wave (km/s) = 6.80946 7.13950 6.97643
#
# Compressibility (1/GPa) = 0.01479688
#
# Stress axis : x y z
#
# Youngs Moduli (GPa) = 138.08506 96.23527 99.27727
#
# Poissons Ratio (x) = 0.06759 0.15295
# Poissons Ratio (y) = 0.09699 0.41811
# Poissons Ratio (z) = 0.21274 0.40530
#
# Static dielectric constant tensor:
#      x y z
#    x 2.314520 0.000000 0.052240 
#    y 0.000000 2.146480 0.000000 
#    z 0.052240 0.000000 2.121940 
# 
# From -- ./inp_files/21775.got.cif
#   From: 2010.05.17/outbox.cif.g08.bks.cpg/sg9_11_cif.got.tgz:21775.got - 2010.06.03 20:04:27.
