data_PCOD9139233
_publ_section_title
;
Structure prediction by ZEFSAII (Michael W. Deem and Ramdas Pophale) SiO2 
 PCOD9139233
Probable space group: C C
;
_chemical_formula_sum "Si O2"
_cell_formula_units_Z 28
_cell_length_a 5.102288
_cell_length_b 13.467683
_cell_length_c 15.645178
_cell_angle_alpha 90.000000
_cell_angle_beta 107.262799
_cell_angle_gamma 90.000000
_cell_volume 1026.645880
_symmetry_space_group_name_H-M "C C"
_symmetry_group_IT_number 9
_symmetry_cell_setting 'monoclinic'
loop_
_space_group_symop_operation_xyz
x,y,z
x,-y,1/2+z
1/2+x,1/2+y,z
1/2+x,1/2-y,1/2+z
loop_
_atom_site_type_symbol
_atom_site_label
_atom_site_fract_x
_atom_site_fract_y
_atom_site_fract_z
Si Si1 0.335460 0.525556 0.199590
Si Si2 0.693767 0.306645 0.267409
Si Si3 0.578103 0.244610 0.939811
Si Si4 0.141095 0.443884 0.361646
Si Si5 0.939285 0.938172 0.024598
Si Si6 0.100801 0.223536 0.185551
Si Si7 0.319967 0.122406 0.062430
O O1 0.375783 0.450087 0.121135
O O2 0.568097 0.611105 0.217759
O O3 0.626474 0.705241 0.087168
O O4 0.063730 0.588797 0.148644
O O5 0.849069 0.231069 0.346250
O O6 0.380062 0.277819 0.236992
O O7 0.275196 0.480192 0.286245
O O8 0.842531 0.286089 0.191565
O O9 0.587220 0.342443 0.998416
O O10 0.456657 0.165670 0.993502
O O11 0.764524 0.165705 0.903002
O O12 0.184703 0.526055 0.439742
O O13 0.824960 0.412060 0.309343
O O14 0.149018 0.026258 0.028475
#
# Coordination Sequence:
#
# PCOD9139233 Si02
#       7
#     4   4   4   4   4   4   4
#     4  11  23  51  76 117 167 223 283 352 426 512
#     4  10  24  46  73 118 155 206 275 342 419 496
#     4  10  25  49  74 115 164 218 274 351 430 498
#     4  10  25  48  77 119 165 219 288 352 422 518
#     4  11  25  50  74 114 169 221 277 356 426 504
#     4  11  23  46  79 110 155 213 273 339 417 500
#     4  11  25  48  77 115 165 214 282 346 418 510
#
# _framework density 27.273282999999999
#
# number of rings (size 3 to 8) (size 9 to 14) (size 15 to 20)
#    0.857    0.571    2.857    0.857    4.000    1.143 
#   18.000    0.000    0.000    0.000    0.000    0.000 
#    0.000    0.000    0.000    0.000    0.000    0.000 
#
# Total GULP energy -78229.141649 kJ/mol
# GULP energy per Si atom -5587.795832 kJ/mol
# Density = 2.721121 g / cm^3
# Si number density = 27.273283 Si / 1000 Ang^3
#
#
#
# Elastic Constant Matrix: (Units=GPa)
#
#
# Indices 1 2 3 4 5 6 
#
# 1 128.4206 36.9043 51.8805 0.0000 -13.0159 0.0000
# 2 36.9043 93.1642 55.2164 0.0000 -13.2308 0.0000
# 3 51.8805 55.2164 159.4146 0.0000 -35.6635 0.0000
# 4 0.0000 0.0000 0.0000 53.6562 0.0000 -17.2131
# 5 -13.0159 -13.2308 -35.6635 0.0000 42.2340 0.0000
# 6 0.0000 0.0000 0.0000 -17.2131 0.0000 38.4896
#
#
#
# Elastic Compliance Matrix: (Units=1/GPa)
#
#
# Indices 1 2 3 4 5 6 
#
# 1 0.009376 -0.002394 -0.002150 0.000000 0.000324 0.000000
# 2 -0.002394 0.014122 -0.004053 0.000000 0.000263 0.000000
# 3 -0.002150 -0.004053 0.009794 0.000000 0.006338 0.000000
# 4 0.000000 0.000000 0.000000 0.021759 0.000000 0.009731
# 5 0.000324 0.000263 0.006338 0.000000 0.029212 0.000000
# 6 0.000000 0.000000 0.000000 0.009731 0.000000 0.030333
#
#
# Mechanical properties :
#
#
# Convention : Reuss Voigt Hill
#
# Bulk Modulus (GPa) = 62.11729 74.33352 68.22541
# Shear Modulus (GPa) = 36.45466 42.67583 39.56525
#
# Velocity S-wave (km/s) = 3.65998 3.95998 3.81293
# Velocity P-wave (km/s) = 6.37855 6.94427 6.66741
#
# Compressibility (1/GPa) = 0.01609858
#
# Stress axis : x y z
#
# Youngs Moduli (GPa) = 106.65320 70.81264 102.09826
#
# Poissons Ratio (x) = 0.16952 0.21947
# Poissons Ratio (y) = 0.25533 0.41384
# Poissons Ratio (z) = 0.22927 0.28703
#
# Static dielectric constant tensor:
#      x y z
#    x 2.205300 0.000000 0.083620 
#    y 0.000000 2.178440 0.000000 
#    z 0.083620 0.000000 2.215730 
# 
# From -- ./inp_files/32149.got.cif
#   From: 2010.05.17/outbox.cif.g08.bks.cpg/sg9_17_cif.got.tgz:32149.got - 2010.06.03 20:04:27.
