data_PCOD9139699
_publ_section_title
;
Structure prediction by ZEFSAII (Michael W. Deem and Ramdas Pophale) SiO2 
 PCOD9139699
Probable space group: C C
;
_chemical_formula_sum "Si O2"
_cell_formula_units_Z 28
_cell_length_a 23.622767
_cell_length_b 9.579645
_cell_length_c 11.317004
_cell_angle_alpha 90.000000
_cell_angle_beta 152.731485
_cell_angle_gamma 90.000000
_cell_volume 1173.356369
_symmetry_space_group_name_H-M "C C"
_symmetry_group_IT_number 9
_symmetry_cell_setting 'monoclinic'
loop_
_space_group_symop_operation_xyz
x,y,z
x,-y,1/2+z
1/2+x,1/2+y,z
1/2+x,1/2-y,1/2+z
loop_
_atom_site_type_symbol
_atom_site_label
_atom_site_fract_x
_atom_site_fract_y
_atom_site_fract_z
Si Si1 0.504000 0.754929 0.066560
Si Si2 0.952996 0.574609 0.266651
Si Si3 0.007914 0.745790 0.162102
Si Si4 0.829005 0.302332 0.945247
Si Si5 0.189758 0.873340 0.328471
Si Si6 0.762636 0.681886 0.567565
Si Si7 0.061241 0.933478 0.444905
O O1 0.633724 0.741262 0.374151
O O2 0.495595 0.901581 0.979705
O O3 0.391978 0.735592 0.948758
O O4 0.510342 0.647271 0.966933
O O5 0.039366 0.645070 0.329893
O O6 0.923792 0.420808 0.168345
O O7 0.822155 0.660306 0.019669
O O8 0.121437 0.765524 0.284761
O O9 0.987934 0.895670 0.191335
O O10 0.882970 0.693856 0.869702
O O11 0.700961 0.379629 0.674977
O O12 0.791800 0.231948 0.000145
O O13 0.228050 0.020079 0.467832
O O14 0.088716 0.912851 0.041898
#
# Coordination Sequence:
#
# PCOD9139699 Si02
#       7
#     4   4   4   4   4   4   4
#     4   9  17  36  55  77 119 154 190 247 294 349
#     4   9  20  32  62  88 107 156 205 234 300 361
#     4  11  20  35  62  89 116 151 207 243 284 372
#     4   9  18  35  61  81 118 156 188 253 294 343
#     4   9  20  38  60  87 120 153 194 253 293 349
#     4   9  22  36  56  90 113 158 199 231 307 357
#     4   8  19  36  56  88 111 154 201 233 306 351
#
# _framework density 23.863168999999999
#
# number of rings (size 3 to 8) (size 9 to 14) (size 15 to 20)
#    0.000    3.429    0.000    0.857    8.000    1.143 
#    2.571    1.429   22.000    0.000    0.000    0.000 
#    0.000    0.000    0.000    0.000    0.000    0.000 
#
# Total GULP energy -78002.489165 kJ/mol
# GULP energy per Si atom -5571.606369 kJ/mol
# Density = 2.380886 g / cm^3
# Si number density = 23.863169 Si / 1000 Ang^3
#
#
#
# Elastic Constant Matrix: (Units=GPa)
#
#
# Indices 1 2 3 4 5 6 
#
# 1 148.0394 17.1404 12.2936 0.0000 22.1903 0.0000
# 2 17.1404 29.1423 19.9587 0.0000 8.1918 0.0000
# 3 12.2936 19.9587 59.0274 0.0000 -3.3409 0.0000
# 4 0.0000 0.0000 0.0000 22.1029 0.0000 6.9082
# 5 22.1903 8.1918 -3.3409 0.0000 37.3276 0.0000
# 6 0.0000 0.0000 0.0000 6.9082 0.0000 22.1350
#
#
#
# Elastic Compliance Matrix: (Units=1/GPa)
#
#
# Indices 1 2 3 4 5 6 
#
# 1 0.007766 -0.002804 -0.000901 0.000000 -0.004082 0.000000
# 2 -0.002804 0.050877 -0.017244 0.000000 -0.011042 0.000000
# 3 -0.000901 -0.017244 0.023322 0.000000 0.006407 0.000000
# 4 0.000000 0.000000 0.000000 0.050133 0.000000 -0.015646
# 5 -0.004082 -0.011042 0.006407 0.000000 0.032213 0.000000
# 6 0.000000 0.000000 0.000000 -0.015646 0.000000 0.050060
#
#
# Mechanical properties :
#
#
# Convention : Reuss Voigt Hill
#
# Bulk Modulus (GPa) = 24.95676 37.22162 31.08919
# Shear Modulus (GPa) = 18.54426 28.76751 23.65589
#
# Velocity S-wave (km/s) = 2.79069 3.47583 3.15193
# Velocity P-wave (km/s) = 4.56781 5.63385 5.12861
#
# Compressibility (1/GPa) = 0.04006930
#
# Stress axis : x y z
#
# Youngs Moduli (GPa) = 128.76239 19.65519 42.87770
#
# Poissons Ratio (x) = 0.05510 0.03861
# Poissons Ratio (y) = 0.36099 0.73938
# Poissons Ratio (z) = 0.11596 0.33893
#
# Static dielectric constant tensor:
#      x y z
#    x 1.975210 0.000000 -0.046420 
#    y 0.000000 2.055250 0.000000 
#    z -0.046420 0.000000 1.998500 
# 
# From -- ./inp_files/20884.got.cif
#   From: 2010.05.17/outbox.cif.g08.bks.cpg/sg9_11_cif.got.tgz:20884.got - 2010.06.03 20:04:27.
