data_PCOD9139046
_publ_section_title
;
Structure prediction by ZEFSAII (Michael W. Deem and Ramdas Pophale) SiO2 
 PCOD9139046
Probable space group: C C
;
_chemical_formula_sum "Si O2"
_cell_formula_units_Z 28
_cell_length_a 8.816803
_cell_length_b 13.100470
_cell_length_c 9.736244
_cell_angle_alpha 90.000000
_cell_angle_beta 110.131051
_cell_angle_gamma 90.000000
_cell_volume 1055.874844
_symmetry_space_group_name_H-M "C C"
_symmetry_group_IT_number 9
_symmetry_cell_setting 'monoclinic'
loop_
_space_group_symop_operation_xyz
x,y,z
x,-y,1/2+z
1/2+x,1/2+y,z
1/2+x,1/2-y,1/2+z
loop_
_atom_site_type_symbol
_atom_site_label
_atom_site_fract_x
_atom_site_fract_y
_atom_site_fract_z
Si Si1 0.211600 0.084173 0.117010
Si Si2 0.041103 0.110122 0.661183
Si Si3 0.356717 0.803507 0.209256
Si Si4 0.023454 0.503046 0.152422
Si Si5 0.912152 0.881519 0.399679
Si Si6 0.692896 0.292231 0.859582
Si Si7 0.727504 0.935977 0.958918
O O1 0.370585 0.075390 0.076785
O O2 0.240681 0.109771 0.285296
O O3 0.124425 0.974209 0.090506
O O4 0.073610 0.160345 0.021416
O O5 0.188941 0.185642 0.740777
O O6 0.977905 0.063159 0.784250
O O7 0.873923 0.141435 0.535990
O O8 0.500696 0.727658 0.298419
O O9 0.450647 0.912228 0.224964
O O10 0.278419 0.784772 0.033771
O O11 0.142561 0.569111 0.284930
O O12 0.104452 0.451689 0.045983
O O13 0.787034 0.797879 0.309930
O O14 0.817203 0.954060 0.472900
#
# Coordination Sequence:
#
# PCOD9139046 Si02
#       7
#     4   4   4   4   4   4   4
#     4  10  25  39  72  98 130 182 233 277 351 414
#     4  10  24  44  67 100 133 183 233 289 336 421
#     4  11  25  44  72  96 148 179 237 285 359 419
#     4  11  23  42  72 105 135 182 236 292 340 429
#     4  11  23  43  64  95 146 173 221 289 349 414
#     4  12  23  47  65 104 138 187 220 297 356 418
#     4  11  21  41  70 100 136 176 232 287 347 401
#
# _framework density 26.518294000000001
#
# number of rings (size 3 to 8) (size 9 to 14) (size 15 to 20)
#    0.000    1.143    4.286    0.857   10.000    0.000 
#    5.143    0.000    0.000    0.000    0.000    0.000 
#    0.000    0.000    0.000    0.000    0.000    0.000 
#
# Total GULP energy -78204.775063 kJ/mol
# GULP energy per Si atom -5586.055362 kJ/mol
# Density = 2.645794 g / cm^3
# Si number density = 26.518294 Si / 1000 Ang^3
#
#
#
# Elastic Constant Matrix: (Units=GPa)
#
#
# Indices 1 2 3 4 5 6 
#
# 1 162.9688 24.1916 50.0316 0.0000 26.7045 0.0000
# 2 24.1916 40.1297 1.8773 0.0000 10.4452 0.0000
# 3 50.0316 1.8773 117.8244 0.0000 27.7967 0.0000
# 4 0.0000 0.0000 0.0000 23.0122 0.0000 3.3851
# 5 26.7045 10.4452 27.7967 0.0000 57.6436 0.0000
# 6 0.0000 0.0000 0.0000 3.3851 0.0000 31.7009
#
#
#
# Elastic Compliance Matrix: (Units=1/GPa)
#
#
# Indices 1 2 3 4 5 6 
#
# 1 0.007912 -0.004248 -0.002944 0.000000 -0.001476 0.000000
# 2 -0.004248 0.028499 0.002374 0.000000 -0.004341 0.000000
# 3 -0.002944 0.002374 0.010696 0.000000 -0.004224 0.000000
# 4 0.000000 0.000000 0.000000 0.044149 0.000000 -0.004714
# 5 -0.001476 -0.004341 -0.004224 0.000000 0.020855 0.000000
# 6 0.000000 0.000000 0.000000 -0.004714 0.000000 0.032048
#
#
# Mechanical properties :
#
#
# Convention : Reuss Voigt Hill
#
# Bulk Modulus (GPa) = 26.68720 52.56933 39.62826
# Shear Modulus (GPa) = 30.06870 38.79283 34.43076
#
# Velocity S-wave (km/s) = 3.37097 3.82890 3.60721
# Velocity P-wave (km/s) = 5.02363 6.27807 5.68555
#
# Compressibility (1/GPa) = 0.03747115
#
# Stress axis : x y z
#
# Youngs Moduli (GPa) = 126.38399 35.08923 93.49313
#
# Poissons Ratio (x) = 0.14906 0.27523
# Poissons Ratio (y) = 0.53687 -0.22193
# Poissons Ratio (z) = 0.37206 -0.08329
#
# Static dielectric constant tensor:
#      x y z
#    x 2.107150 0.000000 0.057430 
#    y 0.000000 2.120110 0.000000 
#    z 0.057430 0.000000 2.199300 
# 
# From -- ./inp_files/5388.got.cif
#   From: 2010.05.17/outbox.cif.g08.bks.cpg/sg9_3_cif.got.tgz:5388.got - 2010.06.03 20:04:27.
