data_PCOD9139848
_publ_section_title
;
Structure prediction by ZEFSAII (Michael W. Deem and Ramdas Pophale) SiO2 
 PCOD9139848
Probable space group: C C
;
_chemical_formula_sum "Si O2"
_cell_formula_units_Z 32
_cell_length_a 14.606228
_cell_length_b 11.464704
_cell_length_c 8.846744
_cell_angle_alpha 90.000000
_cell_angle_beta 116.242292
_cell_angle_gamma 90.000000
_cell_volume 1328.752255
_symmetry_space_group_name_H-M "C C"
_symmetry_group_IT_number 9
_symmetry_cell_setting 'monoclinic'
loop_
_space_group_symop_operation_xyz
x,y,z
x,-y,1/2+z
1/2+x,1/2+y,z
1/2+x,1/2-y,1/2+z
loop_
_atom_site_type_symbol
_atom_site_label
_atom_site_fract_x
_atom_site_fract_y
_atom_site_fract_z
Si Si1 0.294130 0.628810 0.600030
Si Si2 0.837197 0.120321 0.146747
Si Si3 0.963926 0.143681 0.975838
Si Si4 0.919849 0.676094 0.060554
Si Si5 0.113477 0.317082 0.175507
Si Si6 0.519970 0.605809 0.521371
Si Si7 0.722028 0.323569 0.013899
Si Si8 0.932333 0.441951 0.233705
O O1 0.301320 0.498270 0.538098
O O2 0.391987 0.627774 0.782092
O O3 0.316936 0.745684 0.520270
O O4 0.194480 0.618304 0.630605
O O5 0.922519 0.111673 0.336984
O O6 0.892582 0.191691 0.055569
O O7 0.747174 0.205749 0.128668
O O8 0.009065 0.023853 0.077643
O O9 0.050813 0.235902 0.016261
O O10 0.004263 0.778814 0.108735
O O11 0.926336 0.605911 0.903584
O O12 0.936409 0.580752 0.203951
O O13 0.179560 0.230010 0.327834
O O14 0.032674 0.388075 0.221270
O O15 0.626961 0.610866 0.516940
O O16 0.821584 0.404734 0.085320
#
# Coordination Sequence:
#
# PCOD9139848 Si02
#       8
#     4   4   4   4   4   4   4   4
#     4  11  27  44  73 104 149 196 250 304 363 441
#     4  11  21  45  71 101 141 191 245 298 363 437
#     4  11  22  45  71 103 142 190 248 302 360 442
#     4  12  27  52  68 109 151 197 250 310 365 450
#     4  12  24  46  72 109 147 197 243 304 375 443
#     4  11  24  45  71 102 143 195 244 300 363 439
#     4  12  22  44  74 100 146 197 236 305 373 428
#     4  12  29  47  74 106 157 197 248 305 376 444
#
# _framework density 24.082744999999999
#
# number of rings (size 3 to 8) (size 9 to 14) (size 15 to 20)
#    0.000    0.500    7.500    0.000    7.000    0.000 
#    2.250    0.000    0.000    0.000    0.000    0.000 
#    0.000    0.000    0.000    0.000    0.000    0.000 
#
# Total GULP energy -89244.163536 kJ/mol
# GULP energy per Si atom -5577.760221 kJ/mol
# Density = 2.402793 g / cm^3
# Si number density = 24.082745 Si / 1000 Ang^3
#
#
#
# Elastic Constant Matrix: (Units=GPa)
#
#
# Indices 1 2 3 4 5 6 
#
# 1 133.1815 41.2530 20.3515 0.0000 5.6379 0.0000
# 2 41.2530 131.3931 29.0251 0.0000 -0.4127 0.0000
# 3 20.3515 29.0251 61.1885 0.0000 11.2051 0.0000
# 4 0.0000 0.0000 0.0000 24.4893 0.0000 -13.4061
# 5 5.6379 -0.4127 11.2051 0.0000 31.9503 0.0000
# 6 0.0000 0.0000 0.0000 -13.4061 0.0000 18.5543
#
#
#
# Elastic Compliance Matrix: (Units=1/GPa)
#
#
# Indices 1 2 3 4 5 6 
#
# 1 0.008509 -0.002334 -0.001541 0.000000 -0.000991 0.000000
# 2 -0.002334 0.009222 -0.003949 0.000000 0.001916 0.000000
# 3 -0.001541 -0.003949 0.019971 0.000000 -0.006783 0.000000
# 4 0.000000 0.000000 0.000000 0.067554 0.000000 0.048810
# 5 -0.000991 0.001916 -0.006783 0.000000 0.033877 0.000000
# 6 0.000000 0.000000 0.000000 0.048810 0.000000 0.089163
#
#
# Mechanical properties :
#
#
# Convention : Reuss Voigt Hill
#
# Bulk Modulus (GPa) = 45.34565 56.33581 50.84073
# Shear Modulus (GPa) = 19.89687 30.67435 25.28561
#
# Velocity S-wave (km/s) = 2.87747 3.57277 3.24380
# Velocity P-wave (km/s) = 5.46898 6.36105 5.93181
#
# Compressibility (1/GPa) = 0.02205283
#
# Stress axis : x y z
#
# Youngs Moduli (GPa) = 117.52184 108.43685 50.07265
#
# Poissons Ratio (x) = 0.25311 0.07718
# Poissons Ratio (y) = 0.27432 0.19774
# Poissons Ratio (z) = 0.18115 0.42822
#
# Static dielectric constant tensor:
#      x y z
#    x 1.946310 0.000000 -0.011470 
#    y 0.000000 1.983680 0.000000 
#    z -0.011470 0.000000 1.976780 
# 
# From -- ./inp_files/18288.got.cif
#   From: 2010.05.17/outbox.cif.g08.bks.cpg/sg9_10_cif.got.tgz:18288.got - 2010.06.03 20:04:27.
