data_PCOD9139915
_publ_section_title
;
Structure prediction by ZEFSAII (Michael W. Deem and Ramdas Pophale) SiO2 
 PCOD9139915
Probable space group: C C
;
_chemical_formula_sum "Si O2"
_cell_formula_units_Z 28
_cell_length_a 22.006786
_cell_length_b 4.983942
_cell_length_c 17.829504
_cell_angle_alpha 90.000000
_cell_angle_beta 143.362147
_cell_angle_gamma 90.000000
_cell_volume 1166.984333
_symmetry_space_group_name_H-M "C C"
_symmetry_group_IT_number 9
_symmetry_cell_setting 'monoclinic'
loop_
_space_group_symop_operation_xyz
x,y,z
x,-y,1/2+z
1/2+x,1/2+y,z
1/2+x,1/2-y,1/2+z
loop_
_atom_site_type_symbol
_atom_site_label
_atom_site_fract_x
_atom_site_fract_y
_atom_site_fract_z
Si Si1 0.315280 0.354261 0.419160
Si Si2 0.882120 0.810177 0.313864
Si Si3 0.977334 0.923717 0.193195
Si Si4 0.180338 0.874603 0.308817
Si Si5 0.102525 0.063788 0.072810
Si Si6 0.678949 0.066201 0.072125
Si Si7 0.975971 0.434824 0.288984
O O1 0.341353 0.277755 0.358823
O O2 0.412944 0.468212 0.559326
O O3 0.268916 0.089561 0.410373
O O4 0.230749 0.587500 0.343267
O O5 0.915940 0.543111 0.302614
O O6 0.793174 0.960315 0.180115
O O7 0.963606 0.137971 0.245906
O O8 0.094953 0.890325 0.287332
O O9 0.097298 0.471946 0.425273
O O10 0.943600 0.638247 0.191410
O O11 0.123436 0.972365 0.177071
O O12 0.172668 0.874460 0.090625
O O13 0.987148 0.027879 0.931082
O O14 0.630272 0.873688 0.088135
#
# Coordination Sequence:
#
# PCOD9139915 Si02
#       7
#     4   4   4   4   4   4   4
#     4  12  26  44  77 108 138 187 250 300 365 421
#     4  11  24  45  75 108 140 183 244 307 355 427
#     4  12  27  51  68 105 151 195 237 298 360 451
#     4  12  24  44  72 106 143 186 238 299 365 428
#     4  11  22  41  67 108 138 176 231 301 364 414
#     4  11  24  43  69 103 143 180 239 294 362 426
#     4  11  27  46  72 102 149 197 235 291 373 435
#
# _framework density 23.993465
#
# number of rings (size 3 to 8) (size 9 to 14) (size 15 to 20)
#    0.000    0.571    4.286    3.429    0.000   10.286 
#    0.000    1.429    0.000    0.000    0.000    0.000 
#    0.000    0.000    0.000    0.000    0.000    0.000 
#
# Total GULP energy -78364.973494 kJ/mol
# GULP energy per Si atom -5597.498107 kJ/mol
# Density = 2.393885 g / cm^3
# Si number density = 23.993465 Si / 1000 Ang^3
#
#
#
# Elastic Constant Matrix: (Units=GPa)
#
#
# Indices 1 2 3 4 5 6 
#
# 1 126.9256 33.8234 28.7564 0.0001 14.2383 0.0001
# 2 33.8234 90.2944 8.0345 0.0003 5.9195 0.0006
# 3 28.7564 8.0345 120.6833 0.0000 15.6360 0.0001
# 4 0.0001 0.0003 0.0000 39.1877 0.0000 2.4009
# 5 14.2383 5.9195 15.6360 0.0000 38.0991 0.0000
# 6 0.0001 0.0006 0.0001 2.4009 0.0000 25.8178
#
#
#
# Elastic Compliance Matrix: (Units=1/GPa)
#
#
# Indices 1 2 3 4 5 6 
#
# 1 0.009383 -0.003211 -0.001724 0.000000 -0.002300 0.000000
# 2 -0.003211 0.012322 0.000039 0.000000 -0.000731 0.000000
# 3 -0.001724 0.000039 0.009095 0.000000 -0.003095 0.000000
# 4 0.000000 0.000000 0.000000 0.025664 0.000000 -0.002387
# 5 -0.002300 -0.000731 -0.003095 0.000000 0.028491 0.000000
# 6 0.000000 0.000000 0.000000 -0.002387 0.000000 0.038955
#
#
# Mechanical properties :
#
#
# Convention : Reuss Voigt Hill
#
# Bulk Modulus (GPa) = 47.59704 53.23687 50.41696
# Shear Modulus (GPa) = 35.53578 38.44020 36.98799
#
# Velocity S-wave (km/s) = 3.85263 4.00698 3.93056
# Velocity P-wave (km/s) = 6.29849 6.60637 6.45426
#
# Compressibility (1/GPa) = 0.02100971
#
# Stress axis : x y z
#
# Youngs Moduli (GPa) = 106.57814 81.15619 109.94742
#
# Poissons Ratio (x) = 0.26055 0.18955
# Poissons Ratio (y) = 0.34217 -0.00433
# Poissons Ratio (z) = 0.18374 -0.00319
#
# Static dielectric constant tensor:
#      x y z
#    x 1.914220 0.000000 0.003460 
#    y 0.000000 1.862360 0.000000 
#    z 0.003460 0.000000 1.917130 
# 
# From -- ./inp_files/31519.got.cif
#   From: 2010.05.17/outbox.cif.g08.bks.cpg/sg9_16_cif.got.tgz:31519.got - 2010.06.03 20:04:27.
