data_PCOD9139147
_publ_section_title
;
Structure prediction by ZEFSAII (Michael W. Deem and Ramdas Pophale) SiO2 
 PCOD9139147
Probable space group: C C
;
_chemical_formula_sum "Si O2"
_cell_formula_units_Z 28
_cell_length_a 19.546706
_cell_length_b 11.219105
_cell_length_c 6.834928
_cell_angle_alpha 90.000000
_cell_angle_beta 137.560503
_cell_angle_gamma 90.000000
_cell_volume 1011.458511
_symmetry_space_group_name_H-M "C C"
_symmetry_group_IT_number 9
_symmetry_cell_setting 'monoclinic'
loop_
_space_group_symop_operation_xyz
x,y,z
x,-y,1/2+z
1/2+x,1/2+y,z
1/2+x,1/2-y,1/2+z
loop_
_atom_site_type_symbol
_atom_site_label
_atom_site_fract_x
_atom_site_fract_y
_atom_site_fract_z
Si Si1 0.968660 0.675932 0.234390
Si Si2 0.775416 0.906942 0.957733
Si Si3 0.363287 0.001350 0.786167
Si Si4 0.179036 0.360675 0.380811
Si Si5 0.481241 0.538343 0.747886
Si Si6 0.137736 0.981030 0.331649
Si Si7 0.780949 0.286966 0.761614
O O1 0.880506 0.604311 0.163658
O O2 0.972800 0.816490 0.203250
O O3 0.065756 0.659476 0.575043
O O4 0.955390 0.593197 0.014746
O O5 0.709598 0.832827 0.664338
O O6 0.702061 0.999785 0.905612
O O7 0.861369 0.982183 0.025693
O O8 0.823371 0.813347 0.207280
O O9 0.246950 0.048864 0.550721
O O10 0.354545 0.899608 0.949500
O O11 0.248659 0.283675 0.384815
O O12 0.506828 0.494894 0.557736
O O13 0.608665 0.498410 0.022926
O O14 0.179445 0.845259 0.449330
#
# Coordination Sequence:
#
# PCOD9139147 Si02
#       7
#     4   4   4   4   4   4   4
#     4  12  24  45  71 104 139 188 241 292 366 431
#     4  12  25  45  73 106 149 187 239 300 358 429
#     4  10  24  45  70 102 145 180 244 297 358 428
#     4  12  25  45  73 106 149 187 239 300 358 429
#     4  12  24  45  71 104 139 188 241 292 366 431
#     4  10  24  45  70 102 145 180 244 297 358 428
#     4  10  24  48  70 104 148 188 240 302 362 416
#
# _framework density 27.682797000000001
#
# number of rings (size 3 to 8) (size 9 to 14) (size 15 to 20)
#    0.857    0.000    4.286    2.571    0.000    3.429 
#    0.000    4.286    0.000    0.000    0.000    0.000 
#    0.000    0.000    0.000    0.000    0.000    0.000 
#
# Total GULP energy -77984.910293 kJ/mol
# GULP energy per Si atom -5570.350735 kJ/mol
# Density = 2.761979 g / cm^3
# Si number density = 27.682797 Si / 1000 Ang^3
#
#
#
# Elastic Constant Matrix: (Units=GPa)
#
#
# Indices 1 2 3 4 5 6 
#
# 1 97.3316 14.5649 -4.4588 0.0000 11.2059 0.0000
# 2 14.5649 191.8832 28.4864 0.0000 -8.8380 0.0000
# 3 -4.4588 28.4864 154.0002 0.0000 -16.7858 0.0000
# 4 0.0000 0.0000 0.0000 -4.9400 0.0000 436.4595
# 5 11.2059 -8.8380 -16.7858 0.0000 34.9617 0.0000
# 6 0.0000 0.0000 0.0000 436.4595 0.0000-3132.4454
#
#
#
# Elastic Compliance Matrix: (Units=1/GPa)
#
#
# Indices 1 2 3 4 5 6 
#
# 1 0.010854 -0.001008 0.000099 0.000000 -0.003686 0.000000
# 2 -0.001008 0.005481 -0.000904 0.000000 0.001275 0.000000
# 3 0.000099 -0.000904 0.007002 0.000000 0.003101 0.000000
# 4 0.000000 0.000000 0.000000 0.017897 0.000000 0.002494
# 5 -0.003686 0.001275 0.003101 0.000000 0.031595 0.000000
# 6 0.000000 0.000000 0.000000 0.002494 0.000000 0.000028
#
#
# Mechanical properties :
#
#
# Convention : Reuss Voigt Hill
#
# Bulk Modulus (GPa) = 50.73661 57.82222 54.27941
# Shear Modulus (GPa) = 60.20139 -593.50990 -266.65425
#
# Velocity S-wave (km/s) = 4.66841 -14.65817 -9.82517
# Velocity P-wave (km/s) = 6.88668 16.29571 10.44327
#
# Compressibility (1/GPa) = 0.01970963
#
# Stress axis : x y z
#
# Youngs Moduli (GPa) = 92.13204 182.44936 142.82352
#
# Poissons Ratio (x) = 0.18397 -0.01414
# Poissons Ratio (y) = 0.09290 0.12913
# Poissons Ratio (z) = -0.00912 0.16495
#
# Static dielectric constant tensor:
#      x y z
#    x 3.004670 0.000000 -0.515500 
#    y 0.000000 11.740790 0.000000 
#    z -0.515500 0.000000 2.330370 
# 
# From -- ./inp_files/11609.got.cif
#   From: 2010.05.17/outbox.cif.g08.bks.cpg/sg9_6_cif.got.tgz:11609.got - 2010.06.03 20:04:27.
