data_PCOD9139511
_publ_section_title
;
Structure prediction by ZEFSAII (Michael W. Deem and Ramdas Pophale) SiO2 
 PCOD9139511
Probable space group: C C
;
_chemical_formula_sum "Si O2"
_cell_formula_units_Z 28
_cell_length_a 9.131885
_cell_length_b 10.136066
_cell_length_c 24.728485
_cell_angle_alpha 90.000000
_cell_angle_beta 30.643763
_cell_angle_gamma 90.000000
_cell_volume 1166.650864
_symmetry_space_group_name_H-M "C C"
_symmetry_group_IT_number 9
_symmetry_cell_setting 'monoclinic'
loop_
_space_group_symop_operation_xyz
x,y,z
x,-y,1/2+z
1/2+x,1/2+y,z
1/2+x,1/2-y,1/2+z
loop_
_atom_site_type_symbol
_atom_site_label
_atom_site_fract_x
_atom_site_fract_y
_atom_site_fract_z
Si Si1 0.987030 0.184042 0.478790
Si Si2 0.238656 0.899902 0.702913
Si Si3 0.885729 0.198167 0.993695
Si Si4 0.513513 0.346973 0.338832
Si Si5 0.978840 0.148037 0.168503
Si Si6 0.436798 0.775323 0.382357
Si Si7 0.729678 0.519533 0.493798
O O1 0.664621 0.223024 0.594614
O O2 0.011815 0.175736 0.406775
O O3 0.179614 0.310800 0.435727
O O4 0.071006 0.063773 0.489609
O O5 0.581378 0.875276 0.597028
O O6 0.113963 0.903257 0.681689
O O7 0.102015 0.773254 0.777342
O O8 0.127954 0.030563 0.768505
O O9 0.829362 0.346539 0.990238
O O10 0.053111 0.132182 0.890190
O O11 0.097787 0.218822 0.976524
O O12 0.664456 0.208122 0.275071
O O13 0.032089 0.051073 0.101513
O O14 0.480641 0.920796 0.393677
#
# Coordination Sequence:
#
# PCOD9139511 Si02
#       7
#     4   4   4   4   4   4   4
#     4  10  25  50  71 110 153 193 247 312 369 447
#     4  12  27  45  81 110 149 200 257 303 387 450
#     4  11  26  49  73 111 151 198 245 319 372 443
#     4  11  26  47  75 109 155 189 250 310 370 452
#     4  11  24  46  75 110 145 202 244 312 378 436
#     4  11  27  44  79 110 146 203 243 311 381 433
#     4  10  25  47  76 102 157 187 254 303 373 445
#
# _framework density 24.000323000000002
#
# number of rings (size 3 to 8) (size 9 to 14) (size 15 to 20)
#    0.000    1.143    4.286    0.000    8.000    9.143 
#    0.000    0.000    0.000    0.000    0.000    0.000 
#    0.000    0.000    0.000    0.000    0.000    0.000 
#
# Total GULP energy -78286.952489 kJ/mol
# GULP energy per Si atom -5591.925178 kJ/mol
# Density = 2.394570 g / cm^3
# Si number density = 24.000323 Si / 1000 Ang^3
#
#
#
# Elastic Constant Matrix: (Units=GPa)
#
#
# Indices 1 2 3 4 5 6 
#
# 1 122.3937 18.7533 17.3964 -0.0073 25.7281 0.0067
# 2 18.7533 120.4489 30.1573 -0.0054 14.6113 0.0026
# 3 17.3964 30.1573 85.8882 -0.0108 16.9524 0.0136
# 4 -0.0073 -0.0054 -0.0108 37.2299 -0.0014 16.2868
# 5 25.7281 14.6113 16.9524 -0.0014 38.5527 -0.0030
# 6 0.0067 0.0026 0.0136 16.2868 -0.0030 39.6986
#
#
#
# Elastic Compliance Matrix: (Units=1/GPa)
#
#
# Indices 1 2 3 4 5 6 
#
# 1 0.009590 -0.000638 -0.000551 0.000003 -0.005916 -0.000003
# 2 -0.000638 0.009325 -0.002772 0.000000 -0.001890 0.000000
# 3 -0.000551 -0.002772 0.013631 0.000007 -0.004576 -0.000007
# 4 0.000003 0.000000 0.000007 0.032735 -0.000005 -0.013430
# 5 -0.005916 -0.001890 -0.004576 -0.000005 0.032615 0.000007
# 6 -0.000003 0.000000 -0.000007 -0.013430 0.000007 0.030700
#
#
# Mechanical properties :
#
#
# Convention : Reuss Voigt Hill
#
# Bulk Modulus (GPa) = 40.60929 51.26055 45.93492
# Shear Modulus (GPa) = 34.54838 40.59117 37.56978
#
# Velocity S-wave (km/s) = 3.79819 4.11697 3.96079
# Velocity P-wave (km/s) = 6.01598 6.63355 6.33230
#
# Compressibility (1/GPa) = 0.02462491
#
# Stress axis : x y z
#
# Youngs Moduli (GPa) = 104.27617 107.24073 73.36172
#
# Poissons Ratio (x) = 0.06837 0.04041
# Poissons Ratio (y) = 0.06648 0.20336
# Poissons Ratio (z) = 0.05744 0.29728
#
# Static dielectric constant tensor:
#      x y z
#    x 1.933630 0.000000 0.014140 
#    y 0.000000 1.968210 0.000000 
#    z 0.014140 0.000000 1.873220 
# 
# From -- ./inp_files/34997.got.cif
#   From: 2010.05.17/outbox.cif.g08.bks.cpg/sg9_18_cif.got.tgz:34997.got - 2010.06.03 20:04:27.
