data_PCOD9139010
_publ_section_title
;
Structure prediction by ZEFSAII (Michael W. Deem and Ramdas Pophale) SiO2 
 PCOD9139010
Probable space group: C C
;
_chemical_formula_sum "Si O2"
_cell_formula_units_Z 28
_cell_length_a 14.112695
_cell_length_b 9.878848
_cell_length_c 13.816008
_cell_angle_alpha 90.000000
_cell_angle_beta 37.130843
_cell_angle_gamma 90.000000
_cell_volume 1162.719260
_symmetry_space_group_name_H-M "C C"
_symmetry_group_IT_number 9
_symmetry_cell_setting 'monoclinic'
loop_
_space_group_symop_operation_xyz
x,y,z
x,-y,1/2+z
1/2+x,1/2+y,z
1/2+x,1/2-y,1/2+z
loop_
_atom_site_type_symbol
_atom_site_label
_atom_site_fract_x
_atom_site_fract_y
_atom_site_fract_z
Si Si1 0.915460 0.131675 0.929040
Si Si2 0.622197 0.292276 0.439846
Si Si3 0.883966 0.616793 0.007367
Si Si4 0.806516 0.400730 0.920760
Si Si5 0.436350 0.950126 0.154371
Si Si6 0.978911 0.038021 0.662897
Si Si7 0.253084 0.397949 0.178783
O O1 0.957772 0.057994 0.794124
O O2 0.056170 0.176165 0.886056
O O3 0.838513 0.271054 0.958243
O O4 0.805186 0.033274 0.080683
O O5 0.586193 0.138414 0.500758
O O6 0.799879 0.344297 0.296225
O O7 0.519291 0.387640 0.594221
O O8 0.794371 0.529971 0.000500
O O9 0.872085 0.534373 0.116532
O O10 0.821912 0.767383 0.068884
O O11 0.067766 0.616252 0.833537
O O12 0.640345 0.383815 0.002564
O O13 0.944810 0.441162 0.733950
O O14 0.834544 0.094390 0.718114
#
# Coordination Sequence:
#
# PCOD9139010 Si02
#       7
#     4   4   4   4   4   4   4
#     4  11  24  45  75 105 145 192 255 303 377 439
#     4  10  24  43  72 108 147 195 233 315 366 454
#     4  12  28  48  73 111 149 199 248 313 375 447
#     4  11  26  44  78 108 144 195 248 312 370 452
#     4  11  25  46  75 107 153 188 254 301 391 438
#     4  10  25  45  73 104 148 192 246 306 372 442
#     4  11  30  47  74 107 154 199 248 310 381 444
#
# _framework density 24.081479999999999
#
# number of rings (size 3 to 8) (size 9 to 14) (size 15 to 20)
#    0.000    1.143    1.429    1.714   18.000    2.286 
#    0.000    0.000    0.000    0.000    0.000    0.000 
#    0.000    0.000    0.000    0.000    0.000    0.000 
#
# Total GULP energy -78420.978904 kJ/mol
# GULP energy per Si atom -5601.498493 kJ/mol
# Density = 2.402667 g / cm^3
# Si number density = 24.081480 Si / 1000 Ang^3
#
#
#
# Elastic Constant Matrix: (Units=GPa)
#
#
# Indices 1 2 3 4 5 6 
#
# 1 72.1500 42.4676 35.3883 0.0000 8.3352 0.0000
# 2 42.4676 125.6361 44.1286 0.0000 -0.4267 0.0000
# 3 35.3883 44.1286 101.6409 0.0000 -0.1848 0.0000
# 4 0.0000 0.0000 0.0000 28.6742 0.0000 5.2016
# 5 8.3352 -0.4267 -0.1848 0.0000 49.7031 0.0000
# 6 0.0000 0.0000 0.0000 5.2016 0.0000 32.6727
#
#
#
# Elastic Compliance Matrix: (Units=1/GPa)
#
#
# Indices 1 2 3 4 5 6 
#
# 1 0.019425 -0.004955 -0.004618 0.000000 -0.003317 0.000000
# 2 -0.004955 0.010656 -0.002899 0.000000 0.000912 0.000000
# 3 -0.004618 -0.002899 0.012707 0.000000 0.000797 0.000000
# 4 0.000000 0.000000 0.000000 0.035912 0.000000 -0.005717
# 5 -0.003317 0.000912 0.000797 0.000000 0.020687 0.000000
# 6 0.000000 0.000000 0.000000 -0.005717 0.000000 0.031517
#
#
# Mechanical properties :
#
#
# Convention : Reuss Voigt Hill
#
# Bulk Modulus (GPa) = 56.04643 60.37735 58.21189
# Shear Modulus (GPa) = 30.90328 34.03951 32.47139
#
# Velocity S-wave (km/s) = 3.58618 3.76375 3.67604
# Velocity P-wave (km/s) = 6.36174 6.63433 6.49946
#
# Compressibility (1/GPa) = 0.01784235
#
# Stress axis : x y z
#
# Youngs Moduli (GPa) = 51.48038 93.84380 78.69905
#
# Poissons Ratio (x) = 0.46502 0.36342
# Poissons Ratio (y) = 0.25510 0.22819
# Poissons Ratio (z) = 0.23773 0.27210
#
# Static dielectric constant tensor:
#      x y z
#    x 1.901740 0.000000 0.023100 
#    y 0.000000 1.897690 0.000000 
#    z 0.023100 0.000000 1.950130 
# 
# From -- ./inp_files/25743.got.cif
#   From: 2010.05.17/outbox.cif.g08.bks.cpg/sg9_13_cif.got.tgz:25743.got - 2010.06.03 20:04:27.
