data_PCOD9139371
_publ_section_title
;
Structure prediction by ZEFSAII (Michael W. Deem and Ramdas Pophale) SiO2 
 PCOD9139371
Probable space group: C C
;
_chemical_formula_sum "Si O2"
_cell_formula_units_Z 32
_cell_length_a 6.326416
_cell_length_b 30.786901
_cell_length_c 8.048585
_cell_angle_alpha 90.000000
_cell_angle_beta 122.513521
_cell_angle_gamma 90.000000
_cell_volume 1321.925984
_symmetry_space_group_name_H-M "C C"
_symmetry_group_IT_number 9
_symmetry_cell_setting 'monoclinic'
loop_
_space_group_symop_operation_xyz
x,y,z
x,-y,1/2+z
1/2+x,1/2+y,z
1/2+x,1/2-y,1/2+z
loop_
_atom_site_type_symbol
_atom_site_label
_atom_site_fract_x
_atom_site_fract_y
_atom_site_fract_z
Si Si1 0.478140 0.190370 0.781140
Si Si2 0.762212 0.496153 0.715951
Si Si3 0.321435 0.354915 0.850470
Si Si4 0.264046 0.165042 0.024673
Si Si5 0.989844 0.786712 0.679475
Si Si6 0.553251 0.444994 0.898804
Si Si7 0.764728 0.877548 0.209739
Si Si8 0.289957 0.525280 0.811202
O O1 0.283112 0.186685 0.849750
O O2 0.456736 0.235274 0.674200
O O3 0.527523 0.147775 0.691176
O O4 0.744536 0.196314 0.983487
O O5 0.772255 0.464866 0.878995
O O6 0.572078 0.469614 0.512187
O O7 0.615810 0.542282 0.617106
O O8 0.045131 0.510876 0.808880
O O9 0.464553 0.311809 0.845132
O O10 0.472190 0.396292 0.844590
O O11 0.034396 0.356546 0.665665
O O12 0.300081 0.360555 0.038127
O O13 0.023316 0.134126 0.914671
O O14 0.217850 0.198215 0.158380
O O15 0.340801 0.478730 0.743887
O O16 0.731129 0.928757 0.207206
#
# Coordination Sequence:
#
# PCOD9139371 Si02
#       8
#     4   4   4   4   4   4   4   4
#     4  10  25  44  70 104 143 189 245 298 377 438
#     4  10  25  42  72  95 146 181 248 293 371 438
#     4  11  26  45  71 107 140 191 249 302 371 448
#     4  10  26  45  71 103 148 186 239 311 365 436
#     4  10  25  43  69 105 140 191 240 302 372 440
#     4  10  25  42  67 102 135 188 238 300 366 438
#     4  11  26  46  73 108 141 194 250 299 376 443
#     4  10  26  45  69 104 139 194 237 309 362 445
#
# _framework density 24.207103
#
# number of rings (size 3 to 8) (size 9 to 14) (size 15 to 20)
#    0.750    1.000    0.000    0.750   14.000    5.000 
#    0.000    0.000    0.000    0.000    0.000    0.000 
#    0.000    0.000    0.000    0.000    0.000    0.000 
#
# Total GULP energy -89116.727976 kJ/mol
# GULP energy per Si atom -5569.795499 kJ/mol
# Density = 2.415201 g / cm^3
# Si number density = 24.207103 Si / 1000 Ang^3
#
#
#
# Elastic Constant Matrix: (Units=GPa)
#
#
# Indices 1 2 3 4 5 6 
#
# 1 112.5891 61.1860 32.3483 0.0000 -0.1323 0.0000
# 2 61.1860 111.5528 24.3646 0.0000 6.4834 0.0000
# 3 32.3483 24.3646 85.9203 0.0000 3.2027 0.0000
# 4 0.0000 0.0000 0.0000 27.2623 0.0000 -5.4301
# 5 -0.1323 6.4834 3.2027 0.0000 35.9985 0.0000
# 6 0.0000 0.0000 0.0000 -5.4301 0.0000 30.5878
#
#
#
# Elastic Compliance Matrix: (Units=1/GPa)
#
#
# Indices 1 2 3 4 5 6 
#
# 1 0.013498 -0.006792 -0.003214 0.000000 0.001559 0.000000
# 2 -0.006792 0.013054 -0.001059 0.000000 -0.002282 0.000000
# 3 -0.003214 -0.001059 0.013186 0.000000 -0.000994 0.000000
# 4 0.000000 0.000000 0.000000 0.038025 0.000000 0.006750
# 5 0.001559 -0.002282 -0.000994 0.000000 0.028284 0.000000
# 6 0.000000 0.000000 0.000000 0.006750 0.000000 0.033891
#
#
# Mechanical properties :
#
#
# Convention : Reuss Voigt Hill
#
# Bulk Modulus (GPa) = 56.79577 60.65110 58.72344
# Shear Modulus (GPa) = 29.77258 31.58060 30.67659
#
# Velocity S-wave (km/s) = 3.51081 3.61584 3.56372
# Velocity P-wave (km/s) = 6.32043 6.52242 6.42222
#
# Compressibility (1/GPa) = 0.01760694
#
# Stress axis : x y z
#
# Youngs Moduli (GPa) = 74.08279 76.60509 75.83678
#
# Poissons Ratio (x) = 0.52033 0.24374
# Poissons Ratio (y) = 0.50320 0.08034
# Poissons Ratio (z) = 0.23810 0.08116
#
# Static dielectric constant tensor:
#      x y z
#    x 2.077660 0.000000 -0.111750 
#    y 0.000000 1.996280 0.000000 
#    z -0.111750 0.000000 2.091030 
# 
# From -- ./inp_files/4528.got.cif
#   From: 2010.05.17/outbox.cif.g08.bks.cpg/sg9_3_cif.got.tgz:4528.got - 2010.06.03 20:04:27.
