data_PCOD9139470
_publ_section_title
;
Structure prediction by ZEFSAII (Michael W. Deem and Ramdas Pophale) SiO2 
 PCOD9139470
Probable space group: C C
;
_chemical_formula_sum "Si O2"
_cell_formula_units_Z 28
_cell_length_a 17.509109
_cell_length_b 8.894251
_cell_length_c 26.117415
_cell_angle_alpha 90.000000
_cell_angle_beta 18.343779
_cell_angle_gamma 90.000000
_cell_volume 1280.044112
_symmetry_space_group_name_H-M "C C"
_symmetry_group_IT_number 9
_symmetry_cell_setting 'monoclinic'
loop_
_space_group_symop_operation_xyz
x,y,z
x,-y,1/2+z
1/2+x,1/2+y,z
1/2+x,1/2-y,1/2+z
loop_
_atom_site_type_symbol
_atom_site_label
_atom_site_fract_x
_atom_site_fract_y
_atom_site_fract_z
Si Si1 0.428750 0.925001 0.138390
Si Si2 0.528787 0.341226 0.918435
Si Si3 0.723487 0.269872 0.530922
Si Si4 0.662434 0.010296 0.725849
Si Si5 0.772877 0.680910 0.629214
Si Si6 0.939397 0.010803 0.267135
Si Si7 0.213456 0.495874 0.309150
O O1 0.545245 0.800727 0.102198
O O2 0.279151 0.861733 0.185172
O O3 0.261368 0.049640 0.271779
O O4 0.669197 0.996786 0.960355
O O5 0.583733 0.165769 0.890682
O O6 0.402968 0.352317 0.942363
O O7 0.345188 0.385057 0.079361
O O8 0.558861 0.325651 0.683632
O O9 0.904909 0.403150 0.396153
O O10 0.679017 0.851361 0.686188
O O11 0.769174 0.979239 0.714554
O O12 0.604243 0.584026 0.699520
O O13 0.041662 0.632855 0.437878
O O14 0.922825 0.970224 0.217499
#
# Coordination Sequence:
#
# PCOD9139470 Si02
#       7
#     4   4   4   4   4   4   4
#     4  11  26  41  74 106 143 191 247 296 374 432
#     4  11  25  44  73 104 145 189 246 302 370 434
#     4  11  24  47  72 109 146 194 241 307 365 438
#     4  11  25  44  76 100 148 192 247 296 371 433
#     4  11  24  46  70 103 145 190 242 305 357 436
#     4  11  23  44  73  99 149 188 241 302 366 425
#     4  10  25  46  70 107 148 190 246 304 365 432
#
# _framework density 21.874245999999999
#
# number of rings (size 3 to 8) (size 9 to 14) (size 15 to 20)
#    0.000    1.143    2.857    2.571   14.000    2.286 
#    5.143    0.000    0.000    0.000    0.000    0.000 
#    0.000    0.000    0.000    0.000    0.000    0.000 
#
# Total GULP energy -78111.489700 kJ/mol
# GULP energy per Si atom -5579.392121 kJ/mol
# Density = 2.182446 g / cm^3
# Si number density = 21.874246 Si / 1000 Ang^3
#
#
#
# Elastic Constant Matrix: (Units=GPa)
#
#
# Indices 1 2 3 4 5 6 
#
# 1 146.7299 48.6856 36.0192 0.0108 -16.6395 0.0021
# 2 48.6856 79.5230 31.9765 -0.0015 5.4036 0.0064
# 3 36.0192 31.9765 117.4432 0.0282 1.0836 0.0084
# 4 0.0108 -0.0015 0.0282 40.6146 -0.0052 -2.1381
# 5 -16.6395 5.4036 1.0836 -0.0052 37.3067 -0.0083
# 6 0.0021 0.0064 0.0084 -2.1381 -0.0083 40.0313
#
#
#
# Elastic Compliance Matrix: (Units=1/GPa)
#
#
# Indices 1 2 3 4 5 6 
#
# 1 0.009639 -0.005664 -0.001462 -0.000001 0.005162 0.000002
# 2 -0.005664 0.017590 -0.003006 0.000003 -0.004987 -0.000003
# 3 -0.001462 -0.003006 0.009786 -0.000007 -0.000501 -0.000002
# 4 -0.000001 0.000003 -0.000007 0.024691 0.000003 0.001319
# 5 0.005162 -0.004987 -0.000501 0.000003 0.029844 0.000007
# 6 0.000002 -0.000003 -0.000002 0.001319 0.000007 0.025051
#
#
# Mechanical properties :
#
#
# Convention : Reuss Voigt Hill
#
# Bulk Modulus (GPa) = 59.69637 64.11764 61.90700
# Shear Modulus (GPa) = 35.10031 38.72484 36.91257
#
# Velocity S-wave (km/s) = 4.01014 4.21210 4.11236
# Velocity P-wave (km/s) = 6.98510 7.28226 7.13523
#
# Compressibility (1/GPa) = 0.01675144
#
# Stress axis : x y z
#
# Youngs Moduli (GPa) = 103.74744 56.84943 102.18527
#
# Poissons Ratio (x) = 0.32200 0.14936
# Poissons Ratio (y) = 0.58764 0.30719
# Poissons Ratio (z) = 0.15164 0.17090
#
# Static dielectric constant tensor:
#      x y z
#    x 1.845670 0.000020 -0.051980 
#    y 0.000020 1.880290 0.000100 
#    z -0.051980 0.000100 1.833730 
# 
# From -- ./inp_files/36847.got.cif
#   From: 2010.05.17/outbox.cif.g08.bks.cpg/sg9_19_cif.got.tgz:36847.got - 2010.06.03 20:04:27.
