data_PCOD9139818
_publ_section_title
;
Structure prediction by ZEFSAII (Michael W. Deem and Ramdas Pophale) SiO2 
 PCOD9139818
Probable space group: C C
;
_chemical_formula_sum "Si O2"
_cell_formula_units_Z 32
_cell_length_a 17.065704
_cell_length_b 9.895153
_cell_length_c 14.251881
_cell_angle_alpha 90.000000
_cell_angle_beta 151.107855
_cell_angle_gamma 90.000000
_cell_volume 1162.818682
_symmetry_space_group_name_H-M "C C"
_symmetry_group_IT_number 9
_symmetry_cell_setting 'monoclinic'
loop_
_space_group_symop_operation_xyz
x,y,z
x,-y,1/2+z
1/2+x,1/2+y,z
1/2+x,1/2-y,1/2+z
loop_
_atom_site_type_symbol
_atom_site_label
_atom_site_fract_x
_atom_site_fract_y
_atom_site_fract_z
Si Si1 0.391820 0.204094 0.195520
Si Si2 0.688085 0.962124 0.224458
Si Si3 0.970568 0.011270 0.271895
Si Si4 0.608141 0.782045 0.761570
Si Si5 0.633754 0.080189 0.975132
Si Si6 0.857930 0.587119 0.367146
Si Si7 0.284860 0.140796 0.679070
Si Si8 0.044586 0.022514 0.143181
O O1 0.462050 0.353096 0.284091
O O2 0.510368 0.136078 0.242231
O O3 0.347282 0.145359 0.250044
O O4 0.242937 0.219232 0.969950
O O5 0.675346 0.107632 0.261152
O O6 0.652133 0.966891 0.075080
O O7 0.873113 0.920092 0.427809
O O8 0.530078 0.880466 0.094569
O O9 0.779771 0.048488 0.055694
O O10 0.105579 0.071076 0.483315
O O11 0.053916 0.050961 0.262648
O O12 0.541330 0.645237 0.639572
O O13 0.730103 0.207004 0.122119
O O14 0.440098 0.118225 0.769267
O O15 0.860948 0.422981 0.352323
O O16 0.695081 0.597632 0.253758
#
# Coordination Sequence:
#
# PCOD9139818 Si02
#       8
#     4   4   4   4   4   4   4   4
#     4  11  25  44  72 108 151 196 251 316 381 460
#     4  11  24  39  70 111 141 184 243 324 372 444
#     4  11  24  47  73 104 146 199 251 308 373 461
#     4  11  21  43  72 106 145 194 267 323 371 442
#     4  11  24  41  73 107 141 185 251 311 376 443
#     4  11  25  42  69 109 149 189 239 311 389 448
#     4  11  23  43  72 104 140 187 244 308 372 445
#     4  11  24  43  71 103 149 194 250 313 374 449
#
# _framework density 27.519335999999999
#
# number of rings (size 3 to 8) (size 9 to 14) (size 15 to 20)
#    0.000    1.000    3.750    3.750    7.000    1.000 
#    0.000    0.000    8.250    0.000    0.000    0.000 
#    0.000    0.000    0.000    0.000    0.000    0.000 
#
# Total GULP energy -89208.325524 kJ/mol
# GULP energy per Si atom -5575.520345 kJ/mol
# Density = 2.745670 g / cm^3
# Si number density = 27.519336 Si / 1000 Ang^3
#
#
#
# Elastic Constant Matrix: (Units=GPa)
#
#
# Indices 1 2 3 4 5 6 
#
# 1 163.2124 25.5962 50.9945 0.0000 45.7396 0.0000
# 2 25.5962 41.6813 25.8622 0.0000 13.6169 0.0000
# 3 50.9945 25.8622 163.0063 0.0000 57.9322 0.0000
# 4 0.0000 0.0000 0.0000 25.8644 0.0000 6.8692
# 5 45.7396 13.6169 57.9322 0.0000 55.5327 0.0000
# 6 0.0000 0.0000 0.0000 6.8692 0.0000 40.9077
#
#
#
# Elastic Compliance Matrix: (Units=1/GPa)
#
#
# Indices 1 2 3 4 5 6 
#
# 1 0.008324 -0.003150 0.000092 0.000000 -0.006180 0.000000
# 2 -0.003150 0.028206 -0.003105 0.000000 -0.001083 0.000000
# 3 0.000092 -0.003105 0.010099 0.000000 -0.009850 0.000000
# 4 0.000000 0.000000 0.000000 0.040468 0.000000 -0.006795
# 5 -0.006180 -0.001083 -0.009850 0.000000 0.033638 0.000000
# 6 0.000000 0.000000 0.000000 -0.006795 0.000000 0.025586
#
#
# Mechanical properties :
#
#
# Convention : Reuss Voigt Hill
#
# Bulk Modulus (GPa) = 29.15136 63.64507 46.39822
# Shear Modulus (GPa) = 29.39746 42.15743 35.77744
#
# Velocity S-wave (km/s) = 3.27195 3.91822 3.60958
# Velocity P-wave (km/s) = 4.98901 6.60663 5.85397
#
# Compressibility (1/GPa) = 0.03430372
#
# Stress axis : x y z
#
# Youngs Moduli (GPa) = 120.13329 35.45321 99.01698
#
# Poissons Ratio (x) = 0.11168 -0.00910
# Poissons Ratio (y) = 0.37842 0.30744
# Poissons Ratio (z) = -0.01104 0.11008
#
# Static dielectric constant tensor:
#      x y z
#    x 2.266640 0.000000 0.132960 
#    y 0.000000 2.312090 0.000000 
#    z 0.132960 0.000000 2.278000 
# 
# From -- ./inp_files/26834.got.cif
#   From: 2010.05.17/outbox.cif.g08.bks.cpg/sg9_14_cif.got.tgz:26834.got - 2010.06.03 20:04:27.
