data_PCOD9139628
_publ_section_title
;
Structure prediction by ZEFSAII (Michael W. Deem and Ramdas Pophale) SiO2 
 PCOD9139628
Probable space group: C C
;
_chemical_formula_sum "Si O2"
_cell_formula_units_Z 32
_cell_length_a 28.267688
_cell_length_b 5.389773
_cell_length_c 24.794478
_cell_angle_alpha 90.000000
_cell_angle_beta 160.156748
_cell_angle_gamma 90.000000
_cell_volume 1282.298387
_symmetry_space_group_name_H-M "C C"
_symmetry_group_IT_number 9
_symmetry_cell_setting 'monoclinic'
loop_
_space_group_symop_operation_xyz
x,y,z
x,-y,1/2+z
1/2+x,1/2+y,z
1/2+x,1/2-y,1/2+z
loop_
_atom_site_type_symbol
_atom_site_label
_atom_site_fract_x
_atom_site_fract_y
_atom_site_fract_z
Si Si1 0.779370 0.252094 0.403980
Si Si2 0.706759 0.736937 0.946938
Si Si3 0.844135 0.254345 0.119400
Si Si4 0.527709 0.989547 0.495722
Si Si5 0.748415 0.753538 0.159290
Si Si6 0.480459 0.395345 0.656089
Si Si7 0.518447 0.029730 0.609660
Si Si8 0.989543 0.926913 0.873876
O O1 0.784378 0.283852 0.473032
O O2 0.863853 0.451188 0.461381
O O3 0.864621 0.996157 0.490340
O O4 0.620077 0.209681 0.219521
O O5 0.558664 0.627654 0.768445
O O6 0.767861 0.513765 0.047609
O O7 0.740025 0.012489 0.004375
O O8 0.916609 0.248089 0.138346
O O9 0.959972 0.237835 0.290005
O O10 0.532889 0.710689 0.476038
O O11 0.667784 0.108795 0.621261
O O12 0.374824 0.072249 0.310610
O O13 0.523609 0.086207 0.552541
O O14 0.838412 0.950056 0.222024
O O15 0.614397 0.611662 0.991642
O O16 0.569656 0.215393 0.712308
#
# Coordination Sequence:
#
# PCOD9139628 Si02
#       8
#     4   4   4   4   4   4   4   4
#     4  11  25  45  69 109 149 198 253 316 389 473
#     4  11  24  46  70 115 149 205 252 322 382 473
#     4  11  27  43  79 108 158 203 263 320 399 467
#     4  11  27  47  77 110 152 205 262 327 404 474
#     4  10  26  49  72 110 154 190 269 326 397 476
#     4  11  24  45  70 108 155 198 260 314 395 467
#     4  12  27  44  78 107 156 206 258 328 397 476
#     4  11  26  49  77 111 153 209 261 337 399 484
#
# _framework density 24.955190000000002
#
# number of rings (size 3 to 8) (size 9 to 14) (size 15 to 20)
#    0.000    1.000    2.500    2.250   10.500    2.000 
#    0.000    0.000    0.000    0.000    0.000    0.000 
#    0.000    0.000    0.000    0.000    0.000    0.000 
#
# Total GULP energy -89235.431926 kJ/mol
# GULP energy per Si atom -5577.214495 kJ/mol
# Density = 2.489839 g / cm^3
# Si number density = 24.955190 Si / 1000 Ang^3
#
#
#
# Elastic Constant Matrix: (Units=GPa)
#
#
# Indices 1 2 3 4 5 6 
#
# 1 96.6510 10.2189 25.1667 -0.0014 9.1659 0.0002
# 2 10.2189 69.4511 11.3478 -0.0067 10.3743 -0.0035
# 3 25.1667 11.3478 67.7432 -0.0015 27.5142 -0.0016
# 4 -0.0014 -0.0067 -0.0015 32.0243 -0.0009 13.3340
# 5 9.1659 10.3743 27.5142 -0.0009 42.6171 -0.0003
# 6 0.0002 -0.0035 -0.0016 13.3340 -0.0003 16.7076
#
#
#
# Elastic Compliance Matrix: (Units=1/GPa)
#
#
# Indices 1 2 3 4 5 6 
#
# 1 0.011536 -0.001075 -0.004343 0.000001 0.000584 -0.000001
# 2 -0.001075 0.015139 -0.000994 0.000003 -0.002812 0.000001
# 3 -0.004343 -0.000994 0.021773 -0.000001 -0.012881 0.000002
# 4 0.000001 0.000003 -0.000001 0.046767 0.000000 -0.037324
# 5 0.000584 -0.002812 -0.012881 0.000000 0.032340 -0.000002
# 6 -0.000001 0.000001 0.000002 -0.037324 -0.000002 0.089640
#
#
# Mechanical properties :
#
#
# Convention : Reuss Voigt Hill
#
# Bulk Modulus (GPa) = 28.07133 36.36800 32.21967
# Shear Modulus (GPa) = 20.67021 30.74393 25.70707
#
# Velocity S-wave (km/s) = 2.88113 3.51374 3.21304
# Velocity P-wave (km/s) = 4.72663 5.57376 5.16758
#
# Compressibility (1/GPa) = 0.03562354
#
# Stress axis : x y z
#
# Youngs Moduli (GPa) = 86.68859 66.05299 45.92803
#
# Poissons Ratio (x) = 0.07101 0.19945
# Poissons Ratio (y) = 0.09319 0.04568
# Poissons Ratio (z) = 0.37647 0.06569
#
# Static dielectric constant tensor:
#      x y z
#    x 1.984200 0.000000 0.002620 
#    y 0.000000 2.146170 0.000000 
#    z 0.002620 0.000000 2.080980 
# 
# From -- ./inp_files/12577.got.cif
#   From: 2010.05.17/outbox.cif.g08.bks.cpg/sg9_7_cif.got.tgz:12577.got - 2010.06.03 20:04:27.
