data_PCOD9139413
_publ_section_title
;
Structure prediction by ZEFSAII (Michael W. Deem and Ramdas Pophale) SiO2 
 PCOD9139413
Probable space group: C C
;
_chemical_formula_sum "Si O2"
_cell_formula_units_Z 28
_cell_length_a 17.378109
_cell_length_b 5.182205
_cell_length_c 14.599108
_cell_angle_alpha 90.000000
_cell_angle_beta 60.974259
_cell_angle_gamma 90.000000
_cell_volume 1149.620437
_symmetry_space_group_name_H-M "C C"
_symmetry_group_IT_number 9
_symmetry_cell_setting 'monoclinic'
loop_
_space_group_symop_operation_xyz
x,y,z
x,-y,1/2+z
1/2+x,1/2+y,z
1/2+x,1/2-y,1/2+z
loop_
_atom_site_type_symbol
_atom_site_label
_atom_site_fract_x
_atom_site_fract_y
_atom_site_fract_z
Si Si1 0.803680 0.638491 0.047870
Si Si2 0.348871 0.767336 0.859227
Si Si3 0.712488 0.710026 0.754663
Si Si4 0.535146 0.276892 0.251454
Si Si5 0.867304 0.926863 0.158614
Si Si6 0.523151 0.236739 0.639866
Si Si7 0.195382 0.361744 0.959910
O O1 0.762275 0.470049 0.153210
O O2 0.879821 0.801943 0.052920
O O3 0.839298 0.489431 0.938717
O O4 0.724186 0.788746 0.045893
O O5 0.439052 0.627949 0.840393
O O6 0.371317 0.780753 0.738111
O O7 0.258721 0.606491 0.911283
O O8 0.612209 0.728751 0.780648
O O9 0.716792 0.670176 0.862309
O O10 0.767361 0.972919 0.711880
O O11 0.559380 0.491258 0.160673
O O12 0.521572 0.988238 0.217611
O O13 0.931585 0.161238 0.148913
O O14 0.590505 0.122467 0.525882
#
# Coordination Sequence:
#
# PCOD9139413 Si02
#       7
#     4   4   4   4   4   4   4
#     4  12  22  43  72 105 148 197 250 317 380 449
#     4  10  25  44  74 106 146 198 248 311 379 451
#     4  11  25  45  72 106 149 202 257 309 384 449
#     4  11  25  49  75 110 150 194 250 316 376 450
#     4  10  25  44  72 108 149 198 254 313 382 452
#     4  11  25  49  76 108 151 193 251 315 376 451
#     4  11  25  46  71 107 151 200 256 313 381 454
#
# _framework density 24.355862999999999
#
# number of rings (size 3 to 8) (size 9 to 14) (size 15 to 20)
#    0.000    1.143    1.429    3.429   10.000    2.286 
#    0.000    0.000    0.000    0.000    0.000    0.000 
#    0.000    0.000    0.000    0.000    0.000    0.000 
#
# Total GULP energy -78042.180039 kJ/mol
# GULP energy per Si atom -5574.441431 kJ/mol
# Density = 2.430043 g / cm^3
# Si number density = 24.355863 Si / 1000 Ang^3
#
#
#
# Elastic Constant Matrix: (Units=GPa)
#
#
# Indices 1 2 3 4 5 6 
#
# 1 145.2431 52.2612 51.3251 0.0007 23.4123 0.0023
# 2 52.2612 96.1765 37.8535 0.0094 22.4818 0.0001
# 3 51.3251 37.8535 106.7000 -0.0002 24.4666 0.0003
# 4 0.0007 0.0094 -0.0002 37.6570 -0.0001 16.2704
# 5 23.4123 22.4818 24.4666 -0.0001 47.5922 0.0003
# 6 0.0023 0.0001 0.0003 16.2704 0.0003 29.9967
#
#
#
# Elastic Compliance Matrix: (Units=1/GPa)
#
#
# Indices 1 2 3 4 5 6 
#
# 1 0.009466 -0.003658 -0.002929 0.000001 -0.001423 -0.000001
# 2 -0.003658 0.014200 -0.002440 -0.000005 -0.003654 0.000003
# 3 -0.002929 -0.002440 0.012529 0.000001 -0.003847 0.000000
# 4 0.000001 -0.000005 0.000001 0.034684 0.000001 -0.018813
# 5 -0.001423 -0.003654 -0.003847 0.000001 0.025415 -0.000001
# 6 -0.000001 0.000003 0.000000 -0.018813 -0.000001 0.043541
#
#
# Mechanical properties :
#
#
# Convention : Reuss Voigt Hill
#
# Bulk Modulus (GPa) = 55.12836 70.11100 62.61968
# Shear Modulus (GPa) = 30.49966 36.82786 33.66376
#
# Velocity S-wave (km/s) = 3.54256 3.89276 3.72178
# Velocity P-wave (km/s) = 6.27826 7.00381 6.65094
#
# Compressibility (1/GPa) = 0.01813948
#
# Stress axis : x y z
#
# Youngs Moduli (GPa) = 105.64471 70.42346 79.81494
#
# Poissons Ratio (x) = 0.25762 0.23380
# Poissons Ratio (y) = 0.38646 0.19476
# Poissons Ratio (z) = 0.30946 0.17184
#
# Static dielectric constant tensor:
#      x y z
#    x 1.985000 0.000000 -0.073710 
#    y 0.000000 2.041450 0.000000 
#    z -0.073710 0.000000 1.995770 
# 
# From -- ./inp_files/26434.got.cif
#   From: 2010.05.17/outbox.cif.g08.bks.cpg/sg9_14_cif.got.tgz:26434.got - 2010.06.03 20:04:27.
