data_PCOD9139847
_publ_section_title
;
Structure prediction by ZEFSAII (Michael W. Deem and Ramdas Pophale) SiO2 
 PCOD9139847
Probable space group: C C
;
_chemical_formula_sum "Si O2"
_cell_formula_units_Z 32
_cell_length_a 6.559946
_cell_length_b 26.480823
_cell_length_c 8.634403
_cell_angle_alpha 90.000000
_cell_angle_beta 78.065453
_cell_angle_gamma 90.000000
_cell_volume 1467.484796
_symmetry_space_group_name_H-M "C C"
_symmetry_group_IT_number 9
_symmetry_cell_setting 'monoclinic'
loop_
_space_group_symop_operation_xyz
x,y,z
x,-y,1/2+z
1/2+x,1/2+y,z
1/2+x,1/2-y,1/2+z
loop_
_atom_site_type_symbol
_atom_site_label
_atom_site_fract_x
_atom_site_fract_y
_atom_site_fract_z
Si Si1 0.863220 0.847165 0.255990
Si Si2 0.139870 0.278646 0.081214
Si Si3 0.191527 0.100133 0.295414
Si Si4 0.327534 0.532371 0.276820
Si Si5 0.383683 0.690863 0.253183
Si Si6 0.132650 0.382918 0.597708
Si Si7 0.317084 0.871449 0.124066
Si Si8 0.676050 0.935973 0.128451
O O1 0.777852 0.793666 0.210328
O O2 0.725719 0.868035 0.417920
O O3 0.815249 0.885858 0.122951
O O4 0.108551 0.852504 0.241201
O O5 0.015080 0.227472 0.123544
O O6 0.971451 0.323630 0.086976
O O7 0.294699 0.278591 0.912308
O O8 0.034668 0.145912 0.283241
O O9 0.390213 0.104819 0.151814
O O10 0.268244 0.107708 0.459605
O O11 0.062346 0.048617 0.285249
O O12 0.254245 0.569405 0.150848
O O13 0.274533 0.476633 0.227866
O O14 0.195435 0.544156 0.451253
O O15 0.191417 0.664505 0.196994
O O16 0.442215 0.916018 0.191961
#
# Coordination Sequence:
#
# PCOD9139847 Si02
#       8
#     4   4   4   4   4   4   4   4
#     4  11  24  43  66  96 133 172 221 274 329 394
#     4  11  25  41  64  98 134 173 227 274 328 397
#     4  11  21  45  69  90 134 182 215 275 337 386
#     4  11  23  42  67  99 133 167 220 274 331 402
#     4  11  25  41  64  98 134 173 227 274 328 397
#     4  11  24  43  66  96 133 172 221 274 329 394
#     4  11  21  45  69  90 134 182 215 275 337 386
#     4  11  23  42  67  99 133 167 220 274 331 402
#
# _framework density 21.806018000000002
#
# number of rings (size 3 to 8) (size 9 to 14) (size 15 to 20)
#    0.000    1.000    5.000    2.250    3.500    6.000 
#    0.000    0.000    0.000    0.000    0.000    0.000 
#    0.000    0.000    0.000    0.000    0.000    0.000 
#
# Total GULP energy -89436.686841 kJ/mol
# GULP energy per Si atom -5589.792928 kJ/mol
# Density = 2.175639 g / cm^3
# Si number density = 21.806018 Si / 1000 Ang^3
#
#
#
# Elastic Constant Matrix: (Units=GPa)
#
#
# Indices 1 2 3 4 5 6 
#
# 1 121.0816 22.1041 23.9641 0.0000 -20.9436 0.0000
# 2 22.1041 58.2211 -16.5003 0.0000 7.6824 0.0000
# 3 23.9641 -16.5003 56.6301 0.0000 -9.8110 0.0000
# 4 0.0000 0.0000 0.0000 17.2266 0.0000 0.5533
# 5 -20.9436 7.6824 -9.8110 0.0000 33.2606 0.0000
# 6 0.0000 0.0000 0.0000 0.5533 0.0000 26.1887
#
#
#
# Elastic Compliance Matrix: (Units=1/GPa)
#
#
# Indices 1 2 3 4 5 6 
#
# 1 0.012050 -0.007241 -0.005907 0.000000 0.007518 0.000000
# 2 -0.007241 0.023335 0.008578 0.000000 -0.007419 0.000000
# 3 -0.005907 0.008578 0.022837 0.000000 0.001036 0.000000
# 4 0.000000 0.000000 0.000000 0.058089 0.000000 -0.001227
# 5 0.007518 -0.007419 0.001036 0.000000 0.036819 0.000000
# 6 0.000000 0.000000 0.000000 -0.001227 0.000000 0.038210
#
#
# Mechanical properties :
#
#
# Convention : Reuss Voigt Hill
#
# Bulk Modulus (GPa) = 20.37380 32.78540 26.57960
# Shear Modulus (GPa) = 23.05849 29.09284 26.07567
#
# Velocity S-wave (km/s) = 3.25535 3.65659 3.46179
# Velocity P-wave (km/s) = 4.84698 5.73543 5.30982
#
# Compressibility (1/GPa) = 0.04908264
#
# Stress axis : x y z
#
# Youngs Moduli (GPa) = 82.98647 42.85412 43.78921
#
# Poissons Ratio (x) = 0.31030 0.25864
# Poissons Ratio (y) = 0.60090 -0.37562
# Poissons Ratio (z) = 0.49016 -0.36760
#
# Static dielectric constant tensor:
#      x y z
#    x 1.821730 0.000000 0.020290 
#    y 0.000000 1.782600 0.000000 
#    z 0.020290 0.000000 1.799790 
# 
# From -- ./inp_files/4473.got.cif
#   From: 2010.05.17/outbox.cif.g08.bks.cpg/sg9_3_cif.got.tgz:4473.got - 2010.06.03 20:04:27.
