data_PCOD9139875
_publ_section_title
;
Structure prediction by ZEFSAII (Michael W. Deem and Ramdas Pophale) SiO2 
 PCOD9139875
Probable space group: C C
;
_chemical_formula_sum "Si O2"
_cell_formula_units_Z 24
_cell_length_a 11.458352
_cell_length_b 8.525049
_cell_length_c 9.364510
_cell_angle_alpha 90.000000
_cell_angle_beta 87.333350
_cell_angle_gamma 90.000000
_cell_volume 913.762981
_symmetry_space_group_name_H-M "C C"
_symmetry_group_IT_number 9
_symmetry_cell_setting 'monoclinic'
loop_
_space_group_symop_operation_xyz
x,y,z
x,-y,1/2+z
1/2+x,1/2+y,z
1/2+x,1/2-y,1/2+z
loop_
_atom_site_type_symbol
_atom_site_label
_atom_site_fract_x
_atom_site_fract_y
_atom_site_fract_z
Si Si1 0.272550 0.683323 0.582950
Si Si2 0.473545 0.890186 0.878601
Si Si3 0.523541 0.841361 0.579950
Si Si4 0.870051 0.161774 0.093283
Si Si5 0.755561 0.618167 0.804927
Si Si6 0.087003 0.161525 0.295533
O O1 0.391872 0.776955 0.611916
O O2 0.305834 0.501550 0.574407
O O3 0.239578 0.758350 0.432956
O O4 0.175966 0.726799 0.704918
O O5 0.559512 0.864236 0.741234
O O6 0.366976 0.006505 0.837773
O O7 0.427000 0.728390 0.946317
O O8 0.528700 0.989308 0.004692
O O9 0.571813 0.725107 0.456597
O O10 0.785154 0.297137 0.155636
O O11 0.967292 0.151353 0.213040
O O12 0.645445 0.507278 0.796703
#
# Coordination Sequence:
#
# PCOD9139875 Si02
#       6
#     4   4   4   4   4   4
#     4  11  27  49  78 122 159 206 285 336 406 501
#     4  11  21  51  79 114 174 208 260 359 397 485
#     4  11  23  48  81 116 162 209 274 330 408 491
#     4  12  27  52  84 117 167 210 283 353 406 495
#     4  11  24  53  82 116 167 216 276 345 410 492
#     4  12  26  53  86 115 161 227 272 337 433 476
#
# _framework density 26.265015999999999
#
# number of rings (size 3 to 8) (size 9 to 14) (size 15 to 20)
#    0.000    0.667    6.667    1.000    4.667    0.000 
#   12.000    3.333    0.000    0.000    0.000    0.000 
#    0.000    0.000    0.000    0.000    0.000    0.000 
#
# Total GULP energy -67417.793703 kJ/mol
# GULP energy per Si atom -5618.149475 kJ/mol
# Density = 2.620524 g / cm^3
# Si number density = 26.265016 Si / 1000 Ang^3
#
#
#
# Elastic Constant Matrix: (Units=GPa)
#
#
# Indices 1 2 3 4 5 6 
#
# 1 107.7684 56.3958 60.8518 0.0000 -7.4904 0.0000
# 2 56.3958 195.8909 87.7409 0.0000 -6.1311 0.0000
# 3 60.8518 87.7409 222.6248 0.0000 -22.2486 0.0000
# 4 0.0000 0.0000 0.0000 57.1680 0.0000 -7.8081
# 5 -7.4904 -6.1311 -22.2486 0.0000 39.2430 0.0000
# 6 0.0000 0.0000 0.0000 -7.8081 0.0000 54.3228
#
#
#
# Elastic Compliance Matrix: (Units=1/GPa)
#
#
# Indices 1 2 3 4 5 6 
#
# 1 0.011831 -0.002387 -0.002231 0.000000 0.000620 0.000000
# 2 -0.002387 0.006688 -0.002040 0.000000 -0.000567 0.000000
# 3 -0.002231 -0.002040 0.006182 0.000000 0.002760 0.000000
# 4 0.000000 0.000000 0.000000 0.017843 0.000000 0.002565
# 5 0.000620 -0.000567 0.002760 0.000000 0.027077 0.000000
# 6 0.000000 0.000000 0.000000 0.002565 0.000000 0.018777
#
#
# Mechanical properties :
#
#
# Convention : Reuss Voigt Hill
#
# Bulk Modulus (GPa) = 87.84229 104.02900 95.93565
# Shear Modulus (GPa) = 47.38908 51.56647 49.47778
#
# Velocity S-wave (km/s) = 4.25227 4.43574 4.34497
# Velocity P-wave (km/s) = 7.59120 8.11959 7.85984
#
# Compressibility (1/GPa) = 0.01138404
#
# Stress axis : x y z
#
# Youngs Moduli (GPa) = 84.52076 149.51632 161.77178
#
# Poissons Ratio (x) = 0.35697 0.36091
# Poissons Ratio (y) = 0.20179 0.33003
# Poissons Ratio (z) = 0.18857 0.30502
#
# Static dielectric constant tensor:
#      x y z
#    x 2.158610 0.000000 0.054760 
#    y 0.000000 2.014650 0.000000 
#    z 0.054760 0.000000 2.016700 
# 
# From -- ./inp_files/6728.got.cif
#   From: 2010.05.17/outbox.cif.g08.bks.cpg/sg9_4_cif.got.tgz:6728.got - 2010.06.03 20:04:27.
