data_PCOD9139120
_publ_section_title
;
Structure prediction by ZEFSAII (Michael W. Deem and Ramdas Pophale) SiO2 
 PCOD9139120
Probable space group: C C
;
_chemical_formula_sum "Si O2"
_cell_formula_units_Z 24
_cell_length_a 18.503020
_cell_length_b 5.134006
_cell_length_c 18.127050
_cell_angle_alpha 90.000000
_cell_angle_beta 148.049943
_cell_angle_gamma 90.000000
_cell_volume 911.232955
_symmetry_space_group_name_H-M "C C"
_symmetry_group_IT_number 9
_symmetry_cell_setting 'monoclinic'
loop_
_space_group_symop_operation_xyz
x,y,z
x,-y,1/2+z
1/2+x,1/2+y,z
1/2+x,1/2-y,1/2+z
loop_
_atom_site_type_symbol
_atom_site_label
_atom_site_fract_x
_atom_site_fract_y
_atom_site_fract_z
Si Si1 0.694620 0.808088 0.048560
Si Si2 0.341348 0.822616 0.218504
Si Si3 0.061091 0.049983 0.324425
Si Si4 0.438178 0.695876 0.577315
Si Si5 0.172514 0.563571 0.812426
Si Si6 0.659364 0.574706 0.168314
O O1 0.820105 0.600613 0.161137
O O2 0.616052 0.724423 0.055756
O O3 0.744888 0.097642 0.102412
O O4 0.617599 0.712093 0.909996
O O5 0.487627 0.708816 0.326329
O O6 0.281907 0.884287 0.247880
O O7 0.169551 0.234970 0.377597
O O8 0.960190 0.973154 0.170587
O O9 0.280810 0.668106 0.418815
O O10 0.533137 0.572514 0.595609
O O11 0.518093 0.961551 0.664841
O O12 0.213301 0.722391 0.774942
#
# Coordination Sequence:
#
# PCOD9139120 Si02
#       6
#     4   4   4   4   4   4
#     4  10  24  44  74 113 154 202 275 340 420 480
#     4  10  24  46  75 114 154 210 269 347 410 492
#     4  11  26  45  76 115 165 219 282 345 427 503
#     4  11  26  45  81 113 172 216 283 341 421 510
#     4  11  26  50  76 127 162 235 275 354 421 511
#     4   9  24  48  74 110 157 210 284 341 415 492
#
# _framework density 26.33794
#
# number of rings (size 3 to 8) (size 9 to 14) (size 15 to 20)
#    1.000    0.667    0.000    2.000    7.000    8.000 
#    3.000    0.000    0.000    0.000    0.000    0.000 
#    0.000    0.000    0.000    0.000    0.000    0.000 
#
# Total GULP energy -67156.716779 kJ/mol
# GULP energy per Si atom -5596.393065 kJ/mol
# Density = 2.627799 g / cm^3
# Si number density = 26.337940 Si / 1000 Ang^3
#
#
#
# Elastic Constant Matrix: (Units=GPa)
#
#
# Indices 1 2 3 4 5 6 
#
# 1 183.8052 57.6019 50.7606 -0.0001 -13.4349 -0.0001
# 2 57.6019 133.0944 55.9332 0.0007 4.0533 0.0011
# 3 50.7606 55.9332 85.5225 0.0000 -5.7619 0.0002
# 4 -0.0001 0.0007 0.0000 37.9267 0.0000 -4.0319
# 5 -13.4349 4.0533 -5.7619 0.0000 28.7748 0.0000
# 6 -0.0001 0.0011 0.0002 -4.0319 0.0000 58.1828
#
#
#
# Elastic Compliance Matrix: (Units=1/GPa)
#
#
# Indices 1 2 3 4 5 6 
#
# 1 0.007026 -0.002023 -0.002643 0.000000 0.003036 0.000000
# 2 -0.002023 0.011180 -0.006367 0.000000 -0.003794 0.000000
# 3 -0.002643 -0.006367 0.017641 0.000000 0.003195 0.000000
# 4 0.000000 0.000000 0.000000 0.026562 0.000000 0.001841
# 5 0.003036 -0.003794 0.003195 0.000000 0.037345 0.000000
# 6 0.000000 0.000000 0.000000 0.001841 0.000000 0.017315
#
#
# Mechanical properties :
#
#
# Convention : Reuss Voigt Hill
#
# Bulk Modulus (GPa) = 72.55845 81.22373 76.89109
# Shear Modulus (GPa) = 34.78781 40.85195 37.81988
#
# Velocity S-wave (km/s) = 3.63826 3.94263 3.79350
# Velocity P-wave (km/s) = 6.72741 7.18553 6.96024
#
# Compressibility (1/GPa) = 0.01378199
#
# Stress axis : x y z
#
# Youngs Moduli (GPa) = 142.32417 89.44366 56.68614
#
# Poissons Ratio (x) = 0.18091 0.14982
# Poissons Ratio (y) = 0.28787 0.36093
# Poissons Ratio (z) = 0.37615 0.56950
#
# Static dielectric constant tensor:
#      x y z
#    x 2.058250 0.000000 0.024810 
#    y 0.000000 2.049760 0.000000 
#    z 0.024810 0.000000 2.076770 
# 
# From -- ./inp_files/30893.got.cif
#   From: 2010.05.17/outbox.cif.g08.bks.cpg/sg9_16_cif.got.tgz:30893.got - 2010.06.03 20:04:27.
