data_PCOD9139663
_publ_section_title
;
Structure prediction by ZEFSAII (Michael W. Deem and Ramdas Pophale) SiO2 
 PCOD9139663
Probable space group: C C
;
_chemical_formula_sum "Si O2"
_cell_formula_units_Z 32
_cell_length_a 5.498210
_cell_length_b 18.795344
_cell_length_c 14.192923
_cell_angle_alpha 90.000000
_cell_angle_beta 116.505417
_cell_angle_gamma 90.000000
_cell_volume 1312.544867
_symmetry_space_group_name_H-M "C C"
_symmetry_group_IT_number 9
_symmetry_cell_setting 'monoclinic'
loop_
_space_group_symop_operation_xyz
x,y,z
x,-y,1/2+z
1/2+x,1/2+y,z
1/2+x,1/2-y,1/2+z
loop_
_atom_site_type_symbol
_atom_site_label
_atom_site_fract_x
_atom_site_fract_y
_atom_site_fract_z
Si Si1 0.227820 0.319131 0.901690
Si Si2 0.094785 0.840885 0.336910
Si Si3 0.232712 0.899558 0.044591
Si Si4 0.623938 0.027092 0.080292
Si Si5 0.636145 0.927713 0.377100
Si Si6 0.844269 0.640409 0.161837
Si Si7 0.674631 0.798091 0.106863
Si Si8 0.156869 0.999696 0.203558
O O1 0.208022 0.233592 0.895748
O O2 0.043203 0.341173 0.782483
O O3 0.507526 0.362846 0.940818
O O4 0.155494 0.331312 0.999081
O O5 0.880955 0.885225 0.366846
O O6 0.926727 0.822433 0.213568
O O7 0.369186 0.881113 0.356736
O O8 0.413756 0.832939 0.110667
O O9 0.130706 0.940057 0.119124
O O10 0.402400 0.964504 0.029059
O O11 0.492183 0.097938 0.102684
O O12 0.729715 0.042011 0.993327
O O13 0.852186 0.996427 0.192882
O O14 0.462009 0.989231 0.294577
O O15 0.693022 0.712827 0.106923
O O16 0.649231 0.581505 0.171302
#
# Coordination Sequence:
#
# PCOD9139663 Si02
#       8
#     4   4   4   4   4   4   4   4
#     4  11  26  44  78 107 152 204 256 322 401 464
#     4  11  27  49  74 116 148 205 258 319 395 474
#     4  11  24  45  74 108 148 204 259 319 396 470
#     4  11  27  45  76 110 156 205 264 325 390 470
#     4  12  27  48  79 108 158 205 257 321 398 463
#     4  10  27  48  70 112 153 198 266 328 385 473
#     4  11  24  48  72 108 153 200 260 324 399 466
#     4  11  26  47  73 109 154 205 264 322 388 472
#
# _framework density 24.380120000000002
#
# number of rings (size 3 to 8) (size 9 to 14) (size 15 to 20)
#    0.000    1.000    1.250    3.000   14.000    1.000 
#    4.500    0.000    0.000    0.000    0.000    0.000 
#    0.000    0.000    0.000    0.000    0.000    0.000 
#
# Total GULP energy -89233.376979 kJ/mol
# GULP energy per Si atom -5577.086061 kJ/mol
# Density = 2.432463 g / cm^3
# Si number density = 24.380120 Si / 1000 Ang^3
#
#
#
# Elastic Constant Matrix: (Units=GPa)
#
#
# Indices 1 2 3 4 5 6 
#
# 1 72.4288 65.2922 7.3415 0.0000 -0.2635 0.0000
# 2 65.2922 179.3989 46.7639 0.0000 0.4165 0.0000
# 3 7.3415 46.7639 82.0494 0.0000 8.7637 0.0000
# 4 0.0000 0.0000 0.0000 35.9355 0.0000 3.6979
# 5 -0.2635 0.4165 8.7637 0.0000 38.8224 0.0000
# 6 0.0000 0.0000 0.0000 3.6979 0.0000 24.9913
#
#
#
# Elastic Compliance Matrix: (Units=1/GPa)
#
#
# Indices 1 2 3 4 5 6 
#
# 1 0.021138 -0.008470 0.002983 0.000000 -0.000439 0.000000
# 2 -0.008470 0.009964 -0.005025 0.000000 0.000970 0.000000
# 3 0.002983 -0.005025 0.015142 0.000000 -0.003344 0.000000
# 4 0.000000 0.000000 0.000000 0.028258 0.000000 -0.004181
# 5 -0.000439 0.000970 -0.003344 0.000000 0.026500 0.000000
# 6 0.000000 0.000000 0.000000 -0.004181 0.000000 0.040633
#
#
# Mechanical properties :
#
#
# Convention : Reuss Voigt Hill
#
# Bulk Modulus (GPa) = 39.65004 63.63025 51.64015
# Shear Modulus (GPa) = 29.22870 34.24847 31.73858
#
# Velocity S-wave (km/s) = 3.46623 3.75209 3.61199
# Velocity P-wave (km/s) = 5.68492 6.70275 6.21470
#
# Compressibility (1/GPa) = 0.02522065
#
# Stress axis : x y z
#
# Youngs Moduli (GPa) = 47.30860 100.35863 66.04157
#
# Poissons Ratio (x) = 0.85000 -0.19699
# Poissons Ratio (y) = 0.40069 0.33185
# Poissons Ratio (z) = -0.14111 0.50429
#
# Static dielectric constant tensor:
#      x y z
#    x 2.094540 0.000000 0.003990 
#    y 0.000000 2.016700 0.000000 
#    z 0.003990 0.000000 2.132760 
# 
# From -- ./inp_files/22113.got.cif
#   From: 2010.05.17/outbox.cif.g08.bks.cpg/sg9_12_cif.got.tgz:22113.got - 2010.06.03 20:04:27.
