data_PCOD9139862
_publ_section_title
;
Structure prediction by ZEFSAII (Michael W. Deem and Ramdas Pophale) SiO2 
 PCOD9139862
Probable space group: C C
;
_chemical_formula_sum "Si O2"
_cell_formula_units_Z 32
_cell_length_a 19.447238
_cell_length_b 15.336364
_cell_length_c 8.060810
_cell_angle_alpha 90.000000
_cell_angle_beta 148.366416
_cell_angle_gamma 90.000000
_cell_volume 1260.933377
_symmetry_space_group_name_H-M "C C"
_symmetry_group_IT_number 9
_symmetry_cell_setting 'monoclinic'
loop_
_space_group_symop_operation_xyz
x,y,z
x,-y,1/2+z
1/2+x,1/2+y,z
1/2+x,1/2-y,1/2+z
loop_
_atom_site_type_symbol
_atom_site_label
_atom_site_fract_x
_atom_site_fract_y
_atom_site_fract_z
Si Si1 0.076100 0.512403 0.789170
Si Si2 0.783044 0.482904 0.286646
Si Si3 0.110632 0.682493 0.405945
Si Si4 0.663143 0.318001 0.906609
Si Si5 0.288556 0.644301 0.331852
Si Si6 0.082304 0.860086 0.368392
Si Si7 0.879962 0.801789 0.388123
Si Si8 0.925810 0.632016 0.297735
O O1 0.928150 0.521717 0.558215
O O2 0.053905 0.571422 0.581452
O O3 0.094714 0.411618 0.789133
O O4 0.190846 0.562494 0.117586
O O5 0.802725 0.427851 0.498262
O O6 0.754526 0.402335 0.106717
O O7 0.670793 0.554272 0.045265
O O8 0.107328 0.775417 0.302940
O O9 0.264058 0.679760 0.778704
O O10 0.978008 0.684645 0.245031
O O11 0.621744 0.316888 0.628626
O O12 0.524976 0.337978 0.716485
O O13 0.723527 0.229277 0.107204
O O14 0.429211 0.619306 0.543266
O O15 0.323256 0.664739 0.594872
O O16 0.903916 0.699215 0.400354
#
# Coordination Sequence:
#
# PCOD9139862 Si02
#       8
#     4   4   4   4   4   4   4   4
#     4  11  24  41  70  98 137 177 229 279 341 403
#     4  11  24  41  71 101 134 181 228 273 351 404
#     4  11  24  41  67  99 135 180 227 271 342 403
#     4  11  22  46  69  91 138 186 213 287 346 392
#     4  11  22  44  67  95 134 182 217 285 342 394
#     4  11  24  44  67 100 136 172 233 280 335 408
#     4  11  23  42  69  97 139 174 228 279 340 405
#     4  11  21  47  66  97 139 178 225 286 329 411
#
# _framework density 25.378025999999998
#
# number of rings (size 3 to 8) (size 9 to 14) (size 15 to 20)
#    0.000    1.000    5.000    2.250    5.250    0.000 
#    0.000    1.250    0.000    0.000    0.000    0.000 
#    0.000    0.000    0.000    0.000    0.000    0.000 
#
# Total GULP energy -89256.723652 kJ/mol
# GULP energy per Si atom -5578.545228 kJ/mol
# Density = 2.532026 g / cm^3
# Si number density = 25.378026 Si / 1000 Ang^3
#
#
#
# Elastic Constant Matrix: (Units=GPa)
#
#
# Indices 1 2 3 4 5 6 
#
# 1 38.0582 -0.0397 26.7796 0.0000 20.6121 0.0000
# 2 -0.0397 171.2469 68.3597 0.0000 16.4611 0.0000
# 3 26.7796 68.3597 166.4431 0.0000 33.1129 0.0000
# 4 0.0000 0.0000 0.0000 64.4385 0.0000 10.5510
# 5 20.6121 16.4611 33.1129 0.0000 50.8281 0.0000
# 6 0.0000 0.0000 0.0000 10.5510 0.0000 21.0415
#
#
#
# Elastic Compliance Matrix: (Units=1/GPa)
#
#
# Indices 1 2 3 4 5 6 
#
# 1 0.036420 0.003063 -0.004575 0.000000 -0.012781 0.000000
# 2 0.003063 0.007251 -0.003167 0.000000 -0.001527 0.000000
# 3 -0.004575 -0.003167 0.008584 0.000000 -0.002711 0.000000
# 4 0.000000 0.000000 0.000000 0.016907 0.000000 -0.008478
# 5 -0.012781 -0.001527 -0.002711 0.000000 0.027118 0.000000
# 6 0.000000 0.000000 0.000000 -0.008478 0.000000 0.051776
#
#
# Mechanical properties :
#
#
# Convention : Reuss Voigt Hill
#
# Bulk Modulus (GPa) = 23.31126 62.88303 43.09714
# Shear Modulus (GPa) = 29.11811 45.97154 37.54483
#
# Velocity S-wave (km/s) = 3.39097 4.26075 3.85050
# Velocity P-wave (km/s) = 4.95349 7.00269 6.06526
#
# Compressibility (1/GPa) = 0.04289773
#
# Stress axis : x y z
#
# Youngs Moduli (GPa) = 27.45734 137.90511 116.49039
#
# Poissons Ratio (x) = -0.42246 0.53297
# Poissons Ratio (y) = -0.08411 0.36895
# Poissons Ratio (z) = 0.12562 0.43678
#
# Static dielectric constant tensor:
#      x y z
#    x 2.310090 0.000000 -0.108910 
#    y 0.000000 2.064950 0.000000 
#    z -0.108910 0.000000 2.046450 
# 
# From -- ./inp_files/21307.got.cif
#   From: 2010.05.17/outbox.cif.g08.bks.cpg/sg9_11_cif.got.tgz:21307.got - 2010.06.03 20:04:27.
