data_PCOD9139126
_publ_section_title
;
Structure prediction by ZEFSAII (Michael W. Deem and Ramdas Pophale) SiO2 
 PCOD9139126
Probable space group: C C
;
_chemical_formula_sum "Si O2"
_cell_formula_units_Z 28
_cell_length_a 11.867990
_cell_length_b 9.076457
_cell_length_c 13.620062
_cell_angle_alpha 90.000000
_cell_angle_beta 119.091757
_cell_angle_gamma 90.000000
_cell_volume 1282.051927
_symmetry_space_group_name_H-M "C C"
_symmetry_group_IT_number 9
_symmetry_cell_setting 'monoclinic'
loop_
_space_group_symop_operation_xyz
x,y,z
x,-y,1/2+z
1/2+x,1/2+y,z
1/2+x,1/2-y,1/2+z
loop_
_atom_site_type_symbol
_atom_site_label
_atom_site_fract_x
_atom_site_fract_y
_atom_site_fract_z
Si Si1 0.198420 0.501640 0.725960
Si Si2 0.558136 0.232850 0.548947
Si Si3 0.342449 0.985912 0.439983
Si Si4 0.562694 0.422651 0.748132
Si Si5 0.939726 0.830928 0.314915
Si Si6 0.366963 0.779497 0.271323
Si Si7 0.911950 0.551092 0.177424
O O1 0.163999 0.607541 0.618841
O O2 0.321706 0.588632 0.821046
O O3 0.252674 0.339184 0.728725
O O4 0.064601 0.486292 0.727919
O O5 0.559185 0.351391 0.638025
O O6 0.554719 0.309582 0.441701
O O7 0.429807 0.131221 0.491801
O O8 0.391608 0.868980 0.380945
O O9 0.353151 0.904861 0.548820
O O10 0.205021 0.039193 0.343680
O O11 0.481840 0.569938 0.739600
O O12 0.494219 0.304361 0.789688
O O13 0.900128 0.674326 0.254647
O O14 0.338728 0.904992 0.180110
#
# Coordination Sequence:
#
# PCOD9139126 Si02
#       7
#     4   4   4   4   4   4   4
#     4  10  24  45  66 101 142 173 237 286 335 431
#     4  11  23  45  68 102 142 185 230 297 345 419
#     4  11  24  42  72  98 142 177 232 292 336 431
#     4  11  25  45  69 105 139 186 236 285 357 414
#     4  11  25  44  72 103 139 188 232 289 355 412
#     4  11  23  44  68 101 136 184 232 281 357 404
#     4  11  24  45  67 106 136 183 231 288 353 405
#
# _framework density 21.83999
#
# number of rings (size 3 to 8) (size 9 to 14) (size 15 to 20)
#    0.000    1.143    4.286    1.714    2.000    4.571 
#    5.143    0.000    0.000    0.000    0.000    0.000 
#    0.000    0.000    0.000    0.000    0.000    0.000 
#
# Total GULP energy -78151.347098 kJ/mol
# GULP energy per Si atom -5582.239078 kJ/mol
# Density = 2.179028 g / cm^3
# Si number density = 21.839990 Si / 1000 Ang^3
#
#
#
# Elastic Constant Matrix: (Units=GPa)
#
#
# Indices 1 2 3 4 5 6 
#
# 1 53.1138 37.4746 18.3889 0.0000 6.2825 0.0000
# 2 37.4746 126.1205 33.1782 0.0000 -6.7254 0.0000
# 3 18.3889 33.1782 92.7797 0.0000 -19.8338 0.0000
# 4 0.0000 0.0000 0.0000 30.9997 0.0000 -3.6497
# 5 6.2825 -6.7254 -19.8338 0.0000 36.2304 0.0000
# 6 0.0000 0.0000 0.0000 -3.6497 0.0000 18.6511
#
#
#
# Elastic Compliance Matrix: (Units=1/GPa)
#
#
# Indices 1 2 3 4 5 6 
#
# 1 0.026375 -0.007106 -0.004469 0.000000 -0.008339 0.000000
# 2 -0.007106 0.010667 -0.001947 0.000000 0.002146 0.000000
# 3 -0.004469 -0.001947 0.014099 0.000000 0.008132 0.000000
# 4 0.000000 0.000000 0.000000 0.033019 0.000000 0.006461
# 5 -0.008339 0.002146 0.008132 0.000000 0.033897 0.000000
# 6 0.000000 0.000000 0.000000 0.006461 0.000000 0.054880
#
#
# Mechanical properties :
#
#
# Convention : Reuss Voigt Hill
#
# Bulk Modulus (GPa) = 41.50087 50.01083 45.75585
# Shear Modulus (GPa) = 24.03690 29.37439 26.70564
#
# Velocity S-wave (km/s) = 3.32112 3.67138 3.50063
# Velocity P-wave (km/s) = 5.80947 6.39691 6.11025
#
# Compressibility (1/GPa) = 0.02409588
#
# Stress axis : x y z
#
# Youngs Moduli (GPa) = 37.91518 93.74669 70.92857
#
# Poissons Ratio (x) = 0.66615 0.31698
# Poissons Ratio (y) = 0.26942 0.13812
# Poissons Ratio (z) = 0.16945 0.18256
#
# Static dielectric constant tensor:
#      x y z
#    x 1.862950 0.000000 -0.013880 
#    y 0.000000 1.831460 0.000000 
#    z -0.013880 0.000000 1.818000 
# 
# From -- ./inp_files/20850.got.cif
#   From: 2010.05.17/outbox.cif.g08.bks.cpg/sg9_11_cif.got.tgz:20850.got - 2010.06.03 20:04:27.
