data_PCOD9139355
_publ_section_title
;
Structure prediction by ZEFSAII (Michael W. Deem and Ramdas Pophale) SiO2 
 PCOD9139355
Probable space group: C C
;
_chemical_formula_sum "Si O2"
_cell_formula_units_Z 20
_cell_length_a 5.337720
_cell_length_b 24.178543
_cell_length_c 6.788366
_cell_angle_alpha 90.000000
_cell_angle_beta 84.556233
_cell_angle_gamma 90.000000
_cell_volume 872.143550
_symmetry_space_group_name_H-M "C C"
_symmetry_group_IT_number 9
_symmetry_cell_setting 'monoclinic'
loop_
_space_group_symop_operation_xyz
x,y,z
x,-y,1/2+z
1/2+x,1/2+y,z
1/2+x,1/2-y,1/2+z
loop_
_atom_site_type_symbol
_atom_site_label
_atom_site_fract_x
_atom_site_fract_y
_atom_site_fract_z
Si Si1 0.799390 0.187599 0.780050
Si Si2 0.455610 0.088840 0.371688
Si Si3 0.303495 0.572533 0.004565
Si Si4 0.453387 0.453707 0.895174
Si Si5 0.827666 0.702687 0.529076
O O1 0.538385 0.197706 0.683615
O O2 0.045794 0.190536 0.623844
O O3 0.799786 0.128953 0.889116
O O4 0.833285 0.237348 0.932412
O O5 0.547582 0.066540 0.152476
O O6 0.703153 0.077369 0.486632
O O7 0.400923 0.153772 0.372221
O O8 0.215957 0.057579 0.478385
O O9 0.494894 0.573056 0.175834
O O10 0.375069 0.517437 0.882068
#
# Coordination Sequence:
#
# PCOD9139355 Si02
#       5
#     4   4   4   4   4
#     4  12  28  45  75 103 139 186 228 293 343 418
#     4  10  25  43  68  98 139 176 234 279 341 406
#     4  10  27  42  72  98 143 179 239 269 357 393
#     4  10  25  40  70  97 141 177 231 284 332 415
#     4  12  27  46  75 100 144 176 240 281 357 402
#
# _framework density 22.932006000000001
#
# number of rings (size 3 to 8) (size 9 to 14) (size 15 to 20)
#    1.200    0.000    0.000    3.600   14.000    0.000 
#    0.000    0.000    0.000    0.000    0.000    0.000 
#    0.000    0.000    0.000    0.000    0.000    0.000 
#
# Total GULP energy -55831.347413 kJ/mol
# GULP energy per Si atom -5583.134741 kJ/mol
# Density = 2.287981 g / cm^3
# Si number density = 22.932006 Si / 1000 Ang^3
#
#
#
# Elastic Constant Matrix: (Units=GPa)
#
#
# Indices 1 2 3 4 5 6 
#
# 1 144.6813 29.1910 16.3074 0.0000 -21.3833 0.0000
# 2 29.1910 163.7705 32.1593 0.0000 -0.5258 0.0000
# 3 16.3074 32.1593 45.5337 0.0000 0.8493 0.0000
# 4 0.0000 0.0000 0.0000 44.9843 0.0000 -4.4647
# 5 -21.3833 -0.5258 0.8493 0.0000 29.9616 0.0000
# 6 0.0000 0.0000 0.0000 -4.4647 0.0000 26.1893
#
#
#
# Elastic Compliance Matrix: (Units=1/GPa)
#
#
# Indices 1 2 3 4 5 6 
#
# 1 0.008256 -0.000987 -0.002371 0.000000 0.005942 0.000000
# 2 -0.000987 0.007209 -0.004730 0.000000 -0.000444 0.000000
# 3 -0.002371 -0.004730 0.026198 0.000000 -0.002518 0.000000
# 4 0.000000 0.000000 0.000000 0.022613 0.000000 0.003855
# 5 0.005942 -0.000444 -0.002518 0.000000 0.037681 0.000000
# 6 0.000000 0.000000 0.000000 0.003855 0.000000 0.038841
#
#
# Mechanical properties :
#
#
# Convention : Reuss Voigt Hill
#
# Bulk Modulus (GPa) = 39.23296 56.58898 47.91097
# Shear Modulus (GPa) = 30.21696 38.64888 34.43292
#
# Velocity S-wave (km/s) = 3.63392 4.10978 3.87915
# Velocity P-wave (km/s) = 5.89514 6.87392 6.40326
#
# Compressibility (1/GPa) = 0.02548877
#
# Stress axis : x y z
#
# Youngs Moduli (GPa) = 121.11899 138.70681 38.17017
#
# Poissons Ratio (x) = 0.13691 0.09049
# Poissons Ratio (y) = 0.11955 0.18055
# Poissons Ratio (z) = 0.28713 0.65609
#
# Static dielectric constant tensor:
#      x y z
#    x 1.892020 0.000000 0.029040 
#    y 0.000000 1.810700 0.000000 
#    z 0.029040 0.000000 1.903620 
# 
# From -- ./inp_files/3736.got.cif
#   From: 2010.05.17/outbox.cif.g08.bks.cpg/sg9_2_cif.got.tgz:3736.got - 2010.06.03 20:04:27.
