data_PCOD9139333
_publ_section_title
;
Structure prediction by ZEFSAII (Michael W. Deem and Ramdas Pophale) SiO2 
 PCOD9139333
Probable space group: C C
;
_chemical_formula_sum "Si O2"
_cell_formula_units_Z 32
_cell_length_a 7.784986
_cell_length_b 30.812086
_cell_length_c 5.846108
_cell_angle_alpha 90.000000
_cell_angle_beta 85.312227
_cell_angle_gamma 90.000000
_cell_volume 1397.624663
_symmetry_space_group_name_H-M "C C"
_symmetry_group_IT_number 9
_symmetry_cell_setting 'monoclinic'
loop_
_space_group_symop_operation_xyz
x,y,z
x,-y,1/2+z
1/2+x,1/2+y,z
1/2+x,1/2-y,1/2+z
loop_
_atom_site_type_symbol
_atom_site_label
_atom_site_fract_x
_atom_site_fract_y
_atom_site_fract_z
Si Si1 0.766770 0.254683 0.897180
Si Si2 0.575522 0.381032 0.617497
Si Si3 0.909977 0.744578 0.959697
Si Si4 0.470403 0.480928 0.662321
Si Si5 0.554706 0.019109 0.239408
Si Si6 0.268318 0.164498 0.734374
Si Si7 0.936964 0.383028 0.845483
Si Si8 0.259907 0.321606 0.748856
O O1 0.936254 0.256194 0.727220
O O2 0.579621 0.253951 0.797247
O O3 0.749158 0.298681 0.042606
O O4 0.771712 0.209622 0.028796
O O5 0.522320 0.431019 0.622198
O O6 0.609068 0.360562 0.362599
O O7 0.422073 0.353730 0.745659
O O8 0.756513 0.377289 0.731721
O O9 0.842276 0.697029 0.915875
O O10 0.784635 0.785227 0.939939
O O11 0.529611 0.504091 0.414604
O O12 0.262533 0.485309 0.700703
O O13 0.502394 0.068839 0.287329
O O14 0.495607 0.995524 0.486702
O O15 0.393243 0.128213 0.614809
O O16 0.088621 0.349875 0.765627
#
# Coordination Sequence:
#
# PCOD9139333 Si02
#       8
#     4   4   4   4   4   4   4   4
#     4  11  22  41  64  93 138 185 236 291 357 425
#     4  12  26  44  70 105 141 183 243 299 364 446
#     4  11  22  41  64  93 138 185 236 291 357 425
#     4  10  24  50  78 109 148 193 243 304 378 450
#     4  10  24  50  78 109 148 193 243 304 378 450
#     4  11  24  40  62 100 140 178 236 296 352 429
#     4  12  26  44  70 105 141 183 243 299 364 446
#     4  11  24  44  68 100 136 192 240 296 366 427
#
# _framework density 22.895990000000001
#
# number of rings (size 3 to 8) (size 9 to 14) (size 15 to 20)
#    0.000    1.000    1.250    5.250    3.500    5.000 
#    0.000    0.000    0.000    0.000    0.000    0.000 
#    0.000    0.000    0.000    0.000    0.000    0.000 
#
# Total GULP energy -89226.189518 kJ/mol
# GULP energy per Si atom -5576.636845 kJ/mol
# Density = 2.284388 g / cm^3
# Si number density = 22.895990 Si / 1000 Ang^3
#
#
#
# Elastic Constant Matrix: (Units=GPa)
#
#
# Indices 1 2 3 4 5 6 
#
# 1 51.6889 44.9275 42.8937 0.0000 -10.4594 0.0000
# 2 44.9275 119.9340 50.7655 0.0000 -7.1807 0.0000
# 3 42.8937 50.7655 110.1722 0.0000 -24.0309 0.0000
# 4 0.0000 0.0000 0.0000 16.1454 0.0000 -5.8069
# 5 -10.4594 -7.1807 -24.0309 0.0000 24.9427 0.0000
# 6 0.0000 0.0000 0.0000 -5.8069 0.0000 36.1562
#
#
#
# Elastic Compliance Matrix: (Units=1/GPa)
#
#
# Indices 1 2 3 4 5 6 
#
# 1 0.035460 -0.009397 -0.008637 0.000000 0.003843 0.000000
# 2 -0.009397 0.012932 -0.002972 0.000000 -0.003081 0.000000
# 3 -0.008637 -0.002972 0.016247 0.000000 0.011175 0.000000
# 4 0.000000 0.000000 0.000000 0.065734 0.000000 0.010557
# 5 0.003843 -0.003081 0.011175 0.000000 0.051583 0.000000
# 6 0.000000 0.000000 0.000000 0.010557 0.000000 0.029353
#
#
# Mechanical properties :
#
#
# Convention : Reuss Voigt Hill
#
# Bulk Modulus (GPa) = 44.20001 62.10763 53.15382
# Shear Modulus (GPa) = 19.16713 24.99608 22.08160
#
# Velocity S-wave (km/s) = 2.89647 3.30771 3.10890
# Velocity P-wave (km/s) = 5.52564 6.46319 6.01271
#
# Compressibility (1/GPa) = 0.02262443
#
# Stress axis : x y z
#
# Youngs Moduli (GPa) = 28.20097 77.32944 61.55139
#
# Poissons Ratio (x) = 0.72668 0.53165
# Poissons Ratio (y) = 0.26501 0.18294
# Poissons Ratio (z) = 0.24359 0.22983
#
# Static dielectric constant tensor:
#      x y z
#    x 1.885580 0.000000 0.083560 
#    y 0.000000 1.780440 0.000000 
#    z 0.083560 0.000000 1.996040 
# 
# From -- ./inp_files/1381.got.cif
#   From: 2010.05.17/outbox.cif.g08.bks.cpg/sg9_1_cif.got.tgz:1381.got - 2010.06.03 20:04:27.
