data_PCOD9139729
_publ_section_title
;
Structure prediction by ZEFSAII (Michael W. Deem and Ramdas Pophale) SiO2 
 PCOD9139729
Probable space group: C C
;
_chemical_formula_sum "Si O2"
_cell_formula_units_Z 28
_cell_length_a 25.537647
_cell_length_b 6.122036
_cell_length_c 9.756189
_cell_angle_alpha 90.000000
_cell_angle_beta 133.344584
_cell_angle_gamma 90.000000
_cell_volume 1109.261783
_symmetry_space_group_name_H-M "C C"
_symmetry_group_IT_number 9
_symmetry_cell_setting 'monoclinic'
loop_
_space_group_symop_operation_xyz
x,y,z
x,-y,1/2+z
1/2+x,1/2+y,z
1/2+x,1/2-y,1/2+z
loop_
_atom_site_type_symbol
_atom_site_label
_atom_site_fract_x
_atom_site_fract_y
_atom_site_fract_z
Si Si1 0.871760 0.225709 0.108960
Si Si2 0.710638 0.626532 0.006797
Si Si3 0.086596 0.836476 0.705724
Si Si4 0.848673 0.410290 0.356852
Si Si5 0.508562 0.528710 0.805554
Si Si6 0.107433 0.614736 0.496241
Si Si7 0.741706 0.921142 0.815102
O O1 0.884995 0.291516 0.291788
O O2 0.925487 0.028897 0.165461
O O3 0.886340 0.434250 0.036790
O O4 0.790730 0.134744 0.936567
O O5 0.792033 0.571254 0.182066
O O6 0.662225 0.688404 0.050553
O O7 0.665912 0.430785 0.861023
O O8 0.714788 0.824353 0.909272
O O9 0.044463 0.849968 0.770932
O O10 0.089240 0.612965 0.625856
O O11 0.042139 0.985224 0.517627
O O12 0.796867 0.242001 0.341977
O O13 0.534552 0.773746 0.804914
O O14 0.168434 0.431309 0.591271
#
# Coordination Sequence:
#
# PCOD9139729 Si02
#       7
#     4   4   4   4   4   4   4
#     4  12  27  48  73 109 157 204 253 319 384 460
#     4  11  20  42  67 111 143 184 248 311 376 445
#     4   9  20  42  71  96 141 186 240 313 363 448
#     4  12  26  45  74 114 154 195 260 317 381 467
#     4   9  23  43  73  96 143 199 242 306 384 450
#     4   9  20  41  67 104 134 192 245 299 376 435
#     4  12  24  41  77 110 148 198 252 317 388 447
#
# _framework density 25.242013
#
# number of rings (size 3 to 8) (size 9 to 14) (size 15 to 20)
#    0.857    0.571    2.857    2.571    2.000    0.000 
#    0.000    2.857    0.000    0.000    0.000    0.000 
#    0.000    0.000    0.000    0.000    0.000    0.000 
#
# Total GULP energy -77971.309828 kJ/mol
# GULP energy per Si atom -5569.379273 kJ/mol
# Density = 2.518456 g / cm^3
# Si number density = 25.242013 Si / 1000 Ang^3
#
#
#
# Elastic Constant Matrix: (Units=GPa)
#
#
# Indices 1 2 3 4 5 6 
#
# 1 102.5301 37.6710 53.7844 0.0000 11.7711 0.0000
# 2 37.6710 64.6282 31.1430 0.0000 5.6081 0.0000
# 3 53.7844 31.1430 54.8840 0.0000 -0.8094 0.0000
# 4 0.0000 0.0000 0.0000 39.8428 0.0000 10.1300
# 5 11.7711 5.6081 -0.8094 0.0000 33.7139 0.0000
# 6 0.0000 0.0000 0.0000 10.1300 0.0000 45.5104
#
#
#
# Elastic Compliance Matrix: (Units=1/GPa)
#
#
# Indices 1 2 3 4 5 6 
#
# 1 0.022413 -0.002390 -0.020724 0.000000 -0.007925 0.000000
# 2 -0.002390 0.022058 -0.010220 0.000000 -0.003080 0.000000
# 3 -0.020724 -0.010220 0.044476 0.000000 0.010004 0.000000
# 4 0.000000 0.000000 0.000000 0.026604 0.000000 -0.005922
# 5 -0.007925 -0.003080 0.010004 0.000000 0.033181 0.000000
# 6 0.000000 0.000000 0.000000 -0.005922 0.000000 0.023291
#
#
# Mechanical properties :
#
#
# Convention : Reuss Voigt Hill
#
# Bulk Modulus (GPa) = 44.88642 51.91546 48.40094
# Shear Modulus (GPa) = 20.31544 30.44300 25.37922
#
# Velocity S-wave (km/s) = 2.84002 3.47658 3.17430
# Velocity P-wave (km/s) = 5.34559 6.06030 5.71413
#
# Compressibility (1/GPa) = 0.02227845
#
# Stress axis : x y z
#
# Youngs Moduli (GPa) = 44.61790 45.33450 22.48390
#
# Poissons Ratio (x) = 0.10833 0.46597
# Poissons Ratio (y) = 0.10662 0.22979
# Poissons Ratio (z) = 0.92468 0.46333
#
# Static dielectric constant tensor:
#      x y z
#    x 1.976260 0.000000 -0.058120 
#    y 0.000000 2.113080 0.000000 
#    z -0.058120 0.000000 2.109190 
# 
# From -- ./inp_files/21048.got.cif
#   From: 2010.05.17/outbox.cif.g08.bks.cpg/sg9_11_cif.got.tgz:21048.got - 2010.06.03 20:04:27.
