data_PCOD9139213
_publ_section_title
;
Structure prediction by ZEFSAII (Michael W. Deem and Ramdas Pophale) SiO2 
 PCOD9139213
Probable space group: C C
;
_chemical_formula_sum "Si O2"
_cell_formula_units_Z 24
_cell_length_a 9.153545
_cell_length_b 10.783761
_cell_length_c 11.242684
_cell_angle_alpha 90.000000
_cell_angle_beta 125.193706
_cell_angle_gamma 90.000000
_cell_volume 906.906058
_symmetry_space_group_name_H-M "C C"
_symmetry_group_IT_number 9
_symmetry_cell_setting 'monoclinic'
loop_
_space_group_symop_operation_xyz
x,y,z
x,-y,1/2+z
1/2+x,1/2+y,z
1/2+x,1/2-y,1/2+z
loop_
_atom_site_type_symbol
_atom_site_label
_atom_site_fract_x
_atom_site_fract_y
_atom_site_fract_z
Si Si1 0.059980 0.332285 0.597380
Si Si2 0.035272 0.508859 0.315729
Si Si3 0.769015 0.807567 0.468414
Si Si4 0.274527 0.965343 0.872752
Si Si5 0.007611 0.890456 0.398591
Si Si6 0.785462 0.827541 0.076407
O O1 0.098351 0.406472 0.736123
O O2 0.223231 0.307686 0.586120
O O3 0.909636 0.422772 0.470806
O O4 0.965549 0.202957 0.587576
O O5 0.086516 0.365453 0.325005
O O6 0.166048 0.557455 0.481743
O O7 0.830855 0.536317 0.258905
O O8 0.814773 0.670329 0.444394
O O9 0.920095 0.900209 0.487759
O O10 0.092936 0.003047 0.855792
O O11 0.157547 0.787169 0.487773
O O12 0.848017 0.838839 0.240709
#
# Coordination Sequence:
#
# PCOD9139213 Si02
#       6
#     4   4   4   4   4   4
#     4  10  24  46  71 103 152 188 246 308 372 435
#     4  11  24  48  70 106 149 194 245 311 363 441
#     4  11  25  45  73 109 146 193 245 308 369 449
#     4  10  24  49  69 107 140 196 245 309 369 437
#     4  11  25  47  79 107 149 195 249 307 375 436
#     4  11  22  49  74 104 148 198 240 311 364 436
#
# _framework density 26.463598999999999
#
# number of rings (size 3 to 8) (size 9 to 14) (size 15 to 20)
#    0.000    1.333    3.333    0.000    7.000    1.333 
#   15.000    0.000    0.000    0.000    0.000    0.000 
#    0.000    0.000    0.000    0.000    0.000    0.000 
#
# Total GULP energy -67018.580644 kJ/mol
# GULP energy per Si atom -5584.881720 kJ/mol
# Density = 2.640337 g / cm^3
# Si number density = 26.463599 Si / 1000 Ang^3
#
#
#
# Elastic Constant Matrix: (Units=GPa)
#
#
# Indices 1 2 3 4 5 6 
#
# 1 211.0720 35.8077 30.0381 0.0000 -58.6850 0.0000
# 2 35.8077 77.6752 -13.4373 0.0000 -9.3559 0.0000
# 3 30.0381 -13.4373 43.9405 0.0000 -4.7158 0.0000
# 4 0.0000 0.0000 0.0000 24.3521 0.0000 2.1325
# 5 -58.6850 -9.3559 -4.7158 0.0000 45.0023 0.0000
# 6 0.0000 0.0000 0.0000 2.1325 0.0000 54.8568
#
#
#
# Elastic Compliance Matrix: (Units=1/GPa)
#
#
# Indices 1 2 3 4 5 6 
#
# 1 0.009312 -0.004139 -0.006493 0.000000 0.010602 0.000000
# 2 -0.004139 0.015935 0.007564 0.000000 -0.001292 0.000000
# 3 -0.006493 0.007564 0.029097 0.000000 -0.003846 0.000000
# 4 0.000000 0.000000 0.000000 0.041205 0.000000 -0.001602
# 5 0.010602 -0.001292 -0.003846 0.000000 0.035375 0.000000
# 6 0.000000 0.000000 0.000000 -0.001602 0.000000 0.018292
#
#
# Mechanical properties :
#
#
# Convention : Reuss Voigt Hill
#
# Bulk Modulus (GPa) = 20.74390 48.61164 34.67777
# Shear Modulus (GPa) = 29.16794 43.52750 36.34772
#
# Velocity S-wave (km/s) = 3.32353 4.06002 3.71010
# Velocity P-wave (km/s) = 4.75221 6.35512 5.61119
#
# Compressibility (1/GPa) = 0.04820694
#
# Stress axis : x y z
#
# Youngs Moduli (GPa) = 107.39233 62.75478 34.36738
#
# Poissons Ratio (x) = 0.25974 0.22316
# Poissons Ratio (y) = 0.44449 -0.25995
# Poissons Ratio (z) = 0.69735 -0.47467
#
# Static dielectric constant tensor:
#      x y z
#    x 2.225200 0.000000 -0.074780 
#    y 0.000000 2.079570 0.000000 
#    z -0.074780 0.000000 2.140730 
# 
# From -- ./inp_files/14099.got.cif
#   From: 2010.05.17/outbox.cif.g08.bks.cpg/sg9_8_cif.got.tgz:14099.got - 2010.06.03 20:04:27.
