data_PCOD9139421
_publ_section_title
;
Structure prediction by ZEFSAII (Michael W. Deem and Ramdas Pophale) SiO2 
 PCOD9139421
Probable space group: C C
;
_chemical_formula_sum "Si O2"
_cell_formula_units_Z 24
_cell_length_a 7.442349
_cell_length_b 7.416452
_cell_length_c 22.680201
_cell_angle_alpha 90.000000
_cell_angle_beta 51.306472
_cell_angle_gamma 90.000000
_cell_volume 977.072074
_symmetry_space_group_name_H-M "C C"
_symmetry_group_IT_number 9
_symmetry_cell_setting 'monoclinic'
loop_
_space_group_symop_operation_xyz
x,y,z
x,-y,1/2+z
1/2+x,1/2+y,z
1/2+x,1/2-y,1/2+z
loop_
_atom_site_type_symbol
_atom_site_label
_atom_site_fract_x
_atom_site_fract_y
_atom_site_fract_z
Si Si1 0.409900 0.490817 0.415810
Si Si2 0.012905 0.973101 0.522623
Si Si3 0.926153 0.570808 0.521278
Si Si4 0.685991 0.764299 0.665832
Si Si5 0.086492 0.326360 0.813549
Si Si6 0.701138 0.761195 0.304908
O O1 0.440036 0.561558 0.476481
O O2 0.139857 0.439077 0.470740
O O3 0.573285 0.322179 0.366411
O O4 0.482625 0.631712 0.349609
O O5 0.801221 0.938931 0.611410
O O6 0.049638 0.765466 0.495680
O O7 0.233563 0.047023 0.511126
O O8 0.137638 0.470024 0.320397
O O9 0.791568 0.590050 0.611102
O O10 0.737282 0.769166 0.725245
O O11 0.408870 0.763375 0.715605
O O12 0.835017 0.309790 0.835265
#
# Coordination Sequence:
#
# PCOD9139421 Si02
#       6
#     4   4   4   4   4   4
#     4  12  28  42  80 112 164 210 268 328 416 474
#     4  10  25  44  74 109 154 207 266 334 396 479
#     4  10  25  44  74 109 154 207 266 334 396 479
#     4   8  22  46  78 100 164 202 278 326 402 474
#     4  10  25  44  74 109 154 207 266 334 396 479
#     4  10  25  44  74 109 154 207 266 334 396 479
#
# _framework density 24.563182000000001
#
# number of rings (size 3 to 8) (size 9 to 14) (size 15 to 20)
#    2.000    0.000    0.000    1.000    9.333    1.333 
#    0.000    0.000   14.667    0.000    0.000    0.000 
#    0.000    0.000    0.000    0.000    0.000    0.000 
#
# Total GULP energy -66855.710062 kJ/mol
# GULP energy per Si atom -5571.309172 kJ/mol
# Density = 2.450727 g / cm^3
# Si number density = 24.563182 Si / 1000 Ang^3
#
#
#
# Elastic Constant Matrix: (Units=GPa)
#
#
# Indices 1 2 3 4 5 6 
#
# 1 110.0023 53.2120 43.3625 0.0000 -10.3586 0.0000
# 2 53.2120 114.7236 43.6815 0.0000 -20.3170 0.0000
# 3 43.3625 43.6815 194.7868 0.0000 -16.8884 0.0000
# 4 0.0000 0.0000 0.0000 26.0138 0.0000 10.0177
# 5 -10.3586 -20.3170 -16.8884 0.0000 24.2653 0.0000
# 6 0.0000 0.0000 0.0000 10.0177 0.0000 15.8832
#
#
#
# Elastic Compliance Matrix: (Units=1/GPa)
#
#
# Indices 1 2 3 4 5 6 
#
# 1 0.012147 -0.005058 -0.001583 0.000000 -0.000151 0.000000
# 2 -0.005058 0.012866 -0.001077 0.000000 0.007863 0.000000
# 3 -0.001583 -0.001077 0.005950 0.000000 0.002563 0.000000
# 4 0.000000 0.000000 0.000000 0.050773 0.000000 -0.032023
# 5 -0.000151 0.007863 0.002563 0.000000 0.049514 0.000000
# 6 0.000000 0.000000 0.000000 -0.032023 0.000000 0.083157
#
#
# Mechanical properties :
#
#
# Convention : Reuss Voigt Hill
#
# Bulk Modulus (GPa) = 64.40978 77.78049 71.09513
# Shear Modulus (GPa) = 21.27483 31.84956 26.56219
#
# Velocity S-wave (km/s) = 2.94620 3.60479 3.29201
# Velocity P-wave (km/s) = 6.15243 7.00430 6.59214
#
# Compressibility (1/GPa) = 0.01552559
#
# Stress axis : x y z
#
# Youngs Moduli (GPa) = 82.32226 77.72717 168.06574
#
# Poissons Ratio (x) = 0.39317 0.26604
# Poissons Ratio (y) = 0.41642 0.18106
# Poissons Ratio (z) = 0.13031 0.08374
#
# Static dielectric constant tensor:
#      x y z
#    x 2.136460 0.000000 -0.019770 
#    y 0.000000 2.125450 0.000000 
#    z -0.019770 0.000000 1.989130 
# 
# From -- ./inp_files/36487.got.cif
#   From: 2010.05.17/outbox.cif.g08.bks.cpg/sg9_19_cif.got.tgz:36487.got - 2010.06.03 20:04:27.
