data_PCOD9139696
_publ_section_title
;
Structure prediction by ZEFSAII (Michael W. Deem and Ramdas Pophale) SiO2 
 PCOD9139696
Probable space group: C C
;
_chemical_formula_sum "Si O2"
_cell_formula_units_Z 32
_cell_length_a 13.184876
_cell_length_b 14.674833
_cell_length_c 13.201441
_cell_angle_alpha 90.000000
_cell_angle_beta 145.596912
_cell_angle_gamma 90.000000
_cell_volume 1443.204329
_symmetry_space_group_name_H-M "C C"
_symmetry_group_IT_number 9
_symmetry_cell_setting 'monoclinic'
loop_
_space_group_symop_operation_xyz
x,y,z
x,-y,1/2+z
1/2+x,1/2+y,z
1/2+x,1/2-y,1/2+z
loop_
_atom_site_type_symbol
_atom_site_label
_atom_site_fract_x
_atom_site_fract_y
_atom_site_fract_z
Si Si1 0.807920 0.455496 0.602710
Si Si2 0.005115 0.384796 0.176742
Si Si3 0.298117 0.659487 0.361612
Si Si4 0.993862 0.661276 0.983678
Si Si5 0.340733 0.037827 0.346848
Si Si6 0.964268 0.931446 0.809249
Si Si7 0.038934 0.935497 0.219883
Si Si8 0.274597 0.288584 0.536704
O O1 0.829272 0.411990 0.729762
O O2 0.660365 0.535858 0.500845
O O3 0.701705 0.400428 0.427155
O O4 0.974596 0.515823 0.702558
O O5 0.187576 0.339228 0.368052
O O6 0.852392 0.310691 0.080388
O O7 0.965883 0.407209 0.027497
O O8 0.086164 0.654778 0.170785
O O9 0.344026 0.762214 0.367140
O O10 0.359941 0.589136 0.324855
O O11 0.419647 0.631898 0.556165
O O12 0.129231 0.698239 0.007745
O O13 0.926729 0.561939 0.898756
O O14 0.150098 0.010152 0.243537
O O15 0.944173 0.844232 0.721353
O O16 0.904996 0.986627 0.187118
#
# Coordination Sequence:
#
# PCOD9139696 Si02
#       8
#     4   4   4   4   4   4   4   4
#     4   9  18  35  51  81 112 151 191 229 294 342
#     4  11  22  34  61  83 120 151 192 243 296 347
#     4  11  20  35  56  85 115 149 200 236 299 334
#     4  11  23  33  60  85 122 146 195 253 283 345
#     4  11  21  35  55  87 116 155 191 244 295 346
#     4   9  20  32  56  84 112 147 186 249 287 344
#     4   9  19  33  56  78 116 152 191 232 298 347
#     4  11  21  37  57  85 119 143 198 240 296 329
#
# _framework density 22.172882000000001
#
# number of rings (size 3 to 8) (size 9 to 14) (size 15 to 20)
#    0.750    1.000    2.500    3.750    1.750    0.000 
#    0.000    0.000    0.000    4.500    0.000    0.000 
#    0.000    0.000    0.000    0.000    0.000    0.000 
#
# Total GULP energy -89097.099178 kJ/mol
# GULP energy per Si atom -5568.568699 kJ/mol
# Density = 2.212242 g / cm^3
# Si number density = 22.172882 Si / 1000 Ang^3
#
#
#
# Elastic Constant Matrix: (Units=GPa)
#
#
# Indices 1 2 3 4 5 6 
#
# 1 48.2035 16.8568 22.0696 0.0012 -26.7667 0.0009
# 2 16.8568 59.3122 20.5049 0.0012 -6.1174 0.0012
# 3 22.0696 20.5049 118.3146 0.0025 -32.2861 0.0024
# 4 0.0012 0.0012 0.0025 23.9834 0.0012 -1.1036
# 5 -26.7667 -6.1174 -32.2861 0.0012 43.4970 0.0009
# 6 0.0009 0.0012 0.0024 -1.1036 0.0009 20.4477
#
#
#
# Elastic Compliance Matrix: (Units=1/GPa)
#
#
# Indices 1 2 3 4 5 6 
#
# 1 0.034748 -0.007928 0.000531 -0.000003 0.020662 -0.000002
# 2 -0.007928 0.019746 -0.003156 0.000000 -0.004444 0.000000
# 3 0.000531 -0.003156 0.011120 -0.000002 0.008137 -0.000002
# 4 -0.000003 0.000000 -0.000002 0.041799 -0.000004 0.002256
# 5 0.020662 -0.004444 0.008137 -0.000004 0.041119 -0.000004
# 6 -0.000002 0.000000 -0.000002 0.002256 -0.000004 0.049027
#
#
# Mechanical properties :
#
#
# Convention : Reuss Voigt Hill
#
# Bulk Modulus (GPa) = 22.46818 38.29920 30.38369
# Shear Modulus (GPa) = 21.41307 28.67889 25.04598
#
# Velocity S-wave (km/s) = 3.11100 3.60032 3.36456
# Velocity P-wave (km/s) = 4.80204 5.88163 5.36904
#
# Compressibility (1/GPa) = 0.04450739
#
# Stress axis : x y z
#
# Youngs Moduli (GPa) = 28.77872 50.64366 89.92431
#
# Poissons Ratio (x) = 0.40150 -0.04771
# Poissons Ratio (y) = 0.22816 0.28380
# Poissons Ratio (z) = -0.01527 0.15983
#
# Static dielectric constant tensor:
#      x y z
#    x 1.903020 0.000000 0.000040 
#    y 0.000000 1.791670 0.000000 
#    z 0.000040 0.000000 1.888750 
# 
# From -- ./inp_files/26037.got.cif
#   From: 2010.05.17/outbox.cif.g08.bks.cpg/sg9_14_cif.got.tgz:26037.got - 2010.06.03 20:04:27.
