data_PCOD9139485
_publ_section_title
;
Structure prediction by ZEFSAII (Michael W. Deem and Ramdas Pophale) SiO2 
 PCOD9139485
Probable space group: C C
;
_chemical_formula_sum "Si O2"
_cell_formula_units_Z 24
_cell_length_a 10.011408
_cell_length_b 12.977452
_cell_length_c 11.306888
_cell_angle_alpha 90.000000
_cell_angle_beta 136.997677
_cell_angle_gamma 90.000000
_cell_volume 1001.912729
_symmetry_space_group_name_H-M "C C"
_symmetry_group_IT_number 9
_symmetry_cell_setting 'monoclinic'
loop_
_space_group_symop_operation_xyz
x,y,z
x,-y,1/2+z
1/2+x,1/2+y,z
1/2+x,1/2-y,1/2+z
loop_
_atom_site_type_symbol
_atom_site_label
_atom_site_fract_x
_atom_site_fract_y
_atom_site_fract_z
Si Si1 0.224480 0.525685 0.022850
Si Si2 0.305883 0.708318 0.237882
Si Si3 0.140863 0.688316 0.377495
Si Si4 0.714331 0.362950 0.580476
Si Si5 0.834384 0.415976 0.135504
Si Si6 0.626088 0.629367 0.281854
O O1 0.197358 0.605989 0.114726
O O2 0.453251 0.547021 0.141905
O O3 0.196226 0.402608 0.005161
O O4 0.055822 0.561181 0.821235
O O5 0.293913 0.701130 0.370465
O O6 0.248466 0.822005 0.157099
O O7 0.511653 0.701588 0.299872
O O8 0.095928 0.794841 0.413760
O O9 0.937530 0.655856 0.187138
O O10 0.695389 0.485233 0.567771
O O11 0.684109 0.325392 0.694504
O O12 0.813238 0.402204 0.980302
#
# Coordination Sequence:
#
# PCOD9139485 Si02
#       6
#     4   4   4   4   4   4
#     4   9  25  46  71 105 141 184 241 297 349 424
#     4  10  25  46  76 100 140 195 236 294 354 430
#     4  11  27  47  71 107 147 187 238 298 360 418
#     4  11  29  44  71 107 146 189 234 306 352 426
#     4  11  24  46  71 107 140 185 249 284 360 422
#     4  10  26  45  72 106 134 198 230 293 361 420
#
# _framework density 23.954180999999998
#
# number of rings (size 3 to 8) (size 9 to 14) (size 15 to 20)
#    1.000    0.667    0.000    1.000   14.000    4.000 
#    3.000    0.000    0.000    0.000    0.000    0.000 
#    0.000    0.000    0.000    0.000    0.000    0.000 
#
# Total GULP energy -66836.848081 kJ/mol
# GULP energy per Si atom -5569.737340 kJ/mol
# Density = 2.389966 g / cm^3
# Si number density = 23.954181 Si / 1000 Ang^3
#
#
#
# Elastic Constant Matrix: (Units=GPa)
#
#
# Indices 1 2 3 4 5 6 
#
# 1 89.1923 16.3525 16.0778 0.0003 -29.6261 0.0003
# 2 16.3525 140.4963 27.9033 0.0001 -20.4748 0.0001
# 3 16.0778 27.9033 86.0647 0.0003 -20.0307 0.0003
# 4 0.0003 0.0001 0.0003 24.1750 0.0003 -2.6377
# 5 -29.6261 -20.4748 -20.0307 0.0003 34.9077 0.0003
# 6 0.0003 0.0001 0.0003 -2.6377 0.0003 8.6483
#
#
#
# Elastic Compliance Matrix: (Units=1/GPa)
#
#
# Indices 1 2 3 4 5 6 
#
# 1 0.015617 0.000103 0.000171 0.000000 0.013413 -0.000001
# 2 0.000103 0.008001 -0.001732 0.000000 0.003787 0.000000
# 3 0.000171 -0.001732 0.013787 0.000000 0.007041 -0.000001
# 4 0.000000 0.000000 0.000000 0.042789 -0.000001 0.013051
# 5 0.013413 0.003787 0.007041 -0.000001 0.046291 -0.000003
# 6 -0.000001 0.000000 -0.000001 0.013051 -0.000003 0.119610
#
#
# Mechanical properties :
#
#
# Convention : Reuss Voigt Hill
#
# Bulk Modulus (GPa) = 28.99425 48.49118 38.74271
# Shear Modulus (GPa) = 19.19313 30.57417 24.88365
#
# Velocity S-wave (km/s) = 2.83370 3.57649 3.22654
# Velocity P-wave (km/s) = 4.77878 6.11084 5.48539
#
# Compressibility (1/GPa) = 0.03448960
#
# Stress axis : x y z
#
# Youngs Moduli (GPa) = 64.03189 124.97683 72.52976
#
# Poissons Ratio (x) = -0.01288 -0.01239
# Poissons Ratio (y) = -0.00660 0.12563
# Poissons Ratio (z) = -0.01094 0.21647
#
# Static dielectric constant tensor:
#      x y z
#    x 1.861130 0.000000 0.036080 
#    y 0.000000 2.028740 0.000000 
#    z 0.036080 0.000000 1.968190 
# 
# From -- ./inp_files/16540.got.cif
#   From: 2010.05.17/outbox.cif.g08.bks.cpg/sg9_9_cif.got.tgz:16540.got - 2010.06.03 20:04:27.
