data_PCOD9139267
_publ_section_title
;
Structure prediction by ZEFSAII (Michael W. Deem and Ramdas Pophale) SiO2 
 PCOD9139267
Probable space group: C C
;
_chemical_formula_sum "Si O2"
_cell_formula_units_Z 24
_cell_length_a 18.777455
_cell_length_b 5.287565
_cell_length_c 18.960516
_cell_angle_alpha 90.000000
_cell_angle_beta 30.832301
_cell_angle_gamma 90.000000
_cell_volume 964.849054
_symmetry_space_group_name_H-M "C C"
_symmetry_group_IT_number 9
_symmetry_cell_setting 'monoclinic'
loop_
_space_group_symop_operation_xyz
x,y,z
x,-y,1/2+z
1/2+x,1/2+y,z
1/2+x,1/2-y,1/2+z
loop_
_atom_site_type_symbol
_atom_site_label
_atom_site_fract_x
_atom_site_fract_y
_atom_site_fract_z
Si Si1 0.034640 0.472529 0.636230
Si Si2 0.252976 0.112509 0.197995
Si Si3 0.825706 0.112981 0.091206
Si Si4 0.924209 0.242404 0.859078
Si Si5 0.300491 0.780529 0.403953
Si Si6 0.525963 0.677756 0.507475
O O1 0.145040 0.688681 0.526120
O O2 0.052364 0.251054 0.564875
O O3 0.046217 0.355711 0.705492
O O4 0.881858 0.599621 0.768200
O O5 0.239420 0.352025 0.157989
O O6 0.162257 0.166262 0.344040
O O7 0.223635 0.842438 0.191243
O O8 0.418898 0.107225 0.071061
O O9 0.920265 0.166654 0.943574
O O10 0.925982 0.056212 0.073024
O O11 0.819965 0.486360 0.941504
O O12 0.875550 0.981735 0.862744
#
# Coordination Sequence:
#
# PCOD9139267 Si02
#       6
#     4   4   4   4   4   4
#     4  10  26  47  75 113 149 196 251 312 379 445
#     4  10  25  45  72 107 142 203 246 307 369 441
#     4  10  24  48  71 109 146 197 252 301 374 447
#     4  10  24  47  73 111 147 195 246 311 374 449
#     4  10  25  45  72 111 148 194 245 310 376 447
#     4  10  26  46  75 103 154 195 250 307 370 447
#
# _framework density 24.874357
#
# number of rings (size 3 to 8) (size 9 to 14) (size 15 to 20)
#    2.000    0.000    0.000    1.000    7.000    4.000 
#    6.000    0.000    0.000    0.000    0.000    0.000 
#    0.000    0.000    0.000    0.000    0.000    0.000 
#
# Total GULP energy -66895.363674 kJ/mol
# GULP energy per Si atom -5574.613640 kJ/mol
# Density = 2.481774 g / cm^3
# Si number density = 24.874357 Si / 1000 Ang^3
#
#
#
# Elastic Constant Matrix: (Units=GPa)
#
#
# Indices 1 2 3 4 5 6 
#
# 1 54.4706 45.1256 40.5333 -0.0122 29.5196 0.0047
# 2 45.1256 201.1915 64.3516 -0.0167 17.6984 0.0059
# 3 40.5333 64.3516 161.1584 -0.0105 27.1559 0.0026
# 4 -0.0122 -0.0167 -0.0105 5.5752 0.0063 8.6959
# 5 29.5196 17.6984 27.1559 0.0063 34.6235 -0.0019
# 6 0.0047 0.0059 0.0026 8.6959 -0.0019 26.1817
#
#
#
# Elastic Compliance Matrix: (Units=1/GPa)
#
#
# Indices 1 2 3 4 5 6 
#
# 1 0.041849 -0.005718 -0.003137 0.000239 -0.030296 -0.000087
# 2 -0.005718 0.006531 -0.001646 0.000002 0.002828 -0.000001
# 3 -0.003137 -0.001646 0.008134 0.000014 -0.002863 -0.000005
# 4 0.000239 0.000002 0.000014 0.372160 -0.000290 -0.123607
# 5 -0.030296 0.002828 -0.002863 -0.000290 0.055513 0.000105
# 6 -0.000087 -0.000001 -0.000005 -0.123607 0.000105 0.079249
#
#
# Mechanical properties :
#
#
# Convention : Reuss Voigt Hill
#
# Bulk Modulus (GPa) = 28.16029 79.64907 53.90468
# Shear Modulus (GPa) = 8.38541 31.06342 19.72441
#
# Velocity S-wave (km/s) = 1.83805 3.53769 2.81901
# Velocity P-wave (km/s) = 3.98123 6.98406 5.68451
#
# Compressibility (1/GPa) = 0.03551100
#
# Stress axis : x y z
#
# Youngs Moduli (GPa) = 23.89568 153.12535 122.94187
#
# Poissons Ratio (x) = 0.87553 0.38569
# Poissons Ratio (y) = 0.13663 0.20238
# Poissons Ratio (z) = 0.07497 0.25206
#
# Static dielectric constant tensor:
#      x y z
#    x 2.045490 -0.000010 -0.070300 
#    y -0.000010 1.996740 0.000010 
#    z -0.070300 0.000010 1.936000 
# 
# From -- ./inp_files/34218.got.cif
#   From: 2010.05.17/outbox.cif.g08.bks.cpg/sg9_18_cif.got.tgz:34218.got - 2010.06.03 20:04:27.
