data_PCOD9139799
_publ_section_title
;
Structure prediction by ZEFSAII (Michael W. Deem and Ramdas Pophale) SiO2 
 PCOD9139799
Probable space group: C C
;
_chemical_formula_sum "Si O2"
_cell_formula_units_Z 32
_cell_length_a 5.020384
_cell_length_b 23.101509
_cell_length_c 12.133556
_cell_angle_alpha 90.000000
_cell_angle_beta 104.589516
_cell_angle_gamma 90.000000
_cell_volume 1361.855200
_symmetry_space_group_name_H-M "C C"
_symmetry_group_IT_number 9
_symmetry_cell_setting 'monoclinic'
loop_
_space_group_symop_operation_xyz
x,y,z
x,-y,1/2+z
1/2+x,1/2+y,z
1/2+x,1/2-y,1/2+z
loop_
_atom_site_type_symbol
_atom_site_label
_atom_site_fract_x
_atom_site_fract_y
_atom_site_fract_z
Si Si1 0.211020 0.376066 0.450260
Si Si2 0.264021 0.153964 0.329679
Si Si3 0.812310 0.666733 0.071867
Si Si4 0.033518 0.785114 0.137416
Si Si5 0.596849 0.580114 0.615512
Si Si6 0.777303 0.920221 0.872303
Si Si7 0.116016 0.725798 0.791123
Si Si8 0.679060 0.962339 0.254191
O O1 0.520452 0.353683 0.495727
O O2 0.053092 0.328213 0.360804
O O3 0.195992 0.432958 0.376149
O O4 0.049603 0.374092 0.547599
O O5 0.300934 0.161543 0.202429
O O6 0.525293 0.117125 0.394718
O O7 0.233965 0.219356 0.369325
O O8 0.987314 0.120773 0.329563
O O9 0.882068 0.734235 0.054034
O O10 0.331248 0.759046 0.200684
O O11 0.079456 0.849968 0.098230
O O12 0.843642 0.792538 0.225829
O O13 0.450196 0.554371 0.492601
O O14 0.433658 0.558868 0.706647
O O15 0.907628 0.559817 0.663921
O O16 0.674911 0.969832 0.779601
#
# Coordination Sequence:
#
# PCOD9139799 Si02
#       8
#     4   4   4   4   4   4   4   4
#     4  12  23  41  68 107 137 191 224 280 353 416
#     4  11  25  47  66 105 145 179 235 295 345 409
#     4  11  25  39  70 104 147 182 226 282 355 418
#     4  11  21  42  65 103 144 182 227 283 350 409
#     4  12  25  47  73 104 136 186 234 295 344 423
#     4  12  28  47  75 101 135 194 238 285 356 405
#     4  11  22  40  68  99 143 180 220 292 344 410
#     4  12  27  49  71 103 145 182 240 294 339 416
#
# _framework density 23.497357000000001
#
# number of rings (size 3 to 8) (size 9 to 14) (size 15 to 20)
#    0.000    0.500    2.500    6.750    3.500    3.000 
#    0.000    0.000    0.000    0.000    0.000    0.000 
#    0.000    0.000    0.000    0.000    0.000    0.000 
#
# Total GULP energy -89630.548844 kJ/mol
# GULP energy per Si atom -5601.909303 kJ/mol
# Density = 2.344388 g / cm^3
# Si number density = 23.497357 Si / 1000 Ang^3
#
#
#
# Elastic Constant Matrix: (Units=GPa)
#
#
# Indices 1 2 3 4 5 6 
#
# 1 102.3690 13.7015 -2.4444 0.0000 11.8465 0.0000
# 2 13.7015 83.2393 11.1554 0.0000 2.4713 0.0000
# 3 -2.4444 11.1554 45.0420 0.0000 4.7668 0.0000
# 4 0.0000 0.0000 0.0000 31.8826 0.0000 1.6402
# 5 11.8465 2.4713 4.7668 0.0000 50.2931 0.0000
# 6 0.0000 0.0000 0.0000 1.6402 0.0000 21.2420
#
#
#
# Elastic Compliance Matrix: (Units=1/GPa)
#
#
# Indices 1 2 3 4 5 6 
#
# 1 0.010324 -0.001796 0.001266 0.000000 -0.002464 0.000000
# 2 -0.001796 0.012744 -0.003265 0.000000 0.000106 0.000000
# 3 0.001266 -0.003265 0.023327 0.000000 -0.002349 0.000000
# 4 0.000000 0.000000 0.000000 0.031490 0.000000 -0.002431
# 5 -0.002464 0.000106 -0.002349 0.000000 0.020681 0.000000
# 6 0.000000 0.000000 0.000000 -0.002431 0.000000 0.047264
#
#
# Mechanical properties :
#
#
# Convention : Reuss Voigt Hill
#
# Bulk Modulus (GPa) = 25.76972 30.60838 28.18905
# Shear Modulus (GPa) = 30.05607 34.56606 32.31107
#
# Velocity S-wave (km/s) = 3.58037 3.83960 3.71225
# Velocity P-wave (km/s) = 5.29933 5.71938 5.51336
#
# Compressibility (1/GPa) = 0.03880524
#
# Stress axis : x y z
#
# Youngs Moduli (GPa) = 96.85913 78.47099 42.86810
#
# Poissons Ratio (x) = 0.14093 -0.05426
# Poissons Ratio (y) = 0.17395 0.13996
# Poissons Ratio (z) = -0.12260 0.25620
#
# Static dielectric constant tensor:
#      x y z
#    x 1.844250 0.000000 -0.008270 
#    y 0.000000 1.893650 0.000000 
#    z -0.008270 0.000000 1.919800 
# 
# From -- ./inp_files/13815.got.cif
#   From: 2010.05.17/outbox.cif.g08.bks.cpg/sg9_7_cif.got.tgz:13815.got - 2010.06.03 20:04:27.
