data_PCOD9139036
_publ_section_title
;
Structure prediction by ZEFSAII (Michael W. Deem and Ramdas Pophale) SiO2 
 PCOD9139036
Probable space group: C C
;
_chemical_formula_sum "Si O2"
_cell_formula_units_Z 28
_cell_length_a 8.021293
_cell_length_b 26.472704
_cell_length_c 5.738494
_cell_angle_alpha 90.000000
_cell_angle_beta 93.059501
_cell_angle_gamma 90.000000
_cell_volume 1216.805464
_symmetry_space_group_name_H-M "C C"
_symmetry_group_IT_number 9
_symmetry_cell_setting 'monoclinic'
loop_
_space_group_symop_operation_xyz
x,y,z
x,-y,1/2+z
1/2+x,1/2+y,z
1/2+x,1/2-y,1/2+z
loop_
_atom_site_type_symbol
_atom_site_label
_atom_site_fract_x
_atom_site_fract_y
_atom_site_fract_z
Si Si1 0.366130 0.137438 0.991960
Si Si2 0.843218 0.803874 0.897875
Si Si3 0.504872 0.777375 0.752685
Si Si4 0.723063 0.015089 0.909878
Si Si5 0.206174 0.631407 0.766406
Si Si6 0.839216 0.482675 0.460105
Si Si7 0.525918 0.683726 0.016607
O O1 0.523467 0.148411 0.836787
O O2 0.346852 0.077403 0.007447
O O3 0.417408 0.168612 0.228006
O O4 0.189667 0.161582 0.911580
O O5 0.701405 0.782341 0.714121
O O6 0.008009 0.825205 0.788883
O O7 0.742636 0.849418 0.010620
O O8 0.904569 0.759675 0.072278
O O9 0.512207 0.744109 0.986247
O O10 0.715880 0.072681 0.824406
O O11 0.530712 0.997375 0.940433
O O12 0.796017 0.988004 0.681008
O O13 0.364599 0.656208 0.904084
O O14 0.765687 0.506985 0.693697
#
# Coordination Sequence:
#
# PCOD9139036 Si02
#       7
#     4   4   4   4   4   4   4
#     4  11  23  43  72  99 133 192 226 290 365 417
#     4  11  25  42  68  94 146 175 235 292 344 430
#     4  11  24  41  65  99 135 185 229 282 353 421
#     4   9  19  36  70  99 133 180 236 293 359 425
#     4  10  24  44  65 100 136 182 229 291 352 426
#     4   9  20  42  66 103 137 179 242 300 351 431
#     4  11  25  44  64 100 140 175 241 282 348 432
#
# _framework density 23.011073
#
# number of rings (size 3 to 8) (size 9 to 14) (size 15 to 20)
#    0.000    1.714    2.857    0.000    6.000    3.429 
#    7.714    1.429    0.000    0.000    0.000    0.000 
#    0.000    0.000    0.000    0.000    0.000    0.000 
#
# Total GULP energy -77941.971970 kJ/mol
# GULP energy per Si atom -5567.283712 kJ/mol
# Density = 2.295870 g / cm^3
# Si number density = 23.011073 Si / 1000 Ang^3
#
#
#
# Elastic Constant Matrix: (Units=GPa)
#
#
# Indices 1 2 3 4 5 6 
#
# 1 92.7643 31.2641 45.3804 0.0000 -21.7803 0.0000
# 2 31.2641 117.2387 56.5661 0.0000 -17.5471 0.0000
# 3 45.3804 56.5661 100.4168 0.0000 -3.9951 0.0000
# 4 0.0000 0.0000 0.0000 26.0124 0.0000 -3.3374
# 5 -21.7803 -17.5471 -3.9951 0.0000 22.0734 0.0000
# 6 0.0000 0.0000 0.0000 -3.3374 0.0000 16.2969
#
#
#
# Elastic Compliance Matrix: (Units=1/GPa)
#
#
# Indices 1 2 3 4 5 6 
#
# 1 0.018818 0.002076 -0.008934 0.000000 0.018602 0.000000
# 2 0.002076 0.013617 -0.008155 0.000000 0.011397 0.000000
# 3 -0.008934 -0.008155 0.018112 0.000000 -0.012020 0.000000
# 4 0.000000 0.000000 0.000000 0.039480 0.000000 0.008085
# 5 0.018602 0.011397 -0.012020 0.000000 0.070543 0.000000
# 6 0.000000 0.000000 0.000000 0.008085 0.000000 0.063017
#
#
# Mechanical properties :
#
#
# Convention : Reuss Voigt Hill
#
# Bulk Modulus (GPa) = 48.73098 64.09345 56.41221
# Shear Modulus (GPa) = 19.19732 24.69049 21.94391
#
# Velocity S-wave (km/s) = 2.89150 3.27920 3.09143
# Velocity P-wave (km/s) = 5.68954 6.50010 6.10828
#
# Compressibility (1/GPa) = 0.02052083
#
# Stress axis : x y z
#
# Youngs Moduli (GPa) = 53.13966 73.44021 55.21298
#
# Poissons Ratio (x) = -0.15249 0.49327
# Poissons Ratio (y) = -0.11034 0.45028
# Poissons Ratio (z) = 0.47475 0.59893
#
# Static dielectric constant tensor:
#      x y z
#    x 1.881440 0.000000 0.018850 
#    y 0.000000 1.851060 0.000000 
#    z 0.018850 0.000000 2.079740 
# 
# From -- ./inp_files/1039.got.cif
#   From: 2010.05.17/outbox.cif.g08.bks.cpg/sg9_1_cif.got.tgz:1039.got - 2010.06.03 20:04:27.
