data_PCOD9139700
_publ_section_title
;
Structure prediction by ZEFSAII (Michael W. Deem and Ramdas Pophale) SiO2 
 PCOD9139700
Probable space group: C C
;
_chemical_formula_sum "Si O2"
_cell_formula_units_Z 32
_cell_length_a 18.820077
_cell_length_b 10.331365
_cell_length_c 16.199874
_cell_angle_alpha 90.000000
_cell_angle_beta 26.336105
_cell_angle_gamma 90.000000
_cell_volume 1397.389716
_symmetry_space_group_name_H-M "C C"
_symmetry_group_IT_number 9
_symmetry_cell_setting 'monoclinic'
loop_
_space_group_symop_operation_xyz
x,y,z
x,-y,1/2+z
1/2+x,1/2+y,z
1/2+x,1/2-y,1/2+z
loop_
_atom_site_type_symbol
_atom_site_label
_atom_site_fract_x
_atom_site_fract_y
_atom_site_fract_z
Si Si1 0.880340 0.331947 0.401770
Si Si2 0.301548 0.524537 0.874683
Si Si3 0.160921 0.317796 0.911907
Si Si4 0.626975 0.032452 0.223297
Si Si5 0.685154 0.386271 0.761180
Si Si6 0.308356 0.375197 0.182963
Si Si7 0.091652 0.110228 0.100919
Si Si8 0.385599 0.856077 0.086171
O O1 0.743102 0.325571 0.613867
O O2 0.774261 0.394832 0.439713
O O3 0.008328 0.426355 0.308393
O O4 0.973993 0.202516 0.278475
O O5 0.227394 0.382502 0.926567
O O6 0.275401 0.579848 0.810601
O O7 0.491114 0.518718 0.694774
O O8 0.227634 0.572685 0.037645
O O9 0.294603 0.276284 0.705456
O O10 0.096460 0.178845 0.007746
O O11 0.006294 0.387926 0.036068
O O12 0.717363 0.958482 0.205521
O O13 0.513030 0.145504 0.378364
O O14 0.758932 0.274711 0.740541
O O15 0.765591 0.525818 0.692201
O O16 0.495484 0.389700 0.967248
#
# Coordination Sequence:
#
# PCOD9139700 Si02
#       8
#     4   4   4   4   4   4   4   4
#     4  11  20  35  62  98 135 169 225 303 346 406
#     4  12  24  40  69 101 137 186 235 297 349 420
#     4  12  22  41  68 102 137 179 234 295 353 414
#     4  11  24  44  67 104 142 185 234 294 356 418
#     4  11  24  42  67  99 136 189 229 286 364 425
#     4  12  25  44  70 100 143 186 239 288 357 429
#     4  12  20  35  64 105 137 167 237 303 352 398
#     4  11  25  43  71 101 141 183 225 296 361 418
#
# _framework density 22.899839
#
# number of rings (size 3 to 8) (size 9 to 14) (size 15 to 20)
#    0.000    0.500    5.000    5.250    0.000    0.000 
#    0.000    1.250    0.000    0.000    0.000    0.000 
#    0.000    0.000    0.000    0.000    0.000    0.000 
#
# Total GULP energy -89179.543097 kJ/mol
# GULP energy per Si atom -5573.721444 kJ/mol
# Density = 2.284772 g / cm^3
# Si number density = 22.899839 Si / 1000 Ang^3
#
#
#
# Elastic Constant Matrix: (Units=GPa)
#
#
# Indices 1 2 3 4 5 6 
#
# 1 118.6940 17.2121 43.8676 0.0000 -14.2138 0.0000
# 2 17.2121 15.7050 22.5046 0.0001 -1.0499 0.0000
# 3 43.8676 22.5046 105.9332 0.0001 13.4710 -0.0001
# 4 0.0000 0.0001 0.0001 27.7738 0.0000 4.1769
# 5 -14.2138 -1.0499 13.4710 0.0000 56.6680 0.0000
# 6 0.0000 0.0000 -0.0001 4.1769 0.0000 24.9688
#
#
#
# Elastic Compliance Matrix: (Units=1/GPa)
#
#
# Indices 1 2 3 4 5 6 
#
# 1 0.011179 -0.006809 -0.003633 0.000000 0.003542 0.000000
# 2 -0.006809 0.098082 -0.018593 0.000000 0.004529 0.000000
# 3 -0.003633 -0.018593 0.015523 0.000000 -0.004946 0.000000
# 4 0.000000 0.000000 0.000000 0.036934 0.000000 -0.006178
# 5 0.003542 0.004529 -0.004946 0.000000 0.019795 0.000000
# 6 0.000000 0.000000 0.000000 -0.006178 0.000000 0.041083
#
#
# Mechanical properties :
#
#
# Convention : Reuss Voigt Hill
#
# Bulk Modulus (GPa) = 14.98929 45.27785 30.13357
# Shear Modulus (GPa) = 16.50676 32.33200 24.41938
#
# Velocity S-wave (km/s) = 2.68773 3.76159 3.26905
# Velocity P-wave (km/s) = 4.02389 6.21941 5.23797
#
# Compressibility (1/GPa) = 0.06671429
#
# Stress axis : x y z
#
# Youngs Moduli (GPa) = 89.45071 10.19552 64.41911
#
# Poissons Ratio (x) = 0.06942 0.23405
# Poissons Ratio (y) = 0.60908 1.19774
# Poissons Ratio (z) = 0.32500 0.18957
#
# Static dielectric constant tensor:
#      x y z
#    x 1.959650 0.000000 0.049300 
#    y 0.000000 2.037140 0.000000 
#    z 0.049300 0.000000 1.999530 
# 
# From -- ./inp_files/26843.got.cif
#   From: 2010.05.17/outbox.cif.g08.bks.cpg/sg9_14_cif.got.tgz:26843.got - 2010.06.03 20:04:27.
