data_PCOD9139512
_publ_section_title
;
Structure prediction by ZEFSAII (Michael W. Deem and Ramdas Pophale) SiO2 
 PCOD9139512
Probable space group: C C
;
_chemical_formula_sum "Si O2"
_cell_formula_units_Z 32
_cell_length_a 20.358084
_cell_length_b 7.003526
_cell_length_c 11.320186
_cell_angle_alpha 90.000000
_cell_angle_beta 60.907002
_cell_angle_gamma 90.000000
_cell_volume 1410.376233
_symmetry_space_group_name_H-M "C C"
_symmetry_group_IT_number 9
_symmetry_cell_setting 'monoclinic'
loop_
_space_group_symop_operation_xyz
x,y,z
x,-y,1/2+z
1/2+x,1/2+y,z
1/2+x,1/2-y,1/2+z
loop_
_atom_site_type_symbol
_atom_site_label
_atom_site_fract_x
_atom_site_fract_y
_atom_site_fract_z
Si Si1 0.799160 0.289706 0.264260
Si Si2 0.335987 0.802317 0.672275
Si Si3 0.050941 0.926239 0.262191
Si Si4 0.563447 0.137730 0.459584
Si Si5 0.210382 0.452268 0.232044
Si Si6 0.919079 0.763534 0.858524
Si Si7 0.169499 0.190650 0.059872
Si Si8 0.969468 0.612673 0.199410
O O1 0.825857 0.471759 0.168919
O O2 0.866113 0.210073 0.288966
O O3 0.735496 0.362544 0.412162
O O4 0.761179 0.137574 0.211058
O O5 0.255691 0.706940 0.765667
O O6 0.370517 0.723185 0.520469
O O7 0.394200 0.777061 0.728249
O O8 0.044992 0.812610 0.390139
O O9 0.032505 0.761632 0.183146
O O10 0.132053 0.023404 0.170297
O O11 0.986709 0.086621 0.308456
O O12 0.601550 0.226801 0.542055
O O13 0.627321 0.006162 0.345665
O O14 0.496388 0.005281 0.561624
O O15 0.201736 0.361023 0.111392
O O16 0.951501 0.548157 0.812792
#
# Coordination Sequence:
#
# PCOD9139512 Si02
#       8
#     4   4   4   4   4   4   4   4
#     4  10  25  48  70 107 143 191 235 296 360 422
#     4  11  25  44  77 102 145 186 235 296 352 431
#     4  12  27  44  77 102 144 195 230 307 357 417
#     4  11  26  45  73 105 143 189 240 293 361 427
#     4  11  25  46  69 103 144 187 239 297 344 429
#     4  11  24  48  72 110 143 182 248 285 361 435
#     4  11  25  46  69 105 142 189 246 283 360 431
#     4  11  25  47  69 110 140 191 235 297 359 430
#
# _framework density 22.688983
#
# number of rings (size 3 to 8) (size 9 to 14) (size 15 to 20)
#    0.000    1.000    2.500    2.250    8.750    3.000 
#    9.000    0.000    0.000    0.000    0.000    0.000 
#    0.000    0.000    0.000    0.000    0.000    0.000 
#
# Total GULP energy -89488.827272 kJ/mol
# GULP energy per Si atom -5593.051704 kJ/mol
# Density = 2.263734 g / cm^3
# Si number density = 22.688983 Si / 1000 Ang^3
#
#
#
# Elastic Constant Matrix: (Units=GPa)
#
#
# Indices 1 2 3 4 5 6 
#
# 1 97.1419 37.4480 14.2953 0.0000 -7.2946 0.0000
# 2 37.4480 81.5984 28.2324 0.0000 -8.6497 0.0000
# 3 14.2953 28.2324 50.2611 0.0000 -15.8943 0.0000
# 4 0.0000 0.0000 0.0000 28.4421 0.0000 0.1481
# 5 -7.2946 -8.6497 -15.8943 0.0000 22.1384 0.0000
# 6 0.0000 0.0000 0.0000 0.1481 0.0000 40.9661
#
#
#
# Elastic Compliance Matrix: (Units=1/GPa)
#
#
# Indices 1 2 3 4 5 6 
#
# 1 0.012591 -0.005644 0.000263 0.000000 0.002133 0.000000
# 2 -0.005644 0.017742 -0.008741 0.000000 -0.001203 0.000000
# 3 0.000263 -0.008741 0.030634 0.000000 0.018665 0.000000
# 4 0.000000 0.000000 0.000000 0.035160 0.000000 -0.000127
# 5 0.002133 -0.001203 0.018665 0.000000 0.058804 0.000000
# 6 0.000000 0.000000 0.000000 -0.000127 0.000000 0.024411
#
#
# Mechanical properties :
#
#
# Convention : Reuss Voigt Hill
#
# Bulk Modulus (GPa) = 30.55858 43.21699 36.88779
# Shear Modulus (GPa) = 22.88407 28.24436 25.56421
#
# Velocity S-wave (km/s) = 3.17929 3.53207 3.36031
# Velocity P-wave (km/s) = 5.19373 5.97687 5.59901
#
# Compressibility (1/GPa) = 0.03272403
#
# Stress axis : x y z
#
# Youngs Moduli (GPa) = 79.42056 56.36342 32.64354
#
# Poissons Ratio (x) = 0.31809 -0.00860
# Poissons Ratio (y) = 0.44821 0.28535
# Poissons Ratio (z) = -0.02091 0.49269
#
# Static dielectric constant tensor:
#      x y z
#    x 1.874560 0.000000 0.002620 
#    y 0.000000 1.852480 0.000000 
#    z 0.002620 0.000000 1.848110 
# 
# From -- ./inp_files/19812.got.cif
#   From: 2010.05.17/outbox.cif.g08.bks.cpg/sg9_10_cif.got.tgz:19812.got - 2010.06.03 20:04:27.
