data_PCOD9139744
_publ_section_title
;
Structure prediction by ZEFSAII (Michael W. Deem and Ramdas Pophale) SiO2 
 PCOD9139744
Probable space group: C C
;
_chemical_formula_sum "Si O2"
_cell_formula_units_Z 32
_cell_length_a 9.212780
_cell_length_b 11.314604
_cell_length_c 14.566278
_cell_angle_alpha 90.000000
_cell_angle_beta 66.294626
_cell_angle_gamma 90.000000
_cell_volume 1390.260689
_symmetry_space_group_name_H-M "C C"
_symmetry_group_IT_number 9
_symmetry_cell_setting 'monoclinic'
loop_
_space_group_symop_operation_xyz
x,y,z
x,-y,1/2+z
1/2+x,1/2+y,z
1/2+x,1/2-y,1/2+z
loop_
_atom_site_type_symbol
_atom_site_label
_atom_site_fract_x
_atom_site_fract_y
_atom_site_fract_z
Si Si1 0.829690 0.529755 0.739250
Si Si2 0.686353 0.686777 0.628903
Si Si3 0.221798 0.109765 0.427559
Si Si4 0.350257 0.657333 0.499509
Si Si5 0.687271 0.050345 0.146451
Si Si6 0.338361 0.675148 0.791286
Si Si7 0.324689 0.593031 0.305986
Si Si8 0.165446 0.194838 0.187749
O O1 0.769904 0.645091 0.701363
O O2 0.770408 0.506731 0.858264
O O3 0.749033 0.419996 0.707777
O O4 0.015263 0.508133 0.680791
O O5 0.735240 0.602049 0.533185
O O6 0.712524 0.822058 0.594114
O O7 0.498582 0.680954 0.691964
O O8 0.332504 0.216795 0.363396
O O9 0.041944 0.153072 0.450338
O O10 0.305785 0.540864 0.569463
O O11 0.286761 0.654979 0.411443
O O12 0.260497 0.762313 0.574943
O O13 0.710918 0.080588 0.247904
O O14 0.343375 0.544761 0.830816
O O15 0.195238 0.702354 0.756505
O O16 0.484345 0.654697 0.226900
#
# Coordination Sequence:
#
# PCOD9139744 Si02
#       8
#     4   4   4   4   4   4   4   4
#     4  11  25  47  71 104 148 193 253 307 374 446
#     4  12  23  44  74 106 150 196 239 319 380 444
#     4  11  22  45  79 107 137 205 251 302 389 453
#     4  12  24  44  74 107 146 199 249 307 390 450
#     4  12  27  45  67 109 155 189 251 320 364 453
#     4  11  20  45  76 101 146 189 252 306 367 452
#     4  12  25  45  74 106 147 199 245 312 379 443
#     4  11  22  45  73 102 143 188 254 309 365 451
#
# _framework density 23.017265999999999
#
# number of rings (size 3 to 8) (size 9 to 14) (size 15 to 20)
#    0.000    0.500    8.750    0.750    1.750    1.000 
#    2.250    0.000    0.000    0.000    0.000    0.000 
#    0.000    0.000    0.000    0.000    0.000    0.000 
#
# Total GULP energy -89426.842095 kJ/mol
# GULP energy per Si atom -5589.177631 kJ/mol
# Density = 2.296488 g / cm^3
# Si number density = 23.017266 Si / 1000 Ang^3
#
#
#
# Elastic Constant Matrix: (Units=GPa)
#
#
# Indices 1 2 3 4 5 6 
#
# 1 73.3492 23.7897 9.5133 0.0000 -3.0176 0.0000
# 2 23.7897 60.3468 2.7838 0.0000 -19.5223 0.0000
# 3 9.5133 2.7838 91.9257 0.0000 -5.2797 0.0000
# 4 0.0000 0.0000 0.0000 23.4866 0.0000 1.5835
# 5 -3.0176 -19.5223 -5.2797 0.0000 25.5319 0.0000
# 6 0.0000 0.0000 0.0000 1.5835 0.0000 36.0873
#
#
#
# Elastic Compliance Matrix: (Units=1/GPa)
#
#
# Indices 1 2 3 4 5 6 
#
# 1 0.016170 -0.007695 -0.001689 0.000000 -0.004322 0.000000
# 2 -0.007695 0.025687 0.001107 0.000000 0.018960 0.000000
# 3 -0.001689 0.001107 0.011190 0.000000 0.002961 0.000000
# 4 0.000000 0.000000 0.000000 0.042704 0.000000 -0.001874
# 5 -0.004322 0.018960 0.002961 0.000000 0.053766 0.000000
# 6 0.000000 0.000000 0.000000 -0.001874 0.000000 0.027793
#
#
# Mechanical properties :
#
#
# Convention : Reuss Voigt Hill
#
# Bulk Modulus (GPa) = 27.40104 33.08837 30.24471
# Shear Modulus (GPa) = 24.26873 29.65681 26.96277
#
# Velocity S-wave (km/s) = 3.25063 3.59341 3.42631
# Velocity P-wave (km/s) = 5.10090 5.62347 5.36855
#
# Compressibility (1/GPa) = 0.03649496
#
# Stress axis : x y z
#
# Youngs Moduli (GPa) = 61.84173 38.93024 89.36843
#
# Poissons Ratio (x) = 0.29956 0.15091
# Poissons Ratio (y) = 0.47586 -0.09897
# Poissons Ratio (z) = 0.10443 -0.04311
#
# Static dielectric constant tensor:
#      x y z
#    x 1.863930 0.000000 0.049890 
#    y 0.000000 1.899280 0.000000 
#    z 0.049890 0.000000 1.859990 
# 
# From -- ./inp_files/22880.got.cif
#   From: 2010.05.17/outbox.cif.g08.bks.cpg/sg9_12_cif.got.tgz:22880.got - 2010.06.03 20:04:27.
