data_PCOD9139497
_publ_section_title
;
Structure prediction by ZEFSAII (Michael W. Deem and Ramdas Pophale) SiO2 
 PCOD9139497
Probable space group: C C
;
_chemical_formula_sum "Si O2"
_cell_formula_units_Z 28
_cell_length_a 10.649957
_cell_length_b 12.850984
_cell_length_c 9.386487
_cell_angle_alpha 90.000000
_cell_angle_beta 55.722394
_cell_angle_gamma 90.000000
_cell_volume 1061.536150
_symmetry_space_group_name_H-M "C C"
_symmetry_group_IT_number 9
_symmetry_cell_setting 'monoclinic'
loop_
_space_group_symop_operation_xyz
x,y,z
x,-y,1/2+z
1/2+x,1/2+y,z
1/2+x,1/2-y,1/2+z
loop_
_atom_site_type_symbol
_atom_site_label
_atom_site_fract_x
_atom_site_fract_y
_atom_site_fract_z
Si Si1 0.338530 0.506520 0.878500
Si Si2 0.230257 0.835238 0.799634
Si Si3 0.034897 0.960985 0.479855
Si Si4 0.421797 0.810013 0.940886
Si Si5 0.164300 0.353002 0.133601
Si Si6 0.493715 0.994484 0.565414
Si Si7 0.222677 0.232005 0.807816
O O1 0.442646 0.460523 0.686872
O O2 0.445169 0.583645 0.897687
O O3 0.300012 0.436790 0.045766
O O4 0.171553 0.537334 0.928224
O O5 0.168940 0.740082 0.742663
O O6 0.107211 0.925543 0.902657
O O7 0.381435 0.897292 0.648021
O O8 0.292942 0.792909 0.908608
O O9 0.178467 0.882635 0.388186
O O10 0.432414 0.931384 0.979701
O O11 0.375170 0.759976 0.121816
O O12 0.590430 0.778515 0.791717
O O13 0.020476 0.427136 0.185943
O O14 0.211455 0.301782 0.952897
#
# Coordination Sequence:
#
# PCOD9139497 Si02
#       7
#     4   4   4   4   4   4   4
#     4  10  25  47  70 105 158 194 254 314 393 455
#     4  12  25  45  82 109 146 198 266 311 385 461
#     4  12  24  44  74 111 145 202 250 321 384 465
#     4  11  25  44  70 112 139 194 246 319 372 470
#     4   9  24  48  74 104 148 205 248 311 388 467
#     4   9  24  47  73 107 150 201 249 313 385 471
#     4  11  23  45  71  98 154 190 243 303 397 451
#
# _framework density 26.376868000000002
#
# number of rings (size 3 to 8) (size 9 to 14) (size 15 to 20)
#    0.857    0.571    1.429    2.571    4.000    3.429 
#    0.000    1.429    0.000    0.000    0.000    0.000 
#    0.000    0.000    0.000    0.000    0.000    0.000 
#
# Total GULP energy -78136.801358 kJ/mol
# GULP energy per Si atom -5581.200097 kJ/mol
# Density = 2.631683 g / cm^3
# Si number density = 26.376868 Si / 1000 Ang^3
#
#
#
# Elastic Constant Matrix: (Units=GPa)
#
#
# Indices 1 2 3 4 5 6 
#
# 1 83.4573 -6.0285 27.1123 0.0000 -6.8913 0.0000
# 2 -6.0285 96.6193 38.6846 0.0000 9.3730 0.0000
# 3 27.1123 38.6846 112.6050 0.0000 -12.0216 0.0000
# 4 0.0000 0.0000 0.0000 53.2621 0.0000 7.3707
# 5 -6.8913 9.3730 -12.0216 0.0000 44.6308 0.0000
# 6 0.0000 0.0000 0.0000 7.3707 0.0000 33.0320
#
#
#
# Elastic Compliance Matrix: (Units=1/GPa)
#
#
# Indices 1 2 3 4 5 6 
#
# 1 0.013505 0.002406 -0.004025 0.000000 0.000496 0.000000
# 2 0.002406 0.013067 -0.005479 0.000000 -0.003849 0.000000
# 3 -0.004025 -0.005479 0.012138 0.000000 0.003799 0.000000
# 4 0.000000 0.000000 0.000000 0.019373 0.000000 -0.004323
# 5 0.000496 -0.003849 0.003799 0.000000 0.024314 0.000000
# 6 0.000000 0.000000 0.000000 -0.004323 0.000000 0.031238
#
#
# Mechanical properties :
#
#
# Convention : Reuss Voigt Hill
#
# Bulk Modulus (GPa) = 40.79536 45.80204 43.29870
# Shear Modulus (GPa) = 36.76395 41.71254 39.23825
#
# Velocity S-wave (km/s) = 3.73741 3.98100 3.86113
# Velocity P-wave (km/s) = 5.84159 6.20752 6.02734
#
# Compressibility (1/GPa) = 0.02451259
#
# Stress axis : x y z
#
# Youngs Moduli (GPa) = 74.04903 76.52741 82.38797
#
# Poissons Ratio (x) = -0.18414 0.33163
# Poissons Ratio (y) = -0.17817 0.45143
# Poissons Ratio (z) = 0.29807 0.41932
#
# Static dielectric constant tensor:
#      x y z
#    x 2.104260 0.000000 0.044120 
#    y 0.000000 2.303080 0.000000 
#    z 0.044120 0.000000 2.018100 
# 
# From -- ./inp_files/7346.got.cif
#   From: 2010.05.17/outbox.cif.g08.bks.cpg/sg9_4_cif.got.tgz:7346.got - 2010.06.03 20:04:27.
