data_PCOD9139548
_publ_section_title
;
Structure prediction by ZEFSAII (Michael W. Deem and Ramdas Pophale) SiO2 
 PCOD9139548
Probable space group: C C
;
_chemical_formula_sum "Si O2"
_cell_formula_units_Z 28
_cell_length_a 12.782496
_cell_length_b 15.719218
_cell_length_c 9.130356
_cell_angle_alpha 90.000000
_cell_angle_beta 33.303404
_cell_angle_gamma 90.000000
_cell_volume 1007.311948
_symmetry_space_group_name_H-M "C C"
_symmetry_group_IT_number 9
_symmetry_cell_setting 'monoclinic'
loop_
_space_group_symop_operation_xyz
x,y,z
x,-y,1/2+z
1/2+x,1/2+y,z
1/2+x,1/2-y,1/2+z
loop_
_atom_site_type_symbol
_atom_site_label
_atom_site_fract_x
_atom_site_fract_y
_atom_site_fract_z
Si Si1 0.813750 0.355100 0.403340
Si Si2 0.653182 0.573069 0.488495
Si Si3 0.770267 0.823898 0.415650
Si Si4 0.676324 0.667791 0.735675
Si Si5 0.893556 0.185241 0.455365
Si Si6 0.023546 0.529000 0.104540
Si Si7 0.367261 0.573184 0.228817
O O1 0.923347 0.275340 0.342452
O O2 0.605796 0.354037 0.725196
O O3 0.455771 0.349867 0.533993
O O4 0.915863 0.445086 0.287549
O O5 0.486987 0.642913 0.673591
O O6 0.714629 0.586662 0.586767
O O7 0.539954 0.489290 0.573568
O O8 0.869391 0.572575 0.175798
O O9 0.723266 0.749619 0.583109
O O10 0.618972 0.900782 0.599588
O O11 0.771089 0.798571 0.243224
O O12 0.280319 0.834953 0.269511
O O13 0.795183 0.117937 0.461059
O O14 0.216568 0.483501 0.818526
#
# Coordination Sequence:
#
# PCOD9139548 Si02
#       7
#     4   4   4   4   4   4   4
#     4  11  26  50  88 115 167 226 287 340 434 516
#     4  11  26  49  79 122 168 218 280 348 430 508
#     4  11  30  51  84 123 174 213 289 365 428 506
#     4  11  27  52  82 126 171 220 284 369 418 512
#     4  11  25  50  80 121 167 219 284 348 420 519
#     4  11  25  53  83 122 160 234 272 357 429 516
#     4  10  25  51  80 119 173 220 286 347 431 523
#
# _framework density 27.796754
#
# number of rings (size 3 to 8) (size 9 to 14) (size 15 to 20)
#    0.000    1.143    2.857    0.857   12.000    1.143 
#    7.714    0.000    0.000    1.714    0.000    0.000 
#    0.000    0.000    0.000    0.000    0.000    0.000 
#
# Total GULP energy -78325.330867 kJ/mol
# GULP energy per Si atom -5594.666490 kJ/mol
# Density = 2.773349 g / cm^3
# Si number density = 27.796754 Si / 1000 Ang^3
#
#
#
# Elastic Constant Matrix: (Units=GPa)
#
#
# Indices 1 2 3 4 5 6 
#
# 1 123.3243 70.5758 68.3535 -0.0009 18.8125 -0.0007
# 2 70.5758 191.4830 79.2322 -0.0017 -0.9808 -0.0001
# 3 68.3535 79.2322 162.1880 -0.0080 -29.1533 0.0022
# 4 -0.0009 -0.0017 -0.0080 60.3803 0.0025 -12.5703
# 5 18.8125 -0.9808 -29.1533 0.0025 58.9273 0.0001
# 6 -0.0007 -0.0001 0.0022 -12.5703 0.0001 24.2784
#
#
#
# Elastic Compliance Matrix: (Units=1/GPa)
#
#
# Indices 1 2 3 4 5 6 
#
# 1 0.014148 -0.002792 -0.005948 0.000000 -0.007506 0.000001
# 2 -0.002792 0.007240 -0.002391 0.000000 -0.000171 0.000000
# 3 -0.005948 -0.002391 0.011168 0.000001 0.007384 -0.000001
# 4 0.000000 0.000000 0.000001 0.018563 0.000000 0.009611
# 5 -0.007506 -0.000171 0.007384 0.000000 0.023017 -0.000001
# 6 0.000001 0.000000 -0.000001 0.009611 -0.000001 0.046165
#
#
# Mechanical properties :
#
#
# Convention : Reuss Voigt Hill
#
# Bulk Modulus (GPa) = 97.14262 101.47981 99.31122
# Shear Modulus (GPa) = 34.24821 45.97279 40.11050
#
# Velocity S-wave (km/s) = 3.51393 4.07122 3.80279
# Velocity P-wave (km/s) = 7.17544 7.66073 7.42205
#
# Compressibility (1/GPa) = 0.01029414
#
# Stress axis : x y z
#
# Youngs Moduli (GPa) = 70.68062 138.12382 89.54374
#
# Poissons Ratio (x) = 0.38563 0.53260
# Poissons Ratio (y) = 0.19734 0.21409
# Poissons Ratio (z) = 0.42040 0.33024
#
# Static dielectric constant tensor:
#      x y z
#    x 2.235520 0.000000 0.000670 
#    y 0.000000 2.149620 0.000000 
#    z 0.000670 0.000000 2.390230 
# 
# From -- ./inp_files/31349.got.cif
#   From: 2010.05.17/outbox.cif.g08.bks.cpg/sg9_16_cif.got.tgz:31349.got - 2010.06.03 20:04:27.
