data_PCOD9139179
_publ_section_title
;
Structure prediction by ZEFSAII (Michael W. Deem and Ramdas Pophale) SiO2 
 PCOD9139179
Probable space group: C C
;
_chemical_formula_sum "Si O2"
_cell_formula_units_Z 28
_cell_length_a 7.592696
_cell_length_b 12.337525
_cell_length_c 13.701699
_cell_angle_alpha 90.000000
_cell_angle_beta 74.194024
_cell_angle_gamma 90.000000
_cell_volume 1234.977751
_symmetry_space_group_name_H-M "C C"
_symmetry_group_IT_number 9
_symmetry_cell_setting 'monoclinic'
loop_
_space_group_symop_operation_xyz
x,y,z
x,-y,1/2+z
1/2+x,1/2+y,z
1/2+x,1/2-y,1/2+z
loop_
_atom_site_type_symbol
_atom_site_label
_atom_site_fract_x
_atom_site_fract_y
_atom_site_fract_z
Si Si1 0.363580 0.423692 0.247100
Si Si2 0.524099 0.785605 0.656512
Si Si3 0.077915 0.100031 0.109882
Si Si4 0.280987 0.400429 0.481257
Si Si5 0.423603 0.029262 0.508488
Si Si6 0.866871 0.694146 0.690119
Si Si7 0.958937 0.487183 0.784237
O O1 0.398267 0.319078 0.175051
O O2 0.519350 0.510238 0.198175
O O3 0.356173 0.387665 0.361034
O O4 0.677760 0.240777 0.215834
O O5 0.644668 0.807088 0.542097
O O6 0.428465 0.894972 0.708457
O O7 0.370816 0.103374 0.772779
O O8 0.673620 0.982412 0.251677
O O9 0.281380 0.070431 0.044875
O O10 0.939966 0.086612 0.037485
O O11 0.134995 0.498752 0.497423
O O12 0.375354 0.124719 0.589221
O O13 0.406340 0.057058 0.397540
O O14 0.028502 0.782566 0.661275
#
# Coordination Sequence:
#
# PCOD9139179 Si02
#       7
#     4   4   4   4   4   4   4
#     4  11  23  43  70  96 137 178 225 278 341 398
#     4  11  23  42  70  89 140 173 217 284 336 385
#     4  11  24  44  69 100 134 182 227 275 345 403
#     4  10  24  46  63 103 139 170 227 287 327 399
#     4  11  24  43  69  98 133 178 230 272 345 403
#     4  11  23  43  67  95 136 171 224 281 328 405
#     4  11  25  43  64 101 131 176 226 281 336 403
#
# _framework density 22.672471999999999
#
# number of rings (size 3 to 8) (size 9 to 14) (size 15 to 20)
#    0.000    1.143    5.714    0.000    8.000    0.000 
#    0.000    1.429    0.000    0.000    0.000    0.000 
#    0.000    0.000    0.000    0.000    0.000    0.000 
#
# Total GULP energy -78230.219366 kJ/mol
# GULP energy per Si atom -5587.872812 kJ/mol
# Density = 2.262087 g / cm^3
# Si number density = 22.672472 Si / 1000 Ang^3
#
#
#
# Elastic Constant Matrix: (Units=GPa)
#
#
# Indices 1 2 3 4 5 6 
#
# 1 75.0284 11.9094 12.3063 0.0000 -7.6170 0.0000
# 2 11.9094 110.5205 21.2277 0.0000 1.8417 0.0000
# 3 12.3063 21.2277 105.7825 0.0000 13.3701 0.0000
# 4 0.0000 0.0000 0.0000 20.5364 0.0000 5.9043
# 5 -7.6170 1.8417 13.3701 0.0000 25.8379 0.0000
# 6 0.0000 0.0000 0.0000 5.9043 0.0000 35.3671
#
#
#
# Elastic Compliance Matrix: (Units=1/GPa)
#
#
# Indices 1 2 3 4 5 6 
#
# 1 0.014424 -0.001238 -0.002117 0.000000 0.005436 0.000000
# 2 -0.001238 0.009520 -0.001749 0.000000 -0.000139 0.000000
# 3 -0.002117 -0.001749 0.010821 0.000000 -0.006099 0.000000
# 4 0.000000 0.000000 0.000000 0.051149 0.000000 -0.008539
# 5 0.005436 -0.000139 -0.006099 0.000000 0.043471 0.000000
# 6 0.000000 0.000000 0.000000 -0.008539 0.000000 0.029700
#
#
# Mechanical properties :
#
#
# Convention : Reuss Voigt Hill
#
# Bulk Modulus (GPa) = 40.72043 42.46869 41.59456
# Shear Modulus (GPa) = 28.17241 32.74080 30.45661
#
# Velocity S-wave (km/s) = 3.52885 3.80422 3.66912
# Velocity P-wave (km/s) = 5.88243 6.16994 6.02790
#
# Compressibility (1/GPa) = 0.02455770
#
# Stress axis : x y z
#
# Youngs Moduli (GPa) = 69.32966 105.04500 92.40967
#
# Poissons Ratio (x) = 0.13008 0.19559
# Poissons Ratio (y) = 0.08585 0.16160
# Poissons Ratio (z) = 0.14674 0.18370
#
# Static dielectric constant tensor:
#      x y z
#    x 1.896770 0.000000 0.011770 
#    y 0.000000 1.858890 0.000000 
#    z 0.011770 0.000000 1.842530 
# 
# From -- ./inp_files/23171.got.cif
#   From: 2010.05.17/outbox.cif.g08.bks.cpg/sg9_12_cif.got.tgz:23171.got - 2010.06.03 20:04:27.
