data_PCOD9139713
_publ_section_title
;
Structure prediction by ZEFSAII (Michael W. Deem and Ramdas Pophale) SiO2 
 PCOD9139713
Probable space group: C C
;
_chemical_formula_sum "Si O2"
_cell_formula_units_Z 24
_cell_length_a 21.291428
_cell_length_b 7.007616
_cell_length_c 18.522508
_cell_angle_alpha 90.000000
_cell_angle_beta 19.533509
_cell_angle_gamma 90.000000
_cell_volume 924.031388
_symmetry_space_group_name_H-M "C C"
_symmetry_group_IT_number 9
_symmetry_cell_setting 'monoclinic'
loop_
_space_group_symop_operation_xyz
x,y,z
x,-y,1/2+z
1/2+x,1/2+y,z
1/2+x,1/2-y,1/2+z
loop_
_atom_site_type_symbol
_atom_site_label
_atom_site_fract_x
_atom_site_fract_y
_atom_site_fract_z
Si Si1 0.784760 0.088983 0.714350
Si Si2 0.125927 0.995937 0.939966
Si Si3 0.645511 0.042668 0.152008
Si Si4 0.420527 0.939255 0.024679
Si Si5 0.074568 0.892943 0.155835
Si Si6 0.625955 0.388096 0.731891
O O1 0.724633 0.293018 0.813640
O O2 0.917365 0.000711 0.633253
O O3 0.932936 0.082728 0.486378
O O4 0.586267 0.020074 0.896258
O O5 0.263378 0.143846 0.749405
O O6 0.120139 0.995501 0.032000
O O7 0.589611 0.163096 0.141034
O O8 0.545667 0.157972 0.326505
O O9 0.867469 0.055300 0.905974
O O10 0.614418 0.821839 0.207592
O O11 0.281182 0.065281 0.124515
O O12 0.192117 0.980593 0.093927
#
# Coordination Sequence:
#
# PCOD9139713 Si02
#       6
#     4   4   4   4   4   4
#     4  11  20  39  74 104 135 197 243 278 354 437
#     4  11  22  39  70 102 147 188 231 294 359 418
#     4  12  24  44  72 106 142 187 237 293 350 426
#     4  11  21  42  75 104 137 198 243 284 353 433
#     4  12  27  45  72 115 146 180 239 303 361 415
#     4  11  24  47  79 105 141 190 245 296 353 425
#
# _framework density 25.973143
#
# number of rings (size 3 to 8) (size 9 to 14) (size 15 to 20)
#    0.000    0.667    5.000    4.000    0.000    0.000 
#    6.000    0.000   14.667    4.000    0.000    0.000 
#    0.000    0.000    0.000    0.000    0.000    0.000 
#
# Total GULP energy -66875.051387 kJ/mol
# GULP energy per Si atom -5572.920949 kJ/mol
# Density = 2.591403 g / cm^3
# Si number density = 25.973143 Si / 1000 Ang^3
#
#
#
# Elastic Constant Matrix: (Units=GPa)
#
#
# Indices 1 2 3 4 5 6 
#
# 1 156.2313 31.3542 51.9659 -0.0006 21.2376 0.0000
# 2 31.3542 78.8878 14.9466 0.0000 -0.7907 0.0000
# 3 51.9659 14.9466 115.9437 -0.0004 -8.6197 0.0004
# 4 -0.0006 0.0000 -0.0004 21.5630 0.0005 5.8458
# 5 21.2376 -0.7907 -8.6197 0.0005 55.2453 -0.0002
# 6 0.0000 0.0000 0.0004 5.8458 -0.0002 24.5253
#
#
#
# Elastic Compliance Matrix: (Units=1/GPa)
#
#
# Indices 1 2 3 4 5 6 
#
# 1 0.008803 -0.002803 -0.003884 0.000000 -0.004030 0.000000
# 2 -0.002803 0.013887 -0.000444 0.000000 0.001207 0.000000
# 3 -0.003884 -0.000444 0.010657 0.000000 0.003149 0.000000
# 4 0.000000 0.000000 0.000000 0.049579 -0.000001 -0.011818
# 5 -0.004030 0.001207 0.003149 -0.000001 0.020159 0.000000
# 6 0.000000 0.000000 0.000000 -0.011818 0.000000 0.043591
#
#
# Mechanical properties :
#
#
# Convention : Reuss Voigt Hill
#
# Bulk Modulus (GPa) = 52.39852 60.84403 56.62128
# Shear Modulus (GPa) = 29.88646 37.11979 33.50313
#
# Velocity S-wave (km/s) = 3.39583 3.78453 3.59543
# Velocity P-wave (km/s) = 5.96603 6.52483 6.25168
#
# Compressibility (1/GPa) = 0.01908451
#
# Stress axis : x y z
#
# Youngs Moduli (GPa) = 113.59707 72.01159 93.83549
#
# Poissons Ratio (x) = 0.20187 0.36443
# Poissons Ratio (y) = 0.31845 0.04166
# Poissons Ratio (z) = 0.44118 0.03197
#
# Static dielectric constant tensor:
#      x y z
#    x 2.061290 0.000000 -0.016270 
#    y 0.000000 2.323590 0.000000 
#    z -0.016270 0.000000 2.073100 
# 
# From -- ./inp_files/25956.got.cif
#   From: 2010.05.17/outbox.cif.g08.bks.cpg/sg9_13_cif.got.tgz:25956.got - 2010.06.03 20:04:27.
