data_PCOD9139283
_publ_section_title
;
Structure prediction by ZEFSAII (Michael W. Deem and Ramdas Pophale) SiO2 
 PCOD9139283
Probable space group: C C
;
_chemical_formula_sum "Si O2"
_cell_formula_units_Z 20
_cell_length_a 7.342242
_cell_length_b 9.775364
_cell_length_c 12.366085
_cell_angle_alpha 90.000000
_cell_angle_beta 67.819598
_cell_angle_gamma 90.000000
_cell_volume 821.873049
_symmetry_space_group_name_H-M "C C"
_symmetry_group_IT_number 9
_symmetry_cell_setting 'monoclinic'
loop_
_space_group_symop_operation_xyz
x,y,z
x,-y,1/2+z
1/2+x,1/2+y,z
1/2+x,1/2-y,1/2+z
loop_
_atom_site_type_symbol
_atom_site_label
_atom_site_fract_x
_atom_site_fract_y
_atom_site_fract_z
Si Si1 0.752790 0.995238 0.500000
Si Si2 0.761553 0.732816 0.900574
Si Si3 0.852868 0.491075 0.211335
Si Si4 0.099854 0.006155 0.078973
Si Si5 0.340461 0.214106 0.387245
O O1 0.849072 0.124702 0.418601
O O2 0.532184 0.022339 0.588252
O O3 0.882333 0.973674 0.579814
O O4 0.755558 0.865818 0.420071
O O5 0.870111 0.629883 0.795362
O O6 0.558355 0.773574 0.887542
O O7 0.710441 0.644699 0.018071
O O8 0.648611 0.477974 0.191935
O O9 0.856721 0.637638 0.269488
O O10 0.204710 0.883914 0.990550
#
# Coordination Sequence:
#
# PCOD9139283 Si02
#       5
#     4   4   4   4   4
#     4  11  25  49  73 101 147 187 231 298 350 413
#     4  10  24  48  68 109 141 181 243 289 344 432
#     4  11  25  49  73 101 147 188 231 294 357 410
#     4  10  24  48  70 105 145 180 240 293 345 424
#     4  10  24  48  70 106 144 180 241 292 342 429
#
# _framework density 24.334658999999998
#
# number of rings (size 3 to 8) (size 9 to 14) (size 15 to 20)
#    0.000    1.600    2.000    0.000    5.600    0.000 
#   28.800    0.000    0.000    0.000    0.000    0.000 
#    0.000    0.000    0.000    0.000    0.000    0.000 
#
# Total GULP energy -55977.062024 kJ/mol
# GULP energy per Si atom -5597.706202 kJ/mol
# Density = 2.427927 g / cm^3
# Si number density = 24.334659 Si / 1000 Ang^3
#
#
#
# Elastic Constant Matrix: (Units=GPa)
#
#
# Indices 1 2 3 4 5 6 
#
# 1 74.9706 8.7048 22.0381 0.0000 -1.0816 0.0000
# 2 8.7048 164.8816 42.9037 0.0000 1.2393 0.0000
# 3 22.0381 42.9037 81.1438 0.0000 5.2084 0.0000
# 4 0.0000 0.0000 0.0000 22.6955 0.0000 9.9151
# 5 -1.0816 1.2393 5.2084 0.0000 33.1191 0.0000
# 6 0.0000 0.0000 0.0000 9.9151 0.0000 32.0318
#
#
#
# Elastic Compliance Matrix: (Units=1/GPa)
#
#
# Indices 1 2 3 4 5 6 
#
# 1 0.014550 0.000314 -0.004189 0.000000 0.001122 0.000000
# 2 0.000314 0.007043 -0.003831 0.000000 0.000349 0.000000
# 3 -0.004189 -0.003831 0.015645 0.000000 -0.002454 0.000000
# 4 0.000000 0.000000 0.000000 0.050952 0.000000 -0.015772
# 5 0.001122 0.000349 -0.002454 0.000000 0.030603 0.000000
# 6 0.000000 0.000000 0.000000 -0.015772 0.000000 0.036101
#
#
# Mechanical properties :
#
#
# Convention : Reuss Voigt Hill
#
# Bulk Modulus (GPa) = 45.82318 52.03214 48.92766
# Shear Modulus (GPa) = 28.15592 34.05924 31.10758
#
# Velocity S-wave (km/s) = 3.40520 3.74521 3.57924
# Velocity P-wave (km/s) = 5.85934 6.33486 6.10173
#
# Compressibility (1/GPa) = 0.02182301
#
# Stress axis : x y z
#
# Youngs Moduli (GPa) = 68.72909 141.99046 63.91858
#
# Poissons Ratio (x) = -0.04452 0.26779
# Poissons Ratio (y) = -0.02155 0.24489
# Poissons Ratio (z) = 0.28794 0.54401
#
# Static dielectric constant tensor:
#      x y z
#    x 1.932320 0.000000 0.023890 
#    y 0.000000 1.936330 0.000000 
#    z 0.023890 0.000000 1.921020 
# 
# From -- ./inp_files/13954.got.cif
#   From: 2010.05.17/outbox.cif.g08.bks.cpg/sg9_7_cif.got.tgz:13954.got - 2010.06.03 20:04:27.
