data_PCOD9139846
_publ_section_title
;
Structure prediction by ZEFSAII (Michael W. Deem and Ramdas Pophale) SiO2 
 PCOD9139846
Probable space group: C C
;
_chemical_formula_sum "Si O2"
_cell_formula_units_Z 32
_cell_length_a 6.455878
_cell_length_b 27.744240
_cell_length_c 10.048685
_cell_angle_alpha 90.000000
_cell_angle_beta 123.879034
_cell_angle_gamma 90.000000
_cell_volume 1494.268521
_symmetry_space_group_name_H-M "C C"
_symmetry_group_IT_number 9
_symmetry_cell_setting 'monoclinic'
loop_
_space_group_symop_operation_xyz
x,y,z
x,-y,1/2+z
1/2+x,1/2+y,z
1/2+x,1/2-y,1/2+z
loop_
_atom_site_type_symbol
_atom_site_label
_atom_site_fract_x
_atom_site_fract_y
_atom_site_fract_z
Si Si1 0.296550 0.795139 0.487580
Si Si2 0.872424 0.104073 0.028146
Si Si3 0.549605 0.385914 0.302733
Si Si4 0.224092 0.354797 0.940269
Si Si5 0.431868 0.966990 0.458048
Si Si6 0.341966 0.697398 0.207380
Si Si7 0.408195 0.946338 0.750189
Si Si8 0.854204 0.278480 0.811177
O O1 0.266369 0.847190 0.412063
O O2 0.581066 0.777284 0.572706
O O3 0.282536 0.798633 0.641155
O O4 0.052301 0.764422 0.362857
O O5 0.863349 0.151216 0.117817
O O6 0.134324 0.077113 0.148061
O O7 0.652498 0.067537 0.986077
O O8 0.874652 0.116270 0.871183
O O9 0.674426 0.438214 0.338505
O O10 0.419626 0.370029 0.121088
O O11 0.322368 0.323536 0.850406
O O12 0.098572 0.402321 0.835596
O O13 0.014242 0.321102 0.935267
O O14 0.453290 0.972010 0.624755
O O15 0.435336 0.016593 0.380160
O O16 0.588044 0.730103 0.282698
#
# Coordination Sequence:
#
# PCOD9139846 Si02
#       8
#     4   4   4   4   4   4   4   4
#     4  11  23  43  68 100 139 170 232 287 338 420
#     4  11  21  45  68  90 135 183 223 271 350 403
#     4  11  24  43  66 100 138 174 226 288 335 413
#     4  11  24  42  65 100 138 173 230 288 334 415
#     4  11  25  42  65  98 134 183 229 281 346 406
#     4  11  21  45  71  93 136 187 218 280 356 400
#     4  11  25  41  65  97 137 177 232 288 333 410
#     4  11  23  43  68 100 135 179 226 285 348 411
#
# _framework density 21.41516
#
# number of rings (size 3 to 8) (size 9 to 14) (size 15 to 20)
#    0.000    1.000    5.000    2.250    3.500    5.000 
#    0.000    0.000    0.000    0.000    0.000    0.000 
#    0.000    0.000    0.000    0.000    0.000    0.000 
#
# Total GULP energy -89403.412845 kJ/mol
# GULP energy per Si atom -5587.713303 kJ/mol
# Density = 2.136642 g / cm^3
# Si number density = 21.415160 Si / 1000 Ang^3
#
#
#
# Elastic Constant Matrix: (Units=GPa)
#
#
# Indices 1 2 3 4 5 6 
#
# 1 121.0268 21.0057 38.7601 0.0000 5.0832 0.0000
# 2 21.0057 65.6802 3.4204 0.0000 -0.5120 0.0000
# 3 38.7601 3.4204 63.9807 0.0000 -8.1253 0.0000
# 4 0.0000 0.0000 0.0000 31.4472 0.0000 -7.2447
# 5 5.0832 -0.5120 -8.1253 0.0000 22.5935 0.0000
# 6 0.0000 0.0000 0.0000 -7.2447 0.0000 28.4029
#
#
#
# Elastic Compliance Matrix: (Units=1/GPa)
#
#
# Indices 1 2 3 4 5 6 
#
# 1 0.011441 -0.003313 -0.007429 0.000000 -0.005321 0.000000
# 2 -0.003313 0.016228 0.001343 0.000000 0.001596 0.000000
# 3 -0.007429 0.001343 0.021245 0.000000 0.009342 0.000000
# 4 0.000000 0.000000 0.000000 0.033785 0.000000 0.008617
# 5 -0.005321 0.001596 0.009342 0.000000 0.048854 0.000000
# 6 0.000000 0.000000 0.000000 0.008617 0.000000 0.037406
#
#
# Mechanical properties :
#
#
# Convention : Reuss Voigt Hill
#
# Bulk Modulus (GPa) = 33.20874 41.89555 37.55214
# Shear Modulus (GPa) = 25.27861 28.98880 27.13371
#
# Velocity S-wave (km/s) = 3.43943 3.68320 3.56340
# Velocity P-wave (km/s) = 5.59587 6.13954 5.87400
#
# Compressibility (1/GPa) = 0.03011256
#
# Stress axis : x y z
#
# Youngs Moduli (GPa) = 87.40833 61.62367 47.06946
#
# Poissons Ratio (x) = 0.20419 0.34970
# Poissons Ratio (y) = 0.28963 -0.06319
# Poissons Ratio (z) = 0.64939 -0.08273
#
# Static dielectric constant tensor:
#      x y z
#    x 1.828520 0.000000 0.010970 
#    y 0.000000 1.775930 0.000000 
#    z 0.010970 0.000000 1.751150 
# 
# From -- ./inp_files/4471.got.cif
#   From: 2010.05.17/outbox.cif.g08.bks.cpg/sg9_3_cif.got.tgz:4471.got - 2010.06.03 20:04:27.
