data_PCOD9139002
_publ_section_title
;
Structure prediction by ZEFSAII (Michael W. Deem and Ramdas Pophale) SiO2 
 PCOD9139002
Probable space group: C C
;
_chemical_formula_sum "Si O2"
_cell_formula_units_Z 32
_cell_length_a 18.456588
_cell_length_b 4.995108
_cell_length_c 29.698894
_cell_angle_alpha 90.000000
_cell_angle_beta 151.150679
_cell_angle_gamma 90.000000
_cell_volume 1321.115975
_symmetry_space_group_name_H-M "C C"
_symmetry_group_IT_number 9
_symmetry_cell_setting 'monoclinic'
loop_
_space_group_symop_operation_xyz
x,y,z
x,-y,1/2+z
1/2+x,1/2+y,z
1/2+x,1/2-y,1/2+z
loop_
_atom_site_type_symbol
_atom_site_label
_atom_site_fract_x
_atom_site_fract_y
_atom_site_fract_z
Si Si1 0.471320 0.162660 0.718090
Si Si2 0.304286 0.369020 0.748030
Si Si3 0.259474 0.872098 0.667084
Si Si4 0.480258 0.703702 0.479532
Si Si5 0.704811 0.055816 0.031343
Si Si6 0.681531 0.886479 0.777237
Si Si7 0.143274 0.953597 0.440686
Si Si8 0.218108 0.024357 0.880720
O O1 0.379730 0.928604 0.693229
O O2 0.346103 0.383299 0.640027
O O3 0.544532 0.080601 0.710953
O O4 0.617994 0.252798 0.826534
O O5 0.323400 0.071005 0.740048
O O6 0.202881 0.338099 0.736742
O O7 0.465279 0.497218 0.845974
O O8 0.241618 0.574429 0.676307
O O9 0.102464 0.008241 0.567568
O O10 0.560516 0.867344 0.483238
O O11 0.346163 0.524507 0.384847
O O12 0.392982 0.908799 0.465515
O O13 0.712587 0.265371 0.994361
O O14 0.691480 0.764658 0.003451
O O15 0.653113 0.654177 0.798771
O O16 0.186204 0.868656 0.413425
#
# Coordination Sequence:
#
# PCOD9139002 Si02
#       8
#     4   4   4   4   4   4   4   4
#     4  11  25  44  72 101 138 188 228 290 352 417
#     4  12  25  44  73 102 139 180 236 285 349 409
#     4  11  26  46  73 103 137 184 235 288 339 420
#     4   9  24  47  68 101 138 183 227 285 349 414
#     4  11  27  44  73  98 141 177 239 282 344 415
#     4  10  25  44  69  98 140 182 226 285 351 416
#     4  12  24  44  68 106 133 184 227 292 342 412
#     4  10  24  43  70  97 142 182 230 279 358 407
#
# _framework density 24.221948000000001
#
# number of rings (size 3 to 8) (size 9 to 14) (size 15 to 20)
#    0.750    0.500    2.500    1.500    7.000    6.000 
#    0.000    0.000    0.000    0.000    0.000    0.000 
#    0.000    0.000    0.000    0.000    0.000    0.000 
#
# Total GULP energy -89333.826387 kJ/mol
# GULP energy per Si atom -5583.364149 kJ/mol
# Density = 2.416682 g / cm^3
# Si number density = 24.221948 Si / 1000 Ang^3
#
#
#
# Elastic Constant Matrix: (Units=GPa)
#
#
# Indices 1 2 3 4 5 6 
#
# 1 187.3156 23.4023 39.4713 -0.0164 5.6162 0.0304
# 2 23.4023 62.4990 22.4120 -0.0478 -7.2578 0.0366
# 3 39.4713 22.4120 69.6367 -0.0082 19.5649 0.0088
# 4 -0.0164 -0.0478 -0.0082 35.0712 -0.0048 -11.3512
# 5 5.6162 -7.2578 19.5649 -0.0048 38.2322 -0.0124
# 6 0.0304 0.0366 0.0088 -11.3512 -0.0124 25.8567
#
#
#
# Elastic Compliance Matrix: (Units=1/GPa)
#
#
# Indices 1 2 3 4 5 6 
#
# 1 0.006150 -0.001044 -0.003318 -0.000001 0.000596 -0.000005
# 2 -0.001044 0.020309 -0.008258 0.000023 0.008235 -0.000011
# 3 -0.003318 -0.008258 0.022426 -0.000010 -0.012557 -0.000002
# 4 -0.000001 0.000023 -0.000010 0.033236 0.000018 0.014591
# 5 0.000596 0.008235 -0.012557 0.000018 0.034057 0.000016
# 6 -0.000005 -0.000011 -0.000002 0.014591 0.000016 0.045080
#
#
# Mechanical properties :
#
#
# Convention : Reuss Voigt Hill
#
# Bulk Modulus (GPa) = 42.28998 54.44693 48.36845
# Shear Modulus (GPa) = 25.72282 35.44306 30.58294
#
# Velocity S-wave (km/s) = 3.26231 3.82941 3.55718
# Velocity P-wave (km/s) = 5.62917 6.48688 6.07319
#
# Compressibility (1/GPa) = 0.02364626
#
# Stress axis : x y z
#
# Youngs Moduli (GPa) = 162.59593 49.23985 44.59041
#
# Poissons Ratio (x) = 0.05141 0.14793
# Poissons Ratio (y) = 0.16976 0.36823
# Poissons Ratio (z) = 0.53941 0.40662
#
# Static dielectric constant tensor:
#      x y z
#    x 1.927500 -0.000060 -0.048740 
#    y -0.000060 1.997200 0.000030 
#    z -0.048740 0.000030 1.981480 
# 
# From -- ./inp_files/37504.got.cif
#   From: 2010.05.17/outbox.cif.g08.bks.cpg/sg9_19_cif.got.tgz:37504.got - 2010.06.03 20:04:27.
