data_PCOD9139969
_publ_section_title
;
Structure prediction by ZEFSAII (Michael W. Deem and Ramdas Pophale) SiO2 
 PCOD9139969
Probable space group: C C
;
_chemical_formula_sum "Si O2"
_cell_formula_units_Z 32
_cell_length_a 9.195920
_cell_length_b 26.393817
_cell_length_c 9.224979
_cell_angle_alpha 90.000000
_cell_angle_beta 34.379716
_cell_angle_gamma 90.000000
_cell_volume 1264.332274
_symmetry_space_group_name_H-M "C C"
_symmetry_group_IT_number 9
_symmetry_cell_setting 'monoclinic'
loop_
_space_group_symop_operation_xyz
x,y,z
x,-y,1/2+z
1/2+x,1/2+y,z
1/2+x,1/2-y,1/2+z
loop_
_atom_site_type_symbol
_atom_site_label
_atom_site_fract_x
_atom_site_fract_y
_atom_site_fract_z
Si Si1 0.562090 0.721123 0.963640
Si Si2 0.682731 0.345695 0.621174
Si Si3 0.945057 0.007517 0.404999
Si Si4 0.149885 0.417906 0.731407
Si Si5 0.632053 0.899278 0.083145
Si Si6 0.053534 0.832104 0.183505
Si Si7 0.014840 0.325097 0.631586
Si Si8 0.158689 0.053069 0.489935
O O1 0.568684 0.674426 0.844774
O O2 0.769893 0.760205 0.727065
O O3 0.658105 0.703883 0.041695
O O4 0.842941 0.337590 0.634820
O O5 0.868411 0.381539 0.372728
O O6 0.391545 0.364984 0.889931
O O7 0.715329 0.047808 0.586029
O O8 0.159073 0.038419 0.320932
O O9 0.898808 0.952898 0.516796
O O10 0.981794 0.988839 0.210935
O O11 0.125029 0.373049 0.634497
O O12 0.101426 0.401457 0.934600
O O13 0.922332 0.453137 0.858811
O O14 0.789762 0.804896 0.352757
O O15 0.072513 0.889133 0.099843
O O16 0.306176 0.803651 0.914690
#
# Coordination Sequence:
#
# PCOD9139969 Si02
#       8
#     4   4   4   4   4   4   4   4
#     4  12  27  51  83 112 141 184 245 316 386 471
#     4  12  26  48  74 109 146 189 242 303 387 451
#     4  12  25  41  62 102 145 203 254 304 341 417
#     4  11  25  40  62  96 142 196 256 302 350 409
#     4  12  27  43  72 101 148 202 249 301 364 436
#     4  11  23  47  72 105 146 191 244 294 377 442
#     4  11  22  43  74 103 146 193 232 296 357 447
#     4  11  25  41  63  94 148 196 248 308 352 427
#
# _framework density 25.309801
#
# number of rings (size 3 to 8) (size 9 to 14) (size 15 to 20)
#    0.000    0.500    2.500    6.750    5.250    0.000 
#    0.000    3.750    0.000    0.000    0.000    0.000 
#    0.000    0.000    0.000    0.000    0.000    0.000 
#
# Total GULP energy -89357.457293 kJ/mol
# GULP energy per Si atom -5584.841081 kJ/mol
# Density = 2.525219 g / cm^3
# Si number density = 25.309801 Si / 1000 Ang^3
#
#
#
# Elastic Constant Matrix: (Units=GPa)
#
#
# Indices 1 2 3 4 5 6 
#
# 1 150.4386 32.3234 16.1855 0.0000 13.3925 0.0000
# 2 32.3234 82.7592 20.7245 0.0000 0.5704 0.0000
# 3 16.1855 20.7245 103.4157 0.0000 -13.9806 0.0000
# 4 0.0000 0.0000 0.0000 25.4134 0.0000 3.7396
# 5 13.3925 0.5704 -13.9806 0.0000 52.4025 0.0000
# 6 0.0000 0.0000 0.0000 3.7396 0.0000 13.4662
#
#
#
# Elastic Compliance Matrix: (Units=1/GPa)
#
#
# Indices 1 2 3 4 5 6 
#
# 1 0.007515 -0.002688 -0.000927 0.000000 -0.002139 0.000000
# 2 -0.002688 0.013720 -0.002340 0.000000 -0.000087 0.000000
# 3 -0.000927 -0.002340 0.010705 0.000000 0.003118 0.000000
# 4 0.000000 0.000000 0.000000 0.041026 0.000000 -0.011393
# 5 -0.002139 -0.000087 0.003118 0.000000 0.020463 0.000000
# 6 0.000000 0.000000 0.000000 -0.011393 0.000000 0.077424
#
#
# Mechanical properties :
#
#
# Convention : Reuss Voigt Hill
#
# Bulk Modulus (GPa) = 49.92626 52.78671 51.35648
# Shear Modulus (GPa) = 26.39367 36.08176 31.23771
#
# Velocity S-wave (km/s) = 3.23278 3.77981 3.51695
# Velocity P-wave (km/s) = 5.80546 6.32067 6.06853
#
# Compressibility (1/GPa) = 0.02002954
#
# Stress axis : x y z
#
# Youngs Moduli (GPa) = 133.06884 72.88669 93.41157
#
# Poissons Ratio (x) = 0.19595 0.08655
# Poissons Ratio (y) = 0.35774 0.21862
# Poissons Ratio (z) = 0.12329 0.17059
#
# Static dielectric constant tensor:
#      x y z
#    x 1.960400 0.000000 -0.073420 
#    y 0.000000 2.047770 0.000000 
#    z -0.073420 0.000000 2.226690 
# 
# From -- ./inp_files/6442.got.cif
#   From: 2010.05.17/outbox.cif.g08.bks.cpg/sg9_4_cif.got.tgz:6442.got - 2010.06.03 20:04:27.
