data_PCOD9139414
_publ_section_title
;
Structure prediction by ZEFSAII (Michael W. Deem and Ramdas Pophale) SiO2 
 PCOD9139414
Probable space group: C C
;
_chemical_formula_sum "Si O2"
_cell_formula_units_Z 32
_cell_length_a 16.392057
_cell_length_b 4.962807
_cell_length_c 14.498339
_cell_angle_alpha 90.000000
_cell_angle_beta 85.530177
_cell_angle_gamma 90.000000
_cell_volume 1175.861526
_symmetry_space_group_name_H-M "C C"
_symmetry_group_IT_number 9
_symmetry_cell_setting 'monoclinic'
loop_
_space_group_symop_operation_xyz
x,y,z
x,-y,1/2+z
1/2+x,1/2+y,z
1/2+x,1/2-y,1/2+z
loop_
_atom_site_type_symbol
_atom_site_label
_atom_site_fract_x
_atom_site_fract_y
_atom_site_fract_z
Si Si1 0.507490 0.929059 0.018130
Si Si2 0.847917 0.058427 0.742879
Si Si3 0.344917 0.784174 0.552048
Si Si4 0.629340 0.335121 0.934996
Si Si5 0.682370 0.553936 0.626337
Si Si6 0.497559 0.663087 0.838343
Si Si7 0.793139 0.421427 0.352473
Si Si8 0.588531 0.075425 0.698059
O O1 0.440899 0.157885 0.042297
O O2 0.528107 0.844180 0.119709
O O3 0.590889 0.046811 0.964696
O O4 0.463039 0.758797 0.941317
O O5 0.839883 0.063441 0.633651
O O6 0.843505 0.361601 0.787271
O O7 0.937310 0.993988 0.778040
O O8 0.784721 0.840717 0.789028
O O9 0.277248 0.997387 0.596810
O O10 0.322439 0.781762 0.445748
O O11 0.567271 0.469084 0.870563
O O12 0.718248 0.386656 0.887300
O O13 0.636207 0.486503 0.032237
O O14 0.651536 0.845707 0.657425
O O15 0.647299 0.334688 0.700609
O O16 0.536986 0.914974 0.779775
#
# Coordination Sequence:
#
# PCOD9139414 Si02
#       8
#     4   4   4   4   4   4   4   4
#     4  11  23  49  68 106 145 187 237 303 363 437
#     4  12  28  47  74 110 144 201 245 298 379 444
#     4  11  25  49  73 107 151 193 240 310 369 445
#     4  10  25  44  73 101 140 190 237 298 362 422
#     4  10  25  46  70 102 141 186 236 292 365 424
#     4  12  25  43  73 103 142 189 241 296 363 431
#     4  11  28  49  74 106 151 190 251 306 366 444
#     4  11  25  45  69 105 138 184 239 293 353 431
#
# _framework density 27.214089999999999
#
# number of rings (size 3 to 8) (size 9 to 14) (size 15 to 20)
#    0.000    1.000    3.750    0.750    7.000    4.000 
#    4.500    0.000    0.000    0.000    0.000    0.000 
#    0.000    0.000    0.000    0.000    0.000    0.000 
#
# Total GULP energy -89378.466670 kJ/mol
# GULP energy per Si atom -5586.154167 kJ/mol
# Density = 2.715215 g / cm^3
# Si number density = 27.214090 Si / 1000 Ang^3
#
#
#
# Elastic Constant Matrix: (Units=GPa)
#
#
# Indices 1 2 3 4 5 6 
#
# 1 56.9133 -0.6088 27.0512 0.0000 11.7147 0.0000
# 2 -0.6088 96.2283 34.0353 0.0000 -4.0459 0.0000
# 3 27.0512 34.0353 167.5778 0.0000 5.7452 0.0000
# 4 0.0000 0.0000 0.0000 44.1362 0.0000 -4.5387
# 5 11.7147 -4.0459 5.7452 0.0000 37.7237 0.0000
# 6 0.0000 0.0000 0.0000 -4.5387 0.0000 20.8765
#
#
#
# Elastic Compliance Matrix: (Units=1/GPa)
#
#
# Indices 1 2 3 4 5 6 
#
# 1 0.020323 0.001056 -0.003300 0.000000 -0.005695 0.000000
# 2 0.001056 0.011343 -0.002518 0.000000 0.001272 0.000000
# 3 -0.003300 -0.002518 0.007022 0.000000 -0.000315 0.000000
# 4 0.000000 0.000000 0.000000 0.023175 0.000000 0.005038
# 5 -0.005695 0.001272 -0.000315 0.000000 0.028461 0.000000
# 6 0.000000 0.000000 0.000000 0.005038 0.000000 0.048996
#
#
# Mechanical properties :
#
#
# Convention : Reuss Voigt Hill
#
# Bulk Modulus (GPa) = 34.28812 49.07496 41.68154
# Shear Modulus (GPa) = 31.53289 37.89674 34.71481
#
# Velocity S-wave (km/s) = 3.40766 3.73572 3.57546
# Velocity P-wave (km/s) = 5.30185 6.05637 5.69162
#
# Compressibility (1/GPa) = 0.02916462
#
# Stress axis : x y z
#
# Youngs Moduli (GPa) = 49.20642 88.16279 142.40519
#
# Poissons Ratio (x) = -0.09312 0.46991
# Poissons Ratio (y) = -0.05197 0.35855
# Poissons Ratio (z) = 0.16237 0.22198
#
# Static dielectric constant tensor:
#      x y z
#    x 2.203290 0.000000 0.032220 
#    y 0.000000 2.183410 0.000000 
#    z 0.032220 0.000000 2.175020 
# 
# From -- ./inp_files/26372.got.cif
#   From: 2010.05.17/outbox.cif.g08.bks.cpg/sg9_14_cif.got.tgz:26372.got - 2010.06.03 20:04:27.
