data_PCOD9139063
_publ_section_title
;
Structure prediction by ZEFSAII (Michael W. Deem and Ramdas Pophale) SiO2 
 PCOD9139063
Probable space group: C C
;
_chemical_formula_sum "Si O2"
_cell_formula_units_Z 28
_cell_length_a 18.250806
_cell_length_b 9.652912
_cell_length_c 10.764740
_cell_angle_alpha 90.000000
_cell_angle_beta 134.116834
_cell_angle_gamma 90.000000
_cell_volume 1361.510774
_symmetry_space_group_name_H-M "C C"
_symmetry_group_IT_number 9
_symmetry_cell_setting 'monoclinic'
loop_
_space_group_symop_operation_xyz
x,y,z
x,-y,1/2+z
1/2+x,1/2+y,z
1/2+x,1/2-y,1/2+z
loop_
_atom_site_type_symbol
_atom_site_label
_atom_site_fract_x
_atom_site_fract_y
_atom_site_fract_z
Si Si1 0.106740 0.077459 0.561100
Si Si2 0.487168 0.213549 0.072005
Si Si3 0.151721 0.586959 0.427970
Si Si4 0.547703 0.266555 0.513848
Si Si5 0.153936 0.266527 0.402335
Si Si6 0.350005 0.778207 0.655856
Si Si7 0.315785 0.088243 0.703046
O O1 0.042810 0.144681 0.596481
O O2 0.087283 0.177560 0.420997
O O3 0.230296 0.084013 0.713047
O O4 0.078363 0.919679 0.504670
O O5 0.578419 0.113718 0.223588
O O6 0.414263 0.235716 0.104617
O O7 0.419570 0.145181 0.883764
O O8 0.092064 0.650890 0.474298
O O9 0.167674 0.424179 0.459701
O O10 0.254199 0.676472 0.537108
O O11 0.599104 0.244219 0.706693
O O12 0.425921 0.259390 0.359027
O O13 0.263880 0.191409 0.542187
O O14 0.321835 0.937775 0.648540
#
# Coordination Sequence:
#
# PCOD9139063 Si02
#       7
#     4   4   4   4   4   4   4
#     4  10  25  45  71 102 143 184 240 288 359 418
#     4  11  25  41  76  96 144 184 244 288 355 423
#     4  11  24  46  66 106 139 182 234 302 355 413
#     4  11  25  46  71 101 143 186 237 296 352 429
#     4  10  26  43  72  97 141 180 236 288 355 424
#     4  11  25  43  72 102 140 189 235 294 360 420
#     4  10  24  44  68 104 138 191 232 288 356 429
#
# _framework density 20.565389
#
# number of rings (size 3 to 8) (size 9 to 14) (size 15 to 20)
#    0.857    0.571    1.429    1.714   16.000    0.000 
#    2.571    0.000    0.000    0.000    0.000    0.000 
#    0.000    0.000    0.000    0.000    0.000    0.000 
#
# Total GULP energy -78152.455440 kJ/mol
# GULP energy per Si atom -5582.318246 kJ/mol
# Density = 2.051858 g / cm^3
# Si number density = 20.565389 Si / 1000 Ang^3
#
#
#
# Elastic Constant Matrix: (Units=GPa)
#
#
# Indices 1 2 3 4 5 6 
#
# 1 70.1683 21.4457 41.8596 0.0000 7.5315 0.0000
# 2 21.4457 137.2901 62.9040 0.0000 6.0529 0.0000
# 3 41.8596 62.9040 126.0333 0.0000 6.1914 0.0000
# 4 0.0000 0.0000 0.0000 16.1317 0.0000 2.6829
# 5 7.5315 6.0529 6.1914 0.0000 28.4279 0.0000
# 6 0.0000 0.0000 0.0000 2.6829 0.0000 33.3805
#
#
#
# Elastic Compliance Matrix: (Units=1/GPa)
#
#
# Indices 1 2 3 4 5 6 
#
# 1 0.018116 0.000004 -0.005846 0.000000 -0.003527 0.000000
# 2 0.000004 0.009471 -0.004679 0.000000 -0.000999 0.000000
# 3 -0.005846 -0.004679 0.012217 0.000000 -0.000116 0.000000
# 4 0.000000 0.000000 0.000000 0.062830 0.000000 -0.005050
# 5 -0.003527 -0.000999 -0.000116 0.000000 0.036349 0.000000
# 6 0.000000 0.000000 0.000000 -0.005050 0.000000 0.030363
#
#
# Mechanical properties :
#
#
# Convention : Reuss Voigt Hill
#
# Bulk Modulus (GPa) = 53.29812 65.10114 59.19963
# Shear Modulus (GPa) = 25.42679 29.40685 27.41682
#
# Velocity S-wave (km/s) = 3.52004 3.78553 3.65520
# Velocity P-wave (km/s) = 6.51871 7.12961 6.83100
#
# Compressibility (1/GPa) = 0.01876239
#
# Stress axis : x y z
#
# Youngs Moduli (GPa) = 55.19950 105.58218 81.85201
#
# Poissons Ratio (x) = -0.00043 0.47848
# Poissons Ratio (y) = -0.00022 0.38302
# Poissons Ratio (z) = 0.32268 0.49407
#
# Static dielectric constant tensor:
#      x y z
#    x 1.759520 0.000000 -0.003730 
#    y 0.000000 1.704470 0.000000 
#    z -0.003730 0.000000 1.752140 
# 
# From -- ./inp_files/17688.got.cif
#   From: 2010.05.17/outbox.cif.g08.bks.cpg/sg9_9_cif.got.tgz:17688.got - 2010.06.03 20:04:27.
