data_PCOD9139897
_publ_section_title
;
Structure prediction by ZEFSAII (Michael W. Deem and Ramdas Pophale) SiO2 
 PCOD9139897
Probable space group: C C
;
_chemical_formula_sum "Si O2"
_cell_formula_units_Z 32
_cell_length_a 6.643031
_cell_length_b 21.036566
_cell_length_c 11.811455
_cell_angle_alpha 90.000000
_cell_angle_beta 119.381921
_cell_angle_gamma 90.000000
_cell_volume 1438.290014
_symmetry_space_group_name_H-M "C C"
_symmetry_group_IT_number 9
_symmetry_cell_setting 'monoclinic'
loop_
_space_group_symop_operation_xyz
x,y,z
x,-y,1/2+z
1/2+x,1/2+y,z
1/2+x,1/2-y,1/2+z
loop_
_atom_site_type_symbol
_atom_site_label
_atom_site_fract_x
_atom_site_fract_y
_atom_site_fract_z
Si Si1 0.675180 0.974352 0.072280
Si Si2 0.189137 0.070866 0.717090
Si Si3 0.734944 0.214432 0.746091
Si Si4 0.727022 0.339820 0.427796
Si Si5 0.067494 0.526039 0.295445
Si Si6 0.351431 0.136948 0.536242
Si Si7 0.982250 0.663581 0.217876
Si Si8 0.443856 0.728936 0.354402
O O1 0.451656 0.927775 0.010768
O O2 0.915800 0.936803 0.146921
O O3 0.660020 0.010355 0.192164
O O4 0.682906 0.001753 0.944113
O O5 0.280640 0.104744 0.854741
O O6 0.267354 0.115574 0.636601
O O7 0.312223 0.003765 0.730385
O O8 0.572784 0.183977 0.605136
O O9 0.567114 0.223107 0.804566
O O10 0.954911 0.172806 0.840509
O O11 0.836815 0.283106 0.742555
O O12 0.853167 0.272691 0.432544
O O13 0.817159 0.360071 0.573440
O O14 0.067016 0.601988 0.307792
O O15 0.132125 0.174439 0.428168
O O16 0.213843 0.698238 0.238743
#
# Coordination Sequence:
#
# PCOD9139897 Si02
#       8
#     4   4   4   4   4   4   4   4
#     4  11  25  46  73  99 142 184 240 291 350 415
#     4  11  24  45  70  94 140 183 234 292 347 417
#     4  11  22  40  65 100 132 178 228 288 357 417
#     4  11  23  40  65  99 136 177 232 289 351 416
#     4  11  26  46  68 105 134 188 240 284 350 417
#     4  11  22  41  68 100 132 185 228 284 357 421
#     4  11  25  41  63 101 138 176 232 291 344 417
#     4  11  23  39  66  96 138 175 226 287 354 414
#
# _framework density 22.248642
#
# number of rings (size 3 to 8) (size 9 to 14) (size 15 to 20)
#    0.000    1.000    2.500    3.750    1.750    7.000 
#    0.000    0.000    0.000    0.000    0.000    0.000 
#    0.000    0.000    0.000    0.000    0.000    0.000 
#
# Total GULP energy -89263.109556 kJ/mol
# GULP energy per Si atom -5578.944347 kJ/mol
# Density = 2.219800 g / cm^3
# Si number density = 22.248642 Si / 1000 Ang^3
#
#
#
# Elastic Constant Matrix: (Units=GPa)
#
#
# Indices 1 2 3 4 5 6 
#
# 1 99.9491 23.0044 25.5962 0.0000 6.9286 0.0000
# 2 23.0044 47.1345 -2.9169 0.0000 2.5971 0.0000
# 3 25.5962 -2.9169 96.9880 0.0000 -7.4496 0.0000
# 4 0.0000 0.0000 0.0000 20.7438 0.0000 11.1609
# 5 6.9286 2.5971 -7.4496 0.0000 37.4136 0.0000
# 6 0.0000 0.0000 0.0000 11.1609 0.0000 19.8232
#
#
#
# Elastic Compliance Matrix: (Units=1/GPa)
#
#
# Indices 1 2 3 4 5 6 
#
# 1 0.012568 -0.006218 -0.003706 0.000000 -0.002634 0.000000
# 2 -0.006218 0.024401 0.002369 0.000000 -0.000071 0.000000
# 3 -0.003706 0.002369 0.011577 0.000000 0.002827 0.000000
# 4 0.000000 0.000000 0.000000 0.069157 0.000000 -0.038937
# 5 -0.002634 -0.000071 0.002827 0.000000 0.027784 0.000000
# 6 0.000000 0.000000 0.000000 -0.038937 0.000000 0.072368
#
#
# Mechanical properties :
#
#
# Convention : Reuss Voigt Hill
#
# Bulk Modulus (GPa) = 29.90728 37.27100 33.58914
# Shear Modulus (GPa) = 20.48259 28.82196 24.65228
#
# Velocity S-wave (km/s) = 3.03747 3.60314 3.33233
# Velocity P-wave (km/s) = 5.07672 5.83940 5.47136
#
# Compressibility (1/GPa) = 0.03343668
#
# Stress axis : x y z
#
# Youngs Moduli (GPa) = 79.56751 40.98157 86.37776
#
# Poissons Ratio (x) = 0.25483 0.32013
# Poissons Ratio (y) = 0.49476 -0.20467
# Poissons Ratio (z) = 0.29489 -0.09711
#
# Static dielectric constant tensor:
#      x y z
#    x 1.782940 0.000000 -0.040590 
#    y 0.000000 1.838840 0.000000 
#    z -0.040590 0.000000 1.885840 
# 
# From -- ./inp_files/13379.got.cif
#   From: 2010.05.17/outbox.cif.g08.bks.cpg/sg9_7_cif.got.tgz:13379.got - 2010.06.03 20:04:27.
