data_PCOD9139959
_publ_section_title
;
Structure prediction by ZEFSAII (Michael W. Deem and Ramdas Pophale) SiO2 
 PCOD9139959
Probable space group: C C
;
_chemical_formula_sum "Si O2"
_cell_formula_units_Z 32
_cell_length_a 20.638988
_cell_length_b 7.663976
_cell_length_c 9.748116
_cell_angle_alpha 90.000000
_cell_angle_beta 91.259048
_cell_angle_gamma 90.000000
_cell_volume 1541.552637
_symmetry_space_group_name_H-M "C C"
_symmetry_group_IT_number 9
_symmetry_cell_setting 'monoclinic'
loop_
_space_group_symop_operation_xyz
x,y,z
x,-y,1/2+z
1/2+x,1/2+y,z
1/2+x,1/2-y,1/2+z
loop_
_atom_site_type_symbol
_atom_site_label
_atom_site_fract_x
_atom_site_fract_y
_atom_site_fract_z
Si Si1 0.482870 0.199933 0.863690
Si Si2 0.200412 0.213623 0.027916
Si Si3 0.218970 0.828753 0.027681
Si Si4 0.129831 0.291682 0.292564
Si Si5 0.979178 0.658984 0.194055
Si Si6 0.394318 0.517436 0.752393
Si Si7 0.127886 0.299207 0.762556
Si Si8 0.807899 0.984489 0.498593
O O1 0.558169 0.251909 0.841722
O O2 0.438396 0.357860 0.807218
O O3 0.471190 0.029034 0.767333
O O4 0.473017 0.157835 0.026329
O O5 0.161877 0.194121 0.884555
O O6 0.233336 0.028614 0.060140
O O7 0.144634 0.251648 0.135849
O O8 0.253712 0.367209 0.023792
O O9 0.185721 0.803107 0.879170
O O10 0.165953 0.750644 0.128351
O O11 0.279658 0.702845 0.035778
O O12 0.137659 0.499680 0.306467
O O13 0.931333 0.798910 0.260202
O O14 0.052053 0.722431 0.232767
O O15 0.371148 0.506089 0.594704
O O16 0.329926 0.513476 0.842384
#
# Coordination Sequence:
#
# PCOD9139959 Si02
#       8
#     4   4   4   4   4   4   4   4
#     4  11  27  46  73 110 140 188 240 297 362 425
#     4  12  26  41  71 107 139 186 236 291 360 424
#     4  12  24  43  71 103 137 188 234 293 354 424
#     4  11  22  43  70 104 149 174 225 302 362 422
#     4  11  27  46  73 110 140 188 240 297 362 425
#     4  12  28  48  76  94 150 198 240 292 348 436
#     4  11  22  43  70 104 149 174 225 302 362 422
#     4  12  26  48  68 102 146 192 240 294 350 428
#
# _framework density 20.758292000000001
#
# number of rings (size 3 to 8) (size 9 to 14) (size 15 to 20)
#    0.000    0.500    5.000    2.250   10.500    2.000 
#    0.000    0.000    0.000    0.000    0.000    0.000 
#    0.000    0.000    0.000    0.000    0.000    0.000 
#
# Total GULP energy -89434.336393 kJ/mol
# GULP energy per Si atom -5589.646025 kJ/mol
# Density = 2.071105 g / cm^3
# Si number density = 20.758292 Si / 1000 Ang^3
#
#
#
# Elastic Constant Matrix: (Units=GPa)
#
#
# Indices 1 2 3 4 5 6 
#
# 1 49.1301 35.8458 14.6948 0.0000 -4.9436 0.0000
# 2 35.8458 57.9494 23.1392 0.0000 -16.4138 0.0000
# 3 14.6948 23.1392 48.4944 0.0000 7.3709 0.0000
# 4 0.0000 0.0000 0.0000 6.6460 0.0000 17.5937
# 5 -4.9436 -16.4138 7.3709 0.0000 33.7602 0.0000
# 6 0.0000 0.0000 0.0000 17.5937 0.0000 -9.0816
#
#
#
# Elastic Compliance Matrix: (Units=1/GPa)
#
#
# Indices 1 2 3 4 5 6 
#
# 1 0.038628 -0.027190 0.002501 0.000000 -0.008109 0.000000
# 2 -0.027190 0.047925 -0.018168 0.000000 0.023286 0.000000
# 3 0.002501 -0.018168 0.030842 0.000000 -0.015200 0.000000
# 4 0.000000 0.000000 0.000000 0.024552 0.000000 0.047564
# 5 -0.008109 0.023286 -0.015200 0.000000 0.043073 0.000000
# 6 0.000000 0.000000 0.000000 0.047564 0.000000 -0.017967
#
#
# Mechanical properties :
#
#
# Convention : Reuss Voigt Hill
#
# Bulk Modulus (GPa) = 31.56318 33.65928 32.61123
# Shear Modulus (GPa) = 18.98787 11.72454 15.35621
#
# Velocity S-wave (km/s) = 3.02770 2.37916 2.72281
# Velocity P-wave (km/s) = 5.24030 4.87824 5.06251
#
# Compressibility (1/GPa) = 0.03168249
#
# Stress axis : x y z
#
# Youngs Moduli (GPa) = 25.88802 20.86597 32.42310
#
# Poissons Ratio (x) = 0.56734 -0.08109
# Poissons Ratio (y) = 0.70388 0.58905
# Poissons Ratio (z) = -0.06474 0.37909
#
# Static dielectric constant tensor:
#      x y z
#    x 1.714520 0.000000 0.022880 
#    y 0.000000 1.755200 0.000000 
#    z 0.022880 0.000000 1.759090 
# 
# From -- ./inp_files/11233.got.cif
#   From: 2010.05.17/outbox.cif.g08.bks.cpg/sg9_6_cif.got.tgz:11233.got - 2010.06.03 20:04:27.
