data_PCOD9139734
_publ_section_title
;
Structure prediction by ZEFSAII (Michael W. Deem and Ramdas Pophale) SiO2 
 PCOD9139734
Probable space group: C C
;
_chemical_formula_sum "Si O2"
_cell_formula_units_Z 32
_cell_length_a 13.974391
_cell_length_b 5.669493
_cell_length_c 17.926413
_cell_angle_alpha 90.000000
_cell_angle_beta 70.755056
_cell_angle_gamma 90.000000
_cell_volume 1340.901387
_symmetry_space_group_name_H-M "C C"
_symmetry_group_IT_number 9
_symmetry_cell_setting 'monoclinic'
loop_
_space_group_symop_operation_xyz
x,y,z
x,-y,1/2+z
1/2+x,1/2+y,z
1/2+x,1/2-y,1/2+z
loop_
_atom_site_type_symbol
_atom_site_label
_atom_site_fract_x
_atom_site_fract_y
_atom_site_fract_z
Si Si1 0.735250 0.400130 0.902760
Si Si2 0.543018 0.566347 0.025992
Si Si3 0.997715 0.950070 0.779940
Si Si4 0.556050 0.066347 0.108502
Si Si5 0.601353 0.950069 0.354553
Si Si6 0.863818 0.400129 0.231734
Si Si7 0.917693 0.245804 0.938325
Si Si8 0.681375 0.754198 0.696168
O O1 0.683211 0.159937 0.888484
O O2 0.799534 0.500001 0.817247
O O3 0.808136 0.356662 0.954337
O O4 0.642041 0.568345 0.947077
O O5 0.550669 0.307947 0.062256
O O6 0.548399 0.807947 0.072238
O O7 0.441710 0.577629 0.001328
O O8 0.915858 0.840063 0.746010
O O9 0.049534 0.750001 0.817247
O O10 0.943351 0.119502 0.853152
O O11 0.092786 0.060935 0.713021
O O12 0.657358 0.077628 0.133165
O O13 0.457027 0.068344 0.187416
O O14 0.506282 0.060934 0.421473
O O15 0.655717 0.119500 0.281341
O O16 0.790932 0.356660 0.180156
#
# Coordination Sequence:
#
# PCOD9139734 Si02
#       8
#     4   4   4   4   4   4   4   4
#     4  12  24  46  80 112 138 195 253 309 374 444
#     4  12  29  52  73 106 159 204 247 307 377 450
#     4  11  20  42  72 113 149 176 240 323 372 426
#     4  12  29  52  73 106 159 204 247 307 377 450
#     4  11  20  42  72 113 149 176 240 323 372 426
#     4  12  24  46  80 112 138 195 253 309 374 444
#     4  11  24  44  72 107 150 196 243 309 376 441
#     4  11  24  44  72 107 150 196 243 309 376 441
#
# _framework density 23.864542
#
# number of rings (size 3 to 8) (size 9 to 14) (size 15 to 20)
#    0.000    0.500    5.000    3.750    0.000    3.000 
#    0.000    7.500    0.000    0.000    0.000    0.000 
#    0.000    0.000    0.000    0.000    0.000    0.000 
#
# Total GULP energy -89556.369018 kJ/mol
# GULP energy per Si atom -5597.273064 kJ/mol
# Density = 2.381023 g / cm^3
# Si number density = 23.864542 Si / 1000 Ang^3
#
#
#
# Elastic Constant Matrix: (Units=GPa)
#
#
# Indices 1 2 3 4 5 6 
#
# 1 162.9683 36.7406 21.3141 0.0001 25.9141 0.0001
# 2 36.7406 95.8579 29.3037 0.0004 6.6796 0.0001
# 3 21.3141 29.3037 75.1316 0.0001 6.8048 0.0000
# 4 0.0001 0.0004 0.0001 40.6351 0.0001 9.3391
# 5 25.9141 6.6796 6.8048 0.0001 38.0371 0.0001
# 6 0.0001 0.0001 0.0000 9.3391 0.0001 50.3747
#
#
#
# Elastic Compliance Matrix: (Units=1/GPa)
#
#
# Indices 1 2 3 4 5 6 
#
# 1 0.007485 -0.002303 -0.000813 0.000000 -0.004550 0.000000
# 2 -0.002303 0.012614 -0.004277 0.000000 0.000119 0.000000
# 3 -0.000813 -0.004277 0.015339 0.000000 -0.001439 0.000000
# 4 0.000000 0.000000 0.000000 0.025704 0.000000 -0.004765
# 5 -0.004550 0.000119 -0.001439 0.000000 0.029626 0.000000
# 6 0.000000 0.000000 0.000000 -0.004765 0.000000 0.020735
#
#
# Mechanical properties :
#
#
# Convention : Reuss Voigt Hill
#
# Bulk Modulus (GPa) = 48.42312 56.51938 52.47125
# Shear Modulus (GPa) = 37.54449 42.24934 39.89692
#
# Velocity S-wave (km/s) = 3.97070 4.21215 4.09321
# Velocity P-wave (km/s) = 6.43093 6.88412 6.66138
#
# Compressibility (1/GPa) = 0.02065129
#
# Stress axis : x y z
#
# Youngs Moduli (GPa) = 133.59630 79.27572 65.19220
#
# Poissons Ratio (x) = 0.18260 0.05300
# Poissons Ratio (y) = 0.30772 0.27885
# Poissons Ratio (z) = 0.10862 0.33909
#
# Static dielectric constant tensor:
#      x y z
#    x 1.885880 0.000000 0.004430 
#    y 0.000000 1.945680 0.000000 
#    z 0.004430 0.000000 1.990100 
# 
# From -- ./inp_files/30460.got.cif
#   From: 2010.05.17/outbox.cif.g08.bks.cpg/sg9_16_cif.got.tgz:30460.got - 2010.06.03 20:04:27.
