data_PCOD9139582
_publ_section_title
;
Structure prediction by ZEFSAII (Michael W. Deem and Ramdas Pophale) SiO2 
 PCOD9139582
Probable space group: C C
;
_chemical_formula_sum "Si O2"
_cell_formula_units_Z 24
_cell_length_a 20.108348
_cell_length_b 5.503677
_cell_length_c 18.604082
_cell_angle_alpha 90.000000
_cell_angle_beta 27.148055
_cell_angle_gamma 90.000000
_cell_volume 939.463355
_symmetry_space_group_name_H-M "C C"
_symmetry_group_IT_number 9
_symmetry_cell_setting 'monoclinic'
loop_
_space_group_symop_operation_xyz
x,y,z
x,-y,1/2+z
1/2+x,1/2+y,z
1/2+x,1/2-y,1/2+z
loop_
_atom_site_type_symbol
_atom_site_label
_atom_site_fract_x
_atom_site_fract_y
_atom_site_fract_z
Si Si1 0.760780 0.100885 0.536020
Si Si2 0.429328 0.545308 0.236029
Si Si3 0.913524 0.416894 0.136544
Si Si4 0.691604 0.395668 0.136822
Si Si5 0.423612 0.617538 0.991578
Si Si6 0.663718 0.252594 0.921959
O O1 0.894249 0.053844 0.353829
O O2 0.697752 0.364415 0.583284
O O3 0.659819 0.862717 0.628673
O O4 0.819654 0.094751 0.561665
O O5 0.439547 0.812678 0.191527
O O6 0.564706 0.394510 0.075148
O O7 0.282532 0.421912 0.344649
O O8 0.915295 0.187783 0.081808
O O9 0.761167 0.556943 0.284066
O O10 0.047520 0.593787 0.989117
O O11 0.582036 0.424556 0.308104
O O12 0.851167 0.341959 0.017001
#
# Coordination Sequence:
#
# PCOD9139582 Si02
#       6
#     4   4   4   4   4   4
#     4  10  27  45  76 107 150 191 252 297 380 440
#     4  11  25  44  75 106 149 191 251 308 376 442
#     4  11  25  49  70 113 144 199 247 311 379 446
#     4  10  26  47  72 106 143 197 244 309 368 443
#     4  10  27  45  75 102 152 191 249 308 370 443
#     4  10  26  44  74 106 146 193 247 313 371 450
#
# _framework density 25.546496000000001
#
# number of rings (size 3 to 8) (size 9 to 14) (size 15 to 20)
#    1.000    0.667    0.000    1.000   14.000    5.333 
#    0.000    0.000    0.000    0.000    0.000    0.000 
#    0.000    0.000    0.000    0.000    0.000    0.000 
#
# Total GULP energy -67116.956014 kJ/mol
# GULP energy per Si atom -5593.079668 kJ/mol
# Density = 2.548835 g / cm^3
# Si number density = 25.546496 Si / 1000 Ang^3
#
#
#
# Elastic Constant Matrix: (Units=GPa)
#
#
# Indices 1 2 3 4 5 6 
#
# 1 70.2757 7.1998 23.1206 -0.0038 6.3522 0.0000
# 2 7.1998 113.6114 31.7799 -0.0167 -5.4233 0.0070
# 3 23.1206 31.7799 152.8308 -0.0108 -14.2128 0.0068
# 4 -0.0038 -0.0167 -0.0108 36.3669 0.0052 -1.7419
# 5 6.3522 -5.4233 -14.2128 0.0052 32.1147 -0.0018
# 6 0.0000 0.0070 0.0068 -1.7419 -0.0018 25.9449
#
#
#
# Elastic Compliance Matrix: (Units=1/GPa)
#
#
# Indices 1 2 3 4 5 6 
#
# 1 0.015542 -0.000447 -0.002661 0.000001 -0.004327 0.000001
# 2 -0.000447 0.009376 -0.001801 0.000004 0.000875 -0.000002
# 3 -0.002661 -0.001801 0.007656 0.000001 0.003610 -0.000001
# 4 0.000001 0.000004 0.000001 0.027586 -0.000004 0.001852
# 5 -0.004327 0.000875 0.003610 -0.000004 0.033740 0.000001
# 6 0.000001 -0.000002 -0.000001 0.001852 0.000001 0.038668
#
#
# Mechanical properties :
#
#
# Convention : Reuss Voigt Hill
#
# Bulk Modulus (GPa) = 43.94325 51.21315 47.57820
# Shear Modulus (GPa) = 33.34006 37.19314 35.26660
#
# Velocity S-wave (km/s) = 3.61650 3.81977 3.71952
# Velocity P-wave (km/s) = 5.88875 6.28846 6.09188
#
# Compressibility (1/GPa) = 0.02275662
#
# Stress axis : x y z
#
# Youngs Moduli (GPa) = 64.34189 106.65865 130.61888
#
# Poissons Ratio (x) = 0.04770 0.34753
# Poissons Ratio (y) = 0.02878 0.23519
# Poissons Ratio (z) = 0.17119 0.19205
#
# Static dielectric constant tensor:
#      x y z
#    x 2.026900 0.000000 -0.032680 
#    y 0.000000 2.014770 0.000000 
#    z -0.032680 0.000000 1.913630 
# 
# From -- ./inp_files/11132.got.cif
#   From: 2010.05.17/outbox.cif.g08.bks.cpg/sg9_6_cif.got.tgz:11132.got - 2010.06.03 20:04:27.
