data_PCOD9139304
_publ_section_title
;
Structure prediction by ZEFSAII (Michael W. Deem and Ramdas Pophale) SiO2 
 PCOD9139304
Probable space group: C C
;
_chemical_formula_sum "Si O2"
_cell_formula_units_Z 32
_cell_length_a 20.737328
_cell_length_b 13.266160
_cell_length_c 8.628897
_cell_angle_alpha 90.000000
_cell_angle_beta 148.176507
_cell_angle_gamma 90.000000
_cell_volume 1251.741268
_symmetry_space_group_name_H-M "C C"
_symmetry_group_IT_number 9
_symmetry_cell_setting 'monoclinic'
loop_
_space_group_symop_operation_xyz
x,y,z
x,-y,1/2+z
1/2+x,1/2+y,z
1/2+x,1/2-y,1/2+z
loop_
_atom_site_type_symbol
_atom_site_label
_atom_site_fract_x
_atom_site_fract_y
_atom_site_fract_z
Si Si1 0.963190 0.010177 0.901850
Si Si2 0.935567 0.795949 0.567041
Si Si3 0.081574 0.478004 0.226262
Si Si4 0.701368 0.782780 0.305450
Si Si5 0.717601 0.704693 0.675592
Si Si6 0.597635 0.390332 0.408874
Si Si7 0.835173 0.400476 0.688761
Si Si8 0.223514 0.583135 0.307381
O O1 0.838609 0.009970 0.551450
O O2 0.068226 0.037684 0.994227
O O3 0.943077 0.105194 0.974863
O O4 0.993999 0.914658 0.069951
O O5 0.827669 0.796921 0.471771
O O6 0.906007 0.698606 0.400300
O O7 0.072206 0.790439 0.915628
O O8 0.139301 0.384881 0.243558
O O9 0.156095 0.577813 0.333432
O O10 0.119570 0.451059 0.476506
O O11 0.938639 0.485096 0.905623
O O12 0.725217 0.712107 0.505795
O O13 0.611516 0.720721 0.007823
O O14 0.769714 0.809511 0.848282
O O15 0.785059 0.621171 0.914603
O O16 0.722402 0.416659 0.574270
#
# Coordination Sequence:
#
# PCOD9139304 Si02
#       8
#     4   4   4   4   4   4   4   4
#     4  12  25  47  72 112 149 185 255 312 366 443
#     4  11  23  47  70 104 146 190 249 302 367 447
#     4  11  25  48  69 106 146 188 242 302 372 446
#     4  10  24  48  74 102 145 197 244 302 376 438
#     4  11  23  48  74 106 142 199 249 304 366 452
#     4  11  27  43  73 105 148 193 240 308 372 434
#     4  11  24  48  74 103 151 197 246 301 372 453
#     4  11  25  43  74 104 145 189 239 309 365 431
#
# _framework density 25.564388000000001
#
# number of rings (size 3 to 8) (size 9 to 14) (size 15 to 20)
#    0.000    1.000    5.000    0.750    5.250    3.000 
#    4.500    0.000    0.000    0.000    0.000    0.000 
#    0.000    0.000    0.000    0.000    0.000    0.000 
#
# Total GULP energy -89622.410626 kJ/mol
# GULP energy per Si atom -5601.400664 kJ/mol
# Density = 2.550620 g / cm^3
# Si number density = 25.564388 Si / 1000 Ang^3
#
#
#
# Elastic Constant Matrix: (Units=GPa)
#
#
# Indices 1 2 3 4 5 6 
#
# 1 129.1927 21.2852 29.1464 0.0000 12.0360 0.0000
# 2 21.2852 49.3695 35.6438 0.0000 -10.4130 0.0000
# 3 29.1464 35.6438 142.5364 0.0000 5.0849 0.0000
# 4 0.0000 0.0000 0.0000 40.3836 0.0000 -13.7707
# 5 12.0360 -10.4130 5.0849 0.0000 33.4399 0.0000
# 6 0.0000 0.0000 0.0000 -13.7707 0.0000 41.9249
#
#
#
# Elastic Compliance Matrix: (Units=1/GPa)
#
#
# Indices 1 2 3 4 5 6 
#
# 1 0.009023 -0.004433 -0.000575 0.000000 -0.004541 0.000000
# 2 -0.004433 0.029688 -0.006942 0.000000 0.011896 0.000000
# 3 -0.000575 -0.006942 0.008988 0.000000 -0.003322 0.000000
# 4 0.000000 0.000000 0.000000 0.027886 0.000000 0.009159
# 5 -0.004541 0.011896 -0.003322 0.000000 0.035748 0.000000
# 6 0.000000 0.000000 0.000000 0.009159 0.000000 0.026861
#
#
# Mechanical properties :
#
#
# Convention : Reuss Voigt Hill
#
# Bulk Modulus (GPa) = 42.01771 54.80548 48.41159
# Shear Modulus (GPa) = 29.40726 38.81789 34.11257
#
# Velocity S-wave (km/s) = 3.39532 3.90094 3.65688
# Velocity P-wave (km/s) = 5.64293 6.46332 6.06701
#
# Compressibility (1/GPa) = 0.02379949
#
# Stress axis : x y z
#
# Youngs Moduli (GPa) = 110.82213 33.68398 111.26401
#
# Poissons Ratio (x) = 0.14933 0.06392
# Poissons Ratio (y) = 0.49132 0.77237
# Poissons Ratio (z) = 0.06367 0.23383
#
# Static dielectric constant tensor:
#      x y z
#    x 1.983190 0.000000 0.003630 
#    y 0.000000 2.061340 0.000000 
#    z 0.003630 0.000000 2.015400 
# 
# From -- ./inp_files/11794.got.cif
#   From: 2010.05.17/outbox.cif.g08.bks.cpg/sg9_6_cif.got.tgz:11794.got - 2010.06.03 20:04:27.
