data_PCOD9139849
_publ_section_title
;
Structure prediction by ZEFSAII (Michael W. Deem and Ramdas Pophale) SiO2 
 PCOD9139849
Probable space group: C C
;
_chemical_formula_sum "Si O2"
_cell_formula_units_Z 20
_cell_length_a 8.776693
_cell_length_b 12.828585
_cell_length_c 9.593523
_cell_angle_alpha 90.000000
_cell_angle_beta 47.569133
_cell_angle_gamma 90.000000
_cell_volume 797.256856
_symmetry_space_group_name_H-M "C C"
_symmetry_group_IT_number 9
_symmetry_cell_setting 'monoclinic'
loop_
_space_group_symop_operation_xyz
x,y,z
x,-y,1/2+z
1/2+x,1/2+y,z
1/2+x,1/2-y,1/2+z
loop_
_atom_site_type_symbol
_atom_site_label
_atom_site_fract_x
_atom_site_fract_y
_atom_site_fract_z
Si Si1 0.481470 0.843720 0.151580
Si Si2 0.693823 0.179421 0.241189
Si Si3 0.294510 0.466214 0.124953
Si Si4 0.594219 0.842940 0.484376
Si Si5 0.131613 0.157656 0.258380
O O1 0.259829 0.792092 0.258123
O O2 0.571296 0.939825 0.186825
O O3 0.585166 0.742671 0.165786
O O4 0.552026 0.863132 0.951088
O O5 0.607288 0.177675 0.139911
O O6 0.855084 0.084286 0.122692
O O7 0.262613 0.409704 0.294258
O O8 0.454913 0.423009 0.910909
O O9 0.362276 0.883087 0.594911
O O10 0.623753 0.730327 0.398833
#
# Coordination Sequence:
#
# PCOD9139849 Si02
#       5
#     4   4   4   4   4
#     4  11  22  45  73  99 144 195 233 303 370 424
#     4  12  25  44  71 108 145 181 250 316 351 434
#     4  11  24  47  71 102 147 194 244 295 372 450
#     4  11  22  41  70 100 138 188 238 300 367 430
#     4  11  21  45  71  95 144 196 233 294 380 432
#
# _framework density 25.086017999999999
#
# number of rings (size 3 to 8) (size 9 to 14) (size 15 to 20)
#    0.000    0.800    6.000    3.600    0.000    0.000 
#   10.800    0.000    0.000    0.000    0.000    0.000 
#    0.000    0.000    0.000    0.000    0.000    0.000 
#
# Total GULP energy -55679.408402 kJ/mol
# GULP energy per Si atom -5567.940840 kJ/mol
# Density = 2.502892 g / cm^3
# Si number density = 25.086018 Si / 1000 Ang^3
#
#
#
# Elastic Constant Matrix: (Units=GPa)
#
#
# Indices 1 2 3 4 5 6 
#
# 1 66.0465 6.2140 41.5100 -0.0001 25.9408 0.0003
# 2 6.2140 68.9120 22.9970 0.0002 -11.3449 0.0000
# 3 41.5100 22.9970 147.5545 -0.0003 25.0645 0.0005
# 4 -0.0001 0.0002 -0.0003 46.2197 0.0003 3.0136
# 5 25.9408 -11.3449 25.0645 0.0003 58.1063 -0.0003
# 6 0.0003 0.0000 0.0005 3.0136 -0.0003 31.9065
#
#
#
# Elastic Compliance Matrix: (Units=1/GPa)
#
#
# Indices 1 2 3 4 5 6 
#
# 1 0.021134 -0.001765 -0.004326 0.000000 -0.007913 0.000000
# 2 -0.001765 0.016539 -0.002982 0.000000 0.005303 0.000000
# 3 -0.004326 -0.002982 0.008880 0.000000 -0.002482 0.000000
# 4 0.000000 0.000000 0.000000 0.021770 0.000000 -0.002056
# 5 -0.007913 0.005303 -0.002482 0.000000 0.022849 0.000000
# 6 0.000000 0.000000 0.000000 -0.002056 0.000000 0.031536
#
#
# Mechanical properties :
#
#
# Convention : Reuss Voigt Hill
#
# Bulk Modulus (GPa) = 35.20233 47.10612 41.15422
# Shear Modulus (GPa) = 33.26191 41.36598 37.31394
#
# Velocity S-wave (km/s) = 3.64526 4.06515 3.86092
# Velocity P-wave (km/s) = 5.63741 6.39160 6.02631
#
# Compressibility (1/GPa) = 0.02840721
#
# Stress axis : x y z
#
# Youngs Moduli (GPa) = 47.31712 60.46466 112.60676
#
# Poissons Ratio (x) = 0.10671 0.48715
# Poissons Ratio (y) = 0.08351 0.33579
# Poissons Ratio (z) = 0.20470 0.18030
#
# Static dielectric constant tensor:
#      x y z
#    x 2.163530 0.000000 -0.068160 
#    y 0.000000 1.964160 0.000000 
#    z -0.068160 0.000000 1.978980 
# 
# From -- ./inp_files/4651.got.cif
#   From: 2010.05.17/outbox.cif.g08.bks.cpg/sg9_3_cif.got.tgz:4651.got - 2010.06.03 20:04:27.
