data_PCOD9139049
_publ_section_title
;
Structure prediction by ZEFSAII (Michael W. Deem and Ramdas Pophale) SiO2 
 PCOD9139049
Probable space group: C C
;
_chemical_formula_sum "Si O2"
_cell_formula_units_Z 32
_cell_length_a 12.348009
_cell_length_b 12.534587
_cell_length_c 9.273952
_cell_angle_alpha 90.000000
_cell_angle_beta 75.320398
_cell_angle_gamma 90.000000
_cell_volume 1388.542101
_symmetry_space_group_name_H-M "C C"
_symmetry_group_IT_number 9
_symmetry_cell_setting 'monoclinic'
loop_
_space_group_symop_operation_xyz
x,y,z
x,-y,1/2+z
1/2+x,1/2+y,z
1/2+x,1/2-y,1/2+z
loop_
_atom_site_type_symbol
_atom_site_label
_atom_site_fract_x
_atom_site_fract_y
_atom_site_fract_z
Si Si1 0.366030 0.108845 0.577070
Si Si2 0.834827 0.847151 0.525556
Si Si3 0.736704 0.475559 0.841581
Si Si4 0.071157 0.172675 0.930160
Si Si5 0.621478 0.097594 0.395260
Si Si6 0.047050 0.825120 0.783706
Si Si7 0.676317 0.870174 0.319781
Si Si8 0.833813 0.086745 0.533932
O O1 0.337303 0.234559 0.608569
O O2 0.332364 0.028717 0.713659
O O3 0.497500 0.094648 0.503870
O O4 0.291892 0.074345 0.464246
O O5 0.725366 0.854651 0.463168
O O6 0.951056 0.842289 0.395293
O O7 0.849485 0.965518 0.588294
O O8 0.659085 0.390054 0.787388
O O9 0.652429 0.573514 0.895153
O O10 0.042908 0.179820 0.111465
O O11 0.124005 0.279480 0.845260
O O12 0.728283 0.088489 0.462561
O O13 0.635903 0.990433 0.298749
O O14 0.072503 0.706105 0.827574
O O15 0.941882 0.873666 0.907836
O O16 0.783354 0.844718 0.181924
#
# Coordination Sequence:
#
# PCOD9139049 Si02
#       8
#     4   4   4   4   4   4   4   4
#     4  11  26  46  71 105 151 187 242 297 362 438
#     4  10  24  44  67 102 141 184 235 299 348 433
#     4  12  25  44  74 107 144 195 236 300 363 430
#     4  11  24  45  69 106 142 186 244 287 369 424
#     4  10  26  44  66 106 137 187 233 300 351 434
#     4  12  25  46  73 105 145 186 243 303 366 436
#     4  11  25  47  68 104 144 185 239 290 385 413
#     4  11  25  44  74 101 140 188 242 298 360 436
#
# _framework density 23.045756000000001
#
# number of rings (size 3 to 8) (size 9 to 14) (size 15 to 20)
#    0.000    1.000    5.000    0.000    7.000    4.000 
#    0.000    0.000    0.000    0.000    0.000    0.000 
#    0.000    0.000    0.000    0.000    0.000    0.000 
#
# Total GULP energy -89283.744842 kJ/mol
# GULP energy per Si atom -5580.234053 kJ/mol
# Density = 2.299330 g / cm^3
# Si number density = 23.045756 Si / 1000 Ang^3
#
#
#
# Elastic Constant Matrix: (Units=GPa)
#
#
# Indices 1 2 3 4 5 6 
#
# 1 60.6362 30.6554 -12.3180 0.0000 -17.4243 0.0000
# 2 30.6554 139.1496 21.8771 0.0000 -13.4522 0.0000
# 3 -12.3180 21.8771 39.8449 0.0000 -23.7994 0.0000
# 4 0.0000 0.0000 0.0000 15.8407 0.0000 -12.5552
# 5 -17.4243 -13.4522 -23.7994 0.0000 35.3139 0.0000
# 6 0.0000 0.0000 0.0000 -12.5552 0.0000 44.1462
#
#
#
# Elastic Compliance Matrix: (Units=1/GPa)
#
#
# Indices 1 2 3 4 5 6 
#
# 1 0.058924 -0.017134 0.068776 0.000000 0.068898 0.000000
# 2 -0.017134 0.012848 -0.024232 0.000000 -0.019890 0.000000
# 3 0.068776 -0.024232 0.124561 0.000000 0.108651 0.000000
# 4 0.000000 0.000000 0.000000 0.081499 0.000000 0.023178
# 5 0.068898 -0.019890 0.108651 0.000000 0.127959 0.000000
# 6 0.000000 0.000000 0.000000 0.023178 0.000000 0.029244
#
#
# Mechanical properties :
#
#
# Convention : Reuss Voigt Hill
#
# Bulk Modulus (GPa) = 3.98160 35.56219 19.77190
# Shear Modulus (GPa) = 10.77746 32.35460 21.56603
#
# Velocity S-wave (km/s) = 2.16488 3.75097 3.06239
# Velocity P-wave (km/s) = 2.82496 5.85015 4.59373
#
# Compressibility (1/GPa) = 0.25115509
#
# Stress axis : x y z
#
# Youngs Moduli (GPa) = 16.97105 77.83347 8.02820
#
# Poissons Ratio (x) = 1.33357 -0.55215
# Poissons Ratio (y) = 0.29078 0.19454
# Poissons Ratio (z) = -1.16721 1.88602
#
# Static dielectric constant tensor:
#      x y z
#    x 1.843540 0.000000 -0.016400 
#    y 0.000000 1.918210 0.000000 
#    z -0.016400 0.000000 1.913380 
# 
# From -- ./inp_files/16501.got.cif
#   From: 2010.05.17/outbox.cif.g08.bks.cpg/sg9_9_cif.got.tgz:16501.got - 2010.06.03 20:04:27.
