data_PCOD9139870
_publ_section_title
;
Structure prediction by ZEFSAII (Michael W. Deem and Ramdas Pophale) SiO2 
 PCOD9139870
Probable space group: C C
;
_chemical_formula_sum "Si O2"
_cell_formula_units_Z 32
_cell_length_a 6.196916
_cell_length_b 14.599601
_cell_length_c 16.195825
_cell_angle_alpha 90.000000
_cell_angle_beta 117.557267
_cell_angle_gamma 90.000000
_cell_volume 1299.039491
_symmetry_space_group_name_H-M "C C"
_symmetry_group_IT_number 9
_symmetry_cell_setting 'monoclinic'
loop_
_space_group_symop_operation_xyz
x,y,z
x,-y,1/2+z
1/2+x,1/2+y,z
1/2+x,1/2-y,1/2+z
loop_
_atom_site_type_symbol
_atom_site_label
_atom_site_fract_x
_atom_site_fract_y
_atom_site_fract_z
Si Si1 0.786730 0.186501 0.138800
Si Si2 0.631777 0.868638 0.927720
Si Si3 0.827197 0.218618 0.967890
Si Si4 0.414814 0.576540 0.766961
Si Si5 0.482714 0.484359 0.461735
Si Si6 0.289588 0.765039 0.316159
Si Si7 0.487753 0.994881 0.615773
Si Si8 0.234619 0.068740 0.237216
O O1 0.721425 0.238236 0.211019
O O2 0.639423 0.090853 0.106855
O O3 0.068843 0.158077 0.197685
O O4 0.749323 0.239957 0.047737
O O5 0.516490 0.793240 0.967337
O O6 0.765046 0.818762 0.874761
O O7 0.406218 0.918814 0.845575
O O8 0.818972 0.947182 0.987384
O O9 0.574458 0.207154 0.871765
O O10 0.954576 0.119081 0.989883
O O11 0.396024 0.523510 0.851183
O O12 0.584084 0.664128 0.810607
O O13 0.152860 0.579439 0.676414
O O14 0.565688 0.515537 0.730100
O O15 0.761909 0.515788 0.516849
O O16 0.376812 0.953951 0.680253
#
# Coordination Sequence:
#
# PCOD9139870 Si02
#       8
#     4   4   4   4   4   4   4   4
#     4  11  24  46  75 105 155 203 251 325 386 471
#     4  12  25  48  78 111 152 201 257 321 392 470
#     4  12  27  47  77 115 153 203 259 326 399 467
#     4  11  25  45  78 110 151 203 259 320 389 470
#     4  12  25  50  77 106 158 204 259 325 392 479
#     4  12  25  48  73 114 155 199 255 324 394 463
#     4  11  24  48  75 107 147 211 259 310 397 467
#     4  11  21  48  75 100 145 204 251 309 391 461
#
# _framework density 24.633585
#
# number of rings (size 3 to 8) (size 9 to 14) (size 15 to 20)
#    0.000    0.500    6.250    2.250    0.000    0.000 
#    2.250    2.500    0.000    0.000    0.000    0.000 
#    0.000    0.000    0.000    0.000    0.000    0.000 
#
# Total GULP energy -89602.138189 kJ/mol
# GULP energy per Si atom -5600.133637 kJ/mol
# Density = 2.457752 g / cm^3
# Si number density = 24.633585 Si / 1000 Ang^3
#
#
#
# Elastic Constant Matrix: (Units=GPa)
#
#
# Indices 1 2 3 4 5 6 
#
# 1 89.0216 38.1855 31.7924 0.0000 -1.2341 0.0000
# 2 38.1855 87.1143 22.8156 0.0000 1.8775 0.0000
# 3 31.7924 22.8156 115.1287 0.0000 8.8178 0.0000
# 4 0.0000 0.0000 0.0000 24.0463 0.0000 0.3023
# 5 -1.2341 1.8775 8.8178 0.0000 62.6221 0.0000
# 6 0.0000 0.0000 0.0000 0.3023 0.0000 50.1351
#
#
#
# Elastic Compliance Matrix: (Units=1/GPa)
#
#
# Indices 1 2 3 4 5 6 
#
# 1 0.014769 -0.005703 -0.003016 0.000000 0.000887 0.000000
# 2 -0.005703 0.014310 -0.001233 0.000000 -0.000368 0.000000
# 3 -0.003016 -0.001233 0.009871 0.000000 -0.001412 0.000000
# 4 0.000000 0.000000 0.000000 0.041590 0.000000 -0.000251
# 5 0.000887 -0.000368 -0.001412 0.000000 0.016196 0.000000
# 6 0.000000 0.000000 0.000000 -0.000251 0.000000 0.019948
#
#
# Mechanical properties :
#
#
# Convention : Reuss Voigt Hill
#
# Bulk Modulus (GPa) = 52.50374 52.98350 52.74362
# Shear Modulus (GPa) = 34.98069 40.59211 37.78640
#
# Velocity S-wave (km/s) = 3.77243 4.06376 3.92080
# Velocity P-wave (km/s) = 6.35099 6.60107 6.47724
#
# Compressibility (1/GPa) = 0.01904626
#
# Stress axis : x y z
#
# Youngs Moduli (GPa) = 67.70971 69.88217 101.30361
#
# Poissons Ratio (x) = 0.39853 0.30554
# Poissons Ratio (y) = 0.38615 0.12489
# Poissons Ratio (z) = 0.20422 0.08615
#
# Static dielectric constant tensor:
#      x y z
#    x 2.014360 0.000000 0.044910 
#    y 0.000000 1.995390 0.000000 
#    z 0.044910 0.000000 1.970390 
# 
# From -- ./inp_files/28729.got.cif
#   From: 2010.05.17/outbox.cif.g08.bks.cpg/sg9_15_cif.got.tgz:28729.got - 2010.06.03 20:04:27.
