data_PCOD9139393
_publ_section_title
;
Structure prediction by ZEFSAII (Michael W. Deem and Ramdas Pophale) SiO2 
 PCOD9139393
Probable space group: C C
;
_chemical_formula_sum "Si O2"
_cell_formula_units_Z 32
_cell_length_a 18.783515
_cell_length_b 9.504378
_cell_length_c 13.387125
_cell_angle_alpha 90.000000
_cell_angle_beta 149.564505
_cell_angle_gamma 90.000000
_cell_volume 1210.669594
_symmetry_space_group_name_H-M "C C"
_symmetry_group_IT_number 9
_symmetry_cell_setting 'monoclinic'
loop_
_space_group_symop_operation_xyz
x,y,z
x,-y,1/2+z
1/2+x,1/2+y,z
1/2+x,1/2-y,1/2+z
loop_
_atom_site_type_symbol
_atom_site_label
_atom_site_fract_x
_atom_site_fract_y
_atom_site_fract_z
Si Si1 0.816660 0.706851 0.115600
Si Si2 0.924801 0.541873 0.035478
Si Si3 0.180293 0.598886 0.958840
Si Si4 0.976878 0.562659 0.863384
Si Si5 0.655037 0.622800 0.300472
Si Si6 0.483350 0.382310 0.867149
Si Si7 0.030532 0.164710 0.660531
Si Si8 0.106628 0.162229 0.024036
O O1 0.871609 0.544629 0.183122
O O2 0.964351 0.786289 0.299755
O O3 0.683520 0.724176 0.880076
O O4 0.739318 0.727178 0.129535
O O5 0.065185 0.476768 0.252120
O O6 0.923941 0.709343 0.061306
O O7 0.947819 0.543608 0.944196
O O8 0.790190 0.452138 0.908814
O O9 0.177803 0.760272 0.913314
O O10 0.136123 0.546181 0.017540
O O11 0.340976 0.553217 0.151119
O O12 0.969840 0.722373 0.814883
O O13 0.550990 0.499811 0.214945
O O14 0.591462 0.693564 0.123063
O O15 0.607473 0.493709 0.004389
O O16 0.496026 0.355161 0.001687
#
# Coordination Sequence:
#
# PCOD9139393 Si02
#       8
#     4   4   4   4   4   4   4   4
#     4  12  25  49  74 113 153 203 262 332 396 474
#     4  11  24  49  74 111 156 208 263 330 400 478
#     4  12  25  47  76 113 157 208 267 324 404 480
#     4  11  26  46  78 107 153 207 262 333 392 476
#     4  11  25  50  72 110 155 205 262 334 402 474
#     4  10  25  47  68 113 153 202 258 328 393 474
#     4  10  25  43  74 106 153 208 255 321 391 478
#     4  11  27  47  78 109 154 203 265 330 398 478
#
# _framework density 26.431654999999999
#
# number of rings (size 3 to 8) (size 9 to 14) (size 15 to 20)
#    0.000    1.000    1.250    3.750    8.750    3.000 
#    2.250    0.000    0.000    0.000    0.000    0.000 
#    0.000    0.000    0.000    0.000    0.000    0.000 
#
# Total GULP energy -89211.502129 kJ/mol
# GULP energy per Si atom -5575.718883 kJ/mol
# Density = 2.637150 g / cm^3
# Si number density = 26.431655 Si / 1000 Ang^3
#
#
#
# Elastic Constant Matrix: (Units=GPa)
#
#
# Indices 1 2 3 4 5 6 
#
# 1 112.7503 45.4065 35.9185 0.0000 4.3656 0.0000
# 2 45.4065 85.0234 10.7006 0.0000 7.7940 0.0000
# 3 35.9185 10.7006 97.6587 0.0000 -3.9807 0.0000
# 4 0.0000 0.0000 0.0000 33.9661 0.0000 6.3507
# 5 4.3656 7.7940 -3.9807 0.0000 42.4833 0.0000
# 6 0.0000 0.0000 0.0000 6.3507 0.0000 23.3793
#
#
#
# Elastic Compliance Matrix: (Units=1/GPa)
#
#
# Indices 1 2 3 4 5 6 
#
# 1 0.012666 -0.006211 -0.004000 0.000000 -0.000537 0.000000
# 2 -0.006211 0.015204 0.000533 0.000000 -0.002101 0.000000
# 3 -0.004000 0.000533 0.011710 0.000000 0.001410 0.000000
# 4 0.000000 0.000000 0.000000 0.031016 0.000000 -0.008425
# 5 -0.000537 -0.002101 0.001410 0.000000 0.024111 0.000000
# 6 0.000000 0.000000 0.000000 -0.008425 0.000000 0.045061
#
#
# Mechanical properties :
#
#
# Convention : Reuss Voigt Hill
#
# Bulk Modulus (GPa) = 49.44760 53.27596 51.36178
# Shear Modulus (GPa) = 30.14476 33.52618 31.83547
#
# Velocity S-wave (km/s) = 3.38076 3.56534 3.47428
# Velocity P-wave (km/s) = 5.82990 6.09498 5.96391
#
# Compressibility (1/GPa) = 0.02022343
#
# Stress axis : x y z
#
# Youngs Moduli (GPa) = 78.95445 65.77130 85.39793
#
# Poissons Ratio (x) = 0.40853 0.34156
# Poissons Ratio (y) = 0.49042 -0.04551
# Poissons Ratio (z) = 0.31579 -0.03505
#
# Static dielectric constant tensor:
#      x y z
#    x 2.260180 0.000000 -0.003600 
#    y 0.000000 2.218060 0.000000 
#    z -0.003600 0.000000 2.039930 
# 
# From -- ./inp_files/27362.got.cif
#   From: 2010.05.17/outbox.cif.g08.bks.cpg/sg9_14_cif.got.tgz:27362.got - 2010.06.03 20:04:27.
