data_PCOD9139879
_publ_section_title
;
Structure prediction by ZEFSAII (Michael W. Deem and Ramdas Pophale) SiO2 
 PCOD9139879
Probable space group: C C
;
_chemical_formula_sum "Si O2"
_cell_formula_units_Z 28
_cell_length_a 28.552244
_cell_length_b 4.461118
_cell_length_c 8.047792
_cell_angle_alpha 90.000000
_cell_angle_beta 110.269059
_cell_angle_gamma 90.000000
_cell_volume 961.609611
_symmetry_space_group_name_H-M "C C"
_symmetry_group_IT_number 9
_symmetry_cell_setting 'monoclinic'
loop_
_space_group_symop_operation_xyz
x,y,z
x,-y,1/2+z
1/2+x,1/2+y,z
1/2+x,1/2-y,1/2+z
loop_
_atom_site_type_symbol
_atom_site_label
_atom_site_fract_x
_atom_site_fract_y
_atom_site_fract_z
Si Si1 0.275430 0.819853 0.521890
Si Si2 0.347589 0.796260 0.346172
Si Si3 0.489089 0.203740 0.488046
Si Si4 0.061248 0.680147 0.312328
Si Si5 0.705517 0.263811 0.711249
Si Si6 0.631161 0.763811 0.622969
Si Si7 0.918339 0.700575 0.667109
O O1 0.308987 0.645036 0.427438
O O2 0.239527 0.644474 0.602505
O O3 0.313150 0.995481 0.688843
O O4 0.240914 0.055144 0.380067
O O5 0.382752 0.628721 0.255079
O O6 0.383268 0.995910 0.507524
O O7 0.523528 0.995482 0.645375
O O8 0.453926 0.371279 0.579139
O O9 0.527691 0.354964 0.406779
O O10 0.453410 0.004090 0.326693
O O11 0.095764 0.444856 0.454151
O O12 0.097151 0.855526 0.231712
O O13 0.665156 0.502010 0.593458
O O14 0.671522 0.002010 0.740760
#
# Coordination Sequence:
#
# PCOD9139879 Si02
#       7
#     4   4   4   4   4   4   4
#     4   9  18  31  48  74 112 144 186 227 272 321
#     4   8  14  25  44  74 112 144 180 227 272 330
#     4   8  14  25  44  74 112 144 180 227 272 330
#     4   9  18  31  48  74 112 144 186 227 272 321
#     4  11  22  37  56  79 112 149 186 227 272 321
#     4  11  22  37  56  79 112 149 186 227 272 321
#     4   8  12  22  44  74 112 144 180 220 280 330
#
# _framework density 29.117846
#
# number of rings (size 3 to 8) (size 9 to 14) (size 15 to 20)
#    0.000    2.857    0.000    1.714    0.000    0.000 
#    0.000    0.000    0.000    0.000    0.000    0.000 
#    0.000 2112.000    0.000    0.000    0.000  264.000 
#
# Total GULP energy -78456.714503 kJ/mol
# GULP energy per Si atom -5604.051036 kJ/mol
# Density = 2.905157 g / cm^3
# Si number density = 29.117846 Si / 1000 Ang^3
#
#
#
# Elastic Constant Matrix: (Units=GPa)
#
#
# Indices 1 2 3 4 5 6 
#
# 1 249.8813 36.2476 79.8576 0.0000 -69.9325 0.0000
# 2 36.2476 68.6765 48.2022 0.0000 21.3144 0.0000
# 3 79.8576 48.2022 218.3970 0.0000 44.8265 0.0000
# 4 0.0000 0.0000 0.0000 69.3458 0.0000 44.6763
# 5 -69.9325 21.3144 44.8265 0.0000 95.4056 0.0000
# 6 0.0000 0.0000 0.0000 44.6763 0.0000 19.7284
#
#
#
# Elastic Compliance Matrix: (Units=1/GPa)
#
#
# Indices 1 2 3 4 5 6 
#
# 1 0.008456 -0.004497 -0.003960 0.000000 0.009064 0.000000
# 2 -0.004497 0.020083 -0.001318 0.000000 -0.007164 0.000000
# 3 -0.003960 -0.001318 0.007584 0.000000 -0.006172 0.000000
# 4 0.000000 0.000000 0.000000 -0.031420 0.000000 0.071153
# 5 0.009064 -0.007164 -0.006172 0.000000 0.021626 0.000000
# 6 0.000000 0.000000 0.000000 0.071153 0.000000 -0.110443
#
#
# Mechanical properties :
#
#
# Convention : Reuss Voigt Hill
#
# Bulk Modulus (GPa) = 60.33455 96.17441 78.25448
# Shear Modulus (GPa) = -84.68782 61.73911 -11.47436
#
# Velocity S-wave (km/s) = -5.39886 4.60969 -1.98726
# Velocity P-wave (km/s) = 4.25414 7.83794 4.65487
#
# Compressibility (1/GPa) = 0.01657425
#
# Stress axis : x y z
#
# Youngs Moduli (GPa) = 118.25419 49.79400 131.84965
#
# Poissons Ratio (x) = 0.22392 0.52212
# Poissons Ratio (y) = 0.53178 0.17374
# Poissons Ratio (z) = 0.46828 0.06562
#
# Static dielectric constant tensor:
#      x y z
#    x 2.274890 0.000000 -0.009950 
#    y 0.000000 2.115880 0.000000 
#    z -0.009950 0.000000 2.166950 
# 
# From -- ./inp_files/4121.got.cif
#   From: 2010.05.17/outbox.cif.g08.bks.cpg/sg9_3_cif.got.tgz:4121.got - 2010.06.03 20:04:27.
