data_PCOD9139003
_publ_section_title
;
Structure prediction by ZEFSAII (Michael W. Deem and Ramdas Pophale) SiO2 
 PCOD9139003
Probable space group: C C
;
_chemical_formula_sum "Si O2"
_cell_formula_units_Z 32
_cell_length_a 11.948492
_cell_length_b 7.530359
_cell_length_c 23.898512
_cell_angle_alpha 90.000000
_cell_angle_beta 147.104697
_cell_angle_gamma 90.000000
_cell_volume 1167.841581
_symmetry_space_group_name_H-M "C C"
_symmetry_group_IT_number 9
_symmetry_cell_setting 'monoclinic'
loop_
_space_group_symop_operation_xyz
x,y,z
x,-y,1/2+z
1/2+x,1/2+y,z
1/2+x,1/2-y,1/2+z
loop_
_atom_site_type_symbol
_atom_site_label
_atom_site_fract_x
_atom_site_fract_y
_atom_site_fract_z
Si Si1 0.147390 0.214525 0.201740
Si Si2 0.019689 0.108427 0.320098
Si Si3 0.167975 0.522567 0.883268
Si Si4 0.954751 0.911436 0.401612
Si Si5 0.328964 0.299726 0.166529
Si Si6 0.870315 0.333883 0.466673
Si Si7 0.214050 0.561489 0.034946
Si Si8 0.444383 0.900914 0.616407
O O1 0.338971 0.241138 0.324249
O O2 0.227928 0.179526 0.172647
O O3 0.960475 0.093899 0.143608
O O4 0.037844 0.405568 0.153925
O O5 0.011556 0.316369 0.301824
O O6 0.252492 0.024796 0.417719
O O7 0.925329 0.064463 0.341434
O O8 0.905005 0.975375 0.230379
O O9 0.353033 0.564545 0.918698
O O10 0.182556 0.308017 0.885035
O O11 0.188799 0.555444 0.958110
O O12 0.198052 0.916262 0.510231
O O13 0.177891 0.385408 0.056649
O O14 0.486792 0.193601 0.193155
O O15 0.986969 0.305880 0.575118
O O16 0.041640 0.314056 0.490708
#
# Coordination Sequence:
#
# PCOD9139003 Si02
#       8
#     4   4   4   4   4   4   4   4
#     4  11  24  45  72  98 147 185 233 309 359 431
#     4  10  25  45  70 102 144 191 235 304 368 421
#     4  12  23  42  70 102 142 189 237 295 358 435
#     4  10  24  43  71 103 136 191 241 287 367 427
#     4  11  24  46  70 101 143 184 241 303 364 426
#     4  11  24  42  70 107 141 185 248 290 362 445
#     4  12  24  43  70 107 139 191 240 294 369 432
#     4  11  22  44  71 102 140 186 239 302 359 431
#
# _framework density 27.400976
#
# number of rings (size 3 to 8) (size 9 to 14) (size 15 to 20)
#    0.000    1.000    2.500    4.500    3.500    0.000 
#    0.000    0.000    2.750    0.000    0.000    0.000 
#    0.000    0.000    0.000    0.000    0.000    0.000 
#
# Total GULP energy -89430.644567 kJ/mol
# GULP energy per Si atom -5589.415285 kJ/mol
# Density = 2.733861 g / cm^3
# Si number density = 27.400976 Si / 1000 Ang^3
#
#
#
# Elastic Constant Matrix: (Units=GPa)
#
#
# Indices 1 2 3 4 5 6 
#
# 1 257.0052 34.7935 65.0726 0.0000 -21.2801 0.0000
# 2 34.7935 108.3196 2.9314 0.0000 -3.1685 0.0000
# 3 65.0726 2.9314 75.2904 0.0001 -5.4608 0.0000
# 4 0.0000 0.0000 0.0001 35.2430 0.0000 5.7656
# 5 -21.2801 -3.1685 -5.4608 0.0000 57.4350 0.0000
# 6 0.0000 0.0000 0.0000 5.7656 0.0000 46.5347
#
#
#
# Elastic Compliance Matrix: (Units=1/GPa)
#
#
# Indices 1 2 3 4 5 6 
#
# 1 0.005352 -0.001556 -0.004459 0.000000 0.001473 0.000000
# 2 -0.001556 0.009707 0.000970 0.000000 0.000051 0.000000
# 3 -0.004459 0.000970 0.017100 0.000000 0.000027 0.000000
# 4 0.000000 0.000000 0.000000 0.028961 0.000000 -0.003588
# 5 0.001473 0.000051 0.000027 0.000000 0.017962 0.000000
# 6 0.000000 0.000000 0.000000 -0.003588 0.000000 0.021934
#
#
# Mechanical properties :
#
#
# Convention : Reuss Voigt Hill
#
# Bulk Modulus (GPa) = 45.30819 71.80114 58.55467
# Shear Modulus (GPa) = 42.20777 50.36373 46.28575
#
# Velocity S-wave (km/s) = 3.92902 4.29187 4.11445
# Velocity P-wave (km/s) = 6.09541 7.12888 6.63231
#
# Compressibility (1/GPa) = 0.02207106
#
# Stress axis : x y z
#
# Youngs Moduli (GPa) = 186.82986 103.02024 58.48065
#
# Poissons Ratio (x) = 0.16025 0.26074
# Poissons Ratio (y) = 0.29062 -0.05674
# Poissons Ratio (z) = 0.83301 -0.09995
#
# Static dielectric constant tensor:
#      x y z
#    x 2.140100 0.000000 -0.023530 
#    y 0.000000 2.269070 0.000000 
#    z -0.023530 0.000000 2.236150 
# 
# From -- ./inp_files/35332.got.cif
#   From: 2010.05.17/outbox.cif.g08.bks.cpg/sg9_18_cif.got.tgz:35332.got - 2010.06.03 20:04:27.
