data_PCOD9139048
_publ_section_title
;
Structure prediction by ZEFSAII (Michael W. Deem and Ramdas Pophale) SiO2 
 PCOD9139048
Probable space group: C C
;
_chemical_formula_sum "Si O2"
_cell_formula_units_Z 32
_cell_length_a 9.956013
_cell_length_b 25.036611
_cell_length_c 9.584120
_cell_angle_alpha 90.000000
_cell_angle_beta 142.131120
_cell_angle_gamma 90.000000
_cell_volume 1466.493402
_symmetry_space_group_name_H-M "C C"
_symmetry_group_IT_number 9
_symmetry_cell_setting 'monoclinic'
loop_
_space_group_symop_operation_xyz
x,y,z
x,-y,1/2+z
1/2+x,1/2+y,z
1/2+x,1/2-y,1/2+z
loop_
_atom_site_type_symbol
_atom_site_label
_atom_site_fract_x
_atom_site_fract_y
_atom_site_fract_z
Si Si1 0.804590 0.349304 0.565990
Si Si2 0.575605 0.438740 0.200340
Si Si3 0.502407 0.271183 0.463526
Si Si4 0.915417 0.521566 0.556210
Si Si5 0.599726 0.063900 0.426128
Si Si6 0.932181 0.800939 0.717466
Si Si7 0.476756 0.197648 0.942029
Si Si8 0.208291 0.885837 0.044677
O O1 0.735295 0.396067 0.403724
O O2 0.589852 0.324919 0.461868
O O3 0.972204 0.379343 0.807207
O O4 0.920849 0.305690 0.559609
O O5 0.687834 0.496385 0.311322
O O6 0.560388 0.421640 0.026338
O O7 0.351543 0.431499 0.096277
O O8 0.261792 0.255101 0.191585
O O9 0.424603 0.274151 0.560221
O O10 0.877010 0.574297 0.614555
O O11 0.059038 0.537269 0.541788
O O12 0.012409 0.477330 0.737938
O O13 0.712071 0.825786 0.599115
O O14 0.985553 0.755883 0.877674
O O15 0.089742 0.851290 0.830758
O O16 0.310074 0.161051 0.721273
#
# Coordination Sequence:
#
# PCOD9139048 Si02
#       8
#     4   4   4   4   4   4   4   4
#     4  10  26  43  67 102 138 186 243 295 369 434
#     4  10  24  44  67 101 136 178 238 295 360 446
#     4  12  27  45  70 105 149 194 248 305 368 442
#     4  11  24  43  67 101 135 179 231 295 360 445
#     4  11  24  43  70  98 139 180 236 297 369 444
#     4  12  23  42  70  97 139 185 235 294 359 435
#     4  11  23  42  66 100 135 181 236 292 357 438
#     4  11  23  42  69  98 141 179 233 293 364 434
#
# _framework density 21.82076
#
# number of rings (size 3 to 8) (size 9 to 14) (size 15 to 20)
#    0.000    1.000    3.750    1.500    5.250    2.000 
#    0.000    0.000    0.000    0.000    0.000    0.000 
#    0.000    0.000    0.000    0.000    0.000    0.000 
#
# Total GULP energy -89091.789148 kJ/mol
# GULP energy per Si atom -5568.236822 kJ/mol
# Density = 2.177109 g / cm^3
# Si number density = 21.820760 Si / 1000 Ang^3
#
#
#
# Elastic Constant Matrix: (Units=GPa)
#
#
# Indices 1 2 3 4 5 6 
#
# 1 123.4334 9.1556 -3.2700 0.0000 -13.2056 0.0000
# 2 9.1556 74.7748 38.1004 0.0000 -14.4928 0.0000
# 3 -3.2700 38.1004 46.1859 0.0000 -0.9408 0.0000
# 4 0.0000 0.0000 0.0000 -2.6570 0.0000 6.1402
# 5 -13.2056 -14.4928 -0.9408 0.0000 31.4503 0.0000
# 6 0.0000 0.0000 0.0000 6.1402 0.0000 28.5341
#
#
#
# Elastic Compliance Matrix: (Units=1/GPa)
#
#
# Indices 1 2 3 4 5 6 
#
# 1 0.008575 -0.001391 0.001816 0.000000 0.003014 0.000000
# 2 -0.001391 0.026993 -0.022138 0.000000 0.011193 0.000000
# 3 0.001816 -0.022138 0.039875 0.000000 -0.008246 0.000000
# 4 0.000000 0.000000 0.000000 -0.251365 0.000000 0.054091
# 5 0.003014 0.011193 -0.008246 0.000000 0.037973 0.000000
# 6 0.000000 0.000000 0.000000 0.054091 0.000000 0.023406
#
#
# Mechanical properties :
#
#
# Convention : Reuss Voigt Hill
#
# Bulk Modulus (GPa) = 31.23348 36.92956 34.08152
# Shear Modulus (GPa) = -82.72275 24.82602 -28.94837
#
# Velocity S-wave (km/s) = -6.16380 3.37668 -3.64626
# Velocity P-wave (km/s) = 6.02593 5.67128 1.44022
#
# Compressibility (1/GPa) = 0.03201693
#
# Stress axis : x y z
#
# Youngs Moduli (GPa) = 116.61415 37.04603 25.07837
#
# Poissons Ratio (x) = 0.05154 -0.04555
# Poissons Ratio (y) = 0.16224 0.55519
# Poissons Ratio (z) = -0.21180 0.82014
#
# Static dielectric constant tensor:
#      x y z
#    x 1.667670 0.000000 -0.049520 
#    y 0.000000 1.844040 0.000000 
#    z -0.049520 0.000000 1.839390 
# 
# From -- ./inp_files/6397.got.cif
#   From: 2010.05.17/outbox.cif.g08.bks.cpg/sg9_4_cif.got.tgz:6397.got - 2010.06.03 20:04:27.
