data_PCOD9139803
_publ_section_title
;
Structure prediction by ZEFSAII (Michael W. Deem and Ramdas Pophale) SiO2 
 PCOD9139803
Probable space group: C C
;
_chemical_formula_sum "Si O2"
_cell_formula_units_Z 32
_cell_length_a 13.689977
_cell_length_b 11.999301
_cell_length_c 9.044125
_cell_angle_alpha 90.000000
_cell_angle_beta 61.074393
_cell_angle_gamma 90.000000
_cell_volume 1300.338950
_symmetry_space_group_name_H-M "C C"
_symmetry_group_IT_number 9
_symmetry_cell_setting 'monoclinic'
loop_
_space_group_symop_operation_xyz
x,y,z
x,-y,1/2+z
1/2+x,1/2+y,z
1/2+x,1/2-y,1/2+z
loop_
_atom_site_type_symbol
_atom_site_label
_atom_site_fract_x
_atom_site_fract_y
_atom_site_fract_z
Si Si1 0.899590 0.956379 0.501270
Si Si2 0.356973 0.363227 0.223200
Si Si3 0.740713 0.466523 0.875534
Si Si4 0.729736 0.798644 0.727756
Si Si5 0.085527 0.820547 0.539365
Si Si6 0.623766 0.753304 0.331986
Si Si7 0.373394 0.908160 0.054671
Si Si8 0.519599 0.825069 0.695349
O O1 0.874157 0.949367 0.346911
O O2 0.784242 0.917327 0.661103
O O3 0.990425 0.870021 0.500006
O O4 0.924118 0.079301 0.541495
O O5 0.239017 0.324827 0.245070
O O6 0.414751 0.257828 0.258762
O O7 0.670884 0.577258 0.958274
O O8 0.670011 0.367017 0.856292
O O9 0.775938 0.432505 0.011529
O O10 0.851659 0.499822 0.698079
O O11 0.654110 0.783629 0.924990
O O12 0.831024 0.709152 0.653792
O O13 0.639422 0.778855 0.663883
O O14 0.064106 0.779856 0.721374
O O15 0.548441 0.828419 0.498274
O O16 0.480154 0.901358 0.865891
#
# Coordination Sequence:
#
# PCOD9139803 Si02
#       8
#     4   4   4   4   4   4   4   4
#     4  12  26  46  69 109 139 191 238 299 354 443
#     4  12  27  45  71 102 147 189 241 295 367 430
#     4  11  21  42  68 106 141 177 247 306 355 429
#     4  11  22  46  70  93 151 181 239 298 372 421
#     4  11  26  40  76 107 135 187 248 299 358 431
#     4  12  25  45  70 105 144 193 239 308 364 438
#     4  11  22  41  70 101 137 188 235 305 363 431
#     4  12  21  45  70  95 140 198 227 292 375 423
#
# _framework density 24.608969999999999
#
# number of rings (size 3 to 8) (size 9 to 14) (size 15 to 20)
#    0.000    0.500    7.500    0.750    5.250    0.000 
#    2.250    1.250    0.000    0.000    0.000    0.000 
#    0.000    0.000    0.000    0.000    0.000    0.000 
#
# Total GULP energy -89071.882660 kJ/mol
# GULP energy per Si atom -5566.992666 kJ/mol
# Density = 2.455296 g / cm^3
# Si number density = 24.608970 Si / 1000 Ang^3
#
#
#
# Elastic Constant Matrix: (Units=GPa)
#
#
# Indices 1 2 3 4 5 6 
#
# 1 51.3725 0.2624 19.2894 0.0000 2.3762 0.0000
# 2 0.2624 39.6355 26.0532 0.0000 -1.5981 0.0000
# 3 19.2894 26.0532 125.9814 0.0000 7.7417 0.0000
# 4 0.0000 0.0000 0.0000 40.9155 0.0000 2.0025
# 5 2.3762 -1.5981 7.7417 0.0000 39.3544 0.0000
# 6 0.0000 0.0000 0.0000 2.0025 0.0000 14.4329
#
#
#
# Elastic Compliance Matrix: (Units=1/GPa)
#
#
# Indices 1 2 3 4 5 6 
#
# 1 0.020835 0.002225 -0.003622 0.000000 -0.000455 0.000000
# 2 0.002225 0.029663 -0.006621 0.000000 0.002373 0.000000
# 3 -0.003622 -0.006621 0.009985 0.000000 -0.002014 0.000000
# 4 0.000000 0.000000 0.000000 0.024608 0.000000 -0.003414
# 5 -0.000455 0.002373 -0.002014 0.000000 0.025930 0.000000
# 6 0.000000 0.000000 0.000000 -0.003414 0.000000 0.069760
#
#
# Mechanical properties :
#
#
# Convention : Reuss Voigt Hill
#
# Bulk Modulus (GPa) = 22.49879 34.24437 28.37158
# Shear Modulus (GPa) = 23.62574 30.36618 26.99596
#
# Velocity S-wave (km/s) = 3.10182 3.51657 3.31569
# Velocity P-wave (km/s) = 4.68943 5.51670 5.11980
#
# Compressibility (1/GPa) = 0.04444683
#
# Stress axis : x y z
#
# Youngs Moduli (GPa) = 47.99517 33.71232 100.14762
#
# Poissons Ratio (x) = -0.07500 0.36276
# Poissons Ratio (y) = -0.10678 0.66305
# Poissons Ratio (z) = 0.17385 0.22320
#
# Static dielectric constant tensor:
#      x y z
#    x 1.937000 0.000000 -0.033220 
#    y 0.000000 2.034950 0.000000 
#    z -0.033220 0.000000 2.004620 
# 
# From -- ./inp_files/9521.got.cif
#   From: 2010.05.17/outbox.cif.g08.bks.cpg/sg9_5_cif.got.tgz:9521.got - 2010.06.03 20:04:27.
