data_PCOD9139623
_publ_section_title
;
Structure prediction by ZEFSAII (Michael W. Deem and Ramdas Pophale) SiO2 
 PCOD9139623
Probable space group: C C
;
_chemical_formula_sum "Si O2"
_cell_formula_units_Z 32
_cell_length_a 14.588608
_cell_length_b 4.914697
_cell_length_c 18.789547
_cell_angle_alpha 90.000000
_cell_angle_beta 66.209403
_cell_angle_gamma 90.000000
_cell_volume 1232.708218
_symmetry_space_group_name_H-M "C C"
_symmetry_group_IT_number 9
_symmetry_cell_setting 'monoclinic'
loop_
_space_group_symop_operation_xyz
x,y,z
x,-y,1/2+z
1/2+x,1/2+y,z
1/2+x,1/2-y,1/2+z
loop_
_atom_site_type_symbol
_atom_site_label
_atom_site_fract_x
_atom_site_fract_y
_atom_site_fract_z
Si Si1 0.846050 0.974999 0.714740
Si Si2 0.612814 0.588352 0.673100
Si Si3 0.311659 0.433300 0.569803
Si Si4 0.023423 0.577813 0.633732
Si Si5 0.662090 0.327071 0.310377
Si Si6 0.299338 0.796961 0.856337
Si Si7 0.590707 0.025695 0.953566
Si Si8 0.388229 0.919033 0.463694
O O1 0.726344 0.924574 0.760060
O O2 0.916394 0.711815 0.681920
O O3 0.849791 0.079414 0.631111
O O4 0.863742 0.087978 0.789323
O O5 0.600914 0.290137 0.644900
O O6 0.605336 0.564728 0.760060
O O7 0.711757 0.756726 0.618454
O O8 0.527930 0.779768 0.665878
O O9 0.377923 0.188901 0.516035
O O10 0.314466 0.677594 0.511753
O O11 0.055095 0.548222 0.542732
O O12 0.748346 0.520716 0.311820
O O13 0.603090 0.229081 0.397144
O O14 0.200398 0.663868 0.923703
O O15 0.360413 0.973658 0.894038
O O16 0.501040 0.188346 0.942274
#
# Coordination Sequence:
#
# PCOD9139623 Si02
#       8
#     4   4   4   4   4   4   4   4
#     4  10  26  48  76 108 156 204 255 326 388 461
#     4  11  28  47  80 109 154 201 258 317 392 462
#     4  11  26  49  75 111 150 201 255 325 381 461
#     4  12  27  47  81 117 148 201 268 320 383 471
#     4  10  27  50  72 109 159 204 251 327 395 466
#     4  11  28  50  78 109 164 209 257 327 404 469
#     4  11  28  49  75 118 156 201 265 330 388 473
#     4  12  28  48  79 113 155 205 263 314 399 463
#
# _framework density 25.959105999999998
#
# number of rings (size 3 to 8) (size 9 to 14) (size 15 to 20)
#    0.000    1.000    1.250    1.500   24.500    0.000 
#    0.000    0.000    0.000    0.000    0.000    0.000 
#    0.000    0.000    0.000    0.000    0.000    0.000 
#
# Total GULP energy -89452.466278 kJ/mol
# GULP energy per Si atom -5590.779142 kJ/mol
# Density = 2.590002 g / cm^3
# Si number density = 25.959106 Si / 1000 Ang^3
#
#
#
# Elastic Constant Matrix: (Units=GPa)
#
#
# Indices 1 2 3 4 5 6 
#
# 1 72.6111 -9.2047 46.6910 -0.0001 4.7192 0.0004
# 2 -9.2047 77.2017 44.8325 0.0005 3.8102 0.0021
# 3 46.6910 44.8325 156.8505 -0.0009 13.1151 0.0000
# 4 -0.0001 0.0005 -0.0009 26.5032 -0.0005 -15.4638
# 5 4.7192 3.8102 13.1151 -0.0005 55.7946 0.0002
# 6 0.0004 0.0021 0.0000 -15.4638 0.0002 26.8282
#
#
#
# Elastic Compliance Matrix: (Units=1/GPa)
#
#
# Indices 1 2 3 4 5 6 
#
# 1 0.019684 0.006894 -0.007805 -0.000001 -0.000301 -0.000002
# 2 0.006894 0.017946 -0.007171 -0.000002 -0.000123 -0.000003
# 3 -0.007805 -0.007171 0.010866 0.000001 -0.001404 0.000001
# 4 -0.000001 -0.000002 0.000001 0.056851 0.000000 0.032769
# 5 -0.000301 -0.000123 -0.001404 0.000000 0.018287 0.000000
# 6 -0.000002 -0.000003 0.000001 0.032769 0.000000 0.056162
#
#
# Mechanical properties :
#
#
# Convention : Reuss Voigt Hill
#
# Bulk Modulus (GPa) = 30.92910 52.36676 41.64793
# Shear Modulus (GPa) = 24.18518 36.78148 30.48333
#
# Velocity S-wave (km/s) = 3.05563 3.76826 3.43050
# Velocity P-wave (km/s) = 4.93858 6.25696 5.63645
#
# Compressibility (1/GPa) = 0.03233201
#
# Stress axis : x y z
#
# Youngs Moduli (GPa) = 50.80158 55.72351 92.02912
#
# Poissons Ratio (x) = -0.38418 0.71829
# Poissons Ratio (y) = -0.35024 0.65998
# Poissons Ratio (z) = 0.39651 0.39962
#
# Static dielectric constant tensor:
#      x y z
#    x 2.228960 0.000000 -0.055330 
#    y 0.000000 2.137160 0.000000 
#    z -0.055330 0.000000 2.023530 
# 
# From -- ./inp_files/30463.got.cif
#   From: 2010.05.17/outbox.cif.g08.bks.cpg/sg9_16_cif.got.tgz:30463.got - 2010.06.03 20:04:27.
