data_PCOD9139737
_publ_section_title
;
Structure prediction by ZEFSAII (Michael W. Deem and Ramdas Pophale) SiO2 
 PCOD9139737
Probable space group: C C
;
_chemical_formula_sum "Si O2"
_cell_formula_units_Z 16
_cell_length_a 7.236533
_cell_length_b 7.165519
_cell_length_c 12.953582
_cell_angle_alpha 90.000000
_cell_angle_beta 60.369961
_cell_angle_gamma 90.000000
_cell_volume 583.855943
_symmetry_space_group_name_H-M "C C"
_symmetry_group_IT_number 9
_symmetry_cell_setting 'monoclinic'
loop_
_space_group_symop_operation_xyz
x,y,z
x,-y,1/2+z
1/2+x,1/2+y,z
1/2+x,1/2-y,1/2+z
loop_
_atom_site_type_symbol
_atom_site_label
_atom_site_fract_x
_atom_site_fract_y
_atom_site_fract_z
Si Si1 0.625000 0.602795 0.077840
Si Si2 0.592944 0.005145 0.382805
Si Si3 0.011095 0.162676 0.781377
Si Si4 0.672589 0.006131 0.633434
O O1 0.594178 0.521350 0.202460
O O2 0.424137 0.530065 0.068584
O O3 0.613386 0.827760 0.074270
O O4 0.855162 0.532600 0.981862
O O5 0.628458 0.223129 0.339976
O O6 0.618778 0.914741 0.261988
O O7 0.779813 0.894500 0.388558
O O8 0.039616 0.314219 0.679141
#
# Coordination Sequence:
#
# PCOD9139737 Si02
#       4
#     4   4   4   4
#     4  11  20  44  65  96 128 175 208 268 323 379
#     4   9  20  42  66  94 130 170 212 266 321 381
#     4   9  21  43  59 101 128 165 218 266 312 392
#     4   9  23  39  64  95 132 162 222 262 314 390
#
# _framework density 27.404022000000001
#
# number of rings (size 3 to 8) (size 9 to 14) (size 15 to 20)
#    1.500    1.000    0.000    1.500    0.000    4.000 
#   13.500    0.000    0.000    0.000    0.000    0.000 
#    0.000    0.000    0.000    0.000    0.000    0.000 
#
# Total GULP energy -44670.217897 kJ/mol
# GULP energy per Si atom -5583.777237 kJ/mol
# Density = 2.734165 g / cm^3
# Si number density = 27.404022 Si / 1000 Ang^3
#
#
#
# Elastic Constant Matrix: (Units=GPa)
#
#
# Indices 1 2 3 4 5 6 
#
# 1 137.2276 65.5789 62.1549 0.0000 -37.6289 0.0000
# 2 65.5789 182.5366 27.4914 0.0000 -16.8878 0.0000
# 3 62.1549 27.4914 101.0800 0.0000 -45.1563 0.0000
# 4 0.0000 0.0000 0.0000 45.5240 0.0000 3.0926
# 5 -37.6289 -16.8878 -45.1563 0.0000 50.7745 0.0000
# 6 0.0000 0.0000 0.0000 3.0926 0.0000 51.7207
#
#
#
# Elastic Compliance Matrix: (Units=1/GPa)
#
#
# Indices 1 2 3 4 5 6 
#
# 1 0.012040 -0.003258 -0.005003 0.000000 0.003390 0.000000
# 2 -0.003258 0.006617 0.000180 0.000000 -0.000054 0.000000
# 3 -0.005003 0.000180 0.018734 0.000000 0.013013 0.000000
# 4 0.000000 0.000000 0.000000 0.022056 0.000000 -0.001319
# 5 0.003390 -0.000054 0.013013 0.000000 0.033762 0.000000
# 6 0.000000 0.000000 0.000000 -0.001319 0.000000 0.019413
#
#
# Mechanical properties :
#
#
# Convention : Reuss Voigt Hill
#
# Bulk Modulus (GPa) = 47.10788 81.25496 64.18142
# Shear Modulus (GPa) = 36.80222 47.31177 42.05700
#
# Velocity S-wave (km/s) = 3.66860 4.15957 3.92178
# Velocity P-wave (km/s) = 5.93063 7.26529 6.63162
#
# Compressibility (1/GPa) = 0.02122787
#
# Stress axis : x y z
#
# Youngs Moduli (GPa) = 83.05868 151.12847 53.37859
#
# Poissons Ratio (x) = 0.49243 0.26704
# Poissons Ratio (y) = 0.27064 -0.00960
# Poissons Ratio (z) = 0.41553 -0.02717
#
# Static dielectric constant tensor:
#      x y z
#    x 2.221180 0.000000 0.115570 
#    y 0.000000 2.068840 0.000000 
#    z 0.115570 0.000000 2.169010 
# 
# From -- ./inp_files/13934.got.cif
#   From: 2010.05.17/outbox.cif.g08.bks.cpg/sg9_7_cif.got.tgz:13934.got - 2010.06.03 20:04:27.
