data_PCOD9139181
_publ_section_title
;
Structure prediction by ZEFSAII (Michael W. Deem and Ramdas Pophale) SiO2 
 PCOD9139181
Probable space group: C C
;
_chemical_formula_sum "Si O2"
_cell_formula_units_Z 32
_cell_length_a 8.855521
_cell_length_b 25.569705
_cell_length_c 9.182920
_cell_angle_alpha 90.000000
_cell_angle_beta 38.099716
_cell_angle_gamma 90.000000
_cell_volume 1283.004871
_symmetry_space_group_name_H-M "C C"
_symmetry_group_IT_number 9
_symmetry_cell_setting 'monoclinic'
loop_
_space_group_symop_operation_xyz
x,y,z
x,-y,1/2+z
1/2+x,1/2+y,z
1/2+x,1/2-y,1/2+z
loop_
_atom_site_type_symbol
_atom_site_label
_atom_site_fract_x
_atom_site_fract_y
_atom_site_fract_z
Si Si1 0.250000 0.275362 0.682280
Si Si2 0.404842 0.433338 0.492863
Si Si3 0.044653 0.110536 0.439576
Si Si4 0.476087 0.779872 0.376150
Si Si5 0.321345 0.013839 0.181575
Si Si6 0.087157 0.152735 0.085634
Si Si7 0.259971 0.346938 0.392325
Si Si8 0.113998 0.531334 0.709551
O O1 0.479744 0.241250 0.441831
O O2 0.372782 0.305331 0.723627
O O3 0.226863 0.313620 0.562416
O O4 0.624946 0.471225 0.281750
O O5 0.514103 0.393454 0.529390
O O6 0.279419 0.404531 0.450758
O O7 0.219895 0.476911 0.691997
O O8 0.095645 0.137236 0.247300
O O9 0.001359 0.150594 0.605001
O O10 0.219210 0.062576 0.352816
O O11 0.796646 0.078611 0.590807
O O12 0.735273 0.752545 0.125660
O O13 0.566565 0.820740 0.431255
O O14 0.340578 0.816631 0.358358
O O15 0.521142 0.983169 0.122339
O O16 0.389933 0.043290 0.982512
#
# Coordination Sequence:
#
# PCOD9139181 Si02
#       8
#     4   4   4   4   4   4   4   4
#     4  11  26  53  76 106 148 194 244 317 396 455
#     4  10  24  46  65 110 146 206 257 314 380 452
#     4  11  25  43  68 112 150 198 254 313 377 447
#     4  12  27  50  75 108 146 190 241 318 397 450
#     4  11  23  42  69 100 157 199 252 311 379 449
#     4  11  25  46  76 107 146 194 258 314 377 473
#     4  11  25  46  76 107 146 194 258 314 377 473
#     4  11  23  42  69 100 157 199 252 311 379 449
#
# _framework density 24.941447
#
# number of rings (size 3 to 8) (size 9 to 14) (size 15 to 20)
#    0.000    1.000    0.000    5.250    5.250    6.000 
#   18.000    0.000    0.000    0.000    0.000    0.000 
#    0.000    0.000    0.000    0.000    0.000    0.000 
#
# Total GULP energy -89183.724071 kJ/mol
# GULP energy per Si atom -5573.982754 kJ/mol
# Density = 2.488468 g / cm^3
# Si number density = 24.941447 Si / 1000 Ang^3
#
#
#
# Elastic Constant Matrix: (Units=GPa)
#
#
# Indices 1 2 3 4 5 6 
#
# 1 71.4780 22.4984 33.7936 0.0000 -1.8804 0.0000
# 2 22.4984 82.4671 52.6735 0.0000 -9.3840 0.0000
# 3 33.7936 52.6735 127.3796 0.0000 10.9796 0.0000
# 4 0.0000 0.0000 0.0000 19.1848 0.0000 -0.1773
# 5 -1.8804 -9.3840 10.9796 0.0000 30.3433 0.0000
# 6 0.0000 0.0000 0.0000 -0.1773 0.0000 39.7197
#
#
#
# Elastic Compliance Matrix: (Units=1/GPa)
#
#
# Indices 1 2 3 4 5 6 
#
# 1 0.016391 -0.001895 -0.003718 0.000000 0.001775 0.000000
# 2 -0.001895 0.018707 -0.007970 0.000000 0.008552 0.000000
# 3 -0.003718 -0.007970 0.012763 0.000000 -0.007313 0.000000
# 4 0.000000 0.000000 0.000000 0.052127 0.000000 0.000233
# 5 0.001775 0.008552 -0.007313 0.000000 0.038357 0.000000
# 6 0.000000 0.000000 0.000000 0.000233 0.000000 0.025177
#
#
# Mechanical properties :
#
#
# Convention : Reuss Voigt Hill
#
# Bulk Modulus (GPa) = 48.32052 55.47285 51.89668
# Shear Modulus (GPa) = 25.30534 29.34016 27.32275
#
# Velocity S-wave (km/s) = 3.18872 3.43353 3.31339
# Velocity P-wave (km/s) = 5.74220 6.16509 5.95740
#
# Compressibility (1/GPa) = 0.02069514
#
# Stress axis : x y z
#
# Youngs Moduli (GPa) = 61.00803 53.45670 78.35164
#
# Poissons Ratio (x) = 0.10131 0.29130
# Poissons Ratio (y) = 0.11562 0.62445
# Poissons Ratio (z) = 0.22682 0.42604
#
# Static dielectric constant tensor:
#      x y z
#    x 1.959090 0.000000 -0.051890 
#    y 0.000000 2.013240 0.000000 
#    z -0.051890 0.000000 2.075180 
# 
# From -- ./inp_files/6443.got.cif
#   From: 2010.05.17/outbox.cif.g08.bks.cpg/sg9_4_cif.got.tgz:6443.got - 2010.06.03 20:04:27.
