data_PCOD9139505
_publ_section_title
;
Structure prediction by ZEFSAII (Michael W. Deem and Ramdas Pophale) SiO2 
 PCOD9139505
Probable space group: C C
;
_chemical_formula_sum "Si O2"
_cell_formula_units_Z 32
_cell_length_a 19.826360
_cell_length_b 9.327611
_cell_length_c 14.584718
_cell_angle_alpha 90.000000
_cell_angle_beta 28.832331
_cell_angle_gamma 90.000000
_cell_volume 1300.714431
_symmetry_space_group_name_H-M "C C"
_symmetry_group_IT_number 9
_symmetry_cell_setting 'monoclinic'
loop_
_space_group_symop_operation_xyz
x,y,z
x,-y,1/2+z
1/2+x,1/2+y,z
1/2+x,1/2-y,1/2+z
loop_
_atom_site_type_symbol
_atom_site_label
_atom_site_fract_x
_atom_site_fract_y
_atom_site_fract_z
Si Si1 0.383680 0.387754 0.245630
Si Si2 0.224574 0.482466 0.273099
Si Si3 0.402541 0.310340 0.436721
Si Si4 0.273773 0.903681 0.336636
Si Si5 0.981004 0.814467 0.660232
Si Si6 0.827352 0.724061 0.025464
Si Si7 0.442446 0.113992 0.050694
Si Si8 0.712659 0.440880 0.099863
O O1 0.248179 0.444302 0.351526
O O2 0.373848 0.364630 0.366084
O O3 0.481390 0.525847 0.119700
O O4 0.435786 0.248605 0.128494
O O5 0.272283 0.341592 0.160442
O O6 0.064641 0.487550 0.438469
O O7 0.312943 0.608849 0.121376
O O8 0.566036 0.351548 0.265327
O O9 0.333847 0.152247 0.505714
O O10 0.404093 0.797202 0.188506
O O11 0.143259 0.796537 0.486902
O O12 0.301958 0.020091 0.225346
O O13 0.258046 0.009311 0.443391
O O14 0.889293 0.798043 0.861717
O O15 0.956601 0.656943 0.928433
O O16 0.713137 0.600611 0.142714
#
# Coordination Sequence:
#
# PCOD9139505 Si02
#       8
#     4   4   4   4   4   4   4   4
#     4  11  25  45  75 107 149 196 247 305 370 447
#     4  11  27  45  75 112 148 198 253 309 377 443
#     4  12  26  49  76 112 153 199 250 309 380 446
#     4  11  25  47  70 109 143 196 246 305 371 437
#     4  11  25  46  77 104 148 196 246 303 370 447
#     4  10  25  47  74 104 149 198 252 305 373 447
#     4  11  27  46  73 111 150 194 253 315 370 449
#     4  11  26  47  76 107 148 201 249 305 375 452
#
# _framework density 24.601863999999999
#
# number of rings (size 3 to 8) (size 9 to 14) (size 15 to 20)
#    0.000    1.000    3.750    0.000   15.750    1.000 
#    0.000    0.000    0.000    0.000    0.000    0.000 
#    0.000    0.000    0.000    0.000    0.000    0.000 
#
# Total GULP energy -89301.460561 kJ/mol
# GULP energy per Si atom -5581.341285 kJ/mol
# Density = 2.454587 g / cm^3
# Si number density = 24.601864 Si / 1000 Ang^3
#
#
#
# Elastic Constant Matrix: (Units=GPa)
#
#
# Indices 1 2 3 4 5 6 
#
# 1 96.4363 32.3060 32.1943 0.0000 -0.9638 0.0000
# 2 32.3060 118.6119 67.9107 0.0000 -14.4119 0.0000
# 3 32.1943 67.9107 58.0383 0.0000 -18.6494 0.0000
# 4 0.0000 0.0000 0.0000 24.9059 0.0000 -0.9359
# 5 -0.9638 -14.4119 -18.6494 0.0000 36.9088 0.0000
# 6 0.0000 0.0000 0.0000 -0.9359 0.0000 12.3723
#
#
#
# Elastic Compliance Matrix: (Units=1/GPa)
#
#
# Indices 1 2 3 4 5 6 
#
# 1 0.013481 0.002746 -0.012217 0.000000 -0.004749 0.000000
# 2 0.002746 0.027316 -0.035857 0.000000 -0.007380 0.000000
# 3 -0.012217 -0.035857 0.073256 0.000000 0.022695 0.000000
# 4 0.000000 0.000000 0.000000 0.040266 0.000000 0.003046
# 5 -0.004749 -0.007380 0.022695 0.000000 0.035555 0.000000
# 6 0.000000 0.000000 0.000000 0.003046 0.000000 0.081056
#
#
# Mechanical properties :
#
#
# Convention : Reuss Voigt Hill
#
# Bulk Modulus (GPa) = 42.74160 59.76761 51.25460
# Shear Modulus (GPa) = 13.53600 24.21578 18.87589
#
# Velocity S-wave (km/s) = 2.34818 3.14077 2.77294
# Velocity P-wave (km/s) = 4.97624 6.12366 5.57953
#
# Compressibility (1/GPa) = 0.02339641
#
# Stress axis : x y z
#
# Youngs Moduli (GPa) = 74.18040 36.60831 13.65074
#
# Poissons Ratio (x) = -0.10053 0.16677
# Poissons Ratio (y) = -0.20370 0.48948
# Poissons Ratio (z) = 0.90625 1.31268
#
# Static dielectric constant tensor:
#      x y z
#    x 2.031860 0.000000 -0.050740 
#    y 0.000000 2.106540 0.000000 
#    z -0.050740 0.000000 1.936950 
# 
# From -- ./inp_files/27345.got.cif
#   From: 2010.05.17/outbox.cif.g08.bks.cpg/sg9_14_cif.got.tgz:27345.got - 2010.06.03 20:04:27.
