data_PCOD9139781
_publ_section_title
;
Structure prediction by ZEFSAII (Michael W. Deem and Ramdas Pophale) SiO2 
 PCOD9139781
Probable space group: C C
;
_chemical_formula_sum "Si O2"
_cell_formula_units_Z 28
_cell_length_a 16.017936
_cell_length_b 6.116880
_cell_length_c 20.211057
_cell_angle_alpha 90.000000
_cell_angle_beta 32.272571
_cell_angle_gamma 90.000000
_cell_volume 1057.363251
_symmetry_space_group_name_H-M "C C"
_symmetry_group_IT_number 9
_symmetry_cell_setting 'monoclinic'
loop_
_space_group_symop_operation_xyz
x,y,z
x,-y,1/2+z
1/2+x,1/2+y,z
1/2+x,1/2-y,1/2+z
loop_
_atom_site_type_symbol
_atom_site_label
_atom_site_fract_x
_atom_site_fract_y
_atom_site_fract_z
Si Si1 0.687900 0.527326 0.180980
Si Si2 0.142329 0.024223 0.489562
Si Si3 0.364828 0.598363 0.850151
Si Si4 0.011028 0.524970 0.922185
Si Si5 0.920840 0.607847 0.126752
Si Si6 0.267761 0.709075 0.517397
Si Si7 0.769528 0.235342 0.299708
O O1 0.537362 0.392265 0.263827
O O2 0.841920 0.403615 0.046330
O O3 0.745898 0.598483 0.214400
O O4 0.681237 0.754384 0.144018
O O5 0.291512 0.178709 0.376132
O O6 0.991039 0.170607 0.608639
O O7 0.194141 0.883074 0.516956
O O8 0.137123 0.877411 0.427346
O O9 0.265655 0.515606 0.980261
O O10 0.339708 0.415748 0.810802
O O11 0.170268 0.389443 0.808691
O O12 0.945854 0.711051 0.916182
O O13 0.024911 0.604348 0.989579
O O14 0.908084 0.389851 0.178877
#
# Coordination Sequence:
#
# PCOD9139781 Si02
#       7
#     4   4   4   4   4   4   4
#     4   8  21  39  61  90 118 164 205 255 321 371
#     4  11  23  39  62  96 123 166 216 258 315 391
#     4  11  21  40  63  91 128 160 215 258 324 383
#     4   8  20  45  56  94 126 159 213 258 320 371
#     4   9  22  41  60  90 122 166 211 250 323 372
#     4   8  22  40  62  86 128 161 202 265 317 368
#     4  11  23  40  66  89 131 170 204 270 320 374
#
# _framework density 26.480968000000001
#
# number of rings (size 3 to 8) (size 9 to 14) (size 15 to 20)
#    1.714    0.571    1.429    0.000    6.000    2.286 
#    0.000    2.857    0.000    0.000    0.000    0.000 
#    0.000    0.000    0.000    0.000    0.000    0.000 
#
# Total GULP energy -78026.945224 kJ/mol
# GULP energy per Si atom -5573.353230 kJ/mol
# Density = 2.642070 g / cm^3
# Si number density = 26.480968 Si / 1000 Ang^3
#
#
#
# Elastic Constant Matrix: (Units=GPa)
#
#
# Indices 1 2 3 4 5 6 
#
# 1 109.9429 24.2140 13.9507 -0.0003 -22.9865 -0.0002
# 2 24.2140 46.9963 0.3320 -0.0009 0.7336 0.0007
# 3 13.9507 0.3320 54.7599 -0.0002 -12.8048 0.0005
# 4 -0.0003 -0.0009 -0.0002 50.0315 0.0001 -5.7300
# 5 -22.9865 0.7336 -12.8048 0.0001 61.0023 -0.0002
# 6 -0.0002 0.0007 0.0005 -5.7300 -0.0002 35.0984
#
#
#
# Elastic Compliance Matrix: (Units=1/GPa)
#
#
# Indices 1 2 3 4 5 6 
#
# 1 0.011494 -0.005970 -0.001959 0.000000 0.003992 0.000000
# 2 -0.005970 0.024386 0.000819 0.000000 -0.002371 0.000000
# 3 -0.001959 0.000819 0.019540 0.000000 0.003354 0.000000
# 4 0.000000 0.000000 0.000000 0.020368 0.000000 0.003325
# 5 0.003992 -0.002371 0.003354 0.000000 0.018629 0.000000
# 6 0.000000 0.000000 0.000000 0.003325 0.000000 0.029034
#
#
# Mechanical properties :
#
#
# Convention : Reuss Voigt Hill
#
# Bulk Modulus (GPa) = 24.27266 32.07695 28.17481
# Shear Modulus (GPa) = 33.02420 40.77326 36.89873
#
# Velocity S-wave (km/s) = 3.53525 3.92818 3.73688
# Velocity P-wave (km/s) = 5.08429 5.71959 5.41127
#
# Compressibility (1/GPa) = 0.04119861
#
# Stress axis : x y z
#
# Youngs Moduli (GPa) = 87.00475 41.00775 51.17771
#
# Poissons Ratio (x) = 0.24483 0.10023
# Poissons Ratio (y) = 0.51945 -0.04190
# Poissons Ratio (z) = 0.17040 -0.03357
#
# Static dielectric constant tensor:
#      x y z
#    x 2.064220 0.000000 0.012570 
#    y 0.000000 2.171170 0.000000 
#    z 0.012570 0.000000 2.213900 
# 
# From -- ./inp_files/18824.got.cif
#   From: 2010.05.17/outbox.cif.g08.bks.cpg/sg9_10_cif.got.tgz:18824.got - 2010.06.03 20:04:27.
