data_PCOD9139814
_publ_section_title
;
Structure prediction by ZEFSAII (Michael W. Deem and Ramdas Pophale) SiO2 
 PCOD9139814
Probable space group: C C
;
_chemical_formula_sum "Si O2"
_cell_formula_units_Z 32
_cell_length_a 8.869250
_cell_length_b 20.581043
_cell_length_c 8.879881
_cell_angle_alpha 90.000000
_cell_angle_beta 114.079296
_cell_angle_gamma 90.000000
_cell_volume 1479.869707
_symmetry_space_group_name_H-M "C C"
_symmetry_group_IT_number 9
_symmetry_cell_setting 'monoclinic'
loop_
_space_group_symop_operation_xyz
x,y,z
x,-y,1/2+z
1/2+x,1/2+y,z
1/2+x,1/2-y,1/2+z
loop_
_atom_site_type_symbol
_atom_site_label
_atom_site_fract_x
_atom_site_fract_y
_atom_site_fract_z
Si Si1 0.319490 0.138255 0.787270
Si Si2 0.986911 0.588819 0.303673
Si Si3 0.648890 0.872119 0.605025
Si Si4 0.171779 0.831105 0.740380
Si Si5 0.578270 0.559128 0.838574
Si Si6 0.855741 0.750991 0.573858
Si Si7 0.885415 0.469885 0.068530
Si Si8 0.938138 0.053696 0.108889
O O1 0.149006 0.126840 0.806075
O O2 0.356819 0.205437 0.720929
O O3 0.320321 0.084107 0.656811
O O4 0.468047 0.124608 0.961343
O O5 0.818694 0.631257 0.213303
O O6 0.982645 0.521909 0.208135
O O7 0.983364 0.567206 0.476006
O O8 0.131714 0.628030 0.279129
O O9 0.739713 0.810722 0.570881
O O10 0.755260 0.931950 0.588039
O O11 0.038107 0.780848 0.614738
O O12 0.055311 0.892443 0.740204
O O13 0.269872 0.790929 0.907686
O O14 0.484292 0.518796 0.673192
O O15 0.735274 0.512297 0.939187
O O16 0.472586 0.565247 0.946975
#
# Coordination Sequence:
#
# PCOD9139814 Si02
#       8
#     4   4   4   4   4   4   4   4
#     4  12  21  41  70  95 133 181 227 271 350 407
#     4  12  22  42  69 101 131 175 224 279 346 413
#     4  11  26  45  62  99 140 174 226 291 333 407
#     4  11  21  43  68  95 133 181 228 281 334 402
#     4  12  20  41  69  98 127 178 222 279 342 416
#     4  11  24  43  68  95 137 183 229 286 334 399
#     4  12  20  36  72  97 121 170 225 266 342 412
#     4  11  24  41  66 100 136 172 229 285 341 402
#
# _framework density 21.623524
#
# number of rings (size 3 to 8) (size 9 to 14) (size 15 to 20)
#    0.000    0.500    8.750    0.000    0.000    2.000 
#    6.750    0.000    0.000    0.000    0.000    0.000 
#    0.000    0.000    0.000    0.000    0.000    0.000 
#
# Total GULP energy -89319.819337 kJ/mol
# GULP energy per Si atom -5582.488709 kJ/mol
# Density = 2.157431 g / cm^3
# Si number density = 21.623524 Si / 1000 Ang^3
#
#
#
# Elastic Constant Matrix: (Units=GPa)
#
#
# Indices 1 2 3 4 5 6 
#
# 1 103.8105 30.3951 40.5414 0.0000 -24.6915 0.0000
# 2 30.3951 65.2033 12.7259 0.0000 -3.5847 0.0000
# 3 40.5414 12.7259 79.4099 0.0000 -27.5051 0.0000
# 4 0.0000 0.0000 0.0000 30.2139 0.0000 -0.9209
# 5 -24.6915 -3.5847 -27.5051 0.0000 32.0760 0.0000
# 6 0.0000 0.0000 0.0000 -0.9209 0.0000 17.5343
#
#
#
# Elastic Compliance Matrix: (Units=1/GPa)
#
#
# Indices 1 2 3 4 5 6 
#
# 1 0.014547 -0.005596 -0.004080 0.000000 0.007075 0.000000
# 2 -0.005596 0.017992 -0.001169 0.000000 -0.003300 0.000000
# 3 -0.004080 -0.001169 0.019531 0.000000 0.013477 0.000000
# 4 0.000000 0.000000 0.000000 0.033150 0.000000 0.001741
# 5 0.007075 -0.003300 0.013477 0.000000 0.047809 0.000000
# 6 0.000000 0.000000 0.000000 0.001741 0.000000 0.057123
#
#
# Mechanical properties :
#
#
# Convention : Reuss Voigt Hill
#
# Bulk Modulus (GPa) = 32.91610 46.19428 39.55519
# Shear Modulus (GPa) = 22.52559 26.94891 24.73725
#
# Velocity S-wave (km/s) = 3.23107 3.53410 3.38597
# Velocity P-wave (km/s) = 5.40140 6.16948 5.79817
#
# Compressibility (1/GPa) = 0.03038027
#
# Stress axis : x y z
#
# Youngs Moduli (GPa) = 68.74060 55.57976 51.20084
#
# Poissons Ratio (x) = 0.31104 0.20888
# Poissons Ratio (y) = 0.38469 0.05986
# Poissons Ratio (z) = 0.28044 0.06498
#
# Static dielectric constant tensor:
#      x y z
#    x 1.809120 0.000000 0.021590 
#    y 0.000000 1.823760 0.000000 
#    z 0.021590 0.000000 1.817430 
# 
# From -- ./inp_files/5814.got.cif
#   From: 2010.05.17/outbox.cif.g08.bks.cpg/sg9_3_cif.got.tgz:5814.got - 2010.06.03 20:04:27.
