data_PCOD9139201
_publ_section_title
;
Structure prediction by ZEFSAII (Michael W. Deem and Ramdas Pophale) SiO2 
 PCOD9139201
Probable space group: C C
;
_chemical_formula_sum "Si O2"
_cell_formula_units_Z 28
_cell_length_a 9.560972
_cell_length_b 14.208304
_cell_length_c 15.782096
_cell_angle_alpha 90.000000
_cell_angle_beta 30.598534
_cell_angle_gamma 90.000000
_cell_volume 1091.297841
_symmetry_space_group_name_H-M "C C"
_symmetry_group_IT_number 9
_symmetry_cell_setting 'monoclinic'
loop_
_space_group_symop_operation_xyz
x,y,z
x,-y,1/2+z
1/2+x,1/2+y,z
1/2+x,1/2-y,1/2+z
loop_
_atom_site_type_symbol
_atom_site_label
_atom_site_fract_x
_atom_site_fract_y
_atom_site_fract_z
Si Si1 0.293460 0.060304 0.875000
Si Si2 0.310745 0.477084 0.520934
Si Si3 0.575355 0.661391 0.765654
Si Si4 0.790041 0.595536 0.497552
Si Si5 0.583605 0.264819 0.968641
Si Si6 0.773402 0.238304 0.304396
Si Si7 0.578892 0.348671 0.791168
O O1 0.504233 0.012186 0.697369
O O2 0.299042 0.171704 0.855894
O O3 0.378435 0.005438 0.915268
O O4 0.977282 0.035077 0.021244
O O5 0.372595 0.378739 0.443022
O O6 0.480828 0.551877 0.377728
O O7 0.650189 0.581697 0.660561
O O8 0.826559 0.708108 0.686519
O O9 0.400947 0.733658 0.801240
O O10 0.603401 0.645904 0.522154
O O11 0.015156 0.675073 0.406472
O O12 0.387813 0.185534 0.110318
O O13 0.493012 0.287509 0.920112
O O14 0.945327 0.165404 0.268798
#
# Coordination Sequence:
#
# PCOD9139201 Si02
#       7
#     4   4   4   4   4   4   4
#     4  11  25  50  76 107 152 201 259 327 386 471
#     4  11  25  46  74 106 152 195 257 326 394 465
#     4  10  24  46  70 106 145 196 258 310 389 478
#     4  11  24  49  77 105 148 207 255 316 399 469
#     4  11  23  43  74 102 142 200 255 311 387 469
#     4  10  27  43  74 109 153 191 258 316 398 457
#     4  12  24  45  71 105 152 192 254 326 385 459
#
# _framework density 25.657522
#
# number of rings (size 3 to 8) (size 9 to 14) (size 15 to 20)
#    0.000    1.143    2.857    1.714    6.000    4.571 
#    5.143    0.000    0.000    0.000    0.000    0.000 
#    0.000    0.000    0.000    0.000    0.000    0.000 
#
# Total GULP energy -77999.356270 kJ/mol
# GULP energy per Si atom -5571.382591 kJ/mol
# Density = 2.559912 g / cm^3
# Si number density = 25.657522 Si / 1000 Ang^3
#
#
#
# Elastic Constant Matrix: (Units=GPa)
#
#
# Indices 1 2 3 4 5 6 
#
# 1 69.7536 1.7564 16.9751 0.0267 4.2121 0.0189
# 2 1.7564 52.7591 -4.0015 -0.0043 9.1166 0.0068
# 3 16.9751 -4.0015 67.3119 -0.0141 10.9702 0.0086
# 4 0.0267 -0.0043 -0.0141 36.1255 0.0030 17.3524
# 5 4.2121 9.1166 10.9702 0.0030 34.5373 -0.0009
# 6 0.0189 0.0068 0.0086 17.3524 -0.0009 33.1410
#
#
#
# Elastic Compliance Matrix: (Units=1/GPa)
#
#
# Indices 1 2 3 4 5 6 
#
# 1 0.015314 -0.000721 -0.003830 -0.000012 -0.000461 -0.000001
# 2 -0.000721 0.020192 0.002359 0.000009 -0.005991 -0.000009
# 3 -0.003830 0.002359 0.016860 0.000015 -0.005511 -0.000011
# 4 -0.000012 0.000009 0.000015 0.036982 -0.000009 -0.019364
# 5 -0.000461 -0.005991 -0.005511 -0.000009 0.032342 0.000009
# 6 -0.000001 -0.000009 -0.000011 -0.019364 0.000009 0.040313
#
#
# Mechanical properties :
#
#
# Convention : Reuss Voigt Hill
#
# Bulk Modulus (GPa) = 20.84065 24.36495 22.60280
# Shear Modulus (GPa) = 27.41491 32.43372 29.92432
#
# Velocity S-wave (km/s) = 3.27233 3.55928 3.41882
# Velocity P-wave (km/s) = 4.73474 5.13888 4.94095
#
# Compressibility (1/GPa) = 0.04798315
#
# Stress axis : x y z
#
# Youngs Moduli (GPa) = 65.29904 49.52401 59.31067
#
# Poissons Ratio (x) = 0.03569 0.22714
# Poissons Ratio (y) = 0.04706 -0.13989
# Poissons Ratio (z) = 0.25008 -0.11680
#
# Static dielectric constant tensor:
#      x y z
#    x 2.007140 0.000010 0.005130 
#    y 0.000010 2.065310 0.000010 
#    z 0.005130 0.000010 2.140390 
# 
# From -- ./inp_files/23327.got.cif
#   From: 2010.05.17/outbox.cif.g08.bks.cpg/sg9_12_cif.got.tgz:23327.got - 2010.06.03 20:04:27.
