data_PCOD9139716
_publ_section_title
;
Structure prediction by ZEFSAII (Michael W. Deem and Ramdas Pophale) SiO2 
 PCOD9139716
Probable space group: C C
;
_chemical_formula_sum "Si O2"
_cell_formula_units_Z 32
_cell_length_a 26.928290
_cell_length_b 11.807567
_cell_length_c 14.424790
_cell_angle_alpha 90.000000
_cell_angle_beta 160.180342
_cell_angle_gamma 90.000000
_cell_volume 1555.092279
_symmetry_space_group_name_H-M "C C"
_symmetry_group_IT_number 9
_symmetry_cell_setting 'monoclinic'
loop_
_space_group_symop_operation_xyz
x,y,z
x,-y,1/2+z
1/2+x,1/2+y,z
1/2+x,1/2-y,1/2+z
loop_
_atom_site_type_symbol
_atom_site_label
_atom_site_fract_x
_atom_site_fract_y
_atom_site_fract_z
Si Si1 0.475130 0.432175 0.493380
Si Si2 0.100430 0.925688 0.915480
Si Si3 0.665954 0.823112 0.897531
Si Si4 0.713102 0.672587 0.134521
Si Si5 0.354608 0.870701 0.697842
Si Si6 0.156179 0.727983 0.720746
Si Si7 0.387336 0.112869 0.813283
Si Si8 0.426290 0.648702 0.284334
O O1 0.502011 0.438795 0.650320
O O2 0.312872 0.388068 0.184064
O O3 0.591252 0.338279 0.659960
O O4 0.479647 0.552832 0.449574
O O5 0.024204 0.861068 0.864734
O O6 0.253434 0.872389 0.149507
O O7 0.135963 0.052718 0.012320
O O8 0.613331 0.756705 0.897351
O O9 0.728188 0.716943 0.944211
O O10 0.541047 0.901379 0.636762
O O11 0.846394 0.650350 0.296363
O O12 0.745828 0.727832 0.289617
O O13 0.340582 0.005305 0.668502
O O14 0.508845 0.833930 0.929430
O O15 0.255957 0.640802 0.952883
O O16 0.420099 0.225998 0.814852
#
# Coordination Sequence:
#
# PCOD9139716 Si02
#       8
#     4   4   4   4   4   4   4   4
#     4  11  22  43  67  95 131 174 220 284 325 408
#     4  11  23  43  63  96 135 175 227 274 340 405
#     4   9  20  40  66  87 128 172 217 272 337 382
#     4   9  19  39  63  89 127 177 208 267 343 395
#     4   8  21  39  63  88 128 173 206 272 327 389
#     4  11  20  40  66  96 129 168 225 270 334 395
#     4  11  22  43  61  95 134 172 224 275 330 404
#     4  12  25  37  71 100 130 181 225 270 344 400
#
# _framework density 20.577556999999999
#
# number of rings (size 3 to 8) (size 9 to 14) (size 15 to 20)
#    0.750    1.000    2.500    2.250    0.000    0.000 
#    4.500    3.750    0.000    0.000    0.000    0.000 
#    0.000    0.000    0.000    0.000    0.000    0.000 
#
# Total GULP energy -89103.606342 kJ/mol
# GULP energy per Si atom -5568.975396 kJ/mol
# Density = 2.053072 g / cm^3
# Si number density = 20.577557 Si / 1000 Ang^3
#
#
#
# Elastic Constant Matrix: (Units=GPa)
#
#
# Indices 1 2 3 4 5 6 
#
# 1 50.9753 29.8461 8.1186 0.0000 16.2200 0.0000
# 2 29.8461 95.1181 18.7215 0.0000 10.8066 0.0000
# 3 8.1186 18.7215 97.5948 0.0000 12.3741 0.0000
# 4 0.0000 0.0000 0.0000 28.2526 0.0000 -2.7772
# 5 16.2200 10.8066 12.3741 0.0000 14.4816 0.0000
# 6 0.0000 0.0000 0.0000 -2.7772 0.0000 20.5027
#
#
#
# Elastic Compliance Matrix: (Units=1/GPa)
#
#
# Indices 1 2 3 4 5 6 
#
# 1 0.035079 -0.007491 0.003131 0.000000 -0.036375 0.000000
# 2 -0.007491 0.013225 -0.001936 0.000000 0.000175 0.000000
# 3 0.003131 -0.001936 0.011909 0.000000 -0.012238 0.000000
# 4 0.000000 0.000000 0.000000 0.035873 0.000000 0.004859
# 5 -0.036375 0.000175 -0.012238 0.000000 0.120121 0.000000
# 6 0.000000 0.000000 0.000000 0.004859 0.000000 0.049432
#
#
# Mechanical properties :
#
#
# Convention : Reuss Voigt Hill
#
# Bulk Modulus (GPa) = 20.99907 39.67340 30.33624
# Shear Modulus (GPa) = 17.00080 25.11418 21.05749
#
# Velocity S-wave (km/s) = 2.87746 3.49730 3.20241
# Velocity P-wave (km/s) = 4.61158 5.96909 5.33370
#
# Compressibility (1/GPa) = 0.04762116
#
# Stress axis : x y z
#
# Youngs Moduli (GPa) = 28.50724 75.61571 83.96986
#
# Poissons Ratio (x) = 0.56641 -0.26290
# Poissons Ratio (y) = 0.21354 0.16257
# Poissons Ratio (z) = -0.08925 0.14639
#
# Static dielectric constant tensor:
#      x y z
#    x 1.731040 0.000000 -0.025260 
#    y 0.000000 1.787330 0.000000 
#    z -0.025260 0.000000 1.791770 
# 
# From -- ./inp_files/28103.got.cif
#   From: 2010.05.17/outbox.cif.g08.bks.cpg/sg9_15_cif.got.tgz:28103.got - 2010.06.03 20:04:27.
