data_PCOD9139771
_publ_section_title
;
Structure prediction by ZEFSAII (Michael W. Deem and Ramdas Pophale) SiO2 
 PCOD9139771
Probable space group: C C
;
_chemical_formula_sum "Si O2"
_cell_formula_units_Z 24
_cell_length_a 10.137151
_cell_length_b 20.075228
_cell_length_c 4.856794
_cell_angle_alpha 90.000000
_cell_angle_beta 86.572693
_cell_angle_gamma 90.000000
_cell_volume 986.617086
_symmetry_space_group_name_H-M "C C"
_symmetry_group_IT_number 9
_symmetry_cell_setting 'monoclinic'
loop_
_space_group_symop_operation_xyz
x,y,z
x,-y,1/2+z
1/2+x,1/2+y,z
1/2+x,1/2-y,1/2+z
loop_
_atom_site_type_symbol
_atom_site_label
_atom_site_fract_x
_atom_site_fract_y
_atom_site_fract_z
Si Si1 0.120820 0.150148 0.375000
Si Si2 0.074399 0.633573 0.394748
Si Si3 0.500925 0.281000 0.347127
Si Si4 0.479873 0.460637 0.264381
Si Si5 0.344914 0.953301 0.712893
Si Si6 0.250983 0.370088 0.372616
O O1 0.112512 0.210674 0.594208
O O2 0.250605 0.110258 0.272114
O O3 0.050055 0.097016 0.587660
O O4 0.048200 0.178999 0.113918
O O5 0.994386 0.702462 0.390282
O O6 0.121976 0.629195 0.701419
O O7 0.987849 0.573656 0.285591
O O8 0.206612 0.635795 0.192694
O O9 0.357433 0.311948 0.290322
O O10 0.512095 0.475023 0.576167
O O11 0.328270 0.438453 0.296645
O O12 0.321840 0.982982 0.413793
#
# Coordination Sequence:
#
# PCOD9139771 Si02
#       6
#     4   4   4   4   4   4
#     4  11  23  45  70 105 133 181 232 296 338 410
#     4  12  27  43  71  97 141 188 224 293 348 426
#     4  11  25  44  72 100 137 175 241 294 354 401
#     4  11  21  38  68  96 131 174 219 283 339 395
#     4  12  27  47  70 104 146 190 234 279 353 430
#     4  11  25  45  63 104 132 176 238 279 350 418
#
# _framework density 24.325545000000002
#
# number of rings (size 3 to 8) (size 9 to 14) (size 15 to 20)
#    0.000    0.667    0.000    9.000    4.667    4.000 
#    0.000    0.000    0.000    0.000    0.000    0.000 
#    0.000    0.000    0.000    0.000    0.000    0.000 
#
# Total GULP energy -67071.678519 kJ/mol
# GULP energy per Si atom -5589.306543 kJ/mol
# Density = 2.427018 g / cm^3
# Si number density = 24.325545 Si / 1000 Ang^3
#
#
#
# Elastic Constant Matrix: (Units=GPa)
#
#
# Indices 1 2 3 4 5 6 
#
# 1 60.0240 10.3203 -7.6541 0.0000 -5.8398 0.0000
# 2 10.3203 58.4957 6.2710 0.0000 -2.6368 0.0000
# 3 -7.6541 6.2710 101.0649 0.0000 10.8518 0.0000
# 4 0.0000 0.0000 0.0000 27.6430 0.0000 4.2402
# 5 -5.8398 -2.6368 10.8518 0.0000 31.2287 0.0000
# 6 0.0000 0.0000 0.0000 4.2402 0.0000 36.9938
#
#
#
# Elastic Compliance Matrix: (Units=1/GPa)
#
#
# Indices 1 2 3 4 5 6 
#
# 1 0.017609 -0.003124 0.001249 0.000000 0.002595 0.000000
# 2 -0.003124 0.017872 -0.001501 0.000000 0.001446 0.000000
# 3 0.001249 -0.001501 0.010461 0.000000 -0.003528 0.000000
# 4 0.000000 0.000000 0.000000 0.036823 0.000000 -0.004221
# 5 0.002595 0.001446 -0.003528 0.000000 0.033855 0.000000
# 6 0.000000 0.000000 0.000000 -0.004221 0.000000 0.027515
#
#
# Mechanical properties :
#
#
# Convention : Reuss Voigt Hill
#
# Bulk Modulus (GPa) = 25.51600 26.38433 25.95017
# Shear Modulus (GPa) = 30.49690 33.21627 31.85658
#
# Velocity S-wave (km/s) = 3.54460 3.69926 3.62276
# Velocity P-wave (km/s) = 5.22153 5.39592 5.30944
#
# Compressibility (1/GPa) = 0.03919109
#
# Stress axis : x y z
#
# Youngs Moduli (GPa) = 56.78981 55.95201 95.59139
#
# Poissons Ratio (x) = 0.17477 -0.11937
# Poissons Ratio (y) = 0.17739 0.14347
# Poissons Ratio (z) = -0.07092 0.08398
#
# Static dielectric constant tensor:
#      x y z
#    x 1.939480 0.000000 -0.035480 
#    y 0.000000 2.023030 0.000000 
#    z -0.035480 0.000000 1.881740 
# 
# From -- ./inp_files/663.got.cif
#   From: 2010.05.17/outbox.cif.g08.bks.cpg/sg9_1_cif.got.tgz:663.got - 2010.06.03 20:04:27.
