data_PCOD9139944
_publ_section_title
;
Structure prediction by ZEFSAII (Michael W. Deem and Ramdas Pophale) SiO2 
 PCOD9139944
Probable space group: C C
;
_chemical_formula_sum "Si O2"
_cell_formula_units_Z 28
_cell_length_a 17.622584
_cell_length_b 9.307082
_cell_length_c 13.666964
_cell_angle_alpha 90.000000
_cell_angle_beta 35.484460
_cell_angle_gamma 90.000000
_cell_volume 1301.199933
_symmetry_space_group_name_H-M "C C"
_symmetry_group_IT_number 9
_symmetry_cell_setting 'monoclinic'
loop_
_space_group_symop_operation_xyz
x,y,z
x,-y,1/2+z
1/2+x,1/2+y,z
1/2+x,1/2-y,1/2+z
loop_
_atom_site_type_symbol
_atom_site_label
_atom_site_fract_x
_atom_site_fract_y
_atom_site_fract_z
Si Si1 0.672970 0.135333 0.252690
Si Si2 0.711322 0.715115 0.904649
Si Si3 0.040525 0.979361 0.145599
Si Si4 0.520581 0.146615 0.135080
Si Si5 0.776811 0.419085 0.036388
Si Si6 0.411758 0.030531 0.580141
Si Si7 0.742578 0.041656 0.511137
O O1 0.712842 0.159307 0.322226
O O2 0.731296 0.268257 0.131543
O O3 0.516594 0.136335 0.420166
O O4 0.715259 0.991996 0.153036
O O5 0.830789 0.615162 0.747463
O O6 0.717814 0.797488 0.999839
O O7 0.586060 0.610673 0.028482
O O8 0.048287 0.816056 0.099933
O O9 0.151730 0.983235 0.112776
O O10 0.892782 0.004770 0.332819
O O11 0.394503 0.113420 0.336945
O O12 0.487888 0.088782 0.061312
O O13 0.641826 0.062220 0.057623
O O14 0.823390 0.513015 0.080718
#
# Coordination Sequence:
#
# PCOD9139944 Si02
#       7
#     4   4   4   4   4   4   4
#     4  11  22  43  72 104 137 195 239 295 368 435
#     4  11  26  44  74 104 146 195 244 310 362 446
#     4  12  24  46  73 109 146 191 248 302 374 443
#     4  12  22  45  76 106 146 197 242 306 370 442
#     4  11  22  42  72 104 146 195 242 293 372 438
#     4  11  23  43  73 103 146 188 249 304 368 436
#     4  12  25  43  74 104 145 193 246 304 364 442
#
# _framework density 21.518599999999999
#
# number of rings (size 3 to 8) (size 9 to 14) (size 15 to 20)
#    0.000    0.571    7.143    0.857    2.000    0.000 
#    0.000    4.286    0.000    0.000    0.000    0.000 
#    0.000    0.000    0.000    0.000    0.000    0.000 
#
# Total GULP energy -78173.630833 kJ/mol
# GULP energy per Si atom -5583.830774 kJ/mol
# Density = 2.146962 g / cm^3
# Si number density = 21.518600 Si / 1000 Ang^3
#
#
#
# Elastic Constant Matrix: (Units=GPa)
#
#
# Indices 1 2 3 4 5 6 
#
# 1 120.6133 53.5933 31.3917 0.0000 -1.6571 0.0000
# 2 53.5933 93.5696 45.4170 0.0000 4.9467 0.0000
# 3 31.3917 45.4170 141.5067 0.0000 -14.2844 0.0000
# 4 0.0000 0.0000 0.0000 22.3395 0.0000 3.7498
# 5 -1.6571 4.9467 -14.2844 0.0000 39.6382 0.0000
# 6 0.0000 0.0000 0.0000 3.7498 0.0000 34.0458
#
#
#
# Elastic Compliance Matrix: (Units=1/GPa)
#
#
# Indices 1 2 3 4 5 6 
#
# 1 0.011199 -0.006306 -0.000346 0.000000 0.001130 0.000000
# 2 -0.006306 0.016603 -0.004323 0.000000 -0.003893 0.000000
# 3 -0.000346 -0.004323 0.008908 0.000000 0.003735 0.000000
# 4 0.000000 0.000000 0.000000 0.045607 0.000000 -0.005023
# 5 0.001130 -0.003893 0.003735 0.000000 0.027107 0.000000
# 6 0.000000 0.000000 0.000000 -0.005023 0.000000 0.029925
#
#
# Mechanical properties :
#
#
# Convention : Reuss Voigt Hill
#
# Bulk Modulus (GPa) = 67.75232 68.49929 68.12580
# Shear Modulus (GPa) = 30.08068 34.22387 32.15227
#
# Velocity S-wave (km/s) = 3.74290 3.99235 3.86963
# Velocity P-wave (km/s) = 7.08751 7.29064 7.18980
#
# Compressibility (1/GPa) = 0.01475964
#
# Stress axis : x y z
#
# Youngs Moduli (GPa) = 89.29741 60.22977 112.25669
#
# Poissons Ratio (x) = 0.37980 0.03888
# Poissons Ratio (y) = 0.56309 0.48528
# Poissons Ratio (z) = 0.03092 0.26037
#
# Static dielectric constant tensor:
#      x y z
#    x 1.846180 0.000000 0.005100 
#    y 0.000000 1.795380 0.000000 
#    z 0.005100 0.000000 1.792380 
# 
# From -- ./inp_files/27288.got.cif
#   From: 2010.05.17/outbox.cif.g08.bks.cpg/sg9_14_cif.got.tgz:27288.got - 2010.06.03 20:04:27.
