data_PCOD9139837
_publ_section_title
;
Structure prediction by ZEFSAII (Michael W. Deem and Ramdas Pophale) SiO2 
 PCOD9139837
Probable space group: C C
;
_chemical_formula_sum "Si O2"
_cell_formula_units_Z 32
_cell_length_a 15.889160
_cell_length_b 11.584567
_cell_length_c 14.051654
_cell_angle_alpha 90.000000
_cell_angle_beta 147.524091
_cell_angle_gamma 90.000000
_cell_volume 1388.794370
_symmetry_space_group_name_H-M "C C"
_symmetry_group_IT_number 9
_symmetry_cell_setting 'monoclinic'
loop_
_space_group_symop_operation_xyz
x,y,z
x,-y,1/2+z
1/2+x,1/2+y,z
1/2+x,1/2-y,1/2+z
loop_
_atom_site_type_symbol
_atom_site_label
_atom_site_fract_x
_atom_site_fract_y
_atom_site_fract_z
Si Si1 0.358360 0.529358 0.849070
Si Si2 0.821880 0.321844 0.027058
Si Si3 0.498643 0.961985 0.054840
Si Si4 0.976001 0.902978 0.653021
Si Si5 0.395854 0.099830 0.796156
Si Si6 0.523147 0.174110 0.206318
Si Si7 0.837099 0.125577 0.616522
Si Si8 0.065554 0.806134 0.054870
O O1 0.185721 0.533986 0.730122
O O2 0.346841 0.589838 0.736032
O O3 0.469273 0.589311 0.032533
O O4 0.426141 0.399199 0.908248
O O5 0.891926 0.395884 0.180074
O O6 0.922426 0.351883 0.029971
O O7 0.846951 0.186729 0.069051
O O8 0.643292 0.356386 0.844393
O O9 0.447504 0.070639 0.072405
O O10 0.438666 0.983360 0.891157
O O11 0.937923 0.028285 0.657972
O O12 0.225375 0.139057 0.670193
O O13 0.520984 0.194051 0.951304
O O14 0.664911 0.126754 0.405410
O O15 0.407665 0.248820 0.160961
O O16 0.581970 0.261765 0.178837
#
# Coordination Sequence:
#
# PCOD9139837 Si02
#       8
#     4   4   4   4   4   4   4   4
#     4  12  25  46  71 107 150 191 248 309 373 446
#     4  12  27  46  72 102 149 193 248 302 381 450
#     4  11  25  44  73 105 147 196 245 308 373 457
#     4  12  27  48  71 105 147 197 246 313 376 450
#     4  11  23  40  71 106 134 186 247 298 363 446
#     4  11  23  45  73 108 149 194 246 304 380 446
#     4  12  27  45  78 110 148 195 250 312 378 450
#     4  11  21  44  71 105 142 188 242 310 362 445
#
# _framework density 23.041568999999999
#
# number of rings (size 3 to 8) (size 9 to 14) (size 15 to 20)
#    0.000    0.500    2.500    6.750    3.500    2.000 
#    0.000    0.000    0.000    0.000    0.000    0.000 
#    0.000    0.000    0.000    0.000    0.000    0.000 
#
# Total GULP energy -89623.430317 kJ/mol
# GULP energy per Si atom -5601.464395 kJ/mol
# Density = 2.298913 g / cm^3
# Si number density = 23.041569 Si / 1000 Ang^3
#
#
#
# Elastic Constant Matrix: (Units=GPa)
#
#
# Indices 1 2 3 4 5 6 
#
# 1 51.7026 13.6071 18.7454 0.0000 -28.0926 0.0000
# 2 13.6071 60.9784 5.2149 0.0000 -8.2528 0.0000
# 3 18.7454 5.2149 109.3828 0.0000 -25.1669 0.0000
# 4 0.0000 0.0000 0.0000 34.6153 0.0000 3.0402
# 5 -28.0926 -8.2528 -25.1669 0.0000 52.2455 0.0000
# 6 0.0000 0.0000 0.0000 3.0402 0.0000 33.3565
#
#
#
# Elastic Compliance Matrix: (Units=1/GPa)
#
#
# Indices 1 2 3 4 5 6 
#
# 1 0.028630 -0.004368 -0.001479 0.000000 0.013992 0.000000
# 2 -0.004368 0.017429 0.000012 0.000000 0.000410 0.000000
# 3 -0.001479 0.000012 0.010361 0.000000 0.004198 0.000000
# 4 0.000000 0.000000 0.000000 0.029122 0.000000 -0.002654
# 5 0.013992 0.000410 0.004198 0.000000 0.028751 0.000000
# 6 0.000000 0.000000 0.000000 -0.002654 0.000000 0.030221
#
#
# Mechanical properties :
#
#
# Convention : Reuss Voigt Hill
#
# Bulk Modulus (GPa) = 22.34712 33.02204 27.68458
# Shear Modulus (GPa) = 29.22274 36.34322 32.78298
#
# Velocity S-wave (km/s) = 3.56513 3.97582 3.77606
# Velocity P-wave (km/s) = 5.16396 5.95305 5.57249
#
# Compressibility (1/GPa) = 0.04474849
#
# Stress axis : x y z
#
# Youngs Moduli (GPa) = 34.92875 57.37724 96.51710
#
# Poissons Ratio (x) = 0.25065 0.14273
# Poissons Ratio (y) = 0.15259 -0.00116
# Poissons Ratio (z) = 0.05165 -0.00069
#
# Static dielectric constant tensor:
#      x y z
#    x 1.854700 0.000000 -0.016680 
#    y 0.000000 1.861990 0.000000 
#    z -0.016680 0.000000 1.830070 
# 
# From -- ./inp_files/9090.got.cif
#   From: 2010.05.17/outbox.cif.g08.bks.cpg/sg9_5_cif.got.tgz:9090.got - 2010.06.03 20:04:27.
