data_PCOD9139404
_publ_section_title
;
Structure prediction by ZEFSAII (Michael W. Deem and Ramdas Pophale) SiO2 
 PCOD9139404
Probable space group: C C
;
_chemical_formula_sum "Si O2"
_cell_formula_units_Z 28
_cell_length_a 11.654809
_cell_length_b 13.839416
_cell_length_c 8.692217
_cell_angle_alpha 90.000000
_cell_angle_beta 127.024736
_cell_angle_gamma 90.000000
_cell_volume 1119.336716
_symmetry_space_group_name_H-M "C C"
_symmetry_group_IT_number 9
_symmetry_cell_setting 'monoclinic'
loop_
_space_group_symop_operation_xyz
x,y,z
x,-y,1/2+z
1/2+x,1/2+y,z
1/2+x,1/2-y,1/2+z
loop_
_atom_site_type_symbol
_atom_site_label
_atom_site_fract_x
_atom_site_fract_y
_atom_site_fract_z
Si Si1 0.883230 0.963982 0.723570
Si Si2 0.270148 0.320150 0.847311
Si Si3 0.476465 0.643902 0.987328
Si Si4 0.275247 0.868757 0.191235
Si Si5 0.797812 0.697296 0.179948
Si Si6 0.805719 0.510870 0.991153
Si Si7 0.563144 0.050955 0.037914
O O1 0.891930 0.890303 0.877090
O O2 0.927887 0.909776 0.604345
O O3 0.708604 0.982546 0.574174
O O4 0.954246 0.063897 0.833367
O O5 0.244292 0.240815 0.693582
O O6 0.125934 0.382261 0.725669
O O7 0.297205 0.264114 0.025161
O O8 0.385782 0.739856 0.872834
O O9 0.639510 0.678413 0.115467
O O10 0.220713 0.931911 0.291762
O O11 0.448623 0.886700 0.347048
O O12 0.226144 0.921370 0.999794
O O13 0.840398 0.591009 0.149280
O O14 0.955436 0.477735 0.034690
#
# Coordination Sequence:
#
# PCOD9139404 Si02
#       7
#     4   4   4   4   4   4   4
#     4  10  25  44  69 103 138 194 228 298 351 434
#     4   9  20  43  66  97 131 185 232 288 351 416
#     4  12  27  48  73 105 149 186 244 291 363 424
#     4   9  19  35  63  94 129 170 224 279 340 411
#     4  11  25  45  72 104 144 189 234 297 358 426
#     4   9  20  38  62  99 126 179 220 290 339 415
#     4   8  20  37  63  90 131 167 240 261 358 392
#
# _framework density 25.014813
#
# number of rings (size 3 to 8) (size 9 to 14) (size 15 to 20)
#    1.714    0.571    0.000    1.714    2.000    5.714 
#    2.571    0.000    0.000    0.000    0.000    0.000 
#    0.000    0.000    0.000    0.000    0.000    0.000 
#
# Total GULP energy -78154.921734 kJ/mol
# GULP energy per Si atom -5582.494410 kJ/mol
# Density = 2.495788 g / cm^3
# Si number density = 25.014813 Si / 1000 Ang^3
#
#
#
# Elastic Constant Matrix: (Units=GPa)
#
#
# Indices 1 2 3 4 5 6 
#
# 1 146.6395 37.9144 50.2533 0.0000 -3.6412 0.0000
# 2 37.9144 96.5024 41.4436 0.0000 -16.2120 0.0000
# 3 50.2533 41.4436 84.4520 0.0000 -6.1704 0.0000
# 4 0.0000 0.0000 0.0000 40.0917 0.0000 -17.6241
# 5 -3.6412 -16.2120 -6.1704 0.0000 15.3451 0.0000
# 6 0.0000 0.0000 0.0000 -17.6241 0.0000 28.3591
#
#
#
# Elastic Compliance Matrix: (Units=1/GPa)
#
#
# Indices 1 2 3 4 5 6 
#
# 1 0.008772 -0.001806 -0.004451 0.000000 -0.001617 0.000000
# 2 -0.001806 0.015877 -0.005690 0.000000 0.014058 0.000000
# 3 -0.004451 -0.005690 0.017273 0.000000 -0.000122 0.000000
# 4 0.000000 0.000000 0.000000 0.034318 0.000000 0.021327
# 5 -0.001617 0.014058 -0.000122 0.000000 0.079587 0.000000
# 6 0.000000 0.000000 0.000000 0.021327 0.000000 0.048516
#
#
# Mechanical properties :
#
#
# Convention : Reuss Voigt Hill
#
# Bulk Modulus (GPa) = 55.47064 65.20184 60.33624
# Shear Modulus (GPa) = 21.34503 29.95804 25.65153
#
# Velocity S-wave (km/s) = 2.92429 3.46441 3.20574
# Velocity P-wave (km/s) = 5.79873 6.49035 6.15426
#
# Compressibility (1/GPa) = 0.01802756
#
# Stress axis : x y z
#
# Youngs Moduli (GPa) = 114.00154 62.98373 57.89372
#
# Poissons Ratio (x) = 0.11376 0.25771
# Poissons Ratio (y) = 0.20592 0.32939
# Poissons Ratio (z) = 0.50747 0.35835
#
# Static dielectric constant tensor:
#      x y z
#    x 1.983330 0.000000 -0.024180 
#    y 0.000000 1.946850 0.000000 
#    z -0.024180 0.000000 2.036990 
# 
# From -- ./inp_files/7636.got.cif
#   From: 2010.05.17/outbox.cif.g08.bks.cpg/sg9_4_cif.got.tgz:7636.got - 2010.06.03 20:04:27.
