data_PCOD9139811
_publ_section_title
;
Structure prediction by ZEFSAII (Michael W. Deem and Ramdas Pophale) SiO2 
 PCOD9139811
Probable space group: C C
;
_chemical_formula_sum "Si O2"
_cell_formula_units_Z 32
_cell_length_a 19.545604
_cell_length_b 15.807947
_cell_length_c 9.205671
_cell_angle_alpha 90.000000
_cell_angle_beta 150.486590
_cell_angle_gamma 90.000000
_cell_volume 1401.194583
_symmetry_space_group_name_H-M "C C"
_symmetry_group_IT_number 9
_symmetry_cell_setting 'monoclinic'
loop_
_space_group_symop_operation_xyz
x,y,z
x,-y,1/2+z
1/2+x,1/2+y,z
1/2+x,1/2-y,1/2+z
loop_
_atom_site_type_symbol
_atom_site_label
_atom_site_fract_x
_atom_site_fract_y
_atom_site_fract_z
Si Si1 0.523480 0.865400 0.838120
Si Si2 0.336415 0.973248 0.673240
Si Si3 0.727535 0.383643 0.760181
Si Si4 0.176767 0.673437 0.095254
Si Si5 0.917930 0.213659 0.083432
Si Si6 0.105210 0.433239 0.711120
Si Si7 0.439506 0.688747 0.790513
Si Si8 0.772583 0.920231 0.486193
O O1 0.382915 0.912595 0.625895
O O2 0.561975 0.858716 0.740920
O O3 0.514003 0.778277 0.902963
O O4 0.655445 0.914814 0.145125
O O5 0.257100 0.925704 0.656395
O O6 0.272881 0.055474 0.477761
O O7 0.483321 0.000025 0.016919
O O8 0.561822 0.374363 0.472363
O O9 0.812653 0.293301 0.922335
O O10 0.092035 0.601966 0.025562
O O11 0.307915 0.689083 0.441201
O O12 0.227907 0.635782 0.039802
O O13 0.073728 0.751014 0.884257
O O14 0.898705 0.131331 0.149488
O O15 0.894944 0.186065 0.875003
O O16 0.253373 0.481757 0.998036
#
# Coordination Sequence:
#
# PCOD9139811 Si02
#       8
#     4   4   4   4   4   4   4   4
#     4  11  21  42  72 105 140 185 242 300 351 438
#     4  11  22  42  75 101 136 189 245 292 362 434
#     4  12  24  48  72 104 143 188 246 308 356 438
#     4  12  26  44  71 109 144 196 245 298 374 434
#     4  12  23  48  74 103 147 191 244 306 362 435
#     4  11  23  41  74 108 138 192 249 293 359 442
#     4  12  28  45  71 109 149 188 244 304 372 431
#     4  11  23  44  71 103 141 183 245 303 350 428
#
# _framework density 22.837657
#
# number of rings (size 3 to 8) (size 9 to 14) (size 15 to 20)
#    0.000    0.500    6.250    3.000    1.750    1.000 
#    4.500    0.000    0.000    0.000    0.000    0.000 
#    0.000    0.000    0.000    0.000    0.000    0.000 
#
# Total GULP energy -89315.605861 kJ/mol
# GULP energy per Si atom -5582.225366 kJ/mol
# Density = 2.278568 g / cm^3
# Si number density = 22.837657 Si / 1000 Ang^3
#
#
#
# Elastic Constant Matrix: (Units=GPa)
#
#
# Indices 1 2 3 4 5 6 
#
# 1 113.9772 22.5096 8.2426 0.0000 -20.2743 0.0000
# 2 22.5096 39.3926 -9.8243 0.0000 -2.4388 0.0000
# 3 8.2426 -9.8243 78.8498 0.0000 6.2515 0.0000
# 4 0.0000 0.0000 0.0000 28.8925 0.0000 -5.7528
# 5 -20.2743 -2.4388 6.2515 0.0000 29.1888 0.0000
# 6 0.0000 0.0000 0.0000 -5.7528 0.0000 38.5903
#
#
#
# Elastic Compliance Matrix: (Units=1/GPa)
#
#
# Indices 1 2 3 4 5 6 
#
# 1 0.011798 -0.006918 -0.002746 0.000000 0.008205 0.000000
# 2 -0.006918 0.030323 0.004762 0.000000 -0.003292 0.000000
# 3 -0.002746 0.004762 0.013919 0.000000 -0.004490 0.000000
# 4 0.000000 0.000000 0.000000 0.035670 0.000000 0.005317
# 5 0.008205 -0.003292 -0.004490 0.000000 0.040645 0.000000
# 6 0.000000 0.000000 0.000000 0.005317 0.000000 0.026706
#
#
# Mechanical properties :
#
#
# Convention : Reuss Voigt Hill
#
# Bulk Modulus (GPa) = 21.62841 30.45283 26.04062
# Shear Modulus (GPa) = 27.13313 33.42043 30.27678
#
# Velocity S-wave (km/s) = 3.45060 3.82958 3.64502
# Velocity P-wave (km/s) = 5.03653 5.73739 5.39835
#
# Compressibility (1/GPa) = 0.04623548
#
# Stress axis : x y z
#
# Youngs Moduli (GPa) = 84.75948 32.97860 71.84554
#
# Poissons Ratio (x) = 0.22816 0.19728
# Poissons Ratio (y) = 0.58641 -0.34215
# Poissons Ratio (z) = 0.23274 -0.15705
#
# Static dielectric constant tensor:
#      x y z
#    x 1.872300 0.000000 0.046140 
#    y 0.000000 1.987650 0.000000 
#    z 0.046140 0.000000 1.870240 
# 
# From -- ./inp_files/11839.got.cif
#   From: 2010.05.17/outbox.cif.g08.bks.cpg/sg9_6_cif.got.tgz:11839.got - 2010.06.03 20:04:27.
