data_PCOD9139463
_publ_section_title
;
Structure prediction by ZEFSAII (Michael W. Deem and Ramdas Pophale) SiO2 
 PCOD9139463
Probable space group: C C
;
_chemical_formula_sum "Si O2"
_cell_formula_units_Z 28
_cell_length_a 12.816086
_cell_length_b 12.240953
_cell_length_c 7.491702
_cell_angle_alpha 90.000000
_cell_angle_beta 113.894890
_cell_angle_gamma 90.000000
_cell_volume 1074.571078
_symmetry_space_group_name_H-M "C C"
_symmetry_group_IT_number 9
_symmetry_cell_setting 'monoclinic'
loop_
_space_group_symop_operation_xyz
x,y,z
x,-y,1/2+z
1/2+x,1/2+y,z
1/2+x,1/2-y,1/2+z
loop_
_atom_site_type_symbol
_atom_site_label
_atom_site_fract_x
_atom_site_fract_y
_atom_site_fract_z
Si Si1 0.801700 0.146867 0.447900
Si Si2 0.145785 0.623805 0.640257
Si Si3 0.567194 0.355426 0.511484
Si Si4 0.322928 0.125881 0.125187
Si Si5 0.004707 0.924507 0.840248
Si Si6 0.640692 0.218580 0.011351
Si Si7 0.960046 0.536834 0.947145
O O1 0.733781 0.079296 0.552513
O O2 0.844938 0.247279 0.601122
O O3 0.900318 0.093152 0.401290
O O4 0.715176 0.192240 0.236212
O O5 0.080535 0.725927 0.499604
O O6 0.059164 0.526929 0.624074
O O7 0.192252 0.676011 0.857429
O O8 0.700758 0.386458 0.629384
O O9 0.490908 0.376771 0.632521
O O10 0.528544 0.446311 0.344287
O O11 0.420402 0.059080 0.289918
O O12 0.338234 0.071472 0.943218
O O13 0.107871 0.846366 0.980978
O O14 0.521973 0.149461 0.936479
#
# Coordination Sequence:
#
# PCOD9139463 Si02
#       7
#     4   4   4   4   4   4   4
#     4  11  26  48  73 105 146 199 237 304 376 440
#     4  10  25  48  71 108 145 186 246 307 367 441
#     4  10  25  46  66 105 143 186 241 305 356 441
#     4  11  24  43  76 111 139 197 251 306 364 439
#     4  11  25  47  69 103 142 194 238 298 369 437
#     4  11  25  47  73 108 149 184 247 308 368 438
#     4  12  22  45  78 108 146 190 248 310 372 438
#
# _framework density 26.056909000000001
#
# number of rings (size 3 to 8) (size 9 to 14) (size 15 to 20)
#    0.000    1.143    2.857    1.714    6.000    1.143 
#   18.000    0.000    0.000    0.000    0.000    0.000 
#    0.000    0.000    0.000    0.000    0.000    0.000 
#
# Total GULP energy -78180.138223 kJ/mol
# GULP energy per Si atom -5584.295587 kJ/mol
# Density = 2.599760 g / cm^3
# Si number density = 26.056909 Si / 1000 Ang^3
#
#
#
# Elastic Constant Matrix: (Units=GPa)
#
#
# Indices 1 2 3 4 5 6 
#
# 1 134.7355 18.6853 28.7120 0.0000 -38.8392 0.0000
# 2 18.6853 107.5048 -0.8018 0.0000 2.1638 0.0000
# 3 28.7120 -0.8018 55.3753 0.0000 -11.9381 0.0000
# 4 0.0000 0.0000 0.0000 31.5536 0.0000 5.8407
# 5 -38.8392 2.1638 -11.9381 0.0000 29.6606 0.0000
# 6 0.0000 0.0000 0.0000 5.8407 0.0000 33.2713
#
#
#
# Elastic Compliance Matrix: (Units=1/GPa)
#
#
# Indices 1 2 3 4 5 6 
#
# 1 0.013125 -0.002629 -0.003391 0.000000 0.016014 0.000000
# 2 -0.002629 0.009842 0.000667 0.000000 -0.003892 0.000000
# 3 -0.003391 0.000667 0.020651 0.000000 0.003822 0.000000
# 4 0.000000 0.000000 0.000000 0.032757 0.000000 -0.005750
# 5 0.016014 -0.003892 0.003822 0.000000 0.056507 0.000000
# 6 0.000000 0.000000 0.000000 -0.005750 0.000000 0.031065
#
#
# Mechanical properties :
#
#
# Convention : Reuss Voigt Hill
#
# Bulk Modulus (GPa) = 30.38504 43.42297 36.90400
# Shear Modulus (GPa) = 26.93610 35.63177 31.28393
#
# Velocity S-wave (km/s) = 3.21867 3.70193 3.46873
# Velocity P-wave (km/s) = 5.04970 5.91382 5.49876
#
# Compressibility (1/GPa) = 0.03291094
#
# Stress axis : x y z
#
# Youngs Moduli (GPa) = 76.18798 101.60381 48.42465
#
# Poissons Ratio (x) = 0.26711 0.16422
# Poissons Ratio (y) = 0.20029 -0.03228
# Poissons Ratio (z) = 0.25837 -0.06772
#
# Static dielectric constant tensor:
#      x y z
#    x 2.047620 0.000000 -0.018190 
#    y 0.000000 2.032540 0.000000 
#    z -0.018190 0.000000 2.147710 
# 
# From -- ./inp_files/9160.got.cif
#   From: 2010.05.17/outbox.cif.g08.bks.cpg/sg9_5_cif.got.tgz:9160.got - 2010.06.03 20:04:27.
