data_PCOD9139531
_publ_section_title
;
Structure prediction by ZEFSAII (Michael W. Deem and Ramdas Pophale) SiO2 
 PCOD9139531
Probable space group: C C
;
_chemical_formula_sum "Si O2"
_cell_formula_units_Z 24
_cell_length_a 12.188723
_cell_length_b 8.761860
_cell_length_c 10.823183
_cell_angle_alpha 90.000000
_cell_angle_beta 54.760671
_cell_angle_gamma 90.000000
_cell_volume 944.056847
_symmetry_space_group_name_H-M "C C"
_symmetry_group_IT_number 9
_symmetry_cell_setting 'monoclinic'
loop_
_space_group_symop_operation_xyz
x,y,z
x,-y,1/2+z
1/2+x,1/2+y,z
1/2+x,1/2-y,1/2+z
loop_
_atom_site_type_symbol
_atom_site_label
_atom_site_fract_x
_atom_site_fract_y
_atom_site_fract_z
Si Si1 0.297040 0.926838 0.334710
Si Si2 0.185792 0.683143 0.562777
Si Si3 0.504777 0.386980 0.545721
Si Si4 0.136137 0.326961 0.561892
Si Si5 0.846612 0.181472 0.700802
Si Si6 0.350430 0.867952 0.030562
O O1 0.271926 0.750515 0.391916
O O2 0.140604 0.977948 0.423958
O O3 0.359101 0.942808 0.159852
O O4 0.361490 0.017615 0.408049
O O5 0.052818 0.785273 0.631290
O O6 0.149986 0.505773 0.586130
O O7 0.268563 0.728048 0.628621
O O8 0.485481 0.770749 0.635086
O O9 0.457955 0.269406 0.470136
O O10 0.239181 0.309125 0.379989
O O11 0.206539 0.215761 0.615275
O O12 0.891754 0.007405 0.649448
#
# Coordination Sequence:
#
# PCOD9139531 Si02
#       6
#     4   4   4   4   4   4
#     4  10  27  47  73 115 153 205 262 332 400 470
#     4  10  26  47  78 118 157 211 271 333 403 489
#     4  10  25  49  75 113 162 204 269 334 391 484
#     4  12  28  47  86 114 164 214 276 326 416 478
#     4  12  27  52  76 123 160 220 263 341 399 496
#     4  12  25  50  78 111 158 208 265 330 403 477
#
# _framework density 25.422197000000001
#
# number of rings (size 3 to 8) (size 9 to 14) (size 15 to 20)
#    1.000    0.000    3.333    1.000    7.000    2.667 
#    3.000    0.000    0.000    0.000    0.000    0.000 
#    0.000    0.000    0.000    0.000    0.000    0.000 
#
# Total GULP energy -67123.531721 kJ/mol
# GULP energy per Si atom -5593.627643 kJ/mol
# Density = 2.536433 g / cm^3
# Si number density = 25.422197 Si / 1000 Ang^3
#
#
#
# Elastic Constant Matrix: (Units=GPa)
#
#
# Indices 1 2 3 4 5 6 
#
# 1 140.1554 7.4080 40.0147 0.0000 18.9191 0.0000
# 2 7.4080 104.7495 26.1816 0.0000 18.0709 0.0000
# 3 40.0147 26.1816 127.9227 0.0000 2.9941 0.0000
# 4 0.0000 0.0000 0.0000 28.3296 0.0000 -2.7444
# 5 18.9191 18.0709 2.9941 0.0000 46.6822 0.0000
# 6 0.0000 0.0000 0.0000 -2.7444 0.0000 55.1668
#
#
#
# Elastic Compliance Matrix: (Units=1/GPa)
#
#
# Indices 1 2 3 4 5 6 
#
# 1 0.008327 0.000674 -0.002662 0.000000 -0.003465 0.000000
# 2 0.000674 0.010824 -0.002325 0.000000 -0.004314 0.000000
# 3 -0.002662 -0.002325 0.009093 0.000000 0.001396 0.000000
# 4 0.000000 0.000000 0.000000 0.035470 0.000000 0.001764
# 5 -0.003465 -0.004314 0.001396 0.000000 0.024406 0.000000
# 6 0.000000 0.000000 0.000000 0.001764 0.000000 0.018215
#
#
# Mechanical properties :
#
#
# Convention : Reuss Voigt Hill
#
# Bulk Modulus (GPa) = 50.97145 57.78181 54.37663
# Shear Modulus (GPa) = 41.15229 45.98393 43.56811
#
# Velocity S-wave (km/s) = 4.02774 4.25762 4.14428
# Velocity P-wave (km/s) = 6.45939 6.85186 6.65852
#
# Compressibility (1/GPa) = 0.01961883
#
# Stress axis : x y z
#
# Youngs Moduli (GPa) = 120.09259 92.38412 109.97458
#
# Poissons Ratio (x) = -0.06228 0.29270
# Poissons Ratio (y) = -0.08096 0.25572
# Poissons Ratio (z) = 0.31963 0.21482
#
# Static dielectric constant tensor:
#      x y z
#    x 1.994550 0.000000 -0.034890 
#    y 0.000000 2.090000 0.000000 
#    z -0.034890 0.000000 2.037790 
# 
# From -- ./inp_files/18872.got.cif
#   From: 2010.05.17/outbox.cif.g08.bks.cpg/sg9_10_cif.got.tgz:18872.got - 2010.06.03 20:04:27.
