data_PCOD9139014
_publ_section_title
;
Structure prediction by ZEFSAII (Michael W. Deem and Ramdas Pophale) SiO2 
 PCOD9139014
Probable space group: C C
;
_chemical_formula_sum "Si O2"
_cell_formula_units_Z 32
_cell_length_a 18.346306
_cell_length_b 5.195102
_cell_length_c 14.362491
_cell_angle_alpha 90.000000
_cell_angle_beta 65.632444
_cell_angle_gamma 90.000000
_cell_volume 1246.957055
_symmetry_space_group_name_H-M "C C"
_symmetry_group_IT_number 9
_symmetry_cell_setting 'monoclinic'
loop_
_space_group_symop_operation_xyz
x,y,z
x,-y,1/2+z
1/2+x,1/2+y,z
1/2+x,1/2-y,1/2+z
loop_
_atom_site_type_symbol
_atom_site_label
_atom_site_fract_x
_atom_site_fract_y
_atom_site_fract_z
Si Si1 0.341600 0.098221 0.942680
Si Si2 0.694392 0.308501 0.963836
Si Si3 0.671424 0.614598 0.803444
Si Si4 0.895861 0.362581 0.621076
Si Si5 0.015299 0.564324 0.786767
Si Si6 0.326211 0.632063 0.257582
Si Si7 0.568872 0.018295 0.453609
Si Si8 0.084264 0.041737 0.672226
O O1 0.427061 0.990870 0.865028
O O2 0.323733 0.312164 0.871108
O O3 0.354426 0.188291 0.041987
O O4 0.275408 0.873591 0.974079
O O5 0.646311 0.045304 0.975415
O O6 0.625925 0.472550 0.051803
O O7 0.709719 0.411759 0.852785
O O8 0.734313 0.850957 0.769228
O O9 0.654878 0.511739 0.710557
O O10 0.588188 0.706428 0.896064
O O11 0.864066 0.618246 0.687821
O O12 0.988543 0.434616 0.548937
O O13 0.874255 0.118802 0.697613
O O14 0.052165 0.324474 0.713356
O O15 0.020380 0.819837 0.722582
O O16 0.061103 0.632400 0.858859
#
# Coordination Sequence:
#
# PCOD9139014 Si02
#       8
#     4   4   4   4   4   4   4   4
#     4  10  26  47  70 107 146 189 241 301 367 434
#     4  11  24  43  70 101 137 184 235 294 352 433
#     4  10  24  46  67 104 142 185 234 303 356 430
#     4  11  27  48  72 107 146 195 240 308 362 443
#     4  10  24  46  67  99 140 182 231 294 353 422
#     4  11  27  45  76 102 148 191 244 294 375 436
#     4  10  24  43  72  96 143 185 240 294 362 420
#     4  11  24  42  72  98 136 183 235 286 351 426
#
# _framework density 25.662469999999999
#
# number of rings (size 3 to 8) (size 9 to 14) (size 15 to 20)
#    0.000    1.500    1.250    0.750   10.500    6.000 
#    6.750    0.000    0.000    0.000    0.000    0.000 
#    0.000    0.000    0.000    0.000    0.000    0.000 
#
# Total GULP energy -89401.421979 kJ/mol
# GULP energy per Si atom -5587.588874 kJ/mol
# Density = 2.560406 g / cm^3
# Si number density = 25.662470 Si / 1000 Ang^3
#
#
#
# Elastic Constant Matrix: (Units=GPa)
#
#
# Indices 1 2 3 4 5 6 
#
# 1 104.5534 16.1860 39.5311 0.0019 -0.3131 0.0041
# 2 16.1860 129.9320 62.5114 0.0036 -13.3566 0.0079
# 3 39.5311 62.5114 139.4280 -0.0004 2.9267 0.0003
# 4 0.0019 0.0036 -0.0004 39.3571 0.0000 -0.2666
# 5 -0.3131 -13.3566 2.9267 0.0000 55.0316 0.0004
# 6 0.0041 0.0079 0.0003 -0.2666 0.0004 26.7738
#
#
#
# Elastic Compliance Matrix: (Units=1/GPa)
#
#
# Indices 1 2 3 4 5 6 
#
# 1 0.010720 0.000202 -0.003135 -0.000001 0.000277 -0.000002
# 2 0.000202 0.010209 -0.004691 -0.000001 0.002728 -0.000003
# 3 -0.003135 -0.004691 0.010200 0.000001 -0.001699 0.000002
# 4 -0.000001 -0.000001 0.000001 0.025410 0.000000 0.000253
# 5 0.000277 0.002728 -0.001699 0.000000 0.018926 -0.000001
# 6 -0.000002 -0.000003 0.000002 0.000253 -0.000001 0.037352
#
#
# Mechanical properties :
#
#
# Convention : Reuss Voigt Hill
#
# Bulk Modulus (GPa) = 62.98059 67.81895 65.39977
# Shear Modulus (GPa) = 37.49254 41.27817 39.38535
#
# Velocity S-wave (km/s) = 3.82643 4.01497 3.92183
# Velocity P-wave (km/s) = 6.64209 6.92661 6.78584
#
# Compressibility (1/GPa) = 0.01587791
#
# Stress axis : x y z
#
# Youngs Moduli (GPa) = 93.28704 97.95472 98.03766
#
# Poissons Ratio (x) = -0.01974 0.30739
# Poissons Ratio (y) = -0.01880 0.45994
# Poissons Ratio (z) = 0.29249 0.45955
#
# Static dielectric constant tensor:
#      x y z
#    x 2.119220 0.000000 0.005870 
#    y 0.000000 2.023580 0.000000 
#    z 0.005870 0.000000 1.968490 
# 
# From -- ./inp_files/27134.got.cif
#   From: 2010.05.17/outbox.cif.g08.bks.cpg/sg9_14_cif.got.tgz:27134.got - 2010.06.03 20:04:27.
