data_PCOD9139480
_publ_section_title
;
Structure prediction by ZEFSAII (Michael W. Deem and Ramdas Pophale) SiO2 
 PCOD9139480
Probable space group: C C
;
_chemical_formula_sum "Si O2"
_cell_formula_units_Z 32
_cell_length_a 27.746467
_cell_length_b 5.391619
_cell_length_c 23.838935
_cell_angle_alpha 90.000000
_cell_angle_beta 158.802907
_cell_angle_gamma 90.000000
_cell_volume 1289.480721
_symmetry_space_group_name_H-M "C C"
_symmetry_group_IT_number 9
_symmetry_cell_setting 'monoclinic'
loop_
_space_group_symop_operation_xyz
x,y,z
x,-y,1/2+z
1/2+x,1/2+y,z
1/2+x,1/2-y,1/2+z
loop_
_atom_site_type_symbol
_atom_site_label
_atom_site_fract_x
_atom_site_fract_y
_atom_site_fract_z
Si Si1 0.463170 0.100218 0.423210
Si Si2 0.046570 0.097506 0.480439
Si Si3 0.100254 0.762512 0.271768
Si Si4 0.785067 0.804560 0.075909
Si Si5 0.200724 0.204483 0.535636
Si Si6 0.336831 0.028731 0.480969
Si Si7 0.463503 0.615498 0.195578
Si Si8 0.721416 0.300435 0.743952
O O1 0.486259 0.323022 0.404039
O O2 0.608312 0.094777 0.611187
O O3 0.344813 0.192867 0.334631
O O4 0.446453 0.824171 0.381723
O O5 0.143015 0.166704 0.534601
O O6 0.133005 0.040421 0.630208
O O7 0.161420 0.687118 0.398162
O O8 0.227333 0.813415 0.371168
O O9 0.030435 0.024673 0.210527
O O10 0.981895 0.583768 0.124591
O O11 0.780261 0.539438 0.100873
O O12 0.773637 0.036725 0.105206
O O13 0.904711 0.877758 0.164274
O O14 0.072074 0.219986 0.355332
O O15 0.353091 0.187214 0.555975
O O16 0.280353 0.191478 0.369367
#
# Coordination Sequence:
#
# PCOD9139480 Si02
#       8
#     4   4   4   4   4   4   4   4
#     4  10  25  48  74 107 146 187 247 308 366 434
#     4  10  25  46  73 107 142 194 245 302 369 429
#     4  11  25  44  71 105 147 189 241 296 364 434
#     4  11  23  42  69 107 142 187 239 294 361 431
#     4  11  24  43  72 105 143 194 239 303 360 435
#     4  12  26  46  72 109 147 199 240 305 363 448
#     4  11  24  41  68 102 151 186 245 292 366 431
#     4  10  28  44  77 104 152 188 254 298 373 430
#
# _framework density 24.816192999999998
#
# number of rings (size 3 to 8) (size 9 to 14) (size 15 to 20)
#    0.750    0.500    2.500    2.250    5.250    3.000 
#    0.000    0.000    0.000    0.000    0.000    0.000 
#    0.000    0.000    0.000    0.000    0.000    0.000 
#
# Total GULP energy -89453.667200 kJ/mol
# GULP energy per Si atom -5590.854200 kJ/mol
# Density = 2.475971 g / cm^3
# Si number density = 24.816193 Si / 1000 Ang^3
#
#
#
# Elastic Constant Matrix: (Units=GPa)
#
#
# Indices 1 2 3 4 5 6 
#
# 1 39.4797 14.9193 12.4281 0.0007 2.5379 0.0001
# 2 14.9193 103.9245 26.3774 0.0034 -0.8659 0.0005
# 3 12.4281 26.3774 83.3587 0.0022 -4.2666 0.0008
# 4 0.0007 0.0034 0.0022 42.1011 0.0005 2.0258
# 5 2.5379 -0.8659 -4.2666 0.0005 46.1970 0.0000
# 6 0.0001 0.0005 0.0008 2.0258 0.0000 22.2253
#
#
#
# Elastic Compliance Matrix: (Units=1/GPa)
#
#
# Indices 1 2 3 4 5 6 
#
# 1 0.027661 -0.003170 -0.003217 0.000000 -0.001876 0.000000
# 2 -0.003170 0.010827 -0.002948 -0.000001 0.000105 0.000000
# 3 -0.003217 -0.002948 0.013479 0.000000 0.001366 0.000000
# 4 0.000000 -0.000001 0.000000 0.023857 0.000000 -0.002175
# 5 -0.001876 0.000105 0.001366 0.000000 0.021878 0.000000
# 6 0.000000 0.000000 0.000000 -0.002175 0.000000 0.045192
#
#
# Mechanical properties :
#
#
# Convention : Reuss Voigt Hill
#
# Bulk Modulus (GPa) = 30.03341 37.13473 33.58407
# Shear Modulus (GPa) = 28.95849 33.64055 31.29952
#
# Velocity S-wave (km/s) = 3.41973 3.68583 3.55527
# Velocity P-wave (km/s) = 5.26510 5.75414 5.51505
#
# Compressibility (1/GPa) = 0.03329625
#
# Stress axis : x y z
#
# Youngs Moduli (GPa) = 36.15236 92.36550 74.19120
#
# Poissons Ratio (x) = 0.29281 0.23866
# Poissons Ratio (y) = 0.11461 0.21871
# Poissons Ratio (z) = 0.11630 0.27228
#
# Static dielectric constant tensor:
#      x y z
#    x 1.940870 0.000000 0.017710 
#    y 0.000000 2.029980 0.000000 
#    z 0.017710 0.000000 2.043550 
# 
# From -- ./inp_files/37071.got.cif
#   From: 2010.05.17/outbox.cif.g08.bks.cpg/sg9_19_cif.got.tgz:37071.got - 2010.06.03 20:04:27.
