data_PCOD9139067
_publ_section_title
;
Structure prediction by ZEFSAII (Michael W. Deem and Ramdas Pophale) SiO2 
 PCOD9139067
Probable space group: C C
;
_chemical_formula_sum "Si O2"
_cell_formula_units_Z 16
_cell_length_a 9.400940
_cell_length_b 5.245567
_cell_length_c 21.611824
_cell_angle_alpha 90.000000
_cell_angle_beta 148.963713
_cell_angle_gamma 90.000000
_cell_volume 549.480027
_symmetry_space_group_name_H-M "C C"
_symmetry_group_IT_number 9
_symmetry_cell_setting 'monoclinic'
loop_
_space_group_symop_operation_xyz
x,y,z
x,-y,1/2+z
1/2+x,1/2+y,z
1/2+x,1/2-y,1/2+z
loop_
_atom_site_type_symbol
_atom_site_label
_atom_site_fract_x
_atom_site_fract_y
_atom_site_fract_z
Si Si1 0.355090 0.987829 0.995770
Si Si2 0.707789 0.290909 0.230630
Si Si3 0.221045 0.427031 0.873954
Si Si4 0.759278 0.829817 0.564728
O O1 0.134993 0.184921 0.885865
O O2 0.525446 0.127392 0.114263
O O3 0.556034 0.947910 0.012453
O O4 0.278842 0.724829 0.999587
O O5 0.713563 0.147467 0.298505
O O6 0.555508 0.558500 0.190488
O O7 0.987321 0.361335 0.297476
O O8 0.557788 0.402054 0.011689
#
# Coordination Sequence:
#
# PCOD9139067 Si02
#       4
#     4   4   4   4
#     4  10  24  44  68 107 146 187 245 301 353 451
#     4  12  22  48  72 110 142 202 234 306 372 434
#     4  10  26  42  76 106 150 194 244 304 372 434
#     4  10  24  44  68 107 146 187 245 301 353 451
#
# _framework density 29.118441000000001
#
# number of rings (size 3 to 8) (size 9 to 14) (size 15 to 20)
#    1.500    0.000    0.000    4.500    0.000    6.000 
#    0.000    0.000    0.000    0.000    0.000    0.000 
#    0.000    0.000    0.000    0.000    0.000    0.000 
#
# Total GULP energy -44549.137250 kJ/mol
# GULP energy per Si atom -5568.642156 kJ/mol
# Density = 2.905217 g / cm^3
# Si number density = 29.118441 Si / 1000 Ang^3
#
#
#
# Elastic Constant Matrix: (Units=GPa)
#
#
# Indices 1 2 3 4 5 6 
#
# 1 153.1014 22.7100 39.7812 -0.0031 25.3270 0.0030
# 2 22.7100 101.5973 17.7743 -0.0063 2.2060 0.0068
# 3 39.7812 17.7743 103.0078 -0.0001 -11.4324 0.0021
# 4 -0.0031 -0.0063 -0.0001 40.0813 0.0009 -8.2683
# 5 25.3270 2.2060 -11.4324 0.0009 70.6019 -0.0013
# 6 0.0030 0.0068 0.0021 -8.2683 -0.0013 56.6634
#
#
#
# Elastic Compliance Matrix: (Units=1/GPa)
#
#
# Indices 1 2 3 4 5 6 
#
# 1 0.008132 -0.001163 -0.003319 0.000000 -0.003418 0.000000
# 2 -0.001163 0.010341 -0.001349 0.000001 -0.000124 -0.000001
# 3 -0.003319 -0.001349 0.011567 -0.000001 0.003106 0.000000
# 4 0.000000 0.000001 -0.000001 0.025724 -0.000001 0.003754
# 5 -0.003418 -0.000124 0.003106 -0.000001 0.015897 0.000000
# 6 0.000000 -0.000001 0.000000 0.003754 0.000000 0.018196
#
#
# Mechanical properties :
#
#
# Convention : Reuss Voigt Hill
#
# Bulk Modulus (GPa) = 54.41199 57.58196 55.99697
# Shear Modulus (GPa) = 46.44845 51.96537 49.20691
#
# Velocity S-wave (km/s) = 3.99827 4.22906 4.11528
# Velocity P-wave (km/s) = 6.32787 6.60792 6.46941
#
# Compressibility (1/GPa) = 0.01837830
#
# Stress axis : x y z
#
# Youngs Moduli (GPa) = 122.96985 96.69826 86.44951
#
# Poissons Ratio (x) = 0.11244 0.28695
# Poissons Ratio (y) = 0.14299 0.11664
# Poissons Ratio (z) = 0.40818 0.13046
#
# Static dielectric constant tensor:
#      x y z
#    x 2.301830 0.000000 0.076580 
#    y 0.000000 2.412720 0.000000 
#    z 0.076580 0.000000 2.355800 
# 
# From -- ./inp_files/12771.got.cif
#   From: 2010.05.17/outbox.cif.g08.bks.cpg/sg9_7_cif.got.tgz:12771.got - 2010.06.03 20:04:27.
