data_PCOD9139251
_publ_section_title
;
Structure prediction by ZEFSAII (Michael W. Deem and Ramdas Pophale) SiO2 
 PCOD9139251
Probable space group: C C
;
_chemical_formula_sum "Si O2"
_cell_formula_units_Z 28
_cell_length_a 16.644511
_cell_length_b 6.427390
_cell_length_c 21.083497
_cell_angle_alpha 90.000000
_cell_angle_beta 148.195942
_cell_angle_gamma 90.000000
_cell_volume 1188.699638
_symmetry_space_group_name_H-M "C C"
_symmetry_group_IT_number 9
_symmetry_cell_setting 'monoclinic'
loop_
_space_group_symop_operation_xyz
x,y,z
x,-y,1/2+z
1/2+x,1/2+y,z
1/2+x,1/2-y,1/2+z
loop_
_atom_site_type_symbol
_atom_site_label
_atom_site_fract_x
_atom_site_fract_y
_atom_site_fract_z
Si Si1 0.438770 0.625941 0.842830
Si Si2 0.067487 0.828331 0.031614
Si Si3 0.659691 0.999917 0.984940
Si Si4 0.795944 0.582182 0.909684
Si Si5 0.381799 0.740776 0.061445
Si Si6 0.973786 0.013362 0.732495
Si Si7 0.187447 0.893811 0.708407
O O1 0.473774 0.481158 0.806892
O O2 0.262063 0.684820 0.731252
O O3 0.522576 0.843429 0.884668
O O4 0.508062 0.523918 0.951376
O O5 0.195256 0.912023 0.165778
O O6 0.123689 0.658876 0.018144
O O7 0.924389 0.741450 0.975164
O O8 0.722151 0.120699 0.964824
O O9 0.813954 0.875099 0.108473
O O10 0.620917 0.639800 0.807916
O O11 0.774285 0.438686 0.832469
O O12 0.849652 0.459686 0.008226
O O13 0.456394 0.701379 0.180920
O O14 0.509182 0.636703 0.102744
#
# Coordination Sequence:
#
# PCOD9139251 Si02
#       7
#     4   4   4   4   4   4   4
#     4  12  24  47  74 105 147 195 242 308 371 435
#     4  12  27  42  74 108 144 190 256 299 367 447
#     4  10  24  47  69 106 148 189 245 309 354 454
#     4  11  23  45  70 105 146 189 241 299 372 427
#     4   9  23  45  67 100 146 183 239 301 355 434
#     4   9  24  42  71 101 142 192 238 296 369 426
#     4  11  25  44  69 105 141 194 237 298 370 427
#
# _framework density 23.555150000000001
#
# number of rings (size 3 to 8) (size 9 to 14) (size 15 to 20)
#    0.857    0.571    1.429    2.571    6.000    1.143 
#    0.000    1.429    0.000    0.000    0.000    0.000 
#    0.000    0.000    0.000    0.000    0.000    0.000 
#
# Total GULP energy -78123.073100 kJ/mol
# GULP energy per Si atom -5580.219507 kJ/mol
# Density = 2.350154 g / cm^3
# Si number density = 23.555150 Si / 1000 Ang^3
#
#
#
# Elastic Constant Matrix: (Units=GPa)
#
#
# Indices 1 2 3 4 5 6 
#
# 1 138.6134 47.5859 45.0772 0.0000 8.5899 0.0000
# 2 47.5859 44.8727 27.5226 0.0000 14.8665 0.0001
# 3 45.0772 27.5226 67.9692 0.0000 10.5642 0.0000
# 4 0.0000 0.0000 0.0000 26.1053 0.0000 0.4337
# 5 8.5899 14.8665 10.5642 0.0000 39.4255 0.0000
# 6 0.0000 0.0001 0.0000 0.4337 0.0000 32.3273
#
#
#
# Elastic Compliance Matrix: (Units=1/GPa)
#
#
# Indices 1 2 3 4 5 6 
#
# 1 0.012267 -0.011520 -0.003892 0.000000 0.002714 0.000000
# 2 -0.011520 0.043329 -0.008092 0.000000 -0.011660 0.000000
# 3 -0.003892 -0.008092 0.020832 0.000000 -0.001683 0.000000
# 4 0.000000 0.000000 0.000000 0.038315 0.000000 -0.000514
# 5 0.002714 -0.011660 -0.001683 0.000000 0.029620 0.000000
# 6 0.000000 0.000000 0.000000 -0.000514 0.000000 0.030941
#
#
# Mechanical properties :
#
#
# Convention : Reuss Voigt Hill
#
# Bulk Modulus (GPa) = 33.99336 54.64742 44.32039
# Shear Modulus (GPa) = 21.54061 28.32292 24.93177
#
# Velocity S-wave (km/s) = 3.02731 3.47134 3.25690
# Velocity P-wave (km/s) = 5.16548 6.27033 5.74453
#
# Compressibility (1/GPa) = 0.02941751
#
# Stress axis : x y z
#
# Youngs Moduli (GPa) = 81.52048 23.07943 48.00245
#
# Poissons Ratio (x) = 0.26589 0.18684
# Poissons Ratio (y) = 0.93916 0.38845
# Poissons Ratio (z) = 0.31730 0.18677
#
# Static dielectric constant tensor:
#      x y z
#    x 1.906200 0.000000 0.016100 
#    y 0.000000 1.894990 0.000000 
#    z 0.016100 0.000000 1.891490 
# 
# From -- ./inp_files/34661.got.cif
#   From: 2010.05.17/outbox.cif.g08.bks.cpg/sg9_18_cif.got.tgz:34661.got - 2010.06.03 20:04:27.
