data_PCOD9139518
_publ_section_title
;
Structure prediction by ZEFSAII (Michael W. Deem and Ramdas Pophale) SiO2 
 PCOD9139518
Probable space group: C C
;
_chemical_formula_sum "Si O2"
_cell_formula_units_Z 20
_cell_length_a 7.923907
_cell_length_b 5.077971
_cell_length_c 18.181116
_cell_angle_alpha 90.000000
_cell_angle_beta 83.748650
_cell_angle_gamma 90.000000
_cell_volume 727.210267
_symmetry_space_group_name_H-M "C C"
_symmetry_group_IT_number 9
_symmetry_cell_setting 'monoclinic'
loop_
_space_group_symop_operation_xyz
x,y,z
x,-y,1/2+z
1/2+x,1/2+y,z
1/2+x,1/2-y,1/2+z
loop_
_atom_site_type_symbol
_atom_site_label
_atom_site_fract_x
_atom_site_fract_y
_atom_site_fract_z
Si Si1 0.091120 0.167739 0.284680
Si Si2 0.067161 0.668636 0.183085
Si Si3 0.288027 0.672091 0.583036
Si Si4 0.051035 0.529808 0.489433
Si Si5 0.856710 0.147366 0.887567
O O1 0.253865 0.216680 0.327350
O O2 0.057218 0.409825 0.233009
O O3 0.105398 0.910136 0.234105
O O4 0.937780 0.111157 0.348426
O O5 0.891077 0.723853 0.149386
O O6 0.220974 0.612635 0.117920
O O7 0.103198 0.734445 0.552689
O O8 0.229194 0.395813 0.461107
O O9 0.415284 0.810864 0.518304
O O10 0.002507 0.680525 0.417667
#
# Coordination Sequence:
#
# PCOD9139518 Si02
#       5
#     4   4   4   4   4
#     4  12  28  50  78 114 154 202 254 316 382 454
#     4  11  27  48  78 114 155 201 254 316 382 453
#     4  10  25  48  78 110 153 198 254 312 378 450
#     4  11  25  48  74 112 149 201 252 314 376 449
#     4  12  27  48  78 110 153 198 254 312 378 450
#
# _framework density 27.502361000000001
#
# number of rings (size 3 to 8) (size 9 to 14) (size 15 to 20)
#    0.000    0.800    0.000    4.800    0.000   19.200 
#    0.000    0.000    0.000    0.000    0.000    0.000 
#    0.000    0.000    0.000    0.000    0.000    0.000 
#
# Total GULP energy -55968.667767 kJ/mol
# GULP energy per Si atom -5596.866777 kJ/mol
# Density = 2.743976 g / cm^3
# Si number density = 27.502361 Si / 1000 Ang^3
#
#
#
# Elastic Constant Matrix: (Units=GPa)
#
#
# Indices 1 2 3 4 5 6 
#
# 1 146.4353 46.3890 52.6662 0.0000 5.6596 0.0000
# 2 46.3890 135.7868 54.5223 0.0000 14.8493 0.0000
# 3 52.6662 54.5223 176.5727 0.0000 38.7967 0.0000
# 4 0.0000 0.0000 0.0000 34.6009 0.0000 -9.2035
# 5 5.6596 14.8493 38.7967 0.0000 62.0796 0.0000
# 6 0.0000 0.0000 0.0000 -9.2035 0.0000 51.7840
#
#
#
# Elastic Compliance Matrix: (Units=1/GPa)
#
#
# Indices 1 2 3 4 5 6 
#
# 1 0.008178 -0.002096 -0.002015 0.000000 0.001015 0.000000
# 2 -0.002096 0.008955 -0.001984 0.000000 -0.000711 0.000000
# 3 -0.002015 -0.001984 0.007804 0.000000 -0.004219 0.000000
# 4 0.000000 0.000000 0.000000 0.030335 0.000000 0.005391
# 5 0.001015 -0.000711 -0.004219 0.000000 0.018823 0.000000
# 6 0.000000 0.000000 0.000000 0.005391 0.000000 0.020269
#
#
# Mechanical properties :
#
#
# Convention : Reuss Voigt Hill
#
# Bulk Modulus (GPa) = 78.44600 85.10554 81.77577
# Shear Modulus (GPa) = 45.12521 50.04072 47.58297
#
# Velocity S-wave (km/s) = 4.05504 4.27019 4.16401
# Velocity P-wave (km/s) = 7.10702 7.43806 7.27443
#
# Compressibility (1/GPa) = 0.01274762
#
# Stress axis : x y z
#
# Youngs Moduli (GPa) = 122.27240 111.67243 128.13963
#
# Poissons Ratio (x) = 0.23405 0.25824
# Poissons Ratio (y) = 0.25626 0.25419
# Poissons Ratio (z) = 0.24641 0.22152
#
# Static dielectric constant tensor:
#      x y z
#    x 2.109870 0.000000 -0.111640 
#    y 0.000000 2.142830 0.000000 
#    z -0.111640 0.000000 2.323090 
# 
# From -- ./inp_files/28403.got.cif
#   From: 2010.05.17/outbox.cif.g08.bks.cpg/sg9_15_cif.got.tgz:28403.got - 2010.06.03 20:04:27.
