data_PCOD9139368
_publ_section_title
;
Structure prediction by ZEFSAII (Michael W. Deem and Ramdas Pophale) SiO2 
 PCOD9139368
Probable space group: C C
;
_chemical_formula_sum "Si O2"
_cell_formula_units_Z 32
_cell_length_a 28.307843
_cell_length_b 5.310435
_cell_length_c 8.927374
_cell_angle_alpha 90.000000
_cell_angle_beta 96.003267
_cell_angle_gamma 90.000000
_cell_volume 1334.665242
_symmetry_space_group_name_H-M "C C"
_symmetry_group_IT_number 9
_symmetry_cell_setting 'monoclinic'
loop_
_space_group_symop_operation_xyz
x,y,z
x,-y,1/2+z
1/2+x,1/2+y,z
1/2+x,1/2-y,1/2+z
loop_
_atom_site_type_symbol
_atom_site_label
_atom_site_fract_x
_atom_site_fract_y
_atom_site_fract_z
Si Si1 0.942570 0.650225 0.389780
Si Si2 0.833894 0.420960 0.777635
Si Si3 0.158144 0.215027 0.173844
Si Si4 0.106008 0.528757 0.410765
Si Si5 0.281105 0.204219 0.979855
Si Si6 0.473473 0.360192 0.072062
Si Si7 0.748471 0.786401 0.404539
Si Si8 0.577267 0.335424 0.143566
O O1 0.887799 0.576659 0.341139
O O2 0.961597 0.755927 0.235452
O O3 0.965838 0.390312 0.463808
O O4 0.945029 0.893410 0.502769
O O5 0.824904 0.343247 0.604670
O O6 0.802231 0.222093 0.858726
O O7 0.803513 0.665506 0.821151
O O8 0.124583 0.343343 0.289552
O O9 0.150002 0.358212 0.016240
O O10 0.209252 0.244833 0.264984
O O11 0.129725 0.954780 0.138973
O O12 0.077828 0.742629 0.314204
O O13 0.075550 0.390237 0.524361
O O14 0.250713 0.451834 0.987155
O O15 0.246169 0.967397 0.999170
O O16 0.527647 0.468660 0.097206
#
# Coordination Sequence:
#
# PCOD9139368 Si02
#       8
#     4   4   4   4   4   4   4   4
#     4  12  28  48  77 113 148 198 254 311 382 449
#     4  10  26  44  76  98 152 178 247 292 368 428
#     4  11  25  42  70 101 141 188 239 297 357 442
#     4  10  25  41  71  96 139 181 242 292 368 421
#     4  10  25  42  70 100 139 188 229 294 352 428
#     4  12  29  48  78 109 152 195 256 311 382 451
#     4  10  27  41  72 101 145 183 242 284 369 424
#     4  11  25  46  70 100 142 187 241 303 366 435
#
# _framework density 23.976047999999999
#
# number of rings (size 3 to 8) (size 9 to 14) (size 15 to 20)
#    0.750    0.500    0.000    3.000   17.500    1.000 
#    0.000    0.000    0.000    0.000    0.000    0.000 
#    0.000    0.000    0.000    0.000    0.000    0.000 
#
# Total GULP energy -89197.307021 kJ/mol
# GULP energy per Si atom -5574.831689 kJ/mol
# Density = 2.392148 g / cm^3
# Si number density = 23.976048 Si / 1000 Ang^3
#
#
#
# Elastic Constant Matrix: (Units=GPa)
#
#
# Indices 1 2 3 4 5 6 
#
# 1 83.1334 11.6045 16.5105 0.0000 30.9516 0.0000
# 2 11.6045 125.2766 12.3306 0.0000 18.8440 0.0000
# 3 16.5105 12.3306 80.3233 0.0000 13.6408 0.0000
# 4 0.0000 0.0000 0.0000 11.1576 0.0000 13.0737
# 5 30.9516 18.8440 13.6408 0.0000 40.3826 0.0000
# 6 0.0000 0.0000 0.0000 13.0737 0.0000 9.3039
#
#
#
# Elastic Compliance Matrix: (Units=1/GPa)
#
#
# Indices 1 2 3 4 5 6 
#
# 1 0.016998 0.000486 -0.001398 0.000000 -0.012783 0.000000
# 2 0.000486 0.008634 -0.000719 0.000000 -0.004158 0.000000
# 3 -0.001398 -0.000719 0.013376 0.000000 -0.003111 0.000000
# 4 0.000000 0.000000 0.000000 -0.138633 0.000000 0.194805
# 5 -0.012783 -0.004158 -0.003111 0.000000 0.037552 0.000000
# 6 0.000000 0.000000 0.000000 0.194805 0.000000 -0.166255
#
#
# Mechanical properties :
#
#
# Convention : Reuss Voigt Hill
#
# Bulk Modulus (GPa) = 27.97577 41.06940 34.52258
# Shear Modulus (GPa) = -23.45744 28.72136 2.63196
#
# Velocity S-wave (km/s) = -3.13128 3.46485 1.04887
# Velocity P-wave (km/s) = 1.17461 5.75964 3.98709
#
# Compressibility (1/GPa) = 0.03574522
#
# Stress axis : x y z
#
# Youngs Moduli (GPa) = 58.83127 115.82685 74.76218
#
# Poissons Ratio (x) = -0.05627 0.10449
# Poissons Ratio (y) = -0.02858 0.05376
# Poissons Ratio (z) = 0.08223 0.08329
#
# Static dielectric constant tensor:
#      x y z
#    x 1.964880 0.000000 -0.044350 
#    y 0.000000 2.119700 0.000000 
#    z -0.044350 0.000000 1.942210 
# 
# From -- ./inp_files/12594.got.cif
#   From: 2010.05.17/outbox.cif.g08.bks.cpg/sg9_7_cif.got.tgz:12594.got - 2010.06.03 20:04:27.
