data_PCOD9139677
_publ_section_title
;
Structure prediction by ZEFSAII (Michael W. Deem and Ramdas Pophale) SiO2 
 PCOD9139677
Probable space group: C C
;
_chemical_formula_sum "Si O2"
_cell_formula_units_Z 28
_cell_length_a 12.623628
_cell_length_b 24.245450
_cell_length_c 12.359815
_cell_angle_alpha 90.000000
_cell_angle_beta 158.074930
_cell_angle_gamma 90.000000
_cell_volume 1412.516154
_symmetry_space_group_name_H-M "C C"
_symmetry_group_IT_number 9
_symmetry_cell_setting 'monoclinic'
loop_
_space_group_symop_operation_xyz
x,y,z
x,-y,1/2+z
1/2+x,1/2+y,z
1/2+x,1/2-y,1/2+z
loop_
_atom_site_type_symbol
_atom_site_label
_atom_site_fract_x
_atom_site_fract_y
_atom_site_fract_z
Si Si1 0.108650 0.044122 0.134420
Si Si2 0.780945 0.064776 0.260615
Si Si3 0.076927 0.444541 0.257670
Si Si4 0.138284 0.212244 0.679995
Si Si5 0.992825 0.439641 0.789363
Si Si6 0.008725 0.884482 0.199206
Si Si7 0.799650 0.615932 0.678770
O O1 0.339360 0.035233 0.447342
O O2 0.304456 0.061392 0.219157
O O3 0.857136 0.075357 0.960378
O O4 0.909780 0.995175 0.898993
O O5 0.861437 0.094973 0.448532
O O6 0.982084 0.093830 0.363447
O O7 0.464349 0.076346 0.921701
O O8 0.112776 0.499489 0.368823
O O9 0.957082 0.395035 0.216802
O O10 0.125518 0.175589 0.777118
O O11 0.268306 0.174404 0.707881
O O12 0.819834 0.232286 0.358605
O O13 0.773464 0.420061 0.489453
O O14 0.255350 0.396951 0.043181
#
# Coordination Sequence:
#
# PCOD9139677 Si02
#       7
#     4   4   4   4   4   4   4
#     4  12  24  34  54  83 124 165 210 233 270 366
#     4  11  19  34  54  85 115 163 199 234 285 360
#     4  12  23  37  54  85 123 172 203 238 293 362
#     4  11  23  42  65  95 117 151 206 268 316 365
#     4  12  22  36  55  85 122 171 199 239 294 366
#     4  11  22  37  58  86 121 159 193 248 314 355
#     4  11  23  36  60  85 124 159 196 252 312 354
#
# _framework density 19.822782
#
# number of rings (size 3 to 8) (size 9 to 14) (size 15 to 20)
#    0.000    0.571    4.286    6.857    2.000    0.000 
#    0.000    0.000    0.000    0.000    0.000   20.000 
#    0.000    0.000    0.000    0.000    0.000    0.000 
#
# Total GULP energy -78062.021804 kJ/mol
# GULP energy per Si atom -5575.858700 kJ/mol
# Density = 1.977766 g / cm^3
# Si number density = 19.822782 Si / 1000 Ang^3
#
#
#
# Elastic Constant Matrix: (Units=GPa)
#
#
# Indices 1 2 3 4 5 6 
#
# 1 97.4164 29.4761 20.3362 -0.0011 20.6287 -0.0005
# 2 29.4761 59.6826 9.6849 0.0000 8.8105 -0.0003
# 3 20.3362 9.6849 88.4888 0.0029 12.8984 0.0038
# 4 -0.0011 0.0000 0.0029 26.0115 0.0004 8.4197
# 5 20.6287 8.8105 12.8984 0.0004 37.0309 0.0004
# 6 -0.0005 -0.0003 0.0038 8.4197 0.0004 23.3644
#
#
#
# Elastic Compliance Matrix: (Units=1/GPa)
#
#
# Indices 1 2 3 4 5 6 
#
# 1 0.013484 -0.005560 -0.001673 0.000001 -0.005606 0.000000
# 2 -0.005560 0.019817 -0.000690 0.000000 -0.001377 0.000000
# 3 -0.001673 -0.000690 0.012222 -0.000001 -0.003161 -0.000002
# 4 0.000001 0.000000 -0.000001 0.043521 0.000000 -0.015684
# 5 -0.005606 -0.001377 -0.003161 0.000000 0.031556 0.000000
# 6 0.000000 0.000000 -0.000002 -0.015684 0.000000 0.048452
#
#
# Mechanical properties :
#
#
# Convention : Reuss Voigt Hill
#
# Bulk Modulus (GPa) = 33.69890 40.50915 37.10402
# Shear Modulus (GPa) = 25.66858 29.68741 27.67800
#
# Velocity S-wave (km/s) = 3.60238 3.87414 3.74073
# Velocity P-wave (km/s) = 5.86002 6.36333 6.11685
#
# Compressibility (1/GPa) = 0.02967456
#
# Stress axis : x y z
#
# Youngs Moduli (GPa) = 74.16177 50.46225 81.82206
#
# Poissons Ratio (x) = 0.28059 0.13690
# Poissons Ratio (y) = 0.41237 0.05648
# Poissons Ratio (z) = 0.12408 0.03484
#
# Static dielectric constant tensor:
#      x y z
#    x 1.799300 0.000000 0.016940 
#    y 0.000000 1.707610 0.000000 
#    z 0.016940 0.000000 1.713310 
# 
# From -- ./inp_files/2115.got.cif
#   From: 2010.05.17/outbox.cif.g08.bks.cpg/sg9_2_cif.got.tgz:2115.got - 2010.06.03 20:04:27.
