data_PCOD9139876
_publ_section_title
;
Structure prediction by ZEFSAII (Michael W. Deem and Ramdas Pophale) SiO2 
 PCOD9139876
Probable space group: C C
;
_chemical_formula_sum "Si O2"
_cell_formula_units_Z 32
_cell_length_a 10.209155
_cell_length_b 9.952312
_cell_length_c 36.635656
_cell_angle_alpha 90.000000
_cell_angle_beta 153.655909
_cell_angle_gamma 90.000000
_cell_volume 1651.835597
_symmetry_space_group_name_H-M "C C"
_symmetry_group_IT_number 9
_symmetry_cell_setting 'monoclinic'
loop_
_space_group_symop_operation_xyz
x,y,z
x,-y,1/2+z
1/2+x,1/2+y,z
1/2+x,1/2-y,1/2+z
loop_
_atom_site_type_symbol
_atom_site_label
_atom_site_fract_x
_atom_site_fract_y
_atom_site_fract_z
Si Si1 0.742600 0.775835 0.050390
Si Si2 0.931781 0.264868 0.822227
Si Si3 0.005321 0.538621 0.277781
Si Si4 0.416042 0.268394 0.744635
Si Si5 0.833805 0.082074 0.084295
Si Si6 0.545836 0.569107 0.058626
Si Si7 0.849345 0.229773 0.494593
Si Si8 0.221348 0.526601 0.253705
O O1 0.558565 0.679540 0.030492
O O2 0.711248 0.742831 0.999878
O O3 0.088500 0.751264 0.146550
O O4 0.693224 0.932724 0.047146
O O5 0.069609 0.371591 0.828891
O O6 0.630379 0.315828 0.765910
O O7 0.846206 0.123782 0.782208
O O8 0.143245 0.237561 0.909103
O O9 0.018542 0.377511 0.284577
O O10 0.663452 0.570775 0.182647
O O11 0.202773 0.569029 0.291477
O O12 0.403906 0.373117 0.774306
O O13 0.643095 0.184248 0.060338
O O14 0.876616 0.120799 0.052413
O O15 0.413909 0.429189 0.011912
O O16 0.881472 0.533944 0.155101
#
# Coordination Sequence:
#
# PCOD9139876 Si02
#       8
#     4   4   4   4   4   4   4   4
#     4   9  19  37  59  79 100 133 179 224 260 299
#     4  11  22  34  51  79 113 143 169 205 260 320
#     4   9  18  35  56  77 102 133 174 220 260 303
#     4   9  19  37  59  79 100 133 179 224 260 299
#     4   9  18  35  56  77 102 133 174 220 260 303
#     4   9  19  36  56  77 101 133 178 225 260 298
#     4  11  22  34  51  79 113 143 169 205 260 320
#     4   9  19  36  56  77 101 133 178 225 260 298
#
# _framework density 19.372387
#
# number of rings (size 3 to 8) (size 9 to 14) (size 15 to 20)
#    0.000    2.500    0.000    3.750    0.000    6.000 
#    0.000    6.250    0.000    0.000    0.000    0.000 
#    0.000    0.000    0.000    0.000    0.000    0.000 
#
# Total GULP energy -89289.893186 kJ/mol
# GULP energy per Si atom -5580.618324 kJ/mol
# Density = 1.932829 g / cm^3
# Si number density = 19.372387 Si / 1000 Ang^3
#
#
#
# Elastic Constant Matrix: (Units=GPa)
#
#
# Indices 1 2 3 4 5 6 
#
# 1 87.0173 55.2627 7.1785 -0.0002 -25.2432 -0.0001
# 2 55.2627 51.7505 8.5627 -0.0002 -22.5229 -0.0001
# 3 7.1785 8.5627 20.6919 0.0004 -15.3378 0.0002
# 4 -0.0002 -0.0002 0.0004 9.0341 -0.0001 -12.1094
# 5 -25.2432 -22.5229 -15.3378 -0.0001 21.3224 0.0000
# 6 -0.0001 -0.0001 0.0002 -12.1094 0.0000 36.8756
#
#
#
# Elastic Compliance Matrix: (Units=1/GPa)
#
#
# Indices 1 2 3 4 5 6 
#
# 1 0.037655 -0.034214 0.015747 -0.000001 0.019767 -0.000001
# 2 -0.034214 0.076710 0.021774 0.000001 0.056186 0.000000
# 3 0.015747 0.021774 0.138651 -0.000010 0.141378 -0.000004
# 4 -0.000001 0.000001 -0.000010 0.197723 -0.000008 0.064929
# 5 0.019767 0.056186 0.141378 -0.000008 0.231348 -0.000003
# 6 -0.000001 0.000000 -0.000004 0.064929 -0.000003 0.048440
#
#
# Mechanical properties :
#
#
# Convention : Reuss Voigt Hill
#
# Bulk Modulus (GPa) = 3.85163 33.49636 18.67399
# Shear Modulus (GPa) = 6.16936 19.34347 12.75642
#
# Velocity S-wave (km/s) = 1.78649 3.16335 2.56888
# Velocity P-wave (km/s) = 2.49958 5.53811 4.29643
#
# Compressibility (1/GPa) = 0.25963042
#
# Stress axis : x y z
#
# Youngs Moduli (GPa) = 26.55655 13.03615 7.21234
#
# Poissons Ratio (x) = 0.44601 -0.11357
# Poissons Ratio (y) = 0.90859 -0.15704
# Poissons Ratio (z) = -0.41819 -0.28384
#
# Static dielectric constant tensor:
#      x y z
#    x 1.666110 0.000000 0.007900 
#    y 0.000000 1.651900 0.000000 
#    z 0.007900 0.000000 1.712410 
# 
# From -- ./inp_files/24230.got.cif
#   From: 2010.05.17/outbox.cif.g08.bks.cpg/sg9_13_cif.got.tgz:24230.got - 2010.06.03 20:04:27.
