data_PCOD9139523
_publ_section_title
;
Structure prediction by ZEFSAII (Michael W. Deem and Ramdas Pophale) SiO2 
 PCOD9139523
Probable space group: C C
;
_chemical_formula_sum "Si O2"
_cell_formula_units_Z 28
_cell_length_a 23.493559
_cell_length_b 5.804091
_cell_length_c 20.479351
_cell_angle_alpha 90.000000
_cell_angle_beta 157.041959
_cell_angle_gamma 90.000000
_cell_volume 1089.249072
_symmetry_space_group_name_H-M "C C"
_symmetry_group_IT_number 9
_symmetry_cell_setting 'monoclinic'
loop_
_space_group_symop_operation_xyz
x,y,z
x,-y,1/2+z
1/2+x,1/2+y,z
1/2+x,1/2-y,1/2+z
loop_
_atom_site_type_symbol
_atom_site_label
_atom_site_fract_x
_atom_site_fract_y
_atom_site_fract_z
Si Si1 0.623390 0.553432 0.406330
Si Si2 0.131324 0.606916 0.257040
Si Si3 0.929036 0.967451 0.091283
Si Si4 0.957300 0.757622 0.491805
Si Si5 0.388859 0.227768 0.232215
Si Si6 0.656303 0.940379 0.547506
Si Si7 0.690305 0.421263 0.197359
O O1 0.548971 0.605920 0.258612
O O2 0.499385 0.392454 0.309439
O O3 0.776875 0.418743 0.569022
O O4 0.647064 0.775093 0.475282
O O5 0.265511 0.540243 0.444870
O O6 0.183426 0.811661 0.262637
O O7 0.998793 0.715404 0.157254
O O8 0.075543 0.406099 0.151659
O O9 0.905063 0.074971 0.994631
O O10 0.827371 0.589141 0.334955
O O11 0.045210 0.923562 0.535891
O O12 0.281174 0.374457 0.164332
O O13 0.497440 0.056004 0.384907
O O14 0.691967 0.783537 0.647244
#
# Coordination Sequence:
#
# PCOD9139523 Si02
#       7
#     4   4   4   4   4   4   4
#     4  11  24  45  74 111 148 193 246 311 369 447
#     4  11  23  45  67 105 145 200 243 302 359 438
#     4  11  24  43  73 106 149 192 249 301 368 439
#     4  11  24  46  72 108 145 198 242 304 374 428
#     4  10  25  49  70 112 141 199 246 302 392 430
#     4  11  26  50  75 106 149 193 253 311 376 450
#     4  11  26  48  73 106 147 195 253 305 366 450
#
# _framework density 25.705784000000001
#
# number of rings (size 3 to 8) (size 9 to 14) (size 15 to 20)
#    0.000    1.143    2.857    1.714    0.000   10.286 
#    2.571    2.857    0.000    0.000    0.000    0.000 
#    0.000    0.000    0.000    0.000    0.000    0.000 
#
# Total GULP energy -78520.511732 kJ/mol
# GULP energy per Si atom -5608.607981 kJ/mol
# Density = 2.564728 g / cm^3
# Si number density = 25.705784 Si / 1000 Ang^3
#
#
#
# Elastic Constant Matrix: (Units=GPa)
#
#
# Indices 1 2 3 4 5 6 
#
# 1 50.5149 13.2558 27.9374 0.0001 1.6785 0.0000
# 2 13.2558 87.6481 52.7217 0.0002 9.3663 0.0000
# 3 27.9374 52.7217 195.8341 0.0000 14.8504 0.0000
# 4 0.0001 0.0002 0.0000 51.7429 0.0000 12.2752
# 5 1.6785 9.3663 14.8504 0.0000 39.3674 0.0000
# 6 0.0000 0.0000 0.0000 12.2752 0.0000 37.2463
#
#
#
# Elastic Compliance Matrix: (Units=1/GPa)
#
#
# Indices 1 2 3 4 5 6 
#
# 1 0.021710 -0.001731 -0.002668 0.000000 0.000493 0.000000
# 2 -0.001731 0.013893 -0.003344 0.000000 -0.001970 0.000000
# 3 -0.002668 -0.003344 0.006504 0.000000 -0.001544 0.000000
# 4 0.000000 0.000000 0.000000 0.020966 0.000000 -0.006910
# 5 0.000493 -0.001970 -0.001544 0.000000 0.026432 0.000000
# 6 0.000000 0.000000 0.000000 -0.006910 0.000000 0.029125
#
#
# Mechanical properties :
#
#
# Convention : Reuss Voigt Hill
#
# Bulk Modulus (GPa) = 37.56484 57.98078 47.77281
# Shear Modulus (GPa) = 34.96743 41.67680 38.32212
#
# Velocity S-wave (km/s) = 3.69222 4.03091 3.86527
# Velocity P-wave (km/s) = 5.72903 6.65348 6.20848
#
# Compressibility (1/GPa) = 0.02662064
#
# Stress axis : x y z
#
# Youngs Moduli (GPa) = 46.06218 71.97877 153.74264
#
# Poissons Ratio (x) = 0.12459 0.41026
# Poissons Ratio (y) = 0.07973 0.51410
# Poissons Ratio (z) = 0.12292 0.24069
#
# Static dielectric constant tensor:
#      x y z
#    x 2.077790 0.000000 -0.026320 
#    y 0.000000 1.991570 0.000000 
#    z -0.026320 0.000000 2.020810 
# 
# From -- ./inp_files/11935.got.cif
#   From: 2010.05.17/outbox.cif.g08.bks.cpg/sg9_6_cif.got.tgz:11935.got - 2010.06.03 20:04:27.
