data_PCOD9139022
_publ_section_title
;
Structure prediction by ZEFSAII (Michael W. Deem and Ramdas Pophale) SiO2 
 PCOD9139022
Probable space group: C C
;
_chemical_formula_sum "Si O2"
_cell_formula_units_Z 32
_cell_length_a 12.957254
_cell_length_b 11.786041
_cell_length_c 9.053227
_cell_angle_alpha 90.000000
_cell_angle_beta 109.134744
_cell_angle_gamma 90.000000
_cell_volume 1306.175023
_symmetry_space_group_name_H-M "C C"
_symmetry_group_IT_number 9
_symmetry_cell_setting 'monoclinic'
loop_
_space_group_symop_operation_xyz
x,y,z
x,-y,1/2+z
1/2+x,1/2+y,z
1/2+x,1/2-y,1/2+z
loop_
_atom_site_type_symbol
_atom_site_label
_atom_site_fract_x
_atom_site_fract_y
_atom_site_fract_z
Si Si1 0.360280 0.911503 0.651120
Si Si2 0.002613 0.781568 0.097636
Si Si3 0.095055 0.273054 0.043642
Si Si4 0.357788 0.135662 0.482498
Si Si5 0.273646 0.405623 0.934363
Si Si6 0.644102 0.418297 0.379611
Si Si7 0.566238 0.329155 0.818143
Si Si8 0.814158 0.864546 0.613886
O O1 0.463313 0.830800 0.665132
O O2 0.265309 0.882629 0.486621
O O3 0.374532 0.041436 0.615815
O O4 0.318634 0.901445 0.799580
O O5 0.097919 0.858669 0.212598
O O6 0.892192 0.856032 0.036184
O O7 0.040927 0.756439 0.951032
O O8 0.125888 0.247200 0.225523
O O9 0.980909 0.333408 0.998067
O O10 0.181177 0.341733 0.986563
O O11 0.072925 0.147353 0.967906
O O12 0.298939 0.241767 0.532013
O O13 0.262103 0.383953 0.752773
O O14 0.276840 0.536427 0.985886
O O15 0.627304 0.552289 0.379207
O O16 0.445692 0.367981 0.704083
#
# Coordination Sequence:
#
# PCOD9139022 Si02
#       8
#     4   4   4   4   4   4   4   4
#     4  12  29  47  78 108 158 205 255 325 392 458
#     4  11  24  47  75 106 153 200 257 324 377 454
#     4  11  25  47  73 111 159 201 262 315 393 463
#     4  11  29  52  75 115 159 206 256 321 391 463
#     4  11  24  46  78 114 152 198 258 315 391 456
#     4  12  24  46  76 113 148 204 262 323 383 461
#     4  10  24  43  74 111 152 201 261 319 376 453
#     4  10  25  48  81 112 153 201 259 318 383 460
#
# _framework density 24.499013000000001
#
# number of rings (size 3 to 8) (size 9 to 14) (size 15 to 20)
#    0.000    1.000    3.750    0.750   15.750    1.000 
#    0.000    0.000    0.000    0.000    0.000    0.000 
#    0.000    0.000    0.000    0.000    0.000    0.000 
#
# Total GULP energy -89496.358732 kJ/mol
# GULP energy per Si atom -5593.522421 kJ/mol
# Density = 2.444325 g / cm^3
# Si number density = 24.499013 Si / 1000 Ang^3
#
#
#
# Elastic Constant Matrix: (Units=GPa)
#
#
# Indices 1 2 3 4 5 6 
#
# 1 100.3386 46.4778 52.0035 0.0000 -25.1121 0.0000
# 2 46.4778 150.6249 73.2733 0.0000 -40.9273 0.0000
# 3 52.0035 73.2733 161.6692 0.0000 -39.6494 0.0000
# 4 0.0000 0.0000 0.0000 45.7418 0.0000 -9.3195
# 5 -25.1121 -40.9273 -39.6494 0.0000 53.5116 0.0000
# 6 0.0000 0.0000 0.0000 -9.3195 0.0000 25.2821
#
#
#
# Elastic Compliance Matrix: (Units=1/GPa)
#
#
# Indices 1 2 3 4 5 6 
#
# 1 0.012893 -0.002010 -0.002602 0.000000 0.002585 0.000000
# 2 -0.002010 0.009803 -0.002675 0.000000 0.004572 0.000000
# 3 -0.002602 -0.002675 0.009084 0.000000 0.003464 0.000000
# 4 0.000000 0.000000 0.000000 0.023637 0.000000 0.008713
# 5 0.002585 0.004572 0.003464 0.000000 0.025964 0.000000
# 6 0.000000 0.000000 0.000000 0.008713 0.000000 0.042766
#
#
# Mechanical properties :
#
#
# Convention : Reuss Voigt Hill
#
# Bulk Modulus (GPa) = 58.12063 84.01577 71.06820
# Shear Modulus (GPa) = 34.61234 40.96563 37.78898
#
# Velocity S-wave (km/s) = 3.76281 4.09361 3.93169
# Velocity P-wave (km/s) = 6.53096 7.53070 7.04858
#
# Compressibility (1/GPa) = 0.01720559
#
# Stress axis : x y z
#
# Youngs Moduli (GPa) = 77.56162 102.01066 110.07775
#
# Poissons Ratio (x) = 0.20505 0.28645
# Poissons Ratio (y) = 0.15590 0.29447
# Poissons Ratio (z) = 0.20183 0.27289
#
# Static dielectric constant tensor:
#      x y z
#    x 2.003310 0.000000 0.093320 
#    y 0.000000 1.964680 0.000000 
#    z 0.093320 0.000000 2.082520 
# 
# From -- ./inp_files/9182.got.cif
#   From: 2010.05.17/outbox.cif.g08.bks.cpg/sg9_5_cif.got.tgz:9182.got - 2010.06.03 20:04:27.
