data_PCOD9139735
_publ_section_title
;
Structure prediction by ZEFSAII (Michael W. Deem and Ramdas Pophale) SiO2 
 PCOD9139735
Probable space group: C C
;
_chemical_formula_sum "Si O2"
_cell_formula_units_Z 32
_cell_length_a 25.244525
_cell_length_b 8.291336
_cell_length_c 14.054897
_cell_angle_alpha 90.000000
_cell_angle_beta 152.543965
_cell_angle_gamma 90.000000
_cell_volume 1356.388878
_symmetry_space_group_name_H-M "C C"
_symmetry_group_IT_number 9
_symmetry_cell_setting 'monoclinic'
loop_
_space_group_symop_operation_xyz
x,y,z
x,-y,1/2+z
1/2+x,1/2+y,z
1/2+x,1/2-y,1/2+z
loop_
_atom_site_type_symbol
_atom_site_label
_atom_site_fract_x
_atom_site_fract_y
_atom_site_fract_z
Si Si1 0.250000 0.276182 0.683990
Si Si2 0.498758 0.496401 0.760101
Si Si3 0.504713 0.150849 0.852627
Si Si4 0.580236 0.834451 0.681424
Si Si5 0.754527 0.442990 0.628463
Si Si6 0.338237 0.673435 0.629664
Si Si7 0.966636 0.998446 0.998730
Si Si8 0.383141 0.035265 0.000936
O O1 0.129499 0.360976 0.501640
O O2 0.349534 0.398356 0.823725
O O3 0.256729 0.136133 0.615273
O O4 0.279574 0.166240 0.824520
O O5 0.481375 0.342825 0.801785
O O6 0.407613 0.631351 0.644857
O O7 0.485903 0.426651 0.633181
O O8 0.624149 0.578904 0.957407
O O9 0.415729 0.045035 0.651311
O O10 0.526477 0.103418 0.996319
O O11 0.565293 0.639033 0.646070
O O12 0.495493 0.886016 0.631322
O O13 0.708853 0.897441 0.906633
O O14 0.798247 0.342506 0.610068
O O15 0.837055 0.407072 0.849606
O O16 0.433065 0.611897 0.858299
#
# Coordination Sequence:
#
# PCOD9139735 Si02
#       8
#     4   4   4   4   4   4   4   4
#     4   8  20  39  64  90 130 182 213 282 352 391
#     4  11  23  40  71  98 139 191 231 291 366 412
#     4  11  20  43  67  96 138 180 236 283 348 428
#     4  11  23  41  66 103 132 180 231 286 349 417
#     4   9  21  42  62  97 137 174 240 281 347 422
#     4  12  23  41  71 100 134 185 235 287 350 423
#     4  11  21  42  64  95 141 172 228 295 337 417
#     4   9  21  42  65  93 137 180 224 285 347 406
#
# _framework density 23.592054000000001
#
# number of rings (size 3 to 8) (size 9 to 14) (size 15 to 20)
#    0.750    1.000    2.500    2.250    0.000    0.000 
#    6.750    3.750    0.000    0.000    0.000    0.000 
#    0.000    0.000    0.000    0.000    0.000    0.000 
#
# Total GULP energy -89167.076446 kJ/mol
# GULP energy per Si atom -5572.942278 kJ/mol
# Density = 2.353836 g / cm^3
# Si number density = 23.592054 Si / 1000 Ang^3
#
#
#
# Elastic Constant Matrix: (Units=GPa)
#
#
# Indices 1 2 3 4 5 6 
#
# 1 75.1648 21.5605 38.8741 0.0000 -12.6226 0.0000
# 2 21.5605 32.5673 18.8365 0.0000 -4.8069 0.0000
# 3 38.8741 18.8365 118.9093 0.0000 -5.1836 0.0000
# 4 0.0000 0.0000 0.0000 32.4193 0.0000 -8.3978
# 5 -12.6226 -4.8069 -5.1836 0.0000 49.3814 0.0000
# 6 0.0000 0.0000 0.0000 -8.3978 0.0000 32.1501
#
#
#
# Elastic Compliance Matrix: (Units=1/GPa)
#
#
# Indices 1 2 3 4 5 6 
#
# 1 0.018930 -0.009392 -0.004551 0.000000 0.003447 0.000000
# 2 -0.009392 0.038835 -0.003035 0.000000 0.001061 0.000000
# 3 -0.004551 -0.003035 0.010362 0.000000 -0.000371 0.000000
# 4 0.000000 0.000000 0.000000 0.033084 0.000000 0.008642
# 5 0.003447 0.001061 -0.000371 0.000000 0.021196 0.000000
# 6 0.000000 0.000000 0.000000 0.008642 0.000000 0.033361
#
#
# Mechanical properties :
#
#
# Convention : Reuss Voigt Hill
#
# Bulk Modulus (GPa) = 29.26327 42.79816 36.03071
# Shear Modulus (GPa) = 24.86126 32.61486 28.73806
#
# Velocity S-wave (km/s) = 3.24975 3.72217 3.49395
# Velocity P-wave (km/s) = 5.14897 6.05417 5.61983
#
# Compressibility (1/GPa) = 0.03417254
#
# Stress axis : x y z
#
# Youngs Moduli (GPa) = 52.82493 25.74970 96.50474
#
# Poissons Ratio (x) = 0.24183 0.43917
# Poissons Ratio (y) = 0.49611 0.29293
# Poissons Ratio (z) = 0.24039 0.07816
#
# Static dielectric constant tensor:
#      x y z
#    x 1.955420 0.000000 -0.080410 
#    y 0.000000 1.961300 0.000000 
#    z -0.080410 0.000000 1.964610 
# 
# From -- ./inp_files/28029.got.cif
#   From: 2010.05.17/outbox.cif.g08.bks.cpg/sg9_15_cif.got.tgz:28029.got - 2010.06.03 20:04:27.
