data_PCOD9139745
_publ_section_title
;
Structure prediction by ZEFSAII (Michael W. Deem and Ramdas Pophale) SiO2 
 PCOD9139745
Probable space group: C C
;
_chemical_formula_sum "Si O2"
_cell_formula_units_Z 24
_cell_length_a 7.638441
_cell_length_b 13.400068
_cell_length_c 9.102227
_cell_angle_alpha 90.000000
_cell_angle_beta 85.445443
_cell_angle_gamma 90.000000
_cell_volume 928.722134
_symmetry_space_group_name_H-M "C C"
_symmetry_group_IT_number 9
_symmetry_cell_setting 'monoclinic'
loop_
_space_group_symop_operation_xyz
x,y,z
x,-y,1/2+z
1/2+x,1/2+y,z
1/2+x,1/2-y,1/2+z
loop_
_atom_site_type_symbol
_atom_site_label
_atom_site_fract_x
_atom_site_fract_y
_atom_site_fract_z
Si Si1 0.093890 0.901698 0.996950
Si Si2 0.594337 0.208620 0.548762
Si Si3 0.501524 0.601936 0.175270
Si Si4 0.141565 0.486815 0.640575
Si Si5 0.216209 0.200690 0.742638
Si Si6 0.396272 0.024128 0.909378
O O1 0.989777 0.896884 0.852650
O O2 0.293867 0.920102 0.930388
O O3 0.081713 0.814966 0.117022
O O4 0.068250 0.999631 0.097950
O O5 0.643913 0.314300 0.620576
O O6 0.676494 0.101635 0.584147
O O7 0.401153 0.215605 0.643131
O O8 0.632372 0.230168 0.374397
O O9 0.301138 0.590392 0.126998
O O10 0.073877 0.506811 0.807576
O O11 0.975086 0.447619 0.560991
O O12 0.271520 0.100295 0.830423
#
# Coordination Sequence:
#
# PCOD9139745 Si02
#       6
#     4   4   4   4   4   4
#     4  12  22  46  76 102 149 208 253 315 410 461
#     4  11  26  48  73 116 155 196 274 318 397 482
#     4  12  25  45  73 109 154 205 256 327 389 480
#     4  11  26  45  74 108 152 200 254 321 396 464
#     4  11  25  48  75 111 148 200 258 328 393 471
#     4  11  20  46  71 102 142 199 251 307 393 462
#
# _framework density 25.84196
#
# number of rings (size 3 to 8) (size 9 to 14) (size 15 to 20)
#    0.000    0.667    6.667    1.000    4.667    0.000 
#   12.000    0.000    0.000    0.000    0.000    0.000 
#    0.000    0.000    0.000    0.000    0.000    0.000 
#
# Total GULP energy -66849.542121 kJ/mol
# GULP energy per Si atom -5570.795177 kJ/mol
# Density = 2.578314 g / cm^3
# Si number density = 25.841960 Si / 1000 Ang^3
#
#
#
# Elastic Constant Matrix: (Units=GPa)
#
#
# Indices 1 2 3 4 5 6 
#
# 1 76.6410 27.2287 44.2799 0.0000 11.3075 0.0000
# 2 27.2287 105.8915 57.0336 0.0000 -1.0054 0.0000
# 3 44.2799 57.0336 164.2100 0.0000 -8.6761 0.0000
# 4 0.0000 0.0000 0.0000 47.3076 0.0000 -7.9508
# 5 11.3075 -1.0054 -8.6761 0.0000 55.4858 0.0000
# 6 0.0000 0.0000 0.0000 -7.9508 0.0000 34.3666
#
#
#
# Elastic Compliance Matrix: (Units=1/GPa)
#
#
# Indices 1 2 3 4 5 6 
#
# 1 0.016717 -0.002206 -0.003956 0.000000 -0.004065 0.000000
# 2 -0.002206 0.011918 -0.003538 0.000000 0.000112 0.000000
# 3 -0.003956 -0.003538 0.008495 0.000000 0.002070 0.000000
# 4 0.000000 0.000000 0.000000 0.021993 0.000000 0.005088
# 5 -0.004065 0.000112 0.002070 0.000000 0.019177 0.000000
# 6 0.000000 0.000000 0.000000 0.005088 0.000000 0.030275
#
#
# Mechanical properties :
#
#
# Convention : Reuss Voigt Hill
#
# Bulk Modulus (GPa) = 56.40839 67.09186 61.75012
# Shear Modulus (GPa) = 37.34481 41.97866 39.66174
#
# Velocity S-wave (km/s) = 3.80560 4.03480 3.92188
# Velocity P-wave (km/s) = 6.41761 6.90832 6.66748
#
# Compressibility (1/GPa) = 0.01772786
#
# Stress axis : x y z
#
# Youngs Moduli (GPa) = 59.81806 83.90778 117.71634
#
# Poissons Ratio (x) = 0.18513 0.46573
# Poissons Ratio (y) = 0.13198 0.41653
# Poissons Ratio (z) = 0.23666 0.29690
#
# Static dielectric constant tensor:
#      x y z
#    x 2.190090 0.000000 -0.041210 
#    y 0.000000 2.451590 0.000000 
#    z -0.041210 0.000000 1.992000 
# 
# From -- ./inp_files/4955.got.cif
#   From: 2010.05.17/outbox.cif.g08.bks.cpg/sg9_3_cif.got.tgz:4955.got - 2010.06.03 20:04:27.
