data_PCOD9139440
_publ_section_title
;
Structure prediction by ZEFSAII (Michael W. Deem and Ramdas Pophale) SiO2 
 PCOD9139440
Probable space group: C C
;
_chemical_formula_sum "Si O2"
_cell_formula_units_Z 32
_cell_length_a 19.253991
_cell_length_b 6.418718
_cell_length_c 11.476877
_cell_angle_alpha 90.000000
_cell_angle_beta 70.362584
_cell_angle_gamma 90.000000
_cell_volume 1335.885034
_symmetry_space_group_name_H-M "C C"
_symmetry_group_IT_number 9
_symmetry_cell_setting 'monoclinic'
loop_
_space_group_symop_operation_xyz
x,y,z
x,-y,1/2+z
1/2+x,1/2+y,z
1/2+x,1/2-y,1/2+z
loop_
_atom_site_type_symbol
_atom_site_label
_atom_site_fract_x
_atom_site_fract_y
_atom_site_fract_z
Si Si1 0.754010 0.434623 0.655240
Si Si2 0.616060 0.472134 0.131169
Si Si3 0.983870 0.833173 0.608664
Si Si4 0.669047 0.210372 0.899836
Si Si5 0.072107 0.349660 0.837813
Si Si6 0.810186 0.219703 0.966712
Si Si7 0.392548 0.344538 0.029402
Si Si8 0.931440 0.470019 0.312235
O O1 0.692242 0.399750 0.588790
O O2 0.708423 0.379182 0.795354
O O3 0.785177 0.659735 0.599082
O O4 0.820964 0.273976 0.615803
O O5 0.545247 0.616436 0.170787
O O6 0.617326 0.323514 0.242212
O O7 0.614285 0.330573 0.017239
O O8 0.027620 0.744978 0.472608
O O9 0.930654 0.660967 0.694137
O O10 0.941259 0.043265 0.599075
O O11 0.737505 0.137970 0.942141
O O12 0.625495 0.033837 0.853050
O O13 0.008595 0.411611 0.781191
O O14 0.859509 0.386819 0.868118
O O15 0.863776 0.032638 0.966128
O O16 0.433097 0.182824 0.923140
#
# Coordination Sequence:
#
# PCOD9139440 Si02
#       8
#     4   4   4   4   4   4   4   4
#     4  10  25  45  71 100 143 176 243 286 345 421
#     4  11  25  47  70 106 142 181 240 293 346 424
#     4  12  25  43  76 100 142 192 231 287 365 409
#     4  11  25  42  73 100 140 188 230 283 361 405
#     4  12  25  46  72 104 144 182 240 292 349 424
#     4  10  25  46  68 102 144 182 236 293 342 424
#     4  11  25  46  69 105 140 186 234 292 348 418
#     4  11  25  45  71 105 143 181 240 292 346 425
#
# _framework density 23.954158
#
# number of rings (size 3 to 8) (size 9 to 14) (size 15 to 20)
#    0.000    1.000    1.250    3.750    8.750    0.000 
#    2.250    0.000    0.000    0.000    0.000    0.000 
#    0.000    0.000    0.000    0.000    0.000    0.000 
#
# Total GULP energy -89541.262948 kJ/mol
# GULP energy per Si atom -5596.328934 kJ/mol
# Density = 2.389964 g / cm^3
# Si number density = 23.954158 Si / 1000 Ang^3
#
#
#
# Elastic Constant Matrix: (Units=GPa)
#
#
# Indices 1 2 3 4 5 6 
#
# 1 114.1321 23.1843 -1.9987 0.0000 -1.5959 0.0000
# 2 23.1843 47.5360 24.3863 0.0000 -3.6802 0.0000
# 3 -1.9987 24.3863 108.7311 0.0000 -14.8872 0.0000
# 4 0.0000 0.0000 0.0000 38.8491 0.0000 9.3518
# 5 -1.5959 -3.6802 -14.8872 0.0000 31.4892 0.0000
# 6 0.0000 0.0000 0.0000 9.3518 0.0000 43.4692
#
#
#
# Elastic Compliance Matrix: (Units=1/GPa)
#
#
# Indices 1 2 3 4 5 6 
#
# 1 0.009928 -0.005573 0.001510 0.000000 0.000566 0.000000
# 2 -0.005573 0.026902 -0.006142 0.000000 -0.000042 0.000000
# 3 0.001510 -0.006142 0.011242 0.000000 0.004674 0.000000
# 4 0.000000 0.000000 0.000000 0.027146 0.000000 -0.005840
# 5 0.000566 -0.000042 0.004674 0.000000 0.033990 0.000000
# 6 0.000000 0.000000 0.000000 -0.005840 0.000000 0.024261
#
#
# Mechanical properties :
#
#
# Convention : Reuss Voigt Hill
#
# Bulk Modulus (GPa) = 36.14971 40.17144 38.16057
# Shear Modulus (GPa) = 30.65576 37.74999 34.20287
#
# Velocity S-wave (km/s) = 3.58127 3.97410 3.78279
# Velocity P-wave (km/s) = 5.67667 6.15341 5.91984
#
# Compressibility (1/GPa) = 0.02766274
#
# Stress axis : x y z
#
# Youngs Moduli (GPa) = 100.72331 37.17153 88.95086
#
# Poissons Ratio (x) = 0.20716 -0.13430
# Poissons Ratio (y) = 0.56133 0.54632
# Poissons Ratio (z) = -0.15208 0.22830
#
# Static dielectric constant tensor:
#      x y z
#    x 1.930410 0.000000 0.023110 
#    y 0.000000 1.913650 0.000000 
#    z 0.023110 0.000000 1.929620 
# 
# From -- ./inp_files/19793.got.cif
#   From: 2010.05.17/outbox.cif.g08.bks.cpg/sg9_10_cif.got.tgz:19793.got - 2010.06.03 20:04:27.
