data_PCOD9139015
_publ_section_title
;
Structure prediction by ZEFSAII (Michael W. Deem and Ramdas Pophale) SiO2 
 PCOD9139015
Probable space group: C C
;
_chemical_formula_sum "Si O2"
_cell_formula_units_Z 24
_cell_length_a 5.825627
_cell_length_b 21.028454
_cell_length_c 8.183970
_cell_angle_alpha 90.000000
_cell_angle_beta 63.571188
_cell_angle_gamma 90.000000
_cell_volume 897.788102
_symmetry_space_group_name_H-M "C C"
_symmetry_group_IT_number 9
_symmetry_cell_setting 'monoclinic'
loop_
_space_group_symop_operation_xyz
x,y,z
x,-y,1/2+z
1/2+x,1/2+y,z
1/2+x,1/2-y,1/2+z
loop_
_atom_site_type_symbol
_atom_site_label
_atom_site_fract_x
_atom_site_fract_y
_atom_site_fract_z
Si Si1 0.245360 0.348496 0.684000
Si Si2 0.597471 0.364727 0.109670
Si Si3 0.197178 0.224293 0.851309
Si Si4 0.946127 0.940796 0.867077
Si Si5 0.418342 0.035273 0.688839
Si Si6 0.544968 0.131076 0.913512
O O1 0.163307 0.299324 0.851259
O O2 0.487721 0.312310 0.526311
O O3 0.336594 0.413978 0.733151
O O4 0.034613 0.358272 0.609805
O O5 0.658333 0.298283 0.175611
O O6 0.818262 0.413250 0.089396
O O7 0.340844 0.384422 0.287227
O O8 0.522188 0.378363 0.949193
O O9 0.458198 0.194936 0.843952
O O10 0.201354 0.982001 0.766163
O O11 0.711463 0.975901 0.037360
O O12 0.409686 0.072624 0.865037
#
# Coordination Sequence:
#
# PCOD9139015 Si02
#       6
#     4   4   4   4   4   4
#     4  11  26  43  76 115 154 205 267 323 402 464
#     4   9  22  44  72 106 149 203 260 320 392 456
#     4  10  24  43  73 108 158 203 258 329 386 483
#     4  11  26  47  78 118 155 212 267 327 397 464
#     4  10  24  48  78 109 162 204 273 325 388 470
#     4   9  22  47  71 106 154 203 263 318 397 453
#
# _framework density 26.732364
#
# number of rings (size 3 to 8) (size 9 to 14) (size 15 to 20)
#    0.000    2.000    0.000    0.000    9.333   10.667 
#    0.000    8.333    0.000    0.000    0.000    0.000 
#    0.000    0.000    0.000    0.000    0.000    0.000 
#
# Total GULP energy -67170.310613 kJ/mol
# GULP energy per Si atom -5597.525884 kJ/mol
# Density = 2.667152 g / cm^3
# Si number density = 26.732364 Si / 1000 Ang^3
#
#
#
# Elastic Constant Matrix: (Units=GPa)
#
#
# Indices 1 2 3 4 5 6 
#
# 1 126.7428 60.6481 71.6039 0.0000 7.9399 0.0000
# 2 60.6481 133.0821 59.3464 0.0000 14.7027 0.0000
# 3 71.6039 59.3464 107.0011 0.0000 -0.6554 0.0000
# 4 0.0000 0.0000 0.0000 42.1628 0.0000 0.3638
# 5 7.9399 14.7027 -0.6554 0.0000 77.4013 0.0000
# 6 0.0000 0.0000 0.0000 0.3638 0.0000 40.0432
#
#
#
# Elastic Compliance Matrix: (Units=1/GPa)
#
#
# Indices 1 2 3 4 5 6 
#
# 1 0.013498 -0.002680 -0.007552 0.000000 -0.000940 0.000000
# 2 -0.002680 0.010816 -0.004217 0.000000 -0.001815 0.000000
# 3 -0.007552 -0.004217 0.016749 0.000000 0.001718 0.000000
# 4 0.000000 0.000000 0.000000 0.023719 0.000000 -0.000216
# 5 -0.000940 -0.001815 0.001718 0.000000 0.013375 0.000000
# 6 0.000000 0.000000 0.000000 -0.000216 0.000000 0.024975
#
#
# Mechanical properties :
#
#
# Convention : Reuss Voigt Hill
#
# Bulk Modulus (GPa) = 82.19970 83.33585 82.76777
# Shear Modulus (GPa) = 36.74162 43.60331 40.17247
#
# Velocity S-wave (km/s) = 3.71135 4.04308 3.88076
# Velocity P-wave (km/s) = 7.01294 7.28266 7.14907
#
# Compressibility (1/GPa) = 0.01216549
#
# Stress axis : x y z
#
# Youngs Moduli (GPa) = 74.08718 92.45174 59.70547
#
# Poissons Ratio (x) = 0.24773 0.45090
# Poissons Ratio (y) = 0.19852 0.25179
# Poissons Ratio (z) = 0.55951 0.38988
#
# Static dielectric constant tensor:
#      x y z
#    x 2.103070 0.000000 -0.008010 
#    y 0.000000 2.071200 0.000000 
#    z -0.008010 0.000000 2.133850 
# 
# From -- ./inp_files/3847.got.cif
#   From: 2010.05.17/outbox.cif.g08.bks.cpg/sg9_2_cif.got.tgz:3847.got - 2010.06.03 20:04:27.
