data_PCOD9139996
_publ_section_title
;
Structure prediction by ZEFSAII (Michael W. Deem and Ramdas Pophale) SiO2 
 PCOD9139996
Probable space group: C C
;
_chemical_formula_sum "Si O2"
_cell_formula_units_Z 24
_cell_length_a 8.730321
_cell_length_b 17.049971
_cell_length_c 12.021311
_cell_angle_alpha 90.000000
_cell_angle_beta 142.928376
_cell_angle_gamma 90.000000
_cell_volume 1078.669085
_symmetry_space_group_name_H-M "C C"
_symmetry_group_IT_number 9
_symmetry_cell_setting 'monoclinic'
loop_
_space_group_symop_operation_xyz
x,y,z
x,-y,1/2+z
1/2+x,1/2+y,z
1/2+x,1/2-y,1/2+z
loop_
_atom_site_type_symbol
_atom_site_label
_atom_site_fract_x
_atom_site_fract_y
_atom_site_fract_z
Si Si1 0.196010 0.356612 0.365900
Si Si2 0.600047 0.863915 0.738269
Si Si3 0.411378 0.913377 0.413139
Si Si4 0.705101 0.573738 0.191156
Si Si5 0.943521 0.313979 0.996907
Si Si6 0.438792 0.314525 0.126842
O O1 0.410835 0.424196 0.486183
O O2 0.341421 0.273636 0.450020
O O3 0.039579 0.366169 0.387469
O O4 0.014290 0.353994 0.153978
O O5 0.601705 0.915455 0.627898
O O6 0.380237 0.898124 0.690732
O O7 0.532610 0.774245 0.665834
O O8 0.847569 0.854602 0.959155
O O9 0.162152 0.866208 0.307615
O O10 0.317805 0.994614 0.307380
O O11 0.739913 0.636811 0.309876
O O12 0.198466 0.311908 0.069795
#
# Coordination Sequence:
#
# PCOD9139996 Si02
#       6
#     4   4   4   4   4   4
#     4  12  25  45  72 106 138 187 240 296 347 426
#     4  11  23  46  72 100 137 189 239 287 357 433
#     4  12  30  42  70 112 146 182 237 310 359 408
#     4  11  27  47  69 103 144 192 237 293 366 424
#     4  11  23  46  75  98 140 193 239 283 359 437
#     4  11  22  44  76 101 135 191 240 287 350 436
#
# _framework density 22.249641
#
# number of rings (size 3 to 8) (size 9 to 14) (size 15 to 20)
#    0.000    0.667    5.000    2.000    9.333    1.333 
#    0.000    0.000    0.000    0.000    0.000    0.000 
#    0.000    0.000    0.000    0.000    0.000    0.000 
#
# Total GULP energy -67171.515972 kJ/mol
# GULP energy per Si atom -5597.626331 kJ/mol
# Density = 2.219900 g / cm^3
# Si number density = 22.249641 Si / 1000 Ang^3
#
#
#
# Elastic Constant Matrix: (Units=GPa)
#
#
# Indices 1 2 3 4 5 6 
#
# 1 39.4150 20.9221 13.3981 0.0030 -18.7959 -0.0003
# 2 20.9221 88.2856 8.8216 0.0009 -9.2421 0.0000
# 3 13.3981 8.8216 86.9266 0.0053 -36.1659 -0.0007
# 4 0.0030 0.0009 0.0053 0.1218 0.0019 -8.3799
# 5 -18.7959 -9.2421 -36.1659 0.0019 41.1719 0.0001
# 6 -0.0003 0.0000 -0.0007 -8.3799 0.0001 6.9376
#
#
#
# Elastic Compliance Matrix: (Units=1/GPa)
#
#
# Indices 1 2 3 4 5 6 
#
# 1 0.036487 -0.007087 0.002149 0.000013 0.016954 0.000018
# 2 -0.007087 0.012977 -0.000565 -0.000001 -0.000819 -0.000002
# 3 0.002149 -0.000565 0.018258 0.000012 0.016893 0.000016
# 4 0.000013 -0.000001 0.000012 -0.099996 0.000021 -0.120786
# 5 0.016954 -0.000819 0.016893 0.000021 0.046683 0.000028
# 6 0.000018 -0.000002 0.000016 -0.120786 0.000028 -0.001755
#
#
# Mechanical properties :
#
#
# Convention : Reuss Voigt Hill
#
# Bulk Modulus (GPa) = 17.63143 33.43454 25.53298
# Shear Modulus (GPa) = 117.46573 21.07861 69.27217
#
# Velocity S-wave (km/s) = 7.27386 3.08127 5.58584
# Velocity P-wave (km/s) = 8.85929 5.26485 7.28717
#
# Compressibility (1/GPa) = 0.05671691
#
# Stress axis : x y z
#
# Youngs Moduli (GPa) = 27.40686 77.05892 54.76984
#
# Poissons Ratio (x) = 0.54609 -0.11771
# Poissons Ratio (y) = 0.19422 0.03096
# Poissons Ratio (z) = -0.05890 0.04356
#
# Static dielectric constant tensor:
#      x y z
#    x 1.771810 0.000000 -0.010770 
#    y 0.000000 1.823770 0.000000 
#    z -0.010770 0.000000 1.813990 
# 
# From -- ./inp_files/5221.got.cif
#   From: 2010.05.17/outbox.cif.g08.bks.cpg/sg9_3_cif.got.tgz:5221.got - 2010.06.03 20:04:27.
