data_PCOD9139917
_publ_section_title
;
Structure prediction by ZEFSAII (Michael W. Deem and Ramdas Pophale) SiO2 
 PCOD9139917
Probable space group: C C
;
_chemical_formula_sum "Si O2"
_cell_formula_units_Z 32
_cell_length_a 22.251901
_cell_length_b 12.261724
_cell_length_c 7.688327
_cell_angle_alpha 90.000000
_cell_angle_beta 38.692068
_cell_angle_gamma 90.000000
_cell_volume 1311.366377
_symmetry_space_group_name_H-M "C C"
_symmetry_group_IT_number 9
_symmetry_cell_setting 'monoclinic'
loop_
_space_group_symop_operation_xyz
x,y,z
x,-y,1/2+z
1/2+x,1/2+y,z
1/2+x,1/2-y,1/2+z
loop_
_atom_site_type_symbol
_atom_site_label
_atom_site_fract_x
_atom_site_fract_y
_atom_site_fract_z
Si Si1 0.526850 0.437030 0.302530
Si Si2 0.498242 0.834188 0.218482
Si Si3 0.706679 0.165812 0.288189
Si Si4 0.178071 0.937030 0.704141
Si Si5 0.903862 0.126342 0.388828
Si Si6 0.703384 0.927094 0.184082
Si Si7 0.301059 0.873658 0.117842
Si Si8 0.501536 0.927093 0.822588
O O1 0.602460 0.500000 0.253335
O O2 0.456420 0.525769 0.369010
O O3 0.459764 0.365969 0.576826
O O4 0.602460 0.378084 0.003335
O O5 0.602460 0.779300 0.003335
O O6 0.421555 0.742747 0.435149
O O7 0.497324 0.940996 0.339865
O O8 0.490681 0.879030 0.039307
O O9 0.714240 0.120970 0.467364
O O10 0.783366 0.257253 0.071521
O O11 0.707597 0.059004 0.166806
O O12 0.248501 0.025769 0.637660
O O13 0.245157 0.865969 0.429845
O O14 0.793957 0.106506 0.594884
O O15 0.602460 0.899367 0.503335
O O16 0.410963 0.893494 0.911787
#
# Coordination Sequence:
#
# PCOD9139917 Si02
#       8
#     4   4   4   4   4   4   4   4
#     4   9  19  37  61  96 132 159 203 265 319 375
#     4  11  23  43  65  90 127 171 214 265 319 376
#     4  11  23  43  65  90 127 171 214 265 319 376
#     4   9  19  37  61  96 132 159 203 265 319 375
#     4  11  22  41  67  94 128 171 212 261 323 384
#     4  11  24  43  64  94 132 169 215 265 312 381
#     4  11  22  41  67  94 128 171 212 261 323 384
#     4  11  24  43  64  94 132 169 215 265 312 381
#
# _framework density 24.402028000000001
#
# number of rings (size 3 to 8) (size 9 to 14) (size 15 to 20)
#    0.000    1.500    0.000    7.500    0.000    1.000 
#    0.000   21.250    0.000    1.500    0.000    0.000 
#    0.000    0.000    0.000    0.000    0.000    0.000 
#
# Total GULP energy -89575.304521 kJ/mol
# GULP energy per Si atom -5598.456533 kJ/mol
# Density = 2.434649 g / cm^3
# Si number density = 24.402028 Si / 1000 Ang^3
#
#
#
# Elastic Constant Matrix: (Units=GPa)
#
#
# Indices 1 2 3 4 5 6 
#
# 1 135.9622 21.3272 54.0965 0.0000 -34.4734 0.0000
# 2 21.3272 93.5907 35.9734 0.0000 -6.1950 0.0000
# 3 54.0965 35.9734 137.9115 0.0000 -19.0654 0.0000
# 4 0.0000 0.0000 0.0000 17.3438 0.0000 -10.9588
# 5 -34.4734 -6.1950 -19.0654 0.0000 56.6065 0.0000
# 6 0.0000 0.0000 0.0000 -10.9588 0.0000 28.1516
#
#
#
# Elastic Compliance Matrix: (Units=1/GPa)
#
#
# Indices 1 2 3 4 5 6 
#
# 1 0.009928 -0.000779 -0.003007 0.000000 0.004948 0.000000
# 2 -0.000779 0.011940 -0.002826 0.000000 -0.000119 0.000000
# 3 -0.003007 -0.002826 0.009305 0.000000 0.000993 0.000000
# 4 0.000000 0.000000 0.000000 0.076466 0.000000 0.029766
# 5 0.004948 -0.000119 0.000993 0.000000 0.021001 0.000000
# 6 0.000000 0.000000 0.000000 0.029766 0.000000 0.047109
#
#
# Mechanical properties :
#
#
# Convention : Reuss Voigt Hill
#
# Bulk Modulus (GPa) = 55.70934 65.58428 60.64681
# Shear Modulus (GPa) = 25.64677 37.49153 31.56915
#
# Velocity S-wave (km/s) = 3.24544 3.92396 3.60072
# Velocity P-wave (km/s) = 6.07645 6.88947 6.49569
#
# Compressibility (1/GPa) = 0.01795031
#
# Stress axis : x y z
#
# Youngs Moduli (GPa) = 100.72211 83.74870 107.46969
#
# Poissons Ratio (x) = 0.06524 0.32318
# Poissons Ratio (y) = 0.07847 0.30366
# Poissons Ratio (z) = 0.30289 0.23663
#
# Static dielectric constant tensor:
#      x y z
#    x 1.990990 0.000000 0.026830 
#    y 0.000000 1.946520 0.000000 
#    z 0.026830 0.000000 1.967200 
# 
# From -- ./inp_files/12184.got.cif
#   From: 2010.05.17/outbox.cif.g08.bks.cpg/sg9_7_cif.got.tgz:12184.got - 2010.06.03 20:04:27.
