data_PCOD9139182
_publ_section_title
;
Structure prediction by ZEFSAII (Michael W. Deem and Ramdas Pophale) SiO2 
 PCOD9139182
Probable space group: C C
;
_chemical_formula_sum "Si O2"
_cell_formula_units_Z 28
_cell_length_a 12.601566
_cell_length_b 9.222915
_cell_length_c 13.541199
_cell_angle_alpha 90.000000
_cell_angle_beta 53.762198
_cell_angle_gamma 90.000000
_cell_volume 1269.381499
_symmetry_space_group_name_H-M "C C"
_symmetry_group_IT_number 9
_symmetry_cell_setting 'monoclinic'
loop_
_space_group_symop_operation_xyz
x,y,z
x,-y,1/2+z
1/2+x,1/2+y,z
1/2+x,1/2-y,1/2+z
loop_
_atom_site_type_symbol
_atom_site_label
_atom_site_fract_x
_atom_site_fract_y
_atom_site_fract_z
Si Si1 0.239720 0.011552 0.801430
Si Si2 0.802955 0.522048 0.980920
Si Si3 0.450899 0.434748 0.390985
Si Si4 0.423315 0.252187 0.207072
Si Si5 0.799205 0.270621 0.121328
Si Si6 0.586058 0.954339 0.735432
Si Si7 0.309897 0.326428 0.074146
O O1 0.230989 0.059202 0.919304
O O2 0.337667 0.119192 0.687451
O O3 0.101783 0.025961 0.823645
O O4 0.292930 0.848367 0.778083
O O5 0.954722 0.485574 0.869126
O O6 0.747893 0.379415 0.063981
O O7 0.797479 0.659365 0.054081
O O8 0.426658 0.355814 0.300344
O O9 0.403583 0.328866 0.506400
O O10 0.367744 0.580609 0.451935
O O11 0.536434 0.130975 0.164111
O O12 0.411872 0.335966 0.110297
O O13 0.687608 0.162884 0.224143
O O14 0.671074 0.098141 0.674473
#
# Coordination Sequence:
#
# PCOD9139182 Si02
#       7
#     4   4   4   4   4   4   4
#     4  11  23  40  72  97 135 180 230 288 334 421
#     4  11  24  44  66 104 137 181 240 286 349 419
#     4  11  25  43  68 103 136 184 232 282 356 416
#     4  11  23  47  69 100 144 181 228 294 345 410
#     4  11  20  44  68  96 139 188 224 279 361 397
#     4  10  24  46  66 102 144 174 238 293 331 428
#     4  11  27  42  71 104 135 188 232 286 364 409
#
# _framework density 22.057987000000001
#
# number of rings (size 3 to 8) (size 9 to 14) (size 15 to 20)
#    0.000    1.143    5.714    0.000    4.000    4.571 
#    2.571    0.000    0.000    0.000    0.000    0.000 
#    0.000    0.000    0.000    0.000    0.000    0.000 
#
# Total GULP energy -78168.781658 kJ/mol
# GULP energy per Si atom -5583.484404 kJ/mol
# Density = 2.200778 g / cm^3
# Si number density = 22.057987 Si / 1000 Ang^3
#
#
#
# Elastic Constant Matrix: (Units=GPa)
#
#
# Indices 1 2 3 4 5 6 
#
# 1 76.8776 35.7944 26.8440 0.0000 11.2203 0.0000
# 2 35.7944 119.4480 26.5380 0.0000 -8.1132 0.0000
# 3 26.8440 26.5380 53.6284 0.0000 3.7781 0.0000
# 4 0.0000 0.0000 0.0000 35.1373 0.0000 5.4508
# 5 11.2203 -8.1132 3.7781 0.0000 37.4107 0.0000
# 6 0.0000 0.0000 0.0000 5.4508 0.0000 40.9693
#
#
#
# Elastic Compliance Matrix: (Units=1/GPa)
#
#
# Indices 1 2 3 4 5 6 
#
# 1 0.018163 -0.004385 -0.006517 0.000000 -0.005740 0.000000
# 2 -0.004385 0.010708 -0.003384 0.000000 0.003979 0.000000
# 3 -0.006517 -0.003384 0.023666 0.000000 -0.001169 0.000000
# 4 0.000000 0.000000 0.000000 0.029060 0.000000 -0.003866
# 5 -0.005740 0.003979 -0.001169 0.000000 0.029433 0.000000
# 6 0.000000 0.000000 0.000000 -0.003866 0.000000 0.024923
#
#
# Mechanical properties :
#
#
# Convention : Reuss Voigt Hill
#
# Bulk Modulus (GPa) = 41.72890 47.58965 44.65928
# Shear Modulus (GPa) = 28.98331 33.42196 31.20263
#
# Velocity S-wave (km/s) = 3.62879 3.89676 3.76516
# Velocity P-wave (km/s) = 6.04288 6.47055 6.26037
#
# Compressibility (1/GPa) = 0.02396421
#
# Stress axis : x y z
#
# Youngs Moduli (GPa) = 55.05797 93.38850 42.25424
#
# Poissons Ratio (x) = 0.40948 0.27538
# Poissons Ratio (y) = 0.24141 0.14301
# Poissons Ratio (z) = 0.35883 0.31606
#
# Static dielectric constant tensor:
#      x y z
#    x 1.842260 0.000000 0.001650 
#    y 0.000000 1.817820 0.000000 
#    z 0.001650 0.000000 1.855380 
# 
# From -- ./inp_files/17728.got.cif
#   From: 2010.05.17/outbox.cif.g08.bks.cpg/sg9_9_cif.got.tgz:17728.got - 2010.06.03 20:04:27.
