data_PCOD9139600
_publ_section_title
;
Structure prediction by ZEFSAII (Michael W. Deem and Ramdas Pophale) SiO2 
 PCOD9139600
Probable space group: C C
;
_chemical_formula_sum "Si O2"
_cell_formula_units_Z 32
_cell_length_a 24.580597
_cell_length_b 8.856162
_cell_length_c 9.749467
_cell_angle_alpha 90.000000
_cell_angle_beta 141.755445
_cell_angle_gamma 90.000000
_cell_volume 1313.781231
_symmetry_space_group_name_H-M "C C"
_symmetry_group_IT_number 9
_symmetry_cell_setting 'monoclinic'
loop_
_space_group_symop_operation_xyz
x,y,z
x,-y,1/2+z
1/2+x,1/2+y,z
1/2+x,1/2-y,1/2+z
loop_
_atom_site_type_symbol
_atom_site_label
_atom_site_fract_x
_atom_site_fract_y
_atom_site_fract_z
Si Si1 0.359400 0.371088 0.491520
Si Si2 0.793275 0.071273 0.585156
Si Si3 0.539537 0.679949 0.186843
Si Si4 0.063646 0.831243 0.211284
Si Si5 0.613944 0.132996 0.064341
Si Si6 0.496885 0.147284 0.323372
Si Si7 0.815916 0.474966 0.924906
Si Si8 0.754049 0.388593 0.543654
O O1 0.358100 0.469103 0.626183
O O2 0.453690 0.338436 0.612428
O O3 0.320937 0.205547 0.447842
O O4 0.301544 0.463429 0.263005
O O5 0.701637 0.082277 0.320513
O O6 0.817433 0.247837 0.640636
O O7 0.555112 0.509211 0.167963
O O8 0.613962 0.756583 0.431665
O O9 0.521462 0.783822 0.019372
O O10 0.056056 0.722412 0.064691
O O11 0.168550 0.824103 0.449198
O O12 0.004861 0.773671 0.220464
O O13 0.567999 0.980240 0.926027
O O14 0.406030 0.055394 0.142784
O O15 0.798697 0.506506 0.731832
O O16 0.738445 0.537650 0.866671
#
# Coordination Sequence:
#
# PCOD9139600 Si02
#       8
#     4   4   4   4   4   4   4   4
#     4  11  26  47  71 108 145 188 249 301 368 439
#     4  10  26  46  71 104 145 186 242 304 361 443
#     4  12  27  46  75 109 149 194 249 306 374 441
#     4  11  28  47  74 109 149 197 246 310 372 446
#     4  11  26  47  74 108 144 195 248 302 377 438
#     4  12  26  46  77 104 151 194 244 311 368 443
#     4  11  25  46  74 105 142 191 245 303 363 439
#     4  10  26  47  72 105 143 189 251 297 373 437
#
# _framework density 24.357175999999999
#
# number of rings (size 3 to 8) (size 9 to 14) (size 15 to 20)
#    0.000    1.000    1.250    3.000   19.250    1.000 
#    0.000    0.000    0.000    0.000    0.000    0.000 
#    0.000    0.000    0.000    0.000    0.000    0.000 
#
# Total GULP energy -89391.071461 kJ/mol
# GULP energy per Si atom -5586.941966 kJ/mol
# Density = 2.430174 g / cm^3
# Si number density = 24.357176 Si / 1000 Ang^3
#
#
#
# Elastic Constant Matrix: (Units=GPa)
#
#
# Indices 1 2 3 4 5 6 
#
# 1 70.3825 30.8537 12.9956 0.0000 -19.8153 0.0000
# 2 30.8537 83.5311 22.3474 0.0000 -18.7751 0.0000
# 3 12.9956 22.3474 97.4329 0.0000 -12.8933 0.0000
# 4 0.0000 0.0000 0.0000 27.2156 0.0000 -5.9021
# 5 -19.8153 -18.7751 -12.8933 0.0000 39.0469 0.0000
# 6 0.0000 0.0000 0.0000 -5.9021 0.0000 35.5263
#
#
#
# Elastic Compliance Matrix: (Units=1/GPa)
#
#
# Indices 1 2 3 4 5 6 
#
# 1 0.018455 -0.005201 -0.000377 0.000000 0.006740 0.000000
# 2 -0.005201 0.015412 -0.002311 0.000000 0.004008 0.000000
# 3 -0.000377 -0.002311 0.011159 0.000000 0.002382 0.000000
# 4 0.000000 0.000000 0.000000 0.038117 0.000000 0.006333
# 5 0.006740 0.004008 0.002382 0.000000 0.031745 0.000000
# 6 0.000000 0.000000 0.000000 0.006333 0.000000 0.029200
#
#
# Mechanical properties :
#
#
# Convention : Reuss Voigt Hill
#
# Bulk Modulus (GPa) = 34.18912 42.63778 38.41345
# Shear Modulus (GPa) = 29.47863 32.70109 31.08986
#
# Velocity S-wave (km/s) = 3.48266 3.66808 3.57657
# Velocity P-wave (km/s) = 5.49899 5.95676 5.73245
#
# Compressibility (1/GPa) = 0.02924907
#
# Stress axis : x y z
#
# Youngs Moduli (GPa) = 54.18515 64.88552 89.61390
#
# Poissons Ratio (x) = 0.33747 0.03376
# Poissons Ratio (y) = 0.28182 0.20708
# Poissons Ratio (z) = 0.02041 0.14994
#
# Static dielectric constant tensor:
#      x y z
#    x 1.941660 0.000000 0.032560 
#    y 0.000000 1.933140 0.000000 
#    z 0.032560 0.000000 2.012090 
# 
# From -- ./inp_files/12459.got.cif
#   From: 2010.05.17/outbox.cif.g08.bks.cpg/sg9_7_cif.got.tgz:12459.got - 2010.06.03 20:04:27.
