data_PCOD9139451
_publ_section_title
;
Structure prediction by ZEFSAII (Michael W. Deem and Ramdas Pophale) SiO2 
 PCOD9139451
Probable space group: C C
;
_chemical_formula_sum "Si O2"
_cell_formula_units_Z 32
_cell_length_a 30.377037
_cell_length_b 5.331747
_cell_length_c 9.351244
_cell_angle_alpha 90.000000
_cell_angle_beta 54.926672
_cell_angle_gamma 90.000000
_cell_volume 1239.535972
_symmetry_space_group_name_H-M "C C"
_symmetry_group_IT_number 9
_symmetry_cell_setting 'monoclinic'
loop_
_space_group_symop_operation_xyz
x,y,z
x,-y,1/2+z
1/2+x,1/2+y,z
1/2+x,1/2-y,1/2+z
loop_
_atom_site_type_symbol
_atom_site_label
_atom_site_fract_x
_atom_site_fract_y
_atom_site_fract_z
Si Si1 0.609660 0.843954 0.646460
Si Si2 0.357282 0.168040 0.864227
Si Si3 0.452289 0.441855 0.854432
Si Si4 0.178746 0.151432 0.964994
Si Si5 0.261631 0.185686 0.583595
Si Si6 0.779022 0.058471 0.324546
Si Si7 0.539873 0.899386 0.047503
Si Si8 0.443188 0.193773 0.144374
O O1 0.645227 0.598221 0.552657
O O2 0.703304 0.631716 0.758501
O O3 0.564206 0.893661 0.610368
O O4 0.643239 0.102628 0.564245
O O5 0.389165 0.953871 0.718538
O O6 0.401502 0.284648 0.887014
O O7 0.334270 0.364770 0.794024
O O8 0.306578 0.023458 0.026895
O O9 0.444273 0.713688 0.804644
O O10 0.507670 0.314799 0.694760
O O11 0.450902 0.426922 0.026261
O O12 0.085182 0.316861 0.850844
O O13 0.233977 0.227425 0.946009
O O14 0.261149 0.298366 0.426240
O O15 0.280400 0.420440 0.651537
O O16 0.494550 0.021115 0.031795
#
# Coordination Sequence:
#
# PCOD9139451 Si02
#       8
#     4   4   4   4   4   4   4   4
#     4  12  28  52  79 118 152 211 256 330 384 464
#     4  11  24  42  76 108 154 194 264 309 406 452
#     4  11  26  47  72 110 147 198 251 327 385 482
#     4  10  30  48  81 108 164 197 270 308 388 454
#     4  10  25  45  73 109 151 208 249 326 374 474
#     4  10  25  45  73 109 151 208 249 326 374 474
#     4  11  28  46  80 110 152 194 260 317 402 454
#     4  11  26  47  72 110 147 198 251 327 385 482
#
# _framework density 25.816113000000001
#
# number of rings (size 3 to 8) (size 9 to 14) (size 15 to 20)
#    0.750    0.500    1.250    1.500   10.500    6.000 
#    0.000    0.000    0.000    0.000    0.000    0.000 
#    0.000    0.000    0.000    0.000    0.000    0.000 
#
# Total GULP energy -89573.048925 kJ/mol
# GULP energy per Si atom -5598.315558 kJ/mol
# Density = 2.575735 g / cm^3
# Si number density = 25.816113 Si / 1000 Ang^3
#
#
#
# Elastic Constant Matrix: (Units=GPa)
#
#
# Indices 1 2 3 4 5 6 
#
# 1 89.4425 35.0492 40.7467 0.0000 -23.0411 0.0000
# 2 35.0492 123.0615 21.1180 0.0000 -27.4538 0.0000
# 3 40.7467 21.1180 83.7073 0.0000 -14.6170 0.0000
# 4 0.0000 0.0000 0.0000 37.2195 0.0000 -8.0182
# 5 -23.0411 -27.4538 -14.6170 0.0000 35.5491 0.0000
# 6 0.0000 0.0000 0.0000 -8.0182 0.0000 40.2968
#
#
#
# Elastic Compliance Matrix: (Units=1/GPa)
#
#
# Indices 1 2 3 4 5 6 
#
# 1 0.016621 -0.002197 -0.006412 0.000000 0.006440 0.000000
# 2 -0.002197 0.010229 -0.000410 0.000000 0.006307 0.000000
# 3 -0.006412 -0.000410 0.015503 0.000000 0.001902 0.000000
# 4 0.000000 0.000000 0.000000 0.028071 0.000000 0.005586
# 5 0.006440 0.006307 0.001902 0.000000 0.037957 0.000000
# 6 0.000000 0.000000 0.000000 0.005586 0.000000 0.025927
#
#
# Mechanical properties :
#
#
# Convention : Reuss Voigt Hill
#
# Bulk Modulus (GPa) = 41.12522 54.44879 47.78701
# Shear Modulus (GPa) = 31.16196 35.89958 33.53077
#
# Velocity S-wave (km/s) = 3.47807 3.73310 3.60784
# Velocity P-wave (km/s) = 5.66515 6.30224 5.99217
#
# Compressibility (1/GPa) = 0.02431598
#
# Stress axis : x y z
#
# Youngs Moduli (GPa) = 60.16367 97.75977 64.50298
#
# Poissons Ratio (x) = 0.21477 0.41360
# Poissons Ratio (y) = 0.13217 0.02644
# Poissons Ratio (z) = 0.38577 0.04007
#
# Static dielectric constant tensor:
#      x y z
#    x 2.060600 0.000000 0.006720 
#    y 0.000000 2.006300 0.000000 
#    z 0.006720 0.000000 2.021720 
# 
# From -- ./inp_files/21038.got.cif
#   From: 2010.05.17/outbox.cif.g08.bks.cpg/sg9_11_cif.got.tgz:21038.got - 2010.06.03 20:04:27.
