data_PCOD9139130
_publ_section_title
;
Structure prediction by ZEFSAII (Michael W. Deem and Ramdas Pophale) SiO2 
 PCOD9139130
Probable space group: C C
;
_chemical_formula_sum "Si O2"
_cell_formula_units_Z 28
_cell_length_a 11.322659
_cell_length_b 9.863508
_cell_length_c 10.423107
_cell_angle_alpha 90.000000
_cell_angle_beta 78.681179
_cell_angle_gamma 90.000000
_cell_volume 1141.423673
_symmetry_space_group_name_H-M "C C"
_symmetry_group_IT_number 9
_symmetry_cell_setting 'monoclinic'
loop_
_space_group_symop_operation_xyz
x,y,z
x,-y,1/2+z
1/2+x,1/2+y,z
1/2+x,1/2-y,1/2+z
loop_
_atom_site_type_symbol
_atom_site_label
_atom_site_fract_x
_atom_site_fract_y
_atom_site_fract_z
Si Si1 0.538380 0.343837 0.094540
Si Si2 0.342018 0.751719 0.251366
Si Si3 0.423396 0.722256 0.885611
Si Si4 0.810575 0.004266 0.064988
Si Si5 0.786281 0.450449 0.033320
Si Si6 0.506013 0.122678 0.913035
Si Si7 0.628665 0.142741 0.459100
O O1 0.507278 0.296379 0.244629
O O2 0.413345 0.395042 0.065160
O O3 0.642188 0.456920 0.059754
O O4 0.574825 0.216151 0.000235
O O5 0.327649 0.615068 0.171622
O O6 0.309213 0.873828 0.162886
O O7 0.464722 0.791325 0.298464
O O8 0.237567 0.727470 0.377517
O O9 0.514067 0.758648 0.984010
O O10 0.348605 0.586975 0.928910
O O11 0.331737 0.848545 0.909888
O O12 0.683497 0.930790 0.071951
O O13 0.878437 0.573674 0.002958
O O14 0.580503 0.983475 0.882117
#
# Coordination Sequence:
#
# PCOD9139130 Si02
#       7
#     4   4   4   4   4   4   4
#     4  12  24  43  70 101 146 181 234 296 351 419
#     4  11  23  46  69 102 139 184 240 288 352 426
#     4  10  24  45  67 101 138 184 235 291 352 422
#     4  11  25  43  70 104 138 188 237 292 354 423
#     4  10  25  43  70 100 139 181 238 287 351 418
#     4  11  26  43  70 105 135 188 232 289 355 423
#     4  11  23  45  72  95 141 180 232 291 351 409
#
# _framework density 24.530767999999998
#
# number of rings (size 3 to 8) (size 9 to 14) (size 15 to 20)
#    0.000    1.143    2.857    2.571    6.000    2.286 
#    0.000    1.429    0.000    0.000    0.000    0.000 
#    0.000    0.000    0.000    0.000    0.000    0.000 
#
# Total GULP energy -78219.327141 kJ/mol
# GULP energy per Si atom -5587.094796 kJ/mol
# Density = 2.447493 g / cm^3
# Si number density = 24.530768 Si / 1000 Ang^3
#
#
#
# Elastic Constant Matrix: (Units=GPa)
#
#
# Indices 1 2 3 4 5 6 
#
# 1 130.0734 19.7765 17.9516 0.0000 -2.9334 0.0000
# 2 19.7765 57.4679 12.0196 0.0000 3.3931 0.0000
# 3 17.9516 12.0196 47.6454 0.0000 -4.0401 0.0000
# 4 0.0000 0.0000 0.0000 25.4434 0.0000 3.5602
# 5 -2.9334 3.3931 -4.0401 0.0000 13.0450 0.0000
# 6 0.0000 0.0000 0.0000 3.5602 0.0000 51.5422
#
#
#
# Elastic Compliance Matrix: (Units=1/GPa)
#
#
# Indices 1 2 3 4 5 6 
#
# 1 0.008441 -0.002511 -0.002393 0.000000 0.001810 0.000000
# 2 -0.002511 0.019649 -0.004613 0.000000 -0.007104 0.000000
# 3 -0.002393 -0.004613 0.023733 0.000000 0.008012 0.000000
# 4 0.000000 0.000000 0.000000 0.039687 0.000000 -0.002741
# 5 0.001810 -0.007104 0.008012 0.000000 0.081394 0.000000
# 6 0.000000 0.000000 0.000000 -0.002741 0.000000 0.019591
#
#
# Mechanical properties :
#
#
# Convention : Reuss Voigt Hill
#
# Bulk Modulus (GPa) = 30.49874 37.18689 33.84282
# Shear Modulus (GPa) = 22.47593 30.36872 26.42232
#
# Velocity S-wave (km/s) = 3.03022 3.52232 3.28550
# Velocity P-wave (km/s) = 4.97019 5.63334 5.31212
#
# Compressibility (1/GPa) = 0.03278824
#
# Stress axis : x y z
#
# Youngs Moduli (GPa) = 118.47107 50.89189 42.13482
#
# Poissons Ratio (x) = 0.12779 0.10084
# Poissons Ratio (y) = 0.29749 0.19438
# Poissons Ratio (z) = 0.28354 0.23478
#
# Static dielectric constant tensor:
#      x y z
#    x 1.940920 0.000000 0.030370 
#    y 0.000000 1.945780 0.000000 
#    z 0.030370 0.000000 2.023920 
# 
# From -- ./inp_files/16009.got.cif
#   From: 2010.05.17/outbox.cif.g08.bks.cpg/sg9_9_cif.got.tgz:16009.got - 2010.06.03 20:04:27.
