data_PCOD9139941
_publ_section_title
;
Structure prediction by ZEFSAII (Michael W. Deem and Ramdas Pophale) SiO2 
 PCOD9139941
Probable space group: C C
;
_chemical_formula_sum "Si O2"
_cell_formula_units_Z 28
_cell_length_a 12.276414
_cell_length_b 13.801915
_cell_length_c 8.979438
_cell_angle_alpha 90.000000
_cell_angle_beta 62.668431
_cell_angle_gamma 90.000000
_cell_volume 1351.609301
_symmetry_space_group_name_H-M "C C"
_symmetry_group_IT_number 9
_symmetry_cell_setting 'monoclinic'
loop_
_space_group_symop_operation_xyz
x,y,z
x,-y,1/2+z
1/2+x,1/2+y,z
1/2+x,1/2-y,1/2+z
loop_
_atom_site_type_symbol
_atom_site_label
_atom_site_fract_x
_atom_site_fract_y
_atom_site_fract_z
Si Si1 0.094460 0.050493 0.888370
Si Si2 0.673212 0.894713 0.903457
Si Si3 0.450898 0.579908 0.266270
Si Si4 0.757683 0.724661 0.666318
Si Si5 0.956209 0.547719 0.003348
Si Si6 0.995989 0.710317 0.730425
Si Si7 0.303120 0.912118 0.888984
O O1 0.168789 0.144392 0.793218
O O2 0.185948 0.969853 0.899614
O O3 0.024716 0.005138 0.794696
O O4 0.991272 0.079631 0.070399
O O5 0.806029 0.928849 0.874370
O O6 0.699669 0.829516 0.739691
O O7 0.578146 0.982530 0.944366
O O8 0.613751 0.822669 0.062736
O O9 0.499164 0.682779 0.297019
O O10 0.883108 0.714777 0.683464
O O11 0.777487 0.691406 0.483042
O O12 0.974085 0.632764 0.873240
O O13 0.856731 0.476309 0.990857
O O14 0.902693 0.585884 0.193408
#
# Coordination Sequence:
#
# PCOD9139941 Si02
#       7
#     4   4   4   4   4   4   4
#     4  12  21  41  65  97 131 171 224 269 338 408
#     4  11  24  42  70  96 139 172 221 276 348 404
#     4  11  27  40  66  96 136 177 210 277 349 404
#     4  11  22  42  71  97 128 179 229 271 337 414
#     4  12  22  41  73 100 130 171 241 285 329 387
#     4  11  23  45  69  95 129 184 225 274 340 412
#     4  12  21  39  74  99 127 176 236 282 321 401
#
# _framework density 20.716045000000001
#
# number of rings (size 3 to 8) (size 9 to 14) (size 15 to 20)
#    0.000    0.571    8.571    0.000    2.000    0.000 
#    2.571    2.857    3.143    0.000    0.000    0.000 
#    0.000    0.000    0.000    0.000    0.000    0.000 
#
# Total GULP energy -78250.917395 kJ/mol
# GULP energy per Si atom -5589.351243 kJ/mol
# Density = 2.066889 g / cm^3
# Si number density = 20.716045 Si / 1000 Ang^3
#
#
#
# Elastic Constant Matrix: (Units=GPa)
#
#
# Indices 1 2 3 4 5 6 
#
# 1 59.6052 -6.6028 29.4044 0.0000 -20.5567 0.0000
# 2 -6.6028 43.5708 29.6837 0.0000 2.8899 0.0000
# 3 29.4044 29.6837 124.3203 0.0000 -12.5478 0.0000
# 4 0.0000 0.0000 0.0000 31.4592 0.0000 -1.8379
# 5 -20.5567 2.8899 -12.5478 0.0000 28.4084 0.0000
# 6 0.0000 0.0000 0.0000 -1.8379 0.0000 14.6416
#
#
#
# Elastic Compliance Matrix: (Units=1/GPa)
#
#
# Indices 1 2 3 4 5 6 
#
# 1 0.025961 0.007233 -0.006328 0.000000 0.015255 0.000000
# 2 0.007233 0.030419 -0.009167 0.000000 -0.001909 0.000000
# 3 -0.006328 -0.009167 0.011891 0.000000 0.001606 0.000000
# 4 0.000000 0.000000 0.000000 0.032022 0.000000 0.004020
# 5 0.015255 -0.001909 0.001606 0.000000 0.047143 0.000000
# 6 0.000000 0.000000 0.000000 0.004020 0.000000 0.068803
#
#
# Mechanical properties :
#
#
# Convention : Reuss Voigt Hill
#
# Bulk Modulus (GPa) = 19.32400 36.94076 28.13238
# Shear Modulus (GPa) = 19.99911 26.56924 23.28418
#
# Velocity S-wave (km/s) = 3.11045 3.58515 3.35620
# Velocity P-wave (km/s) = 4.71679 5.91679 5.35054
#
# Compressibility (1/GPa) = 0.05174913
#
# Stress axis : x y z
#
# Youngs Moduli (GPa) = 38.51918 32.87434 84.09614
#
# Poissons Ratio (x) = -0.23779 0.53214
# Poissons Ratio (y) = -0.27862 0.77087
# Poissons Ratio (z) = 0.24374 0.30135
#
# Static dielectric constant tensor:
#      x y z
#    x 1.717100 0.000000 -0.009860 
#    y 0.000000 1.797770 0.000000 
#    z -0.009860 0.000000 1.768010 
# 
# From -- ./inp_files/7174.got.cif
#   From: 2010.05.17/outbox.cif.g08.bks.cpg/sg9_4_cif.got.tgz:7174.got - 2010.06.03 20:04:27.
