data_PCOD9139335
_publ_section_title
;
Structure prediction by ZEFSAII (Michael W. Deem and Ramdas Pophale) SiO2 
 PCOD9139335
Probable space group: C C
;
_chemical_formula_sum "Si O2"
_cell_formula_units_Z 32
_cell_length_a 11.052253
_cell_length_b 19.764256
_cell_length_c 8.372357
_cell_angle_alpha 90.000000
_cell_angle_beta 143.345505
_cell_angle_gamma 90.000000
_cell_volume 1091.804194
_symmetry_space_group_name_H-M "C C"
_symmetry_group_IT_number 9
_symmetry_cell_setting 'monoclinic'
loop_
_space_group_symop_operation_xyz
x,y,z
x,-y,1/2+z
1/2+x,1/2+y,z
1/2+x,1/2-y,1/2+z
loop_
_atom_site_type_symbol
_atom_site_label
_atom_site_fract_x
_atom_site_fract_y
_atom_site_fract_z
Si Si1 0.616380 0.896647 0.628330
Si Si2 0.219702 0.089589 0.537212
Si Si3 0.899285 0.021822 0.978222
Si Si4 0.884879 0.203306 0.238818
Si Si5 0.360339 0.798369 0.525479
Si Si6 0.138734 0.115662 0.003591
Si Si7 0.753228 0.754577 0.251752
Si Si8 0.518094 0.891646 0.069102
O O1 0.394281 0.929227 0.352050
O O2 0.696566 0.845737 0.577169
O O3 0.554638 0.847430 0.708552
O O4 0.806540 0.947233 0.854952
O O5 0.367183 0.111503 0.554330
O O6 0.076136 0.152481 0.431801
O O7 0.073292 0.034673 0.294380
O O8 0.695714 0.059784 0.807951
O O9 0.975751 0.064333 0.903183
O O10 0.874671 0.254441 0.378952
O O11 0.859762 0.238971 0.039935
O O12 0.167858 0.848495 0.362337
O O13 0.136194 0.182028 0.117424
O O14 0.362562 0.083548 0.267473
O O15 0.847238 0.251231 0.669490
O O16 0.616175 0.821590 0.117746
#
# Coordination Sequence:
#
# PCOD9139335 Si02
#       8
#     4   4   4   4   4   4   4   4
#     4  12  29  54  90 141 201 258 339 413 490 605
#     4  11  26  54  87 141 185 261 324 401 496 594
#     4  11  26  55  88 133 195 267 337 396 496 594
#     4  12  27  55  92 146 202 245 319 412 510 604
#     4  10  29  52  91 149 198 249 318 414 498 593
#     4   9  26  48  85 136 180 255 321 391 484 584
#     4  10  24  50  90 146 188 247 316 392 512 592
#     4  11  23  48  85 130 181 248 314 387 480 594
#
# _framework density 29.309284999999999
#
# number of rings (size 3 to 8) (size 9 to 14) (size 15 to 20)
#    0.750    0.500    2.500    0.000    8.750    3.000 
#    6.750    0.000    2.750    1.500    0.000    0.000 
#    0.000    0.000    0.000    0.000    0.000    0.000 
#
# Total GULP energy -89339.276923 kJ/mol
# GULP energy per Si atom -5583.704808 kJ/mol
# Density = 2.924258 g / cm^3
# Si number density = 29.309285 Si / 1000 Ang^3
#
#
#
# Elastic Constant Matrix: (Units=GPa)
#
#
# Indices 1 2 3 4 5 6 
#
# 1 258.3528 105.1212 68.3852 0.0000 2.1359 0.0000
# 2 105.1212 170.6812 83.8144 0.0000 1.3082 0.0000
# 3 68.3852 83.8144 188.2758 0.0000 -0.0289 0.0000
# 4 0.0000 0.0000 0.0000 58.0274 0.0000 8.6620
# 5 2.1359 1.3082 -0.0289 0.0000 55.2055 0.0000
# 6 0.0000 0.0000 0.0000 8.6620 0.0000 50.1857
#
#
#
# Elastic Compliance Matrix: (Units=1/GPa)
#
#
# Indices 1 2 3 4 5 6 
#
# 1 0.005217 -0.002920 -0.000595 0.000000 -0.000133 0.000000
# 2 -0.002920 0.009134 -0.003006 0.000000 -0.000105 0.000000
# 3 -0.000595 -0.003006 0.006866 0.000000 0.000098 0.000000
# 4 0.000000 0.000000 0.000000 0.017689 0.000000 -0.003053
# 5 -0.000133 -0.000105 0.000098 0.000000 0.018122 0.000000
# 6 0.000000 0.000000 0.000000 -0.003053 0.000000 0.020453
#
#
# Mechanical properties :
#
#
# Convention : Reuss Voigt Hill
#
# Bulk Modulus (GPa) = 122.31859 125.77236 124.04548
# Shear Modulus (GPa) = 53.62065 56.68301 55.15183
#
# Velocity S-wave (km/s) = 4.28188 4.40245 4.34258
# Velocity P-wave (km/s) = 8.14066 8.29743 8.21942
#
# Compressibility (1/GPa) = 0.00817537
#
# Stress axis : x y z
#
# Youngs Moduli (GPa) = 191.66319 109.48012 145.65526
#
# Poissons Ratio (x) = 0.31970 0.08669
# Poissons Ratio (y) = 0.55968 0.43778
# Poissons Ratio (z) = 0.11407 0.32905
#
# Static dielectric constant tensor:
#      x y z
#    x 2.260800 0.000000 -0.010230 
#    y 0.000000 2.353730 0.000000 
#    z -0.010230 0.000000 2.598210 
# 
# From -- ./inp_files/26956.got.cif
#   From: 2010.05.17/outbox.cif.g08.bks.cpg/sg9_14_cif.got.tgz:26956.got - 2010.06.03 20:04:27.
