data_PCOD9139970
_publ_section_title
;
Structure prediction by ZEFSAII (Michael W. Deem and Ramdas Pophale) SiO2 
 PCOD9139970
Probable space group: C C
;
_chemical_formula_sum "Si O2"
_cell_formula_units_Z 32
_cell_length_a 12.054686
_cell_length_b 14.801229
_cell_length_c 8.983408
_cell_angle_alpha 90.000000
_cell_angle_beta 60.274569
_cell_angle_gamma 90.000000
_cell_volume 1391.939565
_symmetry_space_group_name_H-M "C C"
_symmetry_group_IT_number 9
_symmetry_cell_setting 'monoclinic'
loop_
_space_group_symop_operation_xyz
x,y,z
x,-y,1/2+z
1/2+x,1/2+y,z
1/2+x,1/2-y,1/2+z
loop_
_atom_site_type_symbol
_atom_site_label
_atom_site_fract_x
_atom_site_fract_y
_atom_site_fract_z
Si Si1 0.649620 0.721761 0.122380
Si Si2 0.485354 0.570130 0.076961
Si Si3 0.541746 0.608511 0.709265
Si Si4 0.917716 0.314375 0.384285
Si Si5 0.830556 0.368825 0.124571
Si Si6 0.521780 0.809997 0.739298
Si Si7 0.504849 0.966492 0.508936
Si Si8 0.706111 0.124014 0.349673
O O1 0.595003 0.638574 0.061870
O O2 0.536284 0.745516 0.312267
O O3 0.794789 0.699934 0.072501
O O4 0.665499 0.812477 0.013497
O O5 0.520147 0.468802 0.102600
O O6 0.353879 0.600739 0.240906
O O7 0.471522 0.579865 0.909055
O O8 0.688701 0.617677 0.661534
O O9 0.503387 0.709679 0.690566
O O10 0.857489 0.313177 0.257915
O O11 0.975936 0.412443 0.377303
O O12 0.886913 0.468043 0.118359
O O13 0.916504 0.326822 0.936777
O O14 0.517390 0.888499 0.621756
O O15 0.655854 0.822960 0.737313
O O16 0.626760 0.030979 0.413307
#
# Coordination Sequence:
#
# PCOD9139970 Si02
#       8
#     4   4   4   4   4   4   4   4
#     4  12  23  45  74 100 134 189 236 282 352 434
#     4  12  27  45  69 108 140 185 239 297 355 418
#     4  12  28  45  70 102 145 188 229 300 351 428
#     4  12  23  45  72 101 139 181 234 290 356 417
#     4  11  22  43  74  98 134 184 237 278 355 429
#     4  11  25  46  73 101 134 191 237 285 357 430
#     4  11  26  43  71 106 136 178 235 300 345 423
#     4  11  24  44  77  98 138 188 241 284 353 437
#
# _framework density 22.989504
#
# number of rings (size 3 to 8) (size 9 to 14) (size 15 to 20)
#    0.000    0.500    6.250    2.250    5.250    1.000 
#    4.500    0.000    0.000    0.000    0.000    0.000 
#    0.000    0.000    0.000    0.000    0.000    0.000 
#
# Total GULP energy -89553.725762 kJ/mol
# GULP energy per Si atom -5597.107860 kJ/mol
# Density = 2.293718 g / cm^3
# Si number density = 22.989504 Si / 1000 Ang^3
#
#
#
# Elastic Constant Matrix: (Units=GPa)
#
#
# Indices 1 2 3 4 5 6 
#
# 1 71.1729 43.9067 34.0300 0.0000 -24.2761 0.0000
# 2 43.9067 167.3891 33.7405 0.0000 -6.2836 0.0000
# 3 34.0300 33.7405 62.3416 0.0000 -10.3973 0.0000
# 4 0.0000 0.0000 0.0000 30.6853 0.0000 6.3308
# 5 -24.2761 -6.2836 -10.3973 0.0000 36.3059 0.0000
# 6 0.0000 0.0000 0.0000 6.3308 0.0000 39.9082
#
#
#
# Elastic Compliance Matrix: (Units=1/GPa)
#
#
# Indices 1 2 3 4 5 6 
#
# 1 0.026074 -0.004395 -0.009528 0.000000 0.013945 0.000000
# 2 -0.004395 0.007447 -0.002002 0.000000 -0.002223 0.000000
# 3 -0.009528 -0.002002 0.022269 0.000000 -0.000340 0.000000
# 4 0.000000 0.000000 0.000000 0.033692 0.000000 -0.005345
# 5 0.013945 -0.002223 -0.000340 0.000000 0.036386 0.000000
# 6 0.000000 0.000000 0.000000 -0.005345 0.000000 0.025905
#
#
# Mechanical properties :
#
#
# Convention : Reuss Voigt Hill
#
# Bulk Modulus (GPa) = 41.77392 58.25091 50.01242
# Shear Modulus (GPa) = 26.09561 33.99498 30.04529
#
# Velocity S-wave (km/s) = 3.37279 3.84958 3.61905
# Velocity P-wave (km/s) = 5.77737 6.71953 6.26618
#
# Compressibility (1/GPa) = 0.02393838
#
# Stress axis : x y z
#
# Youngs Moduli (GPa) = 38.35251 134.28075 44.90622
#
# Poissons Ratio (x) = 0.59019 0.42788
# Poissons Ratio (y) = 0.16857 0.08991
# Poissons Ratio (z) = 0.36543 0.26885
#
# Static dielectric constant tensor:
#      x y z
#    x 1.866630 0.000000 0.002560 
#    y 0.000000 1.845400 0.000000 
#    z 0.002560 0.000000 1.893900 
# 
# From -- ./inp_files/7557.got.cif
#   From: 2010.05.17/outbox.cif.g08.bks.cpg/sg9_4_cif.got.tgz:7557.got - 2010.06.03 20:04:27.
