data_PCOD9139471
_publ_section_title
;
Structure prediction by ZEFSAII (Michael W. Deem and Ramdas Pophale) SiO2 
 PCOD9139471
Probable space group: C C
;
_chemical_formula_sum "Si O2"
_cell_formula_units_Z 28
_cell_length_a 17.720709
_cell_length_b 5.036592
_cell_length_c 14.350565
_cell_angle_alpha 90.000000
_cell_angle_beta 120.309052
_cell_angle_gamma 90.000000
_cell_volume 1105.749038
_symmetry_space_group_name_H-M "C C"
_symmetry_group_IT_number 9
_symmetry_cell_setting 'monoclinic'
loop_
_space_group_symop_operation_xyz
x,y,z
x,-y,1/2+z
1/2+x,1/2+y,z
1/2+x,1/2-y,1/2+z
loop_
_atom_site_type_symbol
_atom_site_label
_atom_site_fract_x
_atom_site_fract_y
_atom_site_fract_z
Si Si1 0.763120 0.036479 0.456350
Si Si2 0.800264 0.548098 0.591074
Si Si3 0.518858 0.784172 0.598391
Si Si4 0.611487 0.839612 0.277347
Si Si5 0.877683 0.912195 0.873930
Si Si6 0.458699 0.428815 0.738270
Si Si7 0.210334 0.947639 0.214857
O O1 0.800525 0.311334 0.517744
O O2 0.837411 0.918433 0.433288
O O3 0.749108 0.808002 0.523445
O O4 0.667646 0.081237 0.352372
O O5 0.892332 0.686165 0.673741
O O6 0.749961 0.422574 0.647161
O O7 0.453754 0.758579 0.471231
O O8 0.479225 0.622022 0.663602
O O9 0.615787 0.677916 0.633507
O O10 0.544372 0.071643 0.654963
O O11 0.552833 0.697950 0.316986
O O12 0.684494 0.654288 0.278049
O O13 0.916751 0.049042 0.806152
O O14 0.790501 0.745963 0.792388
#
# Coordination Sequence:
#
# PCOD9139471 Si02
#       7
#     4   4   4   4   4   4   4
#     4  12  25  45  74 106 151 200 257 307 387 456
#     4  11  26  46  75 110 149 206 253 318 387 461
#     4  11  23  46  73 109 147 200 257 321 382 467
#     4  11  25  44  72 105 154 198 258 323 380 467
#     4  11  23  47  73 105 151 203 253 316 390 459
#     4  10  25  46  70 111 151 195 260 321 385 461
#     4  10  25  46  71 108 155 198 260 318 393 457
#
# _framework density 25.322202999999998
#
# number of rings (size 3 to 8) (size 9 to 14) (size 15 to 20)
#    0.000    1.143    2.857    1.714    6.000    0.000 
#    5.143    0.000    0.000    0.000    0.000    0.000 
#    0.000    0.000    0.000    0.000    0.000    0.000 
#
# Total GULP energy -78196.384518 kJ/mol
# GULP energy per Si atom -5585.456037 kJ/mol
# Density = 2.526457 g / cm^3
# Si number density = 25.322203 Si / 1000 Ang^3
#
#
#
# Elastic Constant Matrix: (Units=GPa)
#
#
# Indices 1 2 3 4 5 6 
#
# 1 146.9009 29.0245 57.2971 -0.0002 -12.1758 -0.0001
# 2 29.0245 71.9655 7.1780 -0.0005 2.0034 -0.0002
# 3 57.2971 7.1780 74.5724 -0.0003 17.9141 -0.0002
# 4 -0.0002 -0.0005 -0.0003 25.6473 -0.0002 13.4336
# 5 -12.1758 2.0034 17.9141 -0.0002 47.1189 -0.0001
# 6 -0.0001 -0.0002 -0.0002 13.4336 -0.0001 35.3281
#
#
#
# Elastic Compliance Matrix: (Units=1/GPa)
#
#
# Indices 1 2 3 4 5 6 
#
# 1 0.012611 -0.004190 -0.011128 0.000000 0.007668 0.000000
# 2 -0.004190 0.015423 0.002369 0.000000 -0.002639 0.000000
# 3 -0.011128 0.002369 0.024703 0.000000 -0.012368 0.000000
# 4 0.000000 0.000000 0.000000 0.048688 0.000000 -0.018514
# 5 0.007668 -0.002639 -0.012368 0.000000 0.028019 0.000000
# 6 0.000000 0.000000 0.000000 -0.018514 0.000000 0.035346
#
#
# Mechanical properties :
#
#
# Convention : Reuss Voigt Hill
#
# Bulk Modulus (GPa) = 37.26065 53.38200 45.32133
# Shear Modulus (GPa) = 25.04574 34.94814 29.99694
#
# Velocity S-wave (km/s) = 3.14838 3.71905 3.44555
# Velocity P-wave (km/s) = 5.28800 6.29036 5.81084
#
# Compressibility (1/GPa) = 0.02683796
#
# Stress axis : x y z
#
# Youngs Moduli (GPa) = 79.29471 64.84025 40.48022
#
# Poissons Ratio (x) = 0.27166 0.45048
# Poissons Ratio (y) = 0.33222 -0.09588
# Poissons Ratio (z) = 0.88243 -0.15358
#
# Static dielectric constant tensor:
#      x y z
#    x 2.006150 0.000000 -0.035360 
#    y 0.000000 2.082680 0.000000 
#    z -0.035360 0.000000 2.120360 
# 
# From -- ./inp_files/26424.got.cif
#   From: 2010.05.17/outbox.cif.g08.bks.cpg/sg9_14_cif.got.tgz:26424.got - 2010.06.03 20:04:27.
