data_PCOD9139706
_publ_section_title
;
Structure prediction by ZEFSAII (Michael W. Deem and Ramdas Pophale) SiO2 
 PCOD9139706
Probable space group: C C
;
_chemical_formula_sum "Si O2"
_cell_formula_units_Z 28
_cell_length_a 12.646834
_cell_length_b 18.406058
_cell_length_c 9.682752
_cell_angle_alpha 90.000000
_cell_angle_beta 34.330031
_cell_angle_gamma 90.000000
_cell_volume 1271.126919
_symmetry_space_group_name_H-M "C C"
_symmetry_group_IT_number 9
_symmetry_cell_setting 'monoclinic'
loop_
_space_group_symop_operation_xyz
x,y,z
x,-y,1/2+z
1/2+x,1/2+y,z
1/2+x,1/2-y,1/2+z
loop_
_atom_site_type_symbol
_atom_site_label
_atom_site_fract_x
_atom_site_fract_y
_atom_site_fract_z
Si Si1 0.405920 0.043855 0.177840
Si Si2 0.303659 0.930451 0.066178
Si Si3 0.509694 0.669342 0.021965
Si Si4 0.697607 0.846444 0.246996
Si Si5 0.459858 0.105467 0.776325
Si Si6 0.590849 0.174598 0.375543
Si Si7 0.595097 0.684091 0.257244
O O1 0.254374 0.068642 0.456460
O O2 0.350689 0.007007 0.091132
O O3 0.471153 0.971607 0.189234
O O4 0.561050 0.106848 0.992651
O O5 0.139905 0.896706 0.335090
O O6 0.488504 0.879218 0.880527
O O7 0.299672 0.655281 0.196535
O O8 0.531484 0.685173 0.163225
O O9 0.582249 0.739877 0.858498
O O10 0.649429 0.886083 0.156111
O O11 0.641268 0.762705 0.274039
O O12 0.919104 0.847873 0.031474
O O13 0.463615 0.163529 0.648288
O O14 0.281725 0.135399 0.054947
#
# Coordination Sequence:
#
# PCOD9139706 Si02
#       7
#     4   4   4   4   4   4   4
#     4  11  25  48  68  93 144 187 215 288 351 410
#     4  11  25  45  68  95 139 182 223 283 353 416
#     4  12  19  37  68 104 128 175 234 284 338 412
#     4  12  23  41  70 102 136 175 239 287 337 405
#     4  11  21  41  65  95 135 174 225 277 339 408
#     4  11  20  36  65  98 132 167 228 283 336 397
#     4  12  21  38  72 105 128 178 234 284 336 408
#
# _framework density 22.027698000000001
#
# number of rings (size 3 to 8) (size 9 to 14) (size 15 to 20)
#    0.000    0.571   10.000    0.000    0.000    0.000 
#    7.714    5.714    0.000    0.000    0.000    0.000 
#    0.000    0.000    0.000    0.000    0.000    0.000 
#
# Total GULP energy -77974.239484 kJ/mol
# GULP energy per Si atom -5569.588535 kJ/mol
# Density = 2.197756 g / cm^3
# Si number density = 22.027698 Si / 1000 Ang^3
#
#
#
# Elastic Constant Matrix: (Units=GPa)
#
#
# Indices 1 2 3 4 5 6 
#
# 1 38.5657 14.9514 28.1741 -0.0246 0.6829 0.0261
# 2 14.9514 138.1781 55.7105 -0.0199 -5.3919 0.0218
# 3 28.1741 55.7105 124.7959 -0.0136 -9.3096 0.0152
# 4 -0.0246 -0.0199 -0.0136 25.0193 0.0129 6.3891
# 5 0.6829 -5.3919 -9.3096 0.0129 47.4183 -0.0141
# 6 0.0261 0.0218 0.0152 6.3891 -0.0141 16.2334
#
#
#
# Elastic Compliance Matrix: (Units=1/GPa)
#
#
# Indices 1 2 3 4 5 6 
#
# 1 0.031264 -0.000676 -0.006897 0.000043 -0.001881 -0.000062
# 2 -0.000676 0.008843 -0.003775 0.000007 0.000274 -0.000010
# 3 -0.006897 -0.003775 0.011397 -0.000007 0.001908 0.000010
# 4 0.000043 0.000007 -0.000007 0.044435 -0.000019 -0.017489
# 5 -0.001881 0.000274 0.001908 -0.000019 0.021522 0.000027
# 6 -0.000062 -0.000010 0.000010 -0.017489 0.000027 0.068485
#
#
# Mechanical properties :
#
#
# Convention : Reuss Voigt Hill
#
# Bulk Modulus (GPa) = 34.71043 55.46798 45.08921
# Shear Modulus (GPa) = 22.91032 31.24778 27.07905
#
# Velocity S-wave (km/s) = 3.22851 3.77047 3.50997
# Velocity P-wave (km/s) = 5.44881 6.64763 6.07785
#
# Compressibility (1/GPa) = 0.02880978
#
# Stress axis : x y z
#
# Youngs Moduli (GPa) = 31.98617 113.08848 87.73904
#
# Poissons Ratio (x) = 0.07640 0.60512
# Poissons Ratio (y) = 0.02161 0.33117
# Poissons Ratio (z) = 0.22060 0.42685
#
# Static dielectric constant tensor:
#      x y z
#    x 1.847340 0.000000 0.042710 
#    y 0.000000 1.866320 0.000000 
#    z 0.042710 0.000000 1.856410 
# 
# From -- ./inp_files/18506.got.cif
#   From: 2010.05.17/outbox.cif.g08.bks.cpg/sg9_10_cif.got.tgz:18506.got - 2010.06.03 20:04:27.
