data_PCOD9139688
_publ_section_title
;
Structure prediction by ZEFSAII (Michael W. Deem and Ramdas Pophale) SiO2 
 PCOD9139688
Probable space group: C C
;
_chemical_formula_sum "Si O2"
_cell_formula_units_Z 28
_cell_length_a 9.737834
_cell_length_b 8.972487
_cell_length_c 12.917503
_cell_angle_alpha 90.000000
_cell_angle_beta 112.310751
_cell_angle_gamma 90.000000
_cell_volume 1044.144321
_symmetry_space_group_name_H-M "C C"
_symmetry_group_IT_number 9
_symmetry_cell_setting 'monoclinic'
loop_
_space_group_symop_operation_xyz
x,y,z
x,-y,1/2+z
1/2+x,1/2+y,z
1/2+x,1/2-y,1/2+z
loop_
_atom_site_type_symbol
_atom_site_label
_atom_site_fract_x
_atom_site_fract_y
_atom_site_fract_z
Si Si1 0.969700 0.762410 0.501380
Si Si2 0.182102 0.495392 0.075121
Si Si3 0.405078 0.501325 0.314038
Si Si4 0.596916 0.736197 0.440329
Si Si5 0.778418 0.291483 0.361044
Si Si6 0.628423 0.529063 0.648797
Si Si7 0.373848 0.974350 0.573681
O O1 0.853427 0.638754 0.513081
O O2 0.104062 0.650744 0.509920
O O3 0.923367 0.855151 0.388023
O O4 0.032594 0.879486 0.603853
O O5 0.327656 0.466318 0.183384
O O6 0.204386 0.625374 0.998357
O O7 0.049417 0.548137 0.116019
O O8 0.555665 0.602469 0.348647
O O9 0.293642 0.615546 0.343450
O O10 0.447060 0.835110 0.374062
O O11 0.577834 0.641819 0.542186
O O12 0.654338 0.369372 0.256239
O O13 0.787186 0.358479 0.477713
O O14 0.794405 0.480044 0.660028
#
# Coordination Sequence:
#
# PCOD9139688 Si02
#       7
#     4   4   4   4   4   4   4
#     4   9  21  34  57  84 120 147 199 257 293 356
#     4   9  17  35  56  80 119 147 191 256 292 354
#     4   9  16  33  59  78 108 166 187 233 318 347
#     4   8  16  33  59  77 111 155 195 233 297 358
#     4   9  19  36  62  79 119 157 194 243 306 361
#     4  11  19  39  61  85 120 163 193 253 310 362
#     4   9  22  38  56  91 121 149 209 247 308 370
#
# _framework density 26.816217000000002
#
# number of rings (size 3 to 8) (size 9 to 14) (size 15 to 20)
#    1.714    1.143    1.429    0.000    2.000    0.000 
#    5.143    2.857    0.000    0.000    0.000    0.000 
#    0.000    0.000    0.000    0.000    0.000    0.000 
#
# Total GULP energy -78001.007839 kJ/mol
# GULP energy per Si atom -5571.500560 kJ/mol
# Density = 2.675518 g / cm^3
# Si number density = 26.816217 Si / 1000 Ang^3
#
#
#
# Elastic Constant Matrix: (Units=GPa)
#
#
# Indices 1 2 3 4 5 6 
#
# 1 49.5961 11.1412 -14.3834 0.0000 -2.0880 0.0000
# 2 11.1412 165.4986 31.8928 0.0000 -3.1164 0.0000
# 3 -14.3834 31.8928 94.0837 0.0000 23.3408 0.0000
# 4 0.0000 0.0000 0.0000 41.8639 0.0000 15.6169
# 5 -2.0880 -3.1164 23.3408 0.0000 22.5591 0.0000
# 6 0.0000 0.0000 0.0000 15.6169 0.0000 55.0509
#
#
#
# Elastic Compliance Matrix: (Units=1/GPa)
#
#
# Indices 1 2 3 4 5 6 
#
# 1 0.022071 -0.002543 0.005135 0.000000 -0.003621 0.000000
# 2 -0.002543 0.007076 -0.003998 0.000000 0.004878 0.000000
# 3 0.005135 -0.003998 0.017204 0.000000 -0.017877 0.000000
# 4 0.000000 0.000000 0.000000 0.026714 0.000000 -0.007578
# 5 -0.003621 0.004878 -0.017877 0.000000 0.063163 0.000000
# 6 0.000000 0.000000 0.000000 -0.007578 0.000000 0.020315
#
#
# Mechanical properties :
#
#
# Convention : Reuss Voigt Hill
#
# Bulk Modulus (GPa) = 22.96849 40.71995 31.84422
# Shear Modulus (GPa) = 28.75741 42.59663 35.67702
#
# Velocity S-wave (km/s) = 3.27829 3.98988 3.65146
# Velocity P-wave (km/s) = 4.78678 6.03683 5.44778
#
# Compressibility (1/GPa) = 0.04353792
#
# Stress axis : x y z
#
# Youngs Moduli (GPa) = 45.30856 141.32674 58.12598
#
# Poissons Ratio (x) = 0.35946 -0.29846
# Poissons Ratio (y) = 0.11524 0.23237
# Poissons Ratio (z) = -0.23265 0.56497
#
# Static dielectric constant tensor:
#      x y z
#    x 2.436740 0.000000 0.095160 
#    y 0.000000 2.099810 0.000000 
#    z 0.095160 0.000000 2.117660 
# 
# From -- ./inp_files/30569.got.cif
#   From: 2010.05.17/outbox.cif.g08.bks.cpg/sg9_16_cif.got.tgz:30569.got - 2010.06.03 20:04:27.
