data_PCOD9139630
_publ_section_title
;
Structure prediction by ZEFSAII (Michael W. Deem and Ramdas Pophale) SiO2 
 PCOD9139630
Probable space group: C C
;
_chemical_formula_sum "Si O2"
_cell_formula_units_Z 32
_cell_length_a 5.295674
_cell_length_b 29.014931
_cell_length_c 11.157825
_cell_angle_alpha 90.000000
_cell_angle_beta 55.531369
_cell_angle_gamma 90.000000
_cell_volume 1413.446472
_symmetry_space_group_name_H-M "C C"
_symmetry_group_IT_number 9
_symmetry_cell_setting 'monoclinic'
loop_
_space_group_symop_operation_xyz
x,y,z
x,-y,1/2+z
1/2+x,1/2+y,z
1/2+x,1/2-y,1/2+z
loop_
_atom_site_type_symbol
_atom_site_label
_atom_site_fract_x
_atom_site_fract_y
_atom_site_fract_z
Si Si1 0.357950 0.324236 0.108170
Si Si2 0.385454 0.448116 0.747872
Si Si3 0.310288 0.757338 0.984198
Si Si4 0.590021 0.361387 0.561890
Si Si5 0.795469 0.470311 0.042340
Si Si6 0.800408 0.919012 0.028102
Si Si7 0.774226 0.841996 0.398625
Si Si8 0.913949 0.762704 0.712852
O O1 0.401239 0.343551 0.230494
O O2 0.150450 0.278568 0.167808
O O3 0.674787 0.304592 0.971635
O O4 0.230474 0.365528 0.063950
O O5 0.384123 0.403153 0.665219
O O6 0.630904 0.483137 0.627083
O O7 0.470725 0.428818 0.856523
O O8 0.057364 0.472166 0.867173
O O9 0.204665 0.711863 0.944598
O O10 0.675626 0.760852 0.884598
O O11 0.220080 0.751152 0.146544
O O12 0.503247 0.354986 0.444959
O O13 0.523302 0.313934 0.651866
O O14 0.952690 0.369324 0.483366
O O15 0.526264 0.437268 0.068855
O O16 0.988156 0.447948 0.099330
#
# Coordination Sequence:
#
# PCOD9139630 Si02
#       8
#     4   4   4   4   4   4   4   4
#     4  12  25  45  72 106 155 199 255 304 377 450
#     4  10  27  51  82 110 147 191 249 315 393 449
#     4  11  24  41  68  95 151 205 245 303 357 430
#     4  11  26  45  73 108 148 193 249 299 377 442
#     4  10  26  49  76 114 147 186 250 316 390 451
#     4  10  28  44  80 112 144 195 248 303 387 455
#     4  11  25  46  62 112 147 200 242 303 362 434
#     4  11  25  41  69 103 155 199 250 305 359 441
#
# _framework density 22.639697999999999
#
# number of rings (size 3 to 8) (size 9 to 14) (size 15 to 20)
#    0.750    0.500    2.500    1.500    8.750    2.000 
#    2.250    0.000    0.000    0.000    0.000    0.000 
#    0.000    0.000    0.000    0.000    0.000    0.000 
#
# Total GULP energy -89318.603117 kJ/mol
# GULP energy per Si atom -5582.412695 kJ/mol
# Density = 2.258817 g / cm^3
# Si number density = 22.639698 Si / 1000 Ang^3
#
#
#
# Elastic Constant Matrix: (Units=GPa)
#
#
# Indices 1 2 3 4 5 6 
#
# 1 94.4416 34.4222 32.2529 0.0000 -10.4454 0.0000
# 2 34.4222 130.7266 50.0500 0.0000 -5.5758 0.0000
# 3 32.2529 50.0500 59.8813 0.0000 1.4147 0.0000
# 4 0.0000 0.0000 0.0000 26.3623 0.0000 5.1057
# 5 -10.4454 -5.5758 1.4147 0.0000 29.9891 0.0000
# 6 0.0000 0.0000 0.0000 5.1057 0.0000 23.0751
#
#
#
# Elastic Compliance Matrix: (Units=1/GPa)
#
#
# Indices 1 2 3 4 5 6 
#
# 1 0.013775 -0.000778 -0.006886 0.000000 0.004978 0.000000
# 2 -0.000778 0.011490 -0.009238 0.000000 0.002301 0.000000
# 3 -0.006886 -0.009238 0.028259 0.000000 -0.005449 0.000000
# 4 0.000000 0.000000 0.000000 0.039631 0.000000 -0.008769
# 5 0.004978 0.002301 -0.005449 0.000000 0.035764 0.000000
# 6 0.000000 0.000000 0.000000 -0.008769 0.000000 0.045277
#
#
# Mechanical properties :
#
#
# Convention : Reuss Voigt Hill
#
# Bulk Modulus (GPa) = 50.71665 57.61105 54.16385
# Shear Modulus (GPa) = 23.30195 27.10693 25.20444
#
# Velocity S-wave (km/s) = 3.21168 3.46398 3.34021
# Velocity P-wave (km/s) = 6.01693 6.44213 6.23316
#
# Compressibility (1/GPa) = 0.01971739
#
# Stress axis : x y z
#
# Youngs Moduli (GPa) = 72.59785 87.03480 35.38669
#
# Poissons Ratio (x) = 0.06773 0.24368
# Poissons Ratio (y) = 0.05650 0.32692
# Poissons Ratio (z) = 0.49993 0.80407
#
# Static dielectric constant tensor:
#      x y z
#    x 1.862670 0.000000 -0.023470 
#    y 0.000000 1.814860 0.000000 
#    z -0.023470 0.000000 1.848330 
# 
# From -- ./inp_files/13922.got.cif
#   From: 2010.05.17/outbox.cif.g08.bks.cpg/sg9_7_cif.got.tgz:13922.got - 2010.06.03 20:04:27.
