data_PCOD9139403
_publ_section_title
;
Structure prediction by ZEFSAII (Michael W. Deem and Ramdas Pophale) SiO2 
 PCOD9139403
Probable space group: C C
;
_chemical_formula_sum "Si O2"
_cell_formula_units_Z 28
_cell_length_a 13.025285
_cell_length_b 16.549183
_cell_length_c 7.633856
_cell_angle_alpha 90.000000
_cell_angle_beta 141.186967
_cell_angle_gamma 90.000000
_cell_volume 1031.391690
_symmetry_space_group_name_H-M "C C"
_symmetry_group_IT_number 9
_symmetry_cell_setting 'monoclinic'
loop_
_space_group_symop_operation_xyz
x,y,z
x,-y,1/2+z
1/2+x,1/2+y,z
1/2+x,1/2-y,1/2+z
loop_
_atom_site_type_symbol
_atom_site_label
_atom_site_fract_x
_atom_site_fract_y
_atom_site_fract_z
Si Si1 0.161550 0.438944 0.754080
Si Si2 0.440742 0.316624 0.041472
Si Si3 0.268248 0.398317 0.281426
Si Si4 0.642069 0.564678 0.223373
Si Si5 0.736242 0.595798 0.974789
Si Si6 0.909952 0.326552 0.234642
Si Si7 0.422782 0.237565 0.399181
O O1 0.312025 0.389881 0.862505
O O2 0.173062 0.535870 0.770370
O O3 0.003810 0.399805 0.454929
O O4 0.183838 0.412905 0.982684
O O5 0.391363 0.242770 0.853967
O O6 0.614863 0.348074 0.203628
O O7 0.467738 0.286191 0.279612
O O8 0.456427 0.430665 0.543206
O O9 0.290674 0.301112 0.310980
O O10 0.759622 0.487475 0.409331
O O11 0.739966 0.639732 0.432575
O O12 0.628097 0.567315 0.996504
O O13 0.867956 0.653447 0.236353
O O14 0.005938 0.293075 0.189925
#
# Coordination Sequence:
#
# PCOD9139403 Si02
#       7
#     4   4   4   4   4   4   4
#     4  11  25  44  67 108 136 182 235 283 354 409
#     4  11  22  45  71 100 143 180 228 287 347 412
#     4  11  22  47  70  97 141 181 231 282 344 417
#     4  11  23  44  69 101 133 183 234 277 345 417
#     4  11  23  44  68 101 136 180 233 283 342 414
#     4  11  28  44  70 108 138 182 234 285 353 405
#     4  10  25  44  69 103 137 178 231 289 343 410
#
# _framework density 27.147787000000001
#
# number of rings (size 3 to 8) (size 9 to 14) (size 15 to 20)
#    0.000    1.143    4.286    1.714    6.000    3.429 
#    5.143    0.000    0.000    0.000    0.000    0.000 
#    0.000    0.000    0.000    0.000    0.000    0.000 
#
# Total GULP energy -78252.689922 kJ/mol
# GULP energy per Si atom -5589.477852 kJ/mol
# Density = 2.708600 g / cm^3
# Si number density = 27.147787 Si / 1000 Ang^3
#
#
#
# Elastic Constant Matrix: (Units=GPa)
#
#
# Indices 1 2 3 4 5 6 
#
# 1 38.2835 42.3576 19.1113 0.0000 -6.5371 0.0000
# 2 42.3576 186.3413 41.3827 0.0000 -4.5600 0.0000
# 3 19.1113 41.3827 122.0147 0.0000 -6.8038 0.0000
# 4 0.0000 0.0000 0.0000 53.6704 0.0000 7.1252
# 5 -6.5371 -4.5600 -6.8038 0.0000 20.0113 0.0000
# 6 0.0000 0.0000 0.0000 7.1252 0.0000 26.6959
#
#
#
# Elastic Compliance Matrix: (Units=1/GPa)
#
#
# Indices 1 2 3 4 5 6 
#
# 1 0.037674 -0.007718 -0.002747 0.000000 0.009614 0.000000
# 2 -0.007718 0.007394 -0.001371 0.000000 -0.001303 0.000000
# 3 -0.002747 -0.001371 0.009198 0.000000 0.001917 0.000000
# 4 0.000000 0.000000 0.000000 0.019317 0.000000 -0.005156
# 5 0.009614 -0.001303 0.001917 0.000000 0.053468 0.000000
# 6 0.000000 0.000000 0.000000 -0.005156 0.000000 0.038835
#
#
# Mechanical properties :
#
#
# Convention : Reuss Voigt Hill
#
# Bulk Modulus (GPa) = 32.68837 61.37140 47.02988
# Shear Modulus (GPa) = 25.03063 36.32804 30.67934
#
# Velocity S-wave (km/s) = 3.03976 3.66205 3.36532
# Velocity P-wave (km/s) = 4.93834 6.36681 5.69752
#
# Compressibility (1/GPa) = 0.03059192
#
# Stress axis : x y z
#
# Youngs Moduli (GPa) = 26.54376 135.25141 108.71891
#
# Poissons Ratio (x) = 1.04392 0.29865
# Poissons Ratio (y) = 0.20487 0.14909
# Poissons Ratio (z) = 0.07292 0.18548
#
# Static dielectric constant tensor:
#      x y z
#    x 2.267020 0.000000 0.044200 
#    y 0.000000 2.163130 0.000000 
#    z 0.044200 0.000000 2.005070 
# 
# From -- ./inp_files/7270.got.cif
#   From: 2010.05.17/outbox.cif.g08.bks.cpg/sg9_4_cif.got.tgz:7270.got - 2010.06.03 20:04:27.
