data_PCOD9139687
_publ_section_title
;
Structure prediction by ZEFSAII (Michael W. Deem and Ramdas Pophale) SiO2 
 PCOD9139687
Probable space group: C C
;
_chemical_formula_sum "Si O2"
_cell_formula_units_Z 28
_cell_length_a 10.012021
_cell_length_b 19.876611
_cell_length_c 8.557600
_cell_angle_alpha 90.000000
_cell_angle_beta 46.406387
_cell_angle_gamma 90.000000
_cell_volume 1233.399637
_symmetry_space_group_name_H-M "C C"
_symmetry_group_IT_number 9
_symmetry_cell_setting 'monoclinic'
loop_
_space_group_symop_operation_xyz
x,y,z
x,-y,1/2+z
1/2+x,1/2+y,z
1/2+x,1/2-y,1/2+z
loop_
_atom_site_type_symbol
_atom_site_label
_atom_site_fract_x
_atom_site_fract_y
_atom_site_fract_z
Si Si1 0.366860 0.167933 0.758940
Si Si2 0.706963 0.307405 0.055731
Si Si3 0.777097 0.190363 0.831181
Si Si4 0.391866 0.584750 0.548896
Si Si5 0.315696 0.926365 0.764853
Si Si6 0.523758 0.040207 0.775344
Si Si7 0.074982 0.788015 0.735818
O O1 0.261441 0.166593 0.680548
O O2 0.489339 0.102253 0.684126
O O3 0.480765 0.236549 0.691755
O O4 0.227315 0.172201 0.016827
O O5 0.730273 0.227003 0.029298
O O6 0.820987 0.350656 0.833868
O O7 0.497481 0.313790 0.172733
O O8 0.755243 0.114537 0.794598
O O9 0.673128 0.239220 0.787630
O O10 0.594451 0.558165 0.429439
O O11 0.246712 0.532263 0.595455
O O12 0.439207 0.653584 0.411498
O O13 0.414141 0.939433 0.521485
O O14 0.418301 0.974848 0.801152
#
# Coordination Sequence:
#
# PCOD9139687 Si02
#       7
#     4   4   4   4   4   4   4
#     4  12  22  39  66 104 143 180 224 292 341 416
#     4  11  24  38  64 105 143 177 225 281 350 412
#     4  11  19  38  66  96 139 175 217 277 347 407
#     4  11  24  42  75 104 133 180 240 276 353 418
#     4  11  26  47  69  98 139 185 238 289 339 415
#     4  12  25  46  74  93 139 191 236 289 345 410
#     4  12  20  40  70 102 138 182 226 282 353 418
#
# _framework density 22.701483
#
# number of rings (size 3 to 8) (size 9 to 14) (size 15 to 20)
#    0.000    0.571    7.143    1.714    2.000    1.143 
#    0.000    0.000    0.000    0.000    0.000    0.000 
#    0.000    0.000    0.000    0.000    0.000    0.000 
#
# Total GULP energy -77952.974260 kJ/mol
# GULP energy per Si atom -5568.069590 kJ/mol
# Density = 2.264981 g / cm^3
# Si number density = 22.701483 Si / 1000 Ang^3
#
#
#
# Elastic Constant Matrix: (Units=GPa)
#
#
# Indices 1 2 3 4 5 6 
#
# 1 118.5036 30.3962 41.3581 0.0000 -17.1220 0.0000
# 2 30.3962 53.3997 7.9185 0.0000 -28.9959 0.0000
# 3 41.3581 7.9185 31.3072 0.0000 -15.0850 0.0000
# 4 0.0000 0.0000 0.0000 17.1137 0.0000 -6.3374
# 5 -17.1220 -28.9959 -15.0850 0.0000 36.2918 0.0000
# 6 0.0000 0.0000 0.0000 -6.3374 0.0000 43.4316
#
#
#
# Elastic Compliance Matrix: (Units=1/GPa)
#
#
# Indices 1 2 3 4 5 6 
#
# 1 0.021430 -0.016223 -0.031987 0.000000 -0.016147 0.000000
# 2 -0.016223 0.046121 0.029802 0.000000 0.041583 0.000000
# 3 -0.031987 0.029802 0.088608 0.000000 0.045550 0.000000
# 4 0.000000 0.000000 0.000000 0.061770 0.000000 0.009013
# 5 -0.016147 0.041583 0.045550 0.000000 0.072093 0.000000
# 6 0.000000 0.000000 0.000000 0.009013 0.000000 0.024340
#
#
# Mechanical properties :
#
#
# Convention : Reuss Voigt Hill
#
# Bulk Modulus (GPa) = 8.37919 40.28399 24.33159
# Shear Modulus (GPa) = 12.78901 27.60329 20.19615
#
# Velocity S-wave (km/s) = 2.37609 3.49079 2.98592
# Velocity P-wave (km/s) = 3.35064 5.83362 4.75699
#
# Compressibility (1/GPa) = 0.11934325
#
# Stress axis : x y z
#
# Youngs Moduli (GPa) = 46.66259 21.68192 11.28567
#
# Poissons Ratio (x) = 0.35175 0.36100
# Poissons Ratio (y) = 0.75701 -0.33634
# Poissons Ratio (z) = 1.49261 -0.64617
#
# Static dielectric constant tensor:
#      x y z
#    x 1.899660 0.000000 -0.012740 
#    y 0.000000 1.989560 0.000000 
#    z -0.012740 0.000000 1.935660 
# 
# From -- ./inp_files/5879.got.cif
#   From: 2010.05.17/outbox.cif.g08.bks.cpg/sg9_3_cif.got.tgz:5879.got - 2010.06.03 20:04:27.
