data_PCOD9139772
_publ_section_title
;
Structure prediction by ZEFSAII (Michael W. Deem and Ramdas Pophale) SiO2 
 PCOD9139772
Probable space group: C C
;
_chemical_formula_sum "Si O2"
_cell_formula_units_Z 32
_cell_length_a 18.411222
_cell_length_b 15.612744
_cell_length_c 9.000174
_cell_angle_alpha 90.000000
_cell_angle_beta 31.537716
_cell_angle_gamma 90.000000
_cell_volume 1353.206372
_symmetry_space_group_name_H-M "C C"
_symmetry_group_IT_number 9
_symmetry_cell_setting 'monoclinic'
loop_
_space_group_symop_operation_xyz
x,y,z
x,-y,1/2+z
1/2+x,1/2+y,z
1/2+x,1/2-y,1/2+z
loop_
_atom_site_type_symbol
_atom_site_label
_atom_site_fract_x
_atom_site_fract_y
_atom_site_fract_z
Si Si1 0.378260 0.575337 0.982160
Si Si2 0.076652 0.146576 0.883706
Si Si3 0.694456 0.914157 0.305001
Si Si4 0.414194 0.711907 0.434723
Si Si5 0.028615 0.512054 0.365479
Si Si6 0.057480 0.907978 0.891358
Si Si7 0.098724 0.670560 0.442918
Si Si8 0.716069 0.492624 0.333971
O O1 0.500503 0.611972 0.871805
O O2 0.426897 0.567171 0.725641
O O3 0.320027 0.481194 0.118292
O O4 0.249818 0.639784 0.230178
O O5 0.123725 0.245110 0.797545
O O6 0.191949 0.083951 0.754202
O O7 0.957182 0.153304 0.217385
O O8 0.582877 0.946107 0.619018
O O9 0.626427 0.937713 0.264232
O O10 0.755471 0.819062 0.227578
O O11 0.507318 0.681186 0.410700
O O12 0.481664 0.800869 0.265648
O O13 0.039383 0.590279 0.460834
O O14 0.868749 0.491179 0.625450
O O15 0.121245 0.958593 0.637313
O O16 0.173165 0.923229 0.815465
#
# Coordination Sequence:
#
# PCOD9139772 Si02
#       8
#     4   4   4   4   4   4   4   4
#     4  11  21  40  67 105 131 174 242 279 358 403
#     4   9  20  35  64  86 129 185 211 277 336 427
#     4  11  21  38  69 102 130 182 231 291 333 420
#     4   9  19  39  64  94 131 175 229 273 352 411
#     4  11  24  41  66 101 144 178 232 294 343 411
#     4  11  22  37  68  98 131 175 227 295 330 425
#     4   9  23  38  65  92 137 185 214 287 347 416
#     4  11  22  40  63 102 137 178 230 286 353 393
#
# _framework density 23.647538000000001
#
# number of rings (size 3 to 8) (size 9 to 14) (size 15 to 20)
#    0.750    1.000    0.000    6.000    1.750    0.000 
#    0.000    2.500    8.250    1.500    0.000    0.000 
#    0.000    0.000    0.000    0.000    0.000    0.000 
#
# Total GULP energy -89113.126553 kJ/mol
# GULP energy per Si atom -5569.570410 kJ/mol
# Density = 2.359372 g / cm^3
# Si number density = 23.647538 Si / 1000 Ang^3
#
#
#
# Elastic Constant Matrix: (Units=GPa)
#
#
# Indices 1 2 3 4 5 6 
#
# 1 131.5149 30.9199 29.7892 0.0000 -12.3834 0.0000
# 2 30.9199 65.5824 13.8452 0.0000 -13.7157 0.0000
# 3 29.7892 13.8452 82.3857 0.0000 5.4115 0.0000
# 4 0.0000 0.0000 0.0000 39.1969 0.0000 5.5830
# 5 -12.3834 -13.7157 5.4115 0.0000 43.5020 0.0000
# 6 0.0000 0.0000 0.0000 5.5830 0.0000 25.9255
#
#
#
# Elastic Compliance Matrix: (Units=1/GPa)
#
#
# Indices 1 2 3 4 5 6 
#
# 1 0.009227 -0.003332 -0.002904 0.000000 0.001937 0.000000
# 2 -0.003332 0.018356 -0.002216 0.000000 0.005115 0.000000
# 3 -0.002904 -0.002216 0.013773 0.000000 -0.003239 0.000000
# 4 0.000000 0.000000 0.000000 0.026319 0.000000 -0.005668
# 5 0.001937 0.005115 -0.003239 0.000000 0.025554 0.000000
# 6 0.000000 0.000000 0.000000 -0.005668 0.000000 0.039793
#
#
# Mechanical properties :
#
#
# Convention : Reuss Voigt Hill
#
# Bulk Modulus (GPa) = 40.89452 47.62128 44.25790
# Shear Modulus (GPa) = 31.62996 35.38680 33.50838
#
# Velocity S-wave (km/s) = 3.66123 3.87256 3.76838
# Velocity P-wave (km/s) = 5.93327 6.33856 6.13926
#
# Compressibility (1/GPa) = 0.02445315
#
# Stress axis : x y z
#
# Youngs Moduli (GPa) = 108.37490 54.47663 72.60545
#
# Poissons Ratio (x) = 0.18153 0.21082
# Poissons Ratio (y) = 0.36112 0.16089
# Poissons Ratio (z) = 0.31468 0.12072
#
# Static dielectric constant tensor:
#      x y z
#    x 1.941000 0.000000 0.048810 
#    y 0.000000 1.920430 0.000000 
#    z 0.048810 0.000000 1.970430 
# 
# From -- ./inp_files/11046.got.cif
#   From: 2010.05.17/outbox.cif.g08.bks.cpg/sg9_6_cif.got.tgz:11046.got - 2010.06.03 20:04:27.
