data_PCOD9139359
_publ_section_title
;
Structure prediction by ZEFSAII (Michael W. Deem and Ramdas Pophale) SiO2 
 PCOD9139359
Probable space group: C C
;
_chemical_formula_sum "Si O2"
_cell_formula_units_Z 32
_cell_length_a 10.140890
_cell_length_b 15.098305
_cell_length_c 16.230177
_cell_angle_alpha 90.000000
_cell_angle_beta 32.902320
_cell_angle_gamma 90.000000
_cell_volume 1349.876501
_symmetry_space_group_name_H-M "C C"
_symmetry_group_IT_number 9
_symmetry_cell_setting 'monoclinic'
loop_
_space_group_symop_operation_xyz
x,y,z
x,-y,1/2+z
1/2+x,1/2+y,z
1/2+x,1/2-y,1/2+z
loop_
_atom_site_type_symbol
_atom_site_label
_atom_site_fract_x
_atom_site_fract_y
_atom_site_fract_z
Si Si1 0.956240 0.055455 0.496430
Si Si2 0.355168 0.194363 0.314009
Si Si3 0.319186 0.550568 0.372033
Si Si4 0.836586 0.866473 0.575740
Si Si5 0.410071 0.190955 0.603644
Si Si6 0.649762 0.688385 0.117108
Si Si7 0.684578 0.191344 0.756236
Si Si8 0.839669 0.859816 0.393710
O O1 0.892402 0.056200 0.431719
O O2 0.777783 0.107922 0.652929
O O3 0.200604 0.110900 0.371376
O O4 0.978830 0.955189 0.518910
O O5 0.580741 0.157901 0.250201
O O6 0.353514 0.267710 0.240265
O O7 0.223892 0.264695 0.440921
O O8 0.507016 0.597636 0.211158
O O9 0.291724 0.446699 0.365252
O O10 0.074631 0.607201 0.497384
O O11 0.964694 0.771930 0.511788
O O12 0.739238 0.884059 0.535571
O O13 0.498360 0.241438 0.640403
O O14 0.131290 0.157431 0.747051
O O15 0.664457 0.732205 0.198730
O O16 0.915284 0.677241 0.936867
#
# Coordination Sequence:
#
# PCOD9139359 Si02
#       8
#     4   4   4   4   4   4   4   4
#     4  11  23  43  67 100 130 177 225 269 332 397
#     4  11  22  43  67  93 139 171 219 280 327 396
#     4  11  23  43  67 100 130 177 225 269 332 397
#     4  10  25  41  66 100 131 180 218 272 341 394
#     4  11  22  43  67  93 139 171 219 280 327 396
#     4  12  22  40  70  99 131 177 220 271 328 390
#     4  12  22  40  70  99 131 177 220 271 328 390
#     4  10  25  41  66 100 131 180 218 272 341 394
#
# _framework density 23.705873
#
# number of rings (size 3 to 8) (size 9 to 14) (size 15 to 20)
#    0.000    1.000    5.000    1.500    0.000    7.000 
#    0.000    5.000    0.000    0.000    0.000    0.000 
#    0.000    0.000    0.000    0.000    0.000    0.000 
#
# Total GULP energy -89073.450633 kJ/mol
# GULP energy per Si atom -5567.090665 kJ/mol
# Density = 2.365192 g / cm^3
# Si number density = 23.705873 Si / 1000 Ang^3
#
#
#
# Elastic Constant Matrix: (Units=GPa)
#
#
# Indices 1 2 3 4 5 6 
#
# 1 27.9584 -1.6497 3.2916 -0.0015 -13.0234 -0.0012
# 2 -1.6497 145.1761 -0.3901 -0.0102 -13.0753 0.0028
# 3 3.2916 -0.3901 98.4713 -0.0104 3.5000 0.0031
# 4 -0.0015 -0.0102 -0.0104 19.1303 0.0019 3.7596
# 5 -13.0234 -13.0753 3.5000 0.0019 23.0066 0.0009
# 6 -0.0012 0.0028 0.0031 3.7596 0.0009 29.1040
#
#
#
# Elastic Compliance Matrix: (Units=1/GPa)
#
#
# Indices 1 2 3 4 5 6 
#
# 1 0.050771 0.003369 -0.002788 0.000001 0.031079 0.000001
# 2 0.003369 0.007485 -0.000304 0.000004 0.006207 -0.000001
# 3 -0.002788 -0.000304 0.010366 0.000006 -0.003328 -0.000002
# 4 0.000001 0.000004 0.000006 0.053635 -0.000003 -0.006928
# 5 0.031079 0.006207 -0.003328 -0.000003 0.065092 -0.000001
# 6 0.000001 -0.000001 -0.000002 -0.006928 -0.000001 0.035255
#
#
# Mechanical properties :
#
#
# Convention : Reuss Voigt Hill
#
# Bulk Modulus (GPa) = 14.45613 30.45660 22.45636
# Shear Modulus (GPa) = 20.39915 32.27178 26.33546
#
# Velocity S-wave (km/s) = 2.93663 3.69364 3.33667
# Velocity P-wave (km/s) = 4.19640 5.57371 4.93335
#
# Compressibility (1/GPa) = 0.06917482
#
# Stress axis : x y z
#
# Youngs Moduli (GPa) = 19.69611 133.60647 96.47358
#
# Poissons Ratio (x) = -0.45006 0.26901
# Poissons Ratio (y) = -0.06635 0.02929
# Poissons Ratio (z) = 0.05492 0.04056
#
# Static dielectric constant tensor:
#      x y z
#    x 2.112960 0.000000 0.040850 
#    y 0.000000 2.013740 0.000000 
#    z 0.040850 0.000000 2.080890 
# 
# From -- ./inp_files/30164.got.cif
#   From: 2010.05.17/outbox.cif.g08.bks.cpg/sg9_16_cif.got.tgz:30164.got - 2010.06.03 20:04:27.
