data_PCOD9139816
_publ_section_title
;
Structure prediction by ZEFSAII (Michael W. Deem and Ramdas Pophale) SiO2 
 PCOD9139816
Probable space group: C C
;
_chemical_formula_sum "Si O2"
_cell_formula_units_Z 32
_cell_length_a 20.697065
_cell_length_b 16.317843
_cell_length_c 8.966251
_cell_angle_alpha 90.000000
_cell_angle_beta 29.335392
_cell_angle_gamma 90.000000
_cell_volume 1483.571557
_symmetry_space_group_name_H-M "C C"
_symmetry_group_IT_number 9
_symmetry_cell_setting 'monoclinic'
loop_
_space_group_symop_operation_xyz
x,y,z
x,-y,1/2+z
1/2+x,1/2+y,z
1/2+x,1/2-y,1/2+z
loop_
_atom_site_type_symbol
_atom_site_label
_atom_site_fract_x
_atom_site_fract_y
_atom_site_fract_z
Si Si1 0.677580 0.465930 0.278220
Si Si2 0.909635 0.357574 0.747139
Si Si3 0.781159 0.936383 0.437523
Si Si4 0.694115 0.905947 0.290706
Si Si5 0.323235 0.700526 0.098396
Si Si6 0.065185 0.083519 0.304395
Si Si7 0.961300 0.830564 0.621303
Si Si8 0.035598 0.733176 0.743431
O O1 0.631073 0.556060 0.325179
O O2 0.660918 0.452977 0.486722
O O3 0.571491 0.400696 0.423146
O O4 0.820669 0.438188 0.935779
O O5 0.056511 0.369925 0.513164
O O6 0.928399 0.321265 0.543620
O O7 0.839844 0.289339 0.990730
O O8 0.695663 0.911889 0.466868
O O9 0.822700 0.864794 0.466836
O O10 0.714929 0.006473 0.668828
O O11 0.922572 0.960334 0.080937
O O12 0.824420 0.857120 0.976221
O O13 0.430320 0.686189 0.011606
O O14 0.179611 0.693787 0.462089
O O15 0.045090 0.178903 0.308620
O O16 0.007709 0.753149 0.626707
#
# Coordination Sequence:
#
# PCOD9139816 Si02
#       8
#     4   4   4   4   4   4   4   4
#     4  11  25  43  68 101 137 172 231 290 340 411
#     4  12  26  46  68 104 147 173 229 298 352 394
#     4  12  24  44  73  99 137 186 239 278 342 423
#     4  12  25  43  71 104 137 184 232 288 345 412
#     4  12  25  43  70 103 136 185 228 293 348 407
#     4  11  21  43  70  95 131 183 230 274 334 418
#     4  11  22  42  71  99 133 178 242 275 343 418
#     4  11  24  46  67 103 140 177 233 290 340 421
#
# _framework density 21.569571
#
# number of rings (size 3 to 8) (size 9 to 14) (size 15 to 20)
#    0.000    0.500    8.750    0.750    3.500    2.000 
#    2.250    0.000    0.000    0.000    0.000    0.000 
#    0.000    0.000    0.000    0.000    0.000    0.000 
#
# Total GULP energy -89433.239069 kJ/mol
# GULP energy per Si atom -5589.577442 kJ/mol
# Density = 2.152048 g / cm^3
# Si number density = 21.569571 Si / 1000 Ang^3
#
#
#
# Elastic Constant Matrix: (Units=GPa)
#
#
# Indices 1 2 3 4 5 6 
#
# 1 92.9372 10.0808 11.6335 0.0000 8.6404 0.0000
# 2 10.0808 18.5942 -2.6828 0.0000 9.4092 0.0000
# 3 11.6335 -2.6828 79.8329 0.0000 -1.5995 0.0000
# 4 0.0000 0.0000 0.0000 24.9949 0.0000 -3.7602
# 5 8.6404 9.4092 -1.5995 0.0000 32.3876 0.0000
# 6 0.0000 0.0000 0.0000 -3.7602 0.0000 29.2803
#
#
#
# Elastic Compliance Matrix: (Units=1/GPa)
#
#
# Indices 1 2 3 4 5 6 
#
# 1 0.011785 -0.005898 -0.001946 0.000000 -0.001527 0.000000
# 2 -0.005898 0.066247 0.002734 0.000000 -0.017537 0.000000
# 3 -0.001946 0.002734 0.012909 0.000000 0.000362 0.000000
# 4 0.000000 0.000000 0.000000 0.040796 0.000000 0.005239
# 5 -0.001527 -0.017537 0.000362 0.000000 0.036396 0.000000
# 6 0.000000 0.000000 0.000000 0.005239 0.000000 0.034825
#
#
# Mechanical properties :
#
#
# Convention : Reuss Voigt Hill
#
# Bulk Modulus (GPa) = 12.38821 25.49193 18.94007
# Shear Modulus (GPa) = 20.82597 28.82141 24.82369
#
# Velocity S-wave (km/s) = 3.11066 3.65938 3.39612
# Velocity P-wave (km/s) = 4.31943 5.44967 4.91713
#
# Compressibility (1/GPa) = 0.08072188
#
# Stress axis : x y z
#
# Youngs Moduli (GPa) = 84.85201 15.09512 77.46584
#
# Poissons Ratio (x) = 0.08902 0.15076
# Poissons Ratio (y) = 0.50042 -0.21181
# Poissons Ratio (z) = 0.16514 -0.04127
#
# Static dielectric constant tensor:
#      x y z
#    x 1.791410 0.000000 0.031230 
#    y 0.000000 1.788310 0.000000 
#    z 0.031230 0.000000 1.800180 
# 
# From -- ./inp_files/11775.got.cif
#   From: 2010.05.17/outbox.cif.g08.bks.cpg/sg9_6_cif.got.tgz:11775.got - 2010.06.03 20:04:27.
