data_PCOD9139123
_publ_section_title
;
Structure prediction by ZEFSAII (Michael W. Deem and Ramdas Pophale) SiO2 
 PCOD9139123
Probable space group: C C
;
_chemical_formula_sum "Si O2"
_cell_formula_units_Z 32
_cell_length_a 26.425565
_cell_length_b 5.456350
_cell_length_c 14.452943
_cell_angle_alpha 90.000000
_cell_angle_beta 38.916811
_cell_angle_gamma 90.000000
_cell_volume 1309.105839
_symmetry_space_group_name_H-M "C C"
_symmetry_group_IT_number 9
_symmetry_cell_setting 'monoclinic'
loop_
_space_group_symop_operation_xyz
x,y,z
x,-y,1/2+z
1/2+x,1/2+y,z
1/2+x,1/2-y,1/2+z
loop_
_atom_site_type_symbol
_atom_site_label
_atom_site_fract_x
_atom_site_fract_y
_atom_site_fract_z
Si Si1 0.844140 0.187650 0.544830
Si Si2 0.713259 0.559263 0.108116
Si Si3 0.265801 0.353277 0.869067
Si Si4 0.973475 0.440005 0.807695
Si Si5 0.080975 0.099424 0.930721
Si Si6 0.413025 0.334582 0.577389
Si Si7 0.123691 0.596119 0.977804
Si Si8 0.344022 0.318413 0.393874
O O1 0.767722 0.345099 0.618202
O O2 0.923614 0.308654 0.385669
O O3 0.877876 0.099342 0.594662
O O4 0.825400 0.932993 0.520223
O O5 0.631199 0.458574 0.265899
O O6 0.706519 0.745261 0.031819
O O7 0.771167 0.361439 0.979091
O O8 0.328306 0.189986 0.719868
O O9 0.335459 0.470211 0.833273
O O10 0.214526 0.541517 0.881140
O O11 0.929131 0.306517 0.784620
O O12 0.065302 0.444474 0.648649
O O13 0.954778 0.301204 0.930018
O O14 0.106726 0.364514 0.934196
O O15 0.986912 0.126032 0.041851
O O16 0.104454 0.865015 0.962654
#
# Coordination Sequence:
#
# PCOD9139123 Si02
#       8
#     4   4   4   4   4   4   4   4
#     4   9  21  42  73 100 140 184 245 300 374 432
#     4  10  24  44  76 102 147 191 248 304 378 437
#     4  11  26  44  75 105 147 193 253 301 375 441
#     4  10  24  44  76 102 147 191 248 304 378 437
#     4  12  31  48  74 110 155 194 251 307 374 438
#     4  11  26  44  75 105 147 193 253 301 375 441
#     4  12  31  48  74 110 155 194 251 307 374 438
#     4   9  21  42  73 100 140 184 245 300 374 432
#
# _framework density 24.444165999999999
#
# number of rings (size 3 to 8) (size 9 to 14) (size 15 to 20)
#    0.000    1.500    0.000    1.500   24.500    1.000 
#    0.000    0.000    0.000    0.000    0.000    0.000 
#    0.000    0.000    0.000    0.000    0.000    0.000 
#
# Total GULP energy -89207.472247 kJ/mol
# GULP energy per Si atom -5575.467015 kJ/mol
# Density = 2.438853 g / cm^3
# Si number density = 24.444166 Si / 1000 Ang^3
#
#
#
# Elastic Constant Matrix: (Units=GPa)
#
#
# Indices 1 2 3 4 5 6 
#
# 1 81.7438 8.2701 12.0021 0.0136 -12.7438 0.0076
# 2 8.2701 57.9068 -17.0149 -0.0397 2.2800 0.0152
# 3 12.0021 -17.0149 114.5415 -0.0640 -14.8940 0.0080
# 4 0.0136 -0.0397 -0.0640 18.4612 0.0131 2.4698
# 5 -12.7438 2.2800 -14.8940 0.0131 37.7290 0.0008
# 6 0.0076 0.0152 0.0080 2.4698 0.0008 32.5390
#
#
#
# Elastic Compliance Matrix: (Units=1/GPa)
#
#
# Indices 1 2 3 4 5 6 
#
# 1 0.013305 -0.002420 -0.001213 -0.000022 0.004162 0.000000
# 2 -0.002420 0.018498 0.002899 0.000054 -0.000791 -0.000013
# 3 -0.001213 0.002899 0.009711 0.000039 0.003249 -0.000007
# 4 -0.000022 0.000054 0.000039 0.054724 -0.000014 -0.004154
# 5 0.004162 -0.000791 0.003249 -0.000014 0.029241 -0.000001
# 6 0.000000 -0.000013 -0.000007 -0.004154 -0.000001 0.031048
#
#
# Mechanical properties :
#
#
# Convention : Reuss Voigt Hill
#
# Bulk Modulus (GPa) = 24.97217 28.96742 26.96979
# Shear Modulus (GPa) = 29.18138 34.47483 31.82810
#
# Velocity S-wave (km/s) = 3.45889 3.75954 3.61234
# Velocity P-wave (km/s) = 5.11762 5.54271 5.33440
#
# Compressibility (1/GPa) = 0.04004459
#
# Stress axis : x y z
#
# Youngs Moduli (GPa) = 75.15936 54.06079 102.98084
#
# Poissons Ratio (x) = 0.13085 0.12487
# Poissons Ratio (y) = 0.18191 -0.29850
# Poissons Ratio (z) = 0.09114 -0.15670
#
# Static dielectric constant tensor:
#      x y z
#    x 1.971720 -0.000010 0.114930 
#    y -0.000010 2.016060 0.000030 
#    z 0.114930 0.000030 2.085320 
# 
# From -- ./inp_files/27883.got.cif
#   From: 2010.05.17/outbox.cif.g08.bks.cpg/sg9_14_cif.got.tgz:27883.got - 2010.06.03 20:04:27.
