data_PCOD9139549
_publ_section_title
;
Structure prediction by ZEFSAII (Michael W. Deem and Ramdas Pophale) SiO2 
 PCOD9139549
Probable space group: C C
;
_chemical_formula_sum "Si O2"
_cell_formula_units_Z 20
_cell_length_a 11.032767
_cell_length_b 7.212608
_cell_length_c 14.142823
_cell_angle_alpha 90.000000
_cell_angle_beta 41.655946
_cell_angle_gamma 90.000000
_cell_volume 748.014234
_symmetry_space_group_name_H-M "C C"
_symmetry_group_IT_number 9
_symmetry_cell_setting 'monoclinic'
loop_
_space_group_symop_operation_xyz
x,y,z
x,-y,1/2+z
1/2+x,1/2+y,z
1/2+x,1/2-y,1/2+z
loop_
_atom_site_type_symbol
_atom_site_label
_atom_site_fract_x
_atom_site_fract_y
_atom_site_fract_z
Si Si1 0.922840 0.591099 0.910340
Si Si2 0.228977 0.188214 0.751422
Si Si3 0.653068 0.265771 0.075198
Si Si4 0.641283 0.132386 0.487160
Si Si5 0.789230 0.721382 0.192519
O O1 0.807146 0.745482 0.923740
O O2 0.130244 0.635480 0.762340
O O3 0.809964 0.406644 0.950924
O O4 0.631529 0.825223 0.880901
O O5 0.172946 0.231275 0.676737
O O6 0.446582 0.204633 0.636995
O O7 0.197990 0.967050 0.788676
O O8 0.445606 0.313265 0.165469
O O9 0.887187 0.358278 0.541546
O O10 0.676161 0.931120 0.510472
#
# Coordination Sequence:
#
# PCOD9139549 Si02
#       5
#     4   4   4   4   4
#     4  11  25  52  80 119 171 221 281 344 415 502
#     4  10  25  51  80 125 169 221 276 348 419 496
#     4  10  26  54  80 126 166 228 276 346 424 502
#     4  11  25  52  80 119 171 221 281 344 415 502
#     4  10  25  51  80 125 169 221 276 348 419 496
#
# _framework density 26.737458
#
# number of rings (size 3 to 8) (size 9 to 14) (size 15 to 20)
#    0.000    1.600    0.000    1.200    5.600    1.600 
#   57.600    0.000    0.000    0.000    0.000    0.000 
#    0.000    0.000    0.000    0.000    0.000    0.000 
#
# Total GULP energy -56092.831263 kJ/mol
# GULP energy per Si atom -5609.283126 kJ/mol
# Density = 2.667660 g / cm^3
# Si number density = 26.737458 Si / 1000 Ang^3
#
#
#
# Elastic Constant Matrix: (Units=GPa)
#
#
# Indices 1 2 3 4 5 6 
#
# 1 202.0476 79.1374 50.1491 0.0000 -24.9644 0.0000
# 2 79.1374 151.0114 68.5329 0.0000 -19.8953 0.0000
# 3 50.1491 68.5329 103.9650 0.0000 -24.7079 0.0000
# 4 0.0000 0.0000 0.0000 39.0845 0.0000 1.0820
# 5 -24.9644 -19.8953 -24.7079 0.0000 56.2448 0.0000
# 6 0.0000 0.0000 0.0000 1.0820 0.0000 46.1956
#
#
#
# Elastic Compliance Matrix: (Units=1/GPa)
#
#
# Indices 1 2 3 4 5 6 
#
# 1 0.006444 -0.002756 -0.000942 0.000000 0.001472 0.000000
# 2 -0.002756 0.010650 -0.005680 0.000000 0.000049 0.000000
# 3 -0.000942 -0.005680 0.014784 0.000000 0.004067 0.000000
# 4 0.000000 0.000000 0.000000 0.025602 0.000000 -0.000600
# 5 0.001472 0.000049 0.004067 0.000000 0.020237 0.000000
# 6 0.000000 0.000000 0.000000 -0.000600 0.000000 0.021661
#
#
# Mechanical properties :
#
#
# Convention : Reuss Voigt Hill
#
# Bulk Modulus (GPa) = 76.20138 94.74031 85.47084
# Shear Modulus (GPa) = 40.81383 45.58527 43.19955
#
# Velocity S-wave (km/s) = 3.91124 4.13355 4.02393
# Velocity P-wave (km/s) = 6.99706 7.63493 7.32294
#
# Compressibility (1/GPa) = 0.01312312
#
# Stress axis : x y z
#
# Youngs Moduli (GPa) = 155.17434 93.89568 67.64236
#
# Poissons Ratio (x) = 0.25874 0.06374
# Poissons Ratio (y) = 0.42760 0.38418
# Poissons Ratio (z) = 0.14622 0.53329
#
# Static dielectric constant tensor:
#      x y z
#    x 2.138400 0.000000 0.090920 
#    y 0.000000 2.113310 0.000000 
#    z 0.090920 0.000000 2.105250 
# 
# From -- ./inp_files/10710.got.cif
#   From: 2010.05.17/outbox.cif.g08.bks.cpg/sg9_6_cif.got.tgz:10710.got - 2010.06.03 20:04:27.
