data_PCOD9139581
_publ_section_title
;
Structure prediction by ZEFSAII (Michael W. Deem and Ramdas Pophale) SiO2 
 PCOD9139581
Probable space group: C C
;
_chemical_formula_sum "Si O2"
_cell_formula_units_Z 20
_cell_length_a 4.967729
_cell_length_b 18.107052
_cell_length_c 9.842473
_cell_angle_alpha 90.000000
_cell_angle_beta 102.373631
_cell_angle_gamma 90.000000
_cell_volume 864.774022
_symmetry_space_group_name_H-M "C C"
_symmetry_group_IT_number 9
_symmetry_cell_setting 'monoclinic'
loop_
_space_group_symop_operation_xyz
x,y,z
x,-y,1/2+z
1/2+x,1/2+y,z
1/2+x,1/2-y,1/2+z
loop_
_atom_site_type_symbol
_atom_site_label
_atom_site_fract_x
_atom_site_fract_y
_atom_site_fract_z
Si Si1 0.125000 0.355748 0.065940
Si Si2 0.387028 0.588466 0.157332
Si Si3 0.558576 0.695454 0.406924
Si Si4 0.401760 0.012307 0.681889
Si Si5 0.571353 0.144126 0.862536
O O1 0.209979 0.339453 0.230805
O O2 0.987418 0.436972 0.062315
O O3 0.386110 0.348996 0.999923
O O4 0.877071 0.304172 0.986755
O O5 0.521025 0.652540 0.262341
O O6 0.616450 0.528980 0.143611
O O7 0.145444 0.547773 0.216425
O O8 0.261350 0.621044 0.006741
O O9 0.438030 0.778045 0.386708
O O10 0.393107 0.072239 0.802959
#
# Coordination Sequence:
#
# PCOD9139581 Si02
#       5
#     4   4   4   4   4
#     4  10  26  44  74 101 154 183 240 303 362 420
#     4  12  26  46  78 104 143 195 249 289 374 429
#     4  12  25  47  75 110 144 195 242 302 365 440
#     4  10  27  45  72 104 146 187 245 298 355 427
#     4  10  28  48  73 107 149 192 242 302 362 436
#
# _framework density 23.127428999999999
#
# number of rings (size 3 to 8) (size 9 to 14) (size 15 to 20)
#    1.200    0.000    0.000    3.600    8.400    9.600 
#    0.000    0.000    0.000    0.000    0.000    0.000 
#    0.000    0.000    0.000    0.000    0.000    0.000 
#
# Total GULP energy -55900.730996 kJ/mol
# GULP energy per Si atom -5590.073100 kJ/mol
# Density = 2.307479 g / cm^3
# Si number density = 23.127429 Si / 1000 Ang^3
#
#
#
# Elastic Constant Matrix: (Units=GPa)
#
#
# Indices 1 2 3 4 5 6 
#
# 1 67.9955 12.1388 5.5541 0.0000 -1.3983 0.0000
# 2 12.1388 127.7187 56.1241 0.0000 13.2230 0.0000
# 3 5.5541 56.1241 107.7438 0.0000 -7.6761 0.0000
# 4 0.0000 0.0000 0.0000 27.7219 0.0000 1.2495
# 5 -1.3983 13.2230 -7.6761 0.0000 9.4027 0.0000
# 6 0.0000 0.0000 0.0000 1.2495 0.0000 15.3022
#
#
#
# Elastic Compliance Matrix: (Units=1/GPa)
#
#
# Indices 1 2 3 4 5 6 
#
# 1 0.015228 -0.002623 0.001068 0.000000 0.006825 0.000000
# 2 -0.002623 0.015838 -0.010330 0.000000 -0.031097 0.000000
# 3 0.001068 -0.010330 0.016620 0.000000 0.028255 0.000000
# 4 0.000000 0.000000 0.000000 0.036206 0.000000 -0.002956
# 5 0.006825 -0.031097 0.028255 0.000000 0.174166 0.000000
# 6 0.000000 0.000000 0.000000 -0.002956 0.000000 0.065591
#
#
# Mechanical properties :
#
#
# Convention : Reuss Voigt Hill
#
# Bulk Modulus (GPa) = 41.81465 50.12131 45.96798
# Shear Modulus (GPa) = 14.06894 25.79476 19.93185
#
# Velocity S-wave (km/s) = 2.46910 3.34328 2.93887
# Velocity P-wave (km/s) = 5.12327 6.05163 5.60670
#
# Compressibility (1/GPa) = 0.02391506
#
# Stress axis : x y z
#
# Youngs Moduli (GPa) = 65.66720 63.13919 60.16725
#
# Poissons Ratio (x) = 0.16562 -0.06424
# Poissons Ratio (y) = 0.17225 0.62155
# Poissons Ratio (z) = -0.07011 0.65225
#
# Static dielectric constant tensor:
#      x y z
#    x 1.813350 0.000000 0.003610 
#    y 0.000000 1.965480 0.000000 
#    z 0.003610 0.000000 1.874030 
# 
# From -- ./inp_files/3643.got.cif
#   From: 2010.05.17/outbox.cif.g08.bks.cpg/sg9_2_cif.got.tgz:3643.got - 2010.06.03 20:04:27.
