data_PCOD9139765
_publ_section_title
;
Structure prediction by ZEFSAII (Michael W. Deem and Ramdas Pophale) SiO2 
 PCOD9139765
Probable space group: C C
;
_chemical_formula_sum "Si O2"
_cell_formula_units_Z 32
_cell_length_a 22.281103
_cell_length_b 8.386736
_cell_length_c 9.097736
_cell_angle_alpha 90.000000
_cell_angle_beta 123.559833
_cell_angle_gamma 90.000000
_cell_volume 1416.671169
_symmetry_space_group_name_H-M "C C"
_symmetry_group_IT_number 9
_symmetry_cell_setting 'monoclinic'
loop_
_space_group_symop_operation_xyz
x,y,z
x,-y,1/2+z
1/2+x,1/2+y,z
1/2+x,1/2-y,1/2+z
loop_
_atom_site_type_symbol
_atom_site_label
_atom_site_fract_x
_atom_site_fract_y
_atom_site_fract_z
Si Si1 0.143970 0.678716 0.807360
Si Si2 0.852663 0.828969 0.869407
Si Si3 0.589385 0.269412 0.204850
Si Si4 0.435724 0.483371 0.729141
Si Si5 0.984957 0.304399 0.960811
Si Si6 0.193533 0.547580 0.165402
Si Si7 0.593455 0.539830 0.415274
Si Si8 0.448209 0.932661 0.603438
O O1 0.067899 0.681797 0.620510
O O2 0.199365 0.621278 0.757341
O O3 0.147102 0.846930 0.896986
O O4 0.148987 0.557764 0.953707
O O5 0.769716 0.871320 0.738284
O O6 0.894960 0.860143 0.776156
O O7 0.884559 0.949079 0.034578
O O8 0.874808 0.657619 0.962407
O O9 0.648697 0.152399 0.220606
O O10 0.605477 0.359301 0.379432
O O11 0.513765 0.174416 0.119068
O O12 0.590550 0.409266 0.081730
O O13 0.459520 0.634090 0.864680
O O14 0.510274 0.425342 0.758531
O O15 0.967219 0.420967 0.799812
O O16 0.945037 0.388188 0.041970
#
# Coordination Sequence:
#
# PCOD9139765 Si02
#       8
#     4   4   4   4   4   4   4   4
#     4  11  23  38  64  93 128 163 215 264 315 375
#     4  11  23  42  62  90 132 169 207 255 320 386
#     4  11  22  40  61  93 127 160 209 266 309 369
#     4  11  21  40  65  92 124 163 211 266 316 372
#     4  11  22  37  62  95 120 157 211 270 315 356
#     4  11  25  41  60  94 133 172 204 261 321 383
#     4  11  21  38  62  95 119 160 213 262 312 356
#     4  11  23  38  62  94 123 162 210 270 308 369
#
# _framework density 22.588162000000001
#
# number of rings (size 3 to 8) (size 9 to 14) (size 15 to 20)
#    0.000    1.000    5.000    3.000    1.750    1.000 
#    0.000    6.250    0.000    0.000    0.000    0.000 
#    0.000    0.000    0.000    0.000    0.000    0.000 
#
# Total GULP energy -89351.401793 kJ/mol
# GULP energy per Si atom -5584.462612 kJ/mol
# Density = 2.253675 g / cm^3
# Si number density = 22.588162 Si / 1000 Ang^3
#
#
#
# Elastic Constant Matrix: (Units=GPa)
#
#
# Indices 1 2 3 4 5 6 
#
# 1 69.0510 16.3670 22.0002 0.0000 5.8043 0.0000
# 2 16.3670 53.7773 28.2755 0.0000 -12.4697 0.0000
# 3 22.0002 28.2755 74.0958 0.0000 -15.1612 0.0000
# 4 0.0000 0.0000 0.0000 35.3471 0.0000 -19.9318
# 5 5.8043 -12.4697 -15.1612 0.0000 24.4628 0.0000
# 6 0.0000 0.0000 0.0000 -19.9318 0.0000 38.9459
#
#
#
# Elastic Compliance Matrix: (Units=1/GPa)
#
#
# Indices 1 2 3 4 5 6 
#
# 1 0.018355 -0.005025 -0.005666 0.000000 -0.010428 0.000000
# 2 -0.005025 0.025828 -0.006214 0.000000 0.010507 0.000000
# 3 -0.005666 -0.006214 0.019671 0.000000 0.010368 0.000000
# 4 0.000000 0.000000 0.000000 0.039767 0.000000 0.020352
# 5 -0.010428 0.010507 0.010368 0.000000 0.055134 0.000000
# 6 0.000000 0.000000 0.000000 0.020352 0.000000 0.036092
#
#
# Mechanical properties :
#
#
# Convention : Reuss Voigt Hill
#
# Bulk Modulus (GPa) = 33.28521 36.68995 34.98758
# Shear Modulus (GPa) = 20.94906 28.43658 24.69282
#
# Velocity S-wave (km/s) = 3.04869 3.55197 3.30991
# Velocity P-wave (km/s) = 5.21156 5.75328 5.48911
#
# Compressibility (1/GPa) = 0.03004337
#
# Stress axis : x y z
#
# Youngs Moduli (GPa) = 54.48114 38.71723 50.83547
#
# Poissons Ratio (x) = 0.19456 0.28803
# Poissons Ratio (y) = 0.27378 0.31591
# Poissons Ratio (z) = 0.30869 0.24060
#
# Static dielectric constant tensor:
#      x y z
#    x 1.814200 0.000000 -0.031160 
#    y 0.000000 1.900490 0.000000 
#    z -0.031160 0.000000 1.846220 
# 
# From -- ./inp_files/12080.got.cif
#   From: 2010.05.17/outbox.cif.g08.bks.cpg/sg9_7_cif.got.tgz:12080.got - 2010.06.03 20:04:27.
