data_PCOD9139647
_publ_section_title
;
Structure prediction by ZEFSAII (Michael W. Deem and Ramdas Pophale) SiO2 
 PCOD9139647
Probable space group: C C
;
_chemical_formula_sum "Si O2"
_cell_formula_units_Z 28
_cell_length_a 18.445564
_cell_length_b 4.990632
_cell_length_c 13.736176
_cell_angle_alpha 90.000000
_cell_angle_beta 49.950907
_cell_angle_gamma 90.000000
_cell_volume 967.954143
_symmetry_space_group_name_H-M "C C"
_symmetry_group_IT_number 9
_symmetry_cell_setting 'monoclinic'
loop_
_space_group_symop_operation_xyz
x,y,z
x,-y,1/2+z
1/2+x,1/2+y,z
1/2+x,1/2-y,1/2+z
loop_
_atom_site_type_symbol
_atom_site_label
_atom_site_fract_x
_atom_site_fract_y
_atom_site_fract_z
Si Si1 0.740990 0.311514 0.504800
Si Si2 0.289196 0.982713 0.267470
Si Si3 0.605464 0.224640 0.463624
Si Si4 0.444447 0.593624 0.625654
Si Si5 0.511555 0.698745 0.779798
Si Si6 0.804800 0.821210 0.551860
Si Si7 0.566868 0.203523 0.848655
O O1 0.813029 0.323919 0.348446
O O2 0.650097 0.187358 0.530502
O O3 0.576388 0.477123 0.778244
O O4 0.744590 0.615251 0.538099
O O5 0.311672 0.806946 0.152679
O O6 0.173565 0.975605 0.371666
O O7 0.341434 0.267795 0.226753
O O8 0.495463 0.302775 0.564741
O O9 0.626635 0.991526 0.369297
O O10 0.502359 0.677127 0.672305
O O11 0.480042 0.733885 0.496443
O O12 0.538611 0.989617 0.791810
O O13 0.406445 0.658022 0.913604
O O14 0.764528 0.119495 0.574183
#
# Coordination Sequence:
#
# PCOD9139647 Si02
#       7
#     4   4   4   4   4   4   4
#     4  10  27  47  77 117 167 210 280 336 411 494
#     4  10  26  52  82 121 171 223 274 357 409 506
#     4  10  27  52  77 121 173 213 281 343 425 490
#     4  12  26  53  84 116 173 219 275 352 410 503
#     4  12  27  44  82 117 161 217 283 333 414 494
#     4  12  24  49  80 120 154 226 278 329 420 493
#     4  12  27  49  74 122 161 214 277 338 413 496
#
# _framework density 28.926988000000001
#
# number of rings (size 3 to 8) (size 9 to 14) (size 15 to 20)
#    0.857    0.000    4.286    0.857    4.000    4.571 
#    2.571    0.000    0.000    0.000    0.000    0.000 
#    0.000    0.000    0.000    0.000    0.000    0.000 
#
# Total GULP energy -78294.947776 kJ/mol
# GULP energy per Si atom -5592.496270 kJ/mol
# Density = 2.886115 g / cm^3
# Si number density = 28.926988 Si / 1000 Ang^3
#
#
#
# Elastic Constant Matrix: (Units=GPa)
#
#
# Indices 1 2 3 4 5 6 
#
# 1 155.7907 41.9573 57.5543 -0.0329 21.5540 -0.0181
# 2 41.9573 141.9839 31.9703 -0.0640 15.9708 0.0090
# 3 57.5543 31.9703 136.3433 -0.0307 17.5163 0.0299
# 4 -0.0329 -0.0640 -0.0307 30.7322 0.0295 -0.7068
# 5 21.5540 15.9708 17.5163 0.0295 69.8180 -0.0013
# 6 -0.0181 0.0090 0.0299 -0.7068 -0.0013 42.0856
#
#
#
# Elastic Compliance Matrix: (Units=1/GPa)
#
#
# Indices 1 2 3 4 5 6 
#
# 1 0.008102 -0.001589 -0.002865 0.000004 -0.001419 0.000006
# 2 -0.001589 0.007864 -0.001039 0.000015 -0.001048 -0.000001
# 3 -0.002865 -0.001039 0.008931 0.000005 -0.001119 -0.000007
# 4 0.000004 0.000015 0.000005 0.032552 -0.000019 0.000547
# 5 -0.001419 -0.001048 -0.001119 -0.000019 0.015281 0.000001
# 6 0.000006 -0.000001 -0.000007 0.000547 0.000001 0.023770
#
#
# Mechanical properties :
#
#
# Convention : Reuss Voigt Hill
#
# Bulk Modulus (GPa) = 71.88403 77.45353 74.66878
# Shear Modulus (GPa) = 44.59375 48.70291 46.64833
#
# Velocity S-wave (km/s) = 3.93058 4.10768 4.02010
# Velocity P-wave (km/s) = 6.74562 7.02361 6.88601
#
# Compressibility (1/GPa) = 0.01391130
#
# Stress axis : x y z
#
# Youngs Moduli (GPa) = 123.43197 127.15466 111.96897
#
# Poissons Ratio (x) = 0.20210 0.32079
# Poissons Ratio (y) = 0.19618 0.11628
# Poissons Ratio (z) = 0.35363 0.13205
#
# Static dielectric constant tensor:
#      x y z
#    x 2.345650 0.000000 -0.070100 
#    y 0.000000 2.242700 -0.000010 
#    z -0.070100 -0.000010 2.237780 
# 
# From -- ./inp_files/26582.got.cif
#   From: 2010.05.17/outbox.cif.g08.bks.cpg/sg9_14_cif.got.tgz:26582.got - 2010.06.03 20:04:27.
