data_PCOD9139919
_publ_section_title
;
Structure prediction by ZEFSAII (Michael W. Deem and Ramdas Pophale) SiO2 
 PCOD9139919
Probable space group: C C
;
_chemical_formula_sum "Si O2"
_cell_formula_units_Z 32
_cell_length_a 8.416751
_cell_length_b 15.577180
_cell_length_c 12.529976
_cell_angle_alpha 90.000000
_cell_angle_beta 116.401871
_cell_angle_gamma 90.000000
_cell_volume 1471.447572
_symmetry_space_group_name_H-M "C C"
_symmetry_group_IT_number 9
_symmetry_cell_setting 'monoclinic'
loop_
_space_group_symop_operation_xyz
x,y,z
x,-y,1/2+z
1/2+x,1/2+y,z
1/2+x,1/2-y,1/2+z
loop_
_atom_site_type_symbol
_atom_site_label
_atom_site_fract_x
_atom_site_fract_y
_atom_site_fract_z
Si Si1 0.647730 0.228820 0.197050
Si Si2 0.143595 0.427130 0.094655
Si Si3 0.922372 0.925163 0.491066
Si Si4 0.076628 0.383208 0.495617
Si Si5 0.250136 0.008825 0.215843
Si Si6 0.026569 0.898927 0.286643
Si Si7 0.646552 0.083261 0.365212
Si Si8 0.918816 0.352849 0.213662
O O1 0.526480 0.187724 0.067974
O O2 0.569779 0.309420 0.239626
O O3 0.692804 0.152510 0.291129
O O4 0.824348 0.262845 0.192243
O O5 0.062775 0.522027 0.045978
O O6 0.349313 0.438084 0.182221
O O7 0.062764 0.374003 0.168085
O O8 0.129082 0.378336 0.978370
O O9 0.780552 0.874414 0.519277
O O10 0.987607 0.886135 0.399056
O O11 0.096471 0.937949 0.614403
O O12 0.799203 0.009467 0.421272
O O13 0.981854 0.371691 0.353651
O O14 0.447470 0.048239 0.279615
O O15 0.268445 0.924163 0.147506
O O16 0.176616 0.970266 0.305649
#
# Coordination Sequence:
#
# PCOD9139919 Si02
#       8
#     4   4   4   4   4   4   4   4
#     4  11  28  41  66 102 142 184 228 283 362 413
#     4  11  22  46  74  96 139 181 239 286 336 415
#     4  11  23  43  75  96 136 180 237 286 336 416
#     4  11  22  45  72  94 138 182 228 290 341 408
#     4  11  22  41  70 107 123 183 232 282 338 411
#     4  11  23  43  65 107 137 178 229 286 350 416
#     4  11  24  46  71 102 139 183 229 292 346 418
#     4  11  24  43  69 100 140 181 224 283 357 409
#
# _framework density 21.747292000000002
#
# number of rings (size 3 to 8) (size 9 to 14) (size 15 to 20)
#    0.000    1.000    6.250    1.500    3.500    3.000 
#    2.250    0.000    0.000    0.000    0.000    0.000 
#    0.000    0.000    0.000    0.000    0.000    0.000 
#
# Total GULP energy -89212.115781 kJ/mol
# GULP energy per Si atom -5575.757236 kJ/mol
# Density = 2.169779 g / cm^3
# Si number density = 21.747292 Si / 1000 Ang^3
#
#
#
# Elastic Constant Matrix: (Units=GPa)
#
#
# Indices 1 2 3 4 5 6 
#
# 1 84.0758 21.3304 23.6395 0.0000 -10.8615 0.0000
# 2 21.3304 59.6237 31.1081 0.0000 -18.6150 0.0000
# 3 23.6395 31.1081 101.6060 0.0000 -25.0642 0.0000
# 4 0.0000 0.0000 0.0000 30.5436 0.0000 -7.9761
# 5 -10.8615 -18.6150 -25.0642 0.0000 42.2523 0.0000
# 6 0.0000 0.0000 0.0000 -7.9761 0.0000 21.4809
#
#
#
# Elastic Compliance Matrix: (Units=1/GPa)
#
#
# Indices 1 2 3 4 5 6 
#
# 1 0.013423 -0.003606 -0.001827 0.000000 0.000778 0.000000
# 2 -0.003606 0.022345 -0.004454 0.000000 0.006275 0.000000
# 3 -0.001827 -0.004454 0.012922 0.000000 0.005233 0.000000
# 4 0.000000 0.000000 0.000000 0.036256 0.000000 0.013462
# 5 0.000778 0.006275 0.005233 0.000000 0.029736 0.000000
# 6 0.000000 0.000000 0.000000 0.013462 0.000000 0.051551
#
#
# Mechanical properties :
#
#
# Convention : Reuss Voigt Hill
#
# Bulk Modulus (GPa) = 34.58390 44.16240 39.37315
# Shear Modulus (GPa) = 25.55634 30.13720 27.84677
#
# Velocity S-wave (km/s) = 3.43177 3.72666 3.58225
# Velocity P-wave (km/s) = 5.62493 6.23446 5.93752
#
# Compressibility (1/GPa) = 0.02891519
#
# Stress axis : x y z
#
# Youngs Moduli (GPa) = 74.49835 44.75266 77.38946
#
# Poissons Ratio (x) = 0.16138 0.14139
# Poissons Ratio (y) = 0.26864 0.34472
# Poissons Ratio (z) = 0.13611 0.19934
#
# Static dielectric constant tensor:
#      x y z
#    x 1.841040 0.000000 -0.008610 
#    y 0.000000 1.829810 0.000000 
#    z -0.008610 0.000000 1.818140 
# 
# From -- ./inp_files/15121.got.cif
#   From: 2010.05.17/outbox.cif.g08.bks.cpg/sg9_8_cif.got.tgz:15121.got - 2010.06.03 20:04:27.
