data_PCOD9139674
_publ_section_title
;
Structure prediction by ZEFSAII (Michael W. Deem and Ramdas Pophale) SiO2 
 PCOD9139674
Probable space group: C C
;
_chemical_formula_sum "Si O2"
_cell_formula_units_Z 24
_cell_length_a 8.748314
_cell_length_b 12.308296
_cell_length_c 18.422165
_cell_angle_alpha 90.000000
_cell_angle_beta 33.249770
_cell_angle_gamma 90.000000
_cell_volume 1087.609986
_symmetry_space_group_name_H-M "C C"
_symmetry_group_IT_number 9
_symmetry_cell_setting 'monoclinic'
loop_
_space_group_symop_operation_xyz
x,y,z
x,-y,1/2+z
1/2+x,1/2+y,z
1/2+x,1/2-y,1/2+z
loop_
_atom_site_type_symbol
_atom_site_label
_atom_site_fract_x
_atom_site_fract_y
_atom_site_fract_z
Si Si1 0.845220 0.527789 0.944060
Si Si2 0.232185 0.881721 0.115318
Si Si3 0.947927 0.591265 0.052835
Si Si4 0.737475 0.108938 0.500039
Si Si5 0.345248 0.197435 0.233485
Si Si6 0.705697 0.003919 0.160232
O O1 0.922622 0.611213 0.977823
O O2 0.058767 0.530599 0.793349
O O3 0.848375 0.414024 0.989104
O O4 0.526877 0.537198 0.044527
O O5 0.966807 0.808125 0.215953
O O6 0.477604 0.830028 0.065904
O O7 0.195456 0.002396 0.164047
O O8 0.202870 0.512309 0.976532
O O9 0.918599 0.689188 0.118825
O O10 0.698454 0.087704 0.600752
O O11 0.026705 0.165502 0.369551
O O12 0.523767 0.102869 0.201374
#
# Coordination Sequence:
#
# PCOD9139674 Si02
#       6
#     4   4   4   4   4   4
#     4   9  21  38  59  94 130 171 225 275 329 414
#     4   8  21  39  58  98 132 166 229 279 327 412
#     4   7  20  36  62  91 131 170 222 272 341 406
#     4   8  19  37  62  92 130 173 220 282 330 415
#     4  11  18  40  69  93 129 185 218 280 356 384
#     4  11  19  38  66  92 130 179 220 268 345 405
#
# _framework density 22.066732999999999
#
# number of rings (size 3 to 8) (size 9 to 14) (size 15 to 20)
#    2.000    0.667    1.667    0.000    4.667    0.000 
#    3.000    8.333    0.000    0.000    0.000    0.000 
#    0.000    0.000    0.000    0.000    0.000    0.000 
#
# Total GULP energy -66825.197321 kJ/mol
# GULP energy per Si atom -5568.766443 kJ/mol
# Density = 2.201651 g / cm^3
# Si number density = 22.066733 Si / 1000 Ang^3
#
#
#
# Elastic Constant Matrix: (Units=GPa)
#
#
# Indices 1 2 3 4 5 6 
#
# 1 151.9568 36.2390 66.3815 0.0007 -6.0634 -0.0021
# 2 36.2390 39.2315 20.0894 0.0035 -22.2915 -0.0003
# 3 66.3815 20.0894 117.6908 0.0027 -11.5676 0.0004
# 4 0.0007 0.0035 0.0027 18.0101 0.0021 -3.5772
# 5 -6.0634 -22.2915 -11.5676 0.0021 32.6801 0.0016
# 6 -0.0021 -0.0003 0.0004 -3.5772 0.0016 18.3624
#
#
#
# Elastic Compliance Matrix: (Units=1/GPa)
#
#
# Indices 1 2 3 4 5 6 
#
# 1 0.011555 -0.012821 -0.005157 0.000004 -0.008427 0.000003
# 2 -0.012821 0.058247 0.000995 -0.000017 0.037704 -0.000007
# 3 -0.005157 0.000995 0.011613 -0.000003 0.003832 -0.000002
# 4 0.000004 -0.000017 -0.000003 0.057759 -0.000016 0.011252
# 5 -0.008427 0.037704 0.003832 -0.000016 0.056111 -0.000008
# 6 0.000003 -0.000007 -0.000002 0.011252 -0.000008 0.056651
#
#
# Mechanical properties :
#
#
# Convention : Reuss Voigt Hill
#
# Bulk Modulus (GPa) = 21.07582 61.58879 41.33230
# Shear Modulus (GPa) = 16.57173 26.22181 21.39677
#
# Velocity S-wave (km/s) = 2.74338 3.45091 3.11728
# Velocity P-wave (km/s) = 4.42793 6.62187 5.63275
#
# Compressibility (1/GPa) = 0.04744774
#
# Stress axis : x y z
#
# Youngs Moduli (GPa) = 86.54253 17.16828 86.11399
#
# Poissons Ratio (x) = 0.22011 0.44411
# Poissons Ratio (y) = 1.10955 -0.08566
# Poissons Ratio (z) = 0.44632 -0.01708
#
# Static dielectric constant tensor:
#      x y z
#    x 1.841500 0.000000 0.017420 
#    y 0.000000 1.866310 0.000000 
#    z 0.017420 0.000000 1.786560 
# 
# From -- ./inp_files/4910.got.cif
#   From: 2010.05.17/outbox.cif.g08.bks.cpg/sg9_3_cif.got.tgz:4910.got - 2010.06.03 20:04:27.
