data_PCOD9139285
_publ_section_title
;
Structure prediction by ZEFSAII (Michael W. Deem and Ramdas Pophale) SiO2 
 PCOD9139285
Probable space group: C C
;
_chemical_formula_sum "Si O2"
_cell_formula_units_Z 28
_cell_length_a 12.873185
_cell_length_b 4.997831
_cell_length_c 20.033769
_cell_angle_alpha 90.000000
_cell_angle_beta 131.385544
_cell_angle_gamma 90.000000
_cell_volume 967.057710
_symmetry_space_group_name_H-M "C C"
_symmetry_group_IT_number 9
_symmetry_cell_setting 'monoclinic'
loop_
_space_group_symop_operation_xyz
x,y,z
x,-y,1/2+z
1/2+x,1/2+y,z
1/2+x,1/2-y,1/2+z
loop_
_atom_site_type_symbol
_atom_site_label
_atom_site_fract_x
_atom_site_fract_y
_atom_site_fract_z
Si Si1 0.772680 0.598995 0.639140
Si Si2 0.603865 0.542592 0.318175
Si Si3 0.011327 0.650048 0.168548
Si Si4 0.617186 0.898355 0.034142
Si Si5 0.368178 0.844235 0.478504
Si Si6 0.270303 0.280583 0.268495
Si Si7 0.490100 0.675959 0.391939
O O1 0.725667 0.905924 0.618107
O O2 0.763288 0.437973 0.705862
O O3 0.908442 0.577013 0.651452
O O4 0.664904 0.406686 0.550311
O O5 0.523650 0.340654 0.237174
O O6 0.708312 0.415937 0.417625
O O7 0.714648 0.659439 0.313587
O O8 0.507592 0.740236 0.319111
O O9 0.159543 0.522518 0.215540
O O10 0.936600 0.786509 0.073208
O O11 0.473575 0.904911 0.014438
O O12 0.594785 0.089218 0.961077
O O13 0.391194 0.704684 0.416676
O O14 0.426050 0.381447 0.345525
#
# Coordination Sequence:
#
# PCOD9139285 Si02
#       7
#     4   4   4   4   4   4   4
#     4  12  26  48  79 112 152 204 260 322 388 468
#     4  12  26  47  73 113 154 206 263 320 398 464
#     4  12  25  48  76 111 153 207 264 316 401 464
#     4  10  25  49  75 107 156 198 257 321 387 454
#     4  10  24  48  75 105 158 198 264 317 390 461
#     4  12  26  44  76 108 156 204 255 327 387 466
#     4  10  24  48  68 110 151 199 257 321 385 461
#
# _framework density 28.953807000000001
#
# number of rings (size 3 to 8) (size 9 to 14) (size 15 to 20)
#    0.857    0.000    4.286    1.714    4.000    2.286 
#    2.571    0.000    0.000    0.000    0.000    0.000 
#    0.000    0.000    0.000    0.000    0.000    0.000 
#
# Total GULP energy -78040.561272 kJ/mol
# GULP energy per Si atom -5574.325805 kJ/mol
# Density = 2.888791 g / cm^3
# Si number density = 28.953807 Si / 1000 Ang^3
#
#
#
# Elastic Constant Matrix: (Units=GPa)
#
#
# Indices 1 2 3 4 5 6 
#
# 1 110.2234 33.2271 44.7069 0.0000 -27.5238 0.0000
# 2 33.2271 117.4545 32.3951 0.0001 15.8212 0.0000
# 3 44.7069 32.3951 130.1387 0.0000 -21.5358 0.0000
# 4 0.0000 0.0001 0.0000 30.3064 0.0000 -0.6514
# 5 -27.5238 15.8212 -21.5358 0.0000 55.4630 0.0000
# 6 0.0000 0.0000 0.0000 -0.6514 0.0000 42.3805
#
#
#
# Elastic Compliance Matrix: (Units=1/GPa)
#
#
# Indices 1 2 3 4 5 6 
#
# 1 0.012830 -0.003860 -0.002363 0.000000 0.006551 0.000000
# 2 -0.003860 0.011088 -0.002430 0.000000 -0.006022 0.000000
# 3 -0.002363 -0.002430 0.009641 0.000000 0.003264 0.000000
# 4 0.000000 0.000000 0.000000 0.033007 0.000000 0.000507
# 5 0.006551 -0.006022 0.003264 0.000000 0.024266 0.000000
# 6 0.000000 0.000000 0.000000 0.000507 0.000000 0.023604
#
#
# Mechanical properties :
#
#
# Convention : Reuss Voigt Hill
#
# Bulk Modulus (GPa) = 61.53095 64.27496 62.90295
# Shear Modulus (GPa) = 36.45378 42.12917 39.29148
#
# Velocity S-wave (km/s) = 3.55213 3.81865 3.68780
# Velocity P-wave (km/s) = 6.17423 6.45679 6.31709
#
# Compressibility (1/GPa) = 0.01625198
#
# Stress axis : x y z
#
# Youngs Moduli (GPa) = 77.94050 90.19134 103.72448
#
# Poissons Ratio (x) = 0.34817 0.24506
# Poissons Ratio (y) = 0.30088 0.25209
# Poissons Ratio (z) = 0.18414 0.21920
#
# Static dielectric constant tensor:
#      x y z
#    x 2.280870 0.000000 0.098760 
#    y 0.000000 2.236960 0.000000 
#    z 0.098760 0.000000 2.564800 
# 
# From -- ./inp_files/33555.got.cif
#   From: 2010.05.17/outbox.cif.g08.bks.cpg/sg9_17_cif.got.tgz:33555.got - 2010.06.03 20:04:27.
