data_PCOD9139270
_publ_section_title
;
Structure prediction by ZEFSAII (Michael W. Deem and Ramdas Pophale) SiO2 
 PCOD9139270
Probable space group: C C
;
_chemical_formula_sum "Si O2"
_cell_formula_units_Z 28
_cell_length_a 18.449449
_cell_length_b 8.794576
_cell_length_c 9.313946
_cell_angle_alpha 90.000000
_cell_angle_beta 128.796481
_cell_angle_gamma 90.000000
_cell_volume 1177.821019
_symmetry_space_group_name_H-M "C C"
_symmetry_group_IT_number 9
_symmetry_cell_setting 'monoclinic'
loop_
_space_group_symop_operation_xyz
x,y,z
x,-y,1/2+z
1/2+x,1/2+y,z
1/2+x,1/2-y,1/2+z
loop_
_atom_site_type_symbol
_atom_site_label
_atom_site_fract_x
_atom_site_fract_y
_atom_site_fract_z
Si Si1 0.849620 0.472903 0.667440
Si Si2 0.279027 0.678294 0.736322
Si Si3 0.153180 0.874522 0.927696
Si Si4 0.949326 0.752985 0.137135
Si Si5 0.594354 0.672835 0.030641
Si Si6 0.512258 0.795143 0.417104
Si Si7 0.366684 0.548807 0.115894
O O1 0.822650 0.343195 0.749876
O O2 0.763355 0.589763 0.554870
O O3 0.866961 0.370496 0.545542
O O4 0.947203 0.559621 0.807152
O O5 0.169763 0.701022 0.584253
O O6 0.315770 0.549196 0.674688
O O7 0.300632 0.639302 0.926898
O O8 0.116396 0.021879 0.967677
O O9 0.107713 0.864611 0.713738
O O10 0.110952 0.730707 0.962275
O O11 0.997009 0.766874 0.352223
O O12 0.911089 0.920945 0.067394
O O13 0.019932 0.715397 0.098365
O O14 0.445193 0.658272 0.277994
#
# Coordination Sequence:
#
# PCOD9139270 Si02
#       7
#     4   4   4   4   4   4   4
#     4  10  27  47  74 111 154 196 248 325 372 454
#     4  10  24  47  74 104 151 190 254 301 384 440
#     4  11  25  45  76 104 149 202 253 299 392 451
#     4  11  25  46  72 111 148 187 258 311 373 443
#     4  11  24  46  72 107 147 195 249 310 366 455
#     4  12  25  44  79 105 145 199 255 306 385 445
#     4  11  22  45  73 102 140 201 239 306 368 454
#
# _framework density 23.772714000000001
#
# number of rings (size 3 to 8) (size 9 to 14) (size 15 to 20)
#    0.000    1.143    2.857    1.714   10.000    0.000 
#   10.286    0.000    0.000    0.000    0.000    0.000 
#    0.000    0.000    0.000    0.000    0.000    0.000 
#
# Total GULP energy -78253.299619 kJ/mol
# GULP energy per Si atom -5589.521401 kJ/mol
# Density = 2.371861 g / cm^3
# Si number density = 23.772714 Si / 1000 Ang^3
#
#
#
# Elastic Constant Matrix: (Units=GPa)
#
#
# Indices 1 2 3 4 5 6 
#
# 1 75.3498 32.1175 26.5714 0.0000 -2.2617 0.0000
# 2 32.1175 105.6398 26.0307 0.0000 -1.9293 0.0000
# 3 26.5714 26.0307 94.1533 0.0000 -9.5908 0.0000
# 4 0.0000 0.0000 0.0000 29.1541 0.0000 12.1762
# 5 -2.2617 -1.9293 -9.5908 0.0000 43.8945 0.0000
# 6 0.0000 0.0000 0.0000 12.1762 0.0000 40.6456
#
#
#
# Elastic Compliance Matrix: (Units=1/GPa)
#
#
# Indices 1 2 3 4 5 6 
#
# 1 0.016230 -0.004083 -0.003461 0.000000 -0.000100 0.000000
# 2 -0.004083 0.011187 -0.001955 0.000000 -0.000146 0.000000
# 3 -0.003461 -0.001955 0.012387 0.000000 0.002442 0.000000
# 4 0.000000 0.000000 0.000000 0.039206 0.000000 -0.011745
# 5 -0.000100 -0.000146 0.002442 0.000000 0.023304 0.000000
# 6 0.000000 0.000000 0.000000 -0.011745 0.000000 0.028121
#
#
# Mechanical properties :
#
#
# Convention : Reuss Voigt Hill
#
# Bulk Modulus (GPa) = 48.06874 49.39801 48.73338
# Shear Modulus (GPa) = 31.97567 35.43373 33.70470
#
# Velocity S-wave (km/s) = 3.67148 3.86491 3.76944
# Velocity P-wave (km/s) = 6.18361 6.38288 6.28404
#
# Compressibility (1/GPa) = 0.02080354
#
# Stress axis : x y z
#
# Youngs Moduli (GPa) = 61.61615 89.39220 80.72838
#
# Poissons Ratio (x) = 0.36500 0.27944
# Poissons Ratio (y) = 0.25159 0.15785
# Poissons Ratio (z) = 0.21328 0.17479
#
# Static dielectric constant tensor:
#      x y z
#    x 1.972570 0.000000 0.018080 
#    y 0.000000 1.925400 0.000000 
#    z 0.018080 0.000000 1.869270 
# 
# From -- ./inp_files/11311.got.cif
#   From: 2010.05.17/outbox.cif.g08.bks.cpg/sg9_6_cif.got.tgz:11311.got - 2010.06.03 20:04:27.
