data_PCOD9139815
_publ_section_title
;
Structure prediction by ZEFSAII (Michael W. Deem and Ramdas Pophale) SiO2 
 PCOD9139815
Probable space group: C C
;
_chemical_formula_sum "Si O2"
_cell_formula_units_Z 32
_cell_length_a 13.376641
_cell_length_b 7.768879
_cell_length_c 19.047874
_cell_angle_alpha 90.000000
_cell_angle_beta 134.993971
_cell_angle_gamma 90.000000
_cell_volume 1399.853653
_symmetry_space_group_name_H-M "C C"
_symmetry_group_IT_number 9
_symmetry_cell_setting 'monoclinic'
loop_
_space_group_symop_operation_xyz
x,y,z
x,-y,1/2+z
1/2+x,1/2+y,z
1/2+x,1/2-y,1/2+z
loop_
_atom_site_type_symbol
_atom_site_label
_atom_site_fract_x
_atom_site_fract_y
_atom_site_fract_z
Si Si1 0.648080 0.765032 0.112660
Si Si2 0.456987 0.830282 0.299204
Si Si3 0.485429 0.715551 0.163351
Si Si4 0.653161 0.649833 0.620109
Si Si5 0.219246 0.158635 0.490117
Si Si6 0.082310 0.674909 0.423601
Si Si7 0.453994 0.629675 0.731966
Si Si8 0.886005 0.302177 0.564356
O O1 0.588797 0.805798 0.159865
O O2 0.663723 0.558216 0.130761
O O3 0.788127 0.877778 0.169648
O O4 0.562009 0.786917 0.996714
O O5 0.463495 0.840995 0.218281
O O6 0.293153 0.783502 0.230422
O O7 0.578735 0.694271 0.377612
O O8 0.502566 0.001652 0.362144
O O9 0.341980 0.698848 0.046665
O O10 0.509796 0.531195 0.213150
O O11 0.668108 0.674925 0.544695
O O12 0.509898 0.740762 0.574407
O O13 0.306417 0.984823 0.516441
O O14 0.251158 0.673888 0.495983
O O15 0.028005 0.816607 0.340887
O O16 0.453213 0.784315 0.675109
#
# Coordination Sequence:
#
# PCOD9139815 Si02
#       8
#     4   4   4   4   4   4   4   4
#     4  11  23  44  71 103 143 195 249 311 375 444
#     4  11  25  46  70 106 152 192 250 313 376 456
#     4  11  25  42  71 102 149 192 250 312 384 446
#     4  11  23  46  70 103 147 194 247 314 372 449
#     4  11  23  45  67 105 146 192 241 313 375 449
#     4  11  23  44  74 103 145 200 249 311 384 447
#     4  11  21  43  70 101 142 193 245 314 376 441
#     4  11  23  42  73 101 146 192 249 306 380 446
#
# _framework density 22.859534
#
# number of rings (size 3 to 8) (size 9 to 14) (size 15 to 20)
#    0.000    1.000    5.000    3.000    0.000    5.000 
#    2.250    0.000    0.000    0.000    0.000    0.000 
#    0.000    0.000    0.000    0.000    0.000    0.000 
#
# Total GULP energy -89175.283122 kJ/mol
# GULP energy per Si atom -5573.455195 kJ/mol
# Density = 2.280751 g / cm^3
# Si number density = 22.859534 Si / 1000 Ang^3
#
#
#
# Elastic Constant Matrix: (Units=GPa)
#
#
# Indices 1 2 3 4 5 6 
#
# 1 138.1522 17.7210 44.1204 0.0000 -2.4951 0.0000
# 2 17.7210 113.1228 35.5036 0.0000 0.9005 0.0000
# 3 44.1204 35.5036 137.4681 0.0000 -1.6914 0.0000
# 4 0.0000 0.0000 0.0000 92.0830 0.0000 17.5757
# 5 -2.4951 0.9005 -1.6914 0.0000 26.4849 0.0000
# 6 0.0000 0.0000 0.0000 17.5757 0.0000 24.5577
#
#
#
# Elastic Compliance Matrix: (Units=1/GPa)
#
#
# Indices 1 2 3 4 5 6 
#
# 1 0.008100 -0.000501 -0.002463 0.000000 0.000623 0.000000
# 2 -0.000501 0.009657 -0.002340 0.000000 -0.000525 0.000000
# 3 -0.002463 -0.002340 0.008674 0.000000 0.000401 0.000000
# 4 0.000000 0.000000 0.000000 0.012578 0.000000 -0.009002
# 5 0.000623 -0.000525 0.000401 0.000000 0.037860 0.000000
# 6 0.000000 0.000000 0.000000 -0.009002 0.000000 0.047163
#
#
# Mechanical properties :
#
#
# Convention : Reuss Voigt Hill
#
# Bulk Modulus (GPa) = 63.19346 64.82591 64.00969
# Shear Modulus (GPa) = 35.73629 48.05166 41.89398
#
# Velocity S-wave (km/s) = 3.95815 4.58978 4.28561
# Velocity P-wave (km/s) = 6.97090 7.51718 7.24919
#
# Compressibility (1/GPa) = 0.01582442
#
# Stress axis : x y z
#
# Youngs Moduli (GPa) = 123.45044 103.55251 115.28617
#
# Poissons Ratio (x) = 0.05188 0.28392
# Poissons Ratio (y) = 0.06184 0.26974
# Poissons Ratio (z) = 0.30403 0.24229
#
# Static dielectric constant tensor:
#      x y z
#    x 1.967430 0.000000 0.046620 
#    y 0.000000 1.909780 0.000000 
#    z 0.046620 0.000000 1.889000 
# 
# From -- ./inp_files/33629.got.cif
#   From: 2010.05.17/outbox.cif.g08.bks.cpg/sg9_17_cif.got.tgz:33629.got - 2010.06.03 20:04:27.
