data_PCOD9139679
_publ_section_title
;
Structure prediction by ZEFSAII (Michael W. Deem and Ramdas Pophale) SiO2 
 PCOD9139679
Probable space group: C C
;
_chemical_formula_sum "Si O2"
_cell_formula_units_Z 32
_cell_length_a 25.776978
_cell_length_b 7.048736
_cell_length_c 23.706672
_cell_angle_alpha 90.000000
_cell_angle_beta 18.500625
_cell_angle_gamma 90.000000
_cell_volume 1366.798333
_symmetry_space_group_name_H-M "C C"
_symmetry_group_IT_number 9
_symmetry_cell_setting 'monoclinic'
loop_
_space_group_symop_operation_xyz
x,y,z
x,-y,1/2+z
1/2+x,1/2+y,z
1/2+x,1/2-y,1/2+z
loop_
_atom_site_type_symbol
_atom_site_label
_atom_site_fract_x
_atom_site_fract_y
_atom_site_fract_z
Si Si1 0.572700 0.639248 0.717340
Si Si2 0.345261 0.407583 0.674376
Si Si3 0.806140 0.915583 0.407726
Si Si4 0.071721 0.613272 0.374777
Si Si5 0.819622 0.617076 0.549829
Si Si6 0.646897 0.787910 0.990976
Si Si7 0.427181 0.100331 0.192935
Si Si8 0.129174 0.087034 0.449406
O O1 0.668145 0.812385 0.588194
O O2 0.463463 0.534594 0.783553
O O3 0.708323 0.527878 0.614645
O O4 0.437102 0.731578 0.897883
O O5 0.208479 0.489276 0.772378
O O6 0.446004 0.236215 0.541809
O O7 0.615275 0.435923 0.515647
O O8 0.494767 0.534837 0.542703
O O9 0.855234 0.746756 0.313064
O O10 0.734929 0.099977 0.450351
O O11 0.949766 0.509249 0.456135
O O12 0.187138 0.766190 0.223089
O O13 0.742719 0.835282 0.833842
O O14 0.471640 0.894715 0.169219
O O15 0.593609 0.202237 0.005615
O O16 0.322189 0.085723 0.244076
#
# Coordination Sequence:
#
# PCOD9139679 Si02
#       8
#     4   4   4   4   4   4   4   4
#     4   9  17  31  56  82 122 168 211 273 320 382
#     4  11  20  33  54  84 126 173 207 257 311 374
#     4  11  19  35  53  86 126 173 206 267 307 372
#     4   9  18  32  52  87 126 158 212 283 305 384
#     4   8  16  31  54  82 119 162 206 283 338 355
#     4  12  24  38  58  89 128 188 206 260 310 382
#     4  12  24  40  58  84 132 176 223 261 293 375
#     4  12  24  40  59  84 125 182 215 260 310 366
#
# _framework density 23.412379999999999
#
# number of rings (size 3 to 8) (size 9 to 14) (size 15 to 20)
#    0.000    1.500    5.000    0.750    0.000    0.000 
#    0.000    0.000    0.000    0.000    0.000    0.000 
#    0.000  424.000    0.000    0.000    0.000    0.000 
#
# Total GULP energy -89141.778029 kJ/mol
# GULP energy per Si atom -5571.361127 kJ/mol
# Density = 2.335909 g / cm^3
# Si number density = 23.412380 Si / 1000 Ang^3
#
#
#
# Elastic Constant Matrix: (Units=GPa)
#
#
# Indices 1 2 3 4 5 6 
#
# 1 142.0727 14.0835 64.6377 -0.0007 -57.1251 0.0003
# 2 14.0835 73.2522 15.1591 -0.0168 -3.7151 0.0045
# 3 64.6377 15.1591 113.2939 -0.0088 -32.6959 0.0059
# 4 -0.0007 -0.0168 -0.0088 27.3029 0.0037 -12.2561
# 5 -57.1251 -3.7151 -32.6959 0.0037 79.5868 0.0011
# 6 0.0003 0.0045 0.0059 -12.2561 0.0011 17.1336
#
#
#
# Elastic Compliance Matrix: (Units=1/GPa)
#
#
# Indices 1 2 3 4 5 6 
#
# 1 0.011958 -0.000973 -0.004797 -0.000003 0.006567 -0.000001
# 2 -0.000973 0.014121 -0.001526 0.000010 -0.000667 0.000004
# 3 -0.004797 -0.001526 0.012200 0.000001 0.001498 -0.000003
# 4 -0.000003 0.000010 0.000001 0.053950 -0.000004 0.038592
# 5 0.006567 -0.000667 0.001498 -0.000004 0.017863 -0.000005
# 6 -0.000001 0.000004 -0.000003 0.038592 -0.000005 0.085971
#
#
# Mechanical properties :
#
#
# Convention : Reuss Voigt Hill
#
# Bulk Modulus (GPa) = 42.22068 57.37548 49.79808
# Shear Modulus (GPa) = 22.87802 40.45388 31.66595
#
# Velocity S-wave (km/s) = 3.12937 4.16129 3.68167
# Velocity P-wave (km/s) = 5.57942 6.90276 6.27607
#
# Compressibility (1/GPa) = 0.02368508
#
# Stress axis : x y z
#
# Youngs Moduli (GPa) = 83.62543 70.81809 81.96802
#
# Poissons Ratio (x) = 0.06893 0.39320
# Poissons Ratio (y) = 0.08139 0.12512
# Poissons Ratio (z) = 0.40115 0.10810
#
# Static dielectric constant tensor:
#      x y z
#    x 2.008790 0.000000 -0.046330 
#    y 0.000000 1.826190 0.000000 
#    z -0.046330 0.000000 1.947800 
# 
# From -- ./inp_files/11971.got.cif
#   From: 2010.05.17/outbox.cif.g08.bks.cpg/sg9_6_cif.got.tgz:11971.got - 2010.06.03 20:04:27.
