data_PCOD9139422
_publ_section_title
;
Structure prediction by ZEFSAII (Michael W. Deem and Ramdas Pophale) SiO2 
 PCOD9139422
Probable space group: C C
;
_chemical_formula_sum "Si O2"
_cell_formula_units_Z 28
_cell_length_a 9.116728
_cell_length_b 13.497444
_cell_length_c 15.997719
_cell_angle_alpha 90.000000
_cell_angle_beta 33.787511
_cell_angle_gamma 90.000000
_cell_volume 1094.744548
_symmetry_space_group_name_H-M "C C"
_symmetry_group_IT_number 9
_symmetry_cell_setting 'monoclinic'
loop_
_space_group_symop_operation_xyz
x,y,z
x,-y,1/2+z
1/2+x,1/2+y,z
1/2+x,1/2-y,1/2+z
loop_
_atom_site_type_symbol
_atom_site_label
_atom_site_fract_x
_atom_site_fract_y
_atom_site_fract_z
Si Si1 0.441690 0.573259 0.041820
Si Si2 0.438285 0.290733 0.204155
Si Si3 0.443211 0.281795 0.390824
Si Si4 0.862776 0.696282 0.952373
Si Si5 0.697395 0.539460 0.147237
Si Si6 0.105715 0.104491 0.365891
Si Si7 0.636347 0.918524 0.841605
O O1 0.184444 0.562444 0.221046
O O2 0.402640 0.628849 0.973343
O O3 0.658671 0.640084 0.988816
O O4 0.537338 0.464259 0.974766
O O5 0.509952 0.319763 0.266128
O O6 0.395694 0.535343 0.261043
O O7 0.339830 0.179808 0.269634
O O8 0.672220 0.281488 0.027759
O O9 0.642484 0.201950 0.337853
O O10 0.874275 0.816307 0.947774
O O11 0.168710 0.663491 0.795538
O O12 0.792805 0.650601 0.076144
O O13 0.697610 0.535634 0.245917
O O14 0.885771 0.465865 0.006429
#
# Coordination Sequence:
#
# PCOD9139422 Si02
#       7
#     4   4   4   4   4   4   4
#     4  11  25  49  79 111 155 205 260 324 395 473
#     4  10  25  44  75 104 152 197 256 314 387 461
#     4  12  24  47  72 110 153 204 255 324 391 470
#     4   9  24  46  74 109 151 199 255 319 391 464
#     4  11  25  47  74 112 153 207 256 324 393 465
#     4  10  25  46  78 115 148 206 265 311 395 476
#     4  11  28  45  74 113 156 204 261 318 402 473
#
# _framework density 25.576741999999999
#
# number of rings (size 3 to 8) (size 9 to 14) (size 15 to 20)
#    0.857    0.571    1.429    1.714    8.000    2.286 
#    0.000    7.143    0.000    0.000    0.000    0.000 
#    0.000    0.000    0.000    0.000    0.000    0.000 
#
# Total GULP energy -78219.273043 kJ/mol
# GULP energy per Si atom -5587.090932 kJ/mol
# Density = 2.551853 g / cm^3
# Si number density = 25.576742 Si / 1000 Ang^3
#
#
#
# Elastic Constant Matrix: (Units=GPa)
#
#
# Indices 1 2 3 4 5 6 
#
# 1 62.2035 16.1285 33.0637 -0.0003 8.2338 0.0009
# 2 16.1285 124.4157 44.7822 -0.0096 10.7722 0.0018
# 3 33.0637 44.7822 143.0452 -0.0121 13.0167 0.0025
# 4 -0.0003 -0.0096 -0.0121 41.8706 -0.0008 10.8141
# 5 8.2338 10.7722 13.0167 -0.0008 44.6620 0.0001
# 6 0.0009 0.0018 0.0025 10.8141 0.0001 38.5288
#
#
#
# Elastic Compliance Matrix: (Units=1/GPa)
#
#
# Indices 1 2 3 4 5 6 
#
# 1 0.018620 -0.000847 -0.003847 -0.000001 -0.002107 0.000000
# 2 -0.000847 0.009182 -0.002559 0.000002 -0.001313 -0.000001
# 3 -0.003847 -0.002559 0.008794 0.000002 -0.001236 -0.000001
# 4 -0.000001 0.000002 0.000002 0.025750 0.000000 -0.007227
# 5 -0.002107 -0.001313 -0.001236 0.000000 0.023456 0.000000
# 6 0.000000 -0.000001 -0.000001 -0.007227 0.000000 0.027983
#
#
# Mechanical properties :
#
#
# Convention : Reuss Voigt Hill
#
# Bulk Modulus (GPa) = 45.27043 57.51255 51.39149
# Shear Modulus (GPa) = 36.85860 40.72493 38.79176
#
# Velocity S-wave (km/s) = 3.80030 3.99465 3.89868
# Velocity P-wave (km/s) = 6.08232 6.61902 6.35633
#
# Compressibility (1/GPa) = 0.02208948
#
# Stress axis : x y z
#
# Youngs Moduli (GPa) = 53.70701 108.90593 113.71670
#
# Poissons Ratio (x) = 0.09220 0.43746
# Poissons Ratio (y) = 0.04547 0.29106
# Poissons Ratio (z) = 0.20661 0.27874
#
# Static dielectric constant tensor:
#      x y z
#    x 2.062340 0.000000 -0.041260 
#    y 0.000000 2.096540 0.000000 
#    z -0.041260 0.000000 2.001700 
# 
# From -- ./inp_files/33341.got.cif
#   From: 2010.05.17/outbox.cif.g08.bks.cpg/sg9_17_cif.got.tgz:33341.got - 2010.06.03 20:04:27.
