data_PCOD9139467
_publ_section_title
;
Structure prediction by ZEFSAII (Michael W. Deem and Ramdas Pophale) SiO2 
 PCOD9139467
Probable space group: C C
;
_chemical_formula_sum "Si O2"
_cell_formula_units_Z 28
_cell_length_a 31.645833
_cell_length_b 5.009643
_cell_length_c 8.871730
_cell_angle_alpha 90.000000
_cell_angle_beta 128.129235
_cell_angle_gamma 90.000000
_cell_volume 1106.360479
_symmetry_space_group_name_H-M "C C"
_symmetry_group_IT_number 9
_symmetry_cell_setting 'monoclinic'
loop_
_space_group_symop_operation_xyz
x,y,z
x,-y,1/2+z
1/2+x,1/2+y,z
1/2+x,1/2-y,1/2+z
loop_
_atom_site_type_symbol
_atom_site_label
_atom_site_fract_x
_atom_site_fract_y
_atom_site_fract_z
Si Si1 0.222800 0.360303 0.657460
Si Si2 0.079793 0.856202 0.659738
Si Si3 0.928563 0.314019 0.977827
Si Si4 0.311389 0.727062 0.849828
Si Si5 0.466336 0.345198 0.883778
Si Si6 0.246483 0.976053 0.954137
Si Si7 0.117598 0.665212 0.419135
O O1 0.286459 0.431087 0.813128
O O2 0.216157 0.255578 0.474543
O O3 0.178543 0.581638 0.584851
O O4 0.212585 0.139299 0.760419
O O5 0.089679 0.761682 0.511153
O O6 0.087675 0.594269 0.781776
O O7 0.117985 0.090990 0.803316
O O8 0.022716 0.009815 0.543107
O O9 0.869551 0.304672 0.921823
O O10 0.950265 0.586538 0.949200
O O11 0.926600 0.084463 0.845257
O O12 0.964061 0.232879 0.202705
O O13 0.297374 0.856134 0.978180
O O14 0.269959 0.837148 0.634809
#
# Coordination Sequence:
#
# PCOD9139467 Si02
#       7
#     4   4   4   4   4   4   4
#     4  11  27  45  75 112 166 214 275 326 405 485
#     4  12  29  55  84 119 163 211 278 345 411 478
#     4  12  28  48  84 117 161 211 268 333 417 484
#     4  11  25  43  76 109 159 206 265 323 404 485
#     4  12  28  53  80 118 159 206 272 342 411 479
#     4  10  25  46  69 107 166 208 263 328 392 473
#     4  12  30  52  86 120 164 218 275 333 416 488
#
# _framework density 25.308208
#
# number of rings (size 3 to 8) (size 9 to 14) (size 15 to 20)
#    0.000    0.571    0.000    5.143   16.000    2.286 
#    0.000    1.429    0.000    0.000    0.000    0.000 
#    0.000    0.000    0.000    0.000    0.000    0.000 
#
# Total GULP energy -78428.163577 kJ/mol
# GULP energy per Si atom -5602.011684 kJ/mol
# Density = 2.525060 g / cm^3
# Si number density = 25.308208 Si / 1000 Ang^3
#
#
#
# Elastic Constant Matrix: (Units=GPa)
#
#
# Indices 1 2 3 4 5 6 
#
# 1 143.2556 61.5640 37.4282 0.0000 -9.7833 0.0000
# 2 61.5640 181.2243 47.7918 0.0000 -14.7090 0.0000
# 3 37.4282 47.7918 87.7925 0.0000 -13.6856 0.0000
# 4 0.0000 0.0000 0.0000 32.0914 0.0000 -12.0979
# 5 -9.7833 -14.7090 -13.6856 0.0000 40.5469 0.0000
# 6 0.0000 0.0000 0.0000 -12.0979 0.0000 52.6967
#
#
#
# Elastic Compliance Matrix: (Units=1/GPa)
#
#
# Indices 1 2 3 4 5 6 
#
# 1 0.008601 -0.002261 -0.002365 0.000000 0.000457 0.000000
# 2 -0.002261 0.007095 -0.002725 0.000000 0.001108 0.000000
# 3 -0.002365 -0.002725 0.014397 0.000000 0.003300 0.000000
# 4 0.000000 0.000000 0.000000 0.034113 0.000000 0.007832
# 5 0.000457 0.001108 0.003300 0.000000 0.026289 0.000000
# 6 0.000000 0.000000 0.000000 0.007832 0.000000 0.020774
#
#
# Mechanical properties :
#
#
# Convention : Reuss Voigt Hill
#
# Bulk Modulus (GPa) = 64.97741 78.42671 71.70206
# Shear Modulus (GPa) = 38.13802 42.76623 40.45212
#
# Velocity S-wave (km/s) = 3.88615 4.11520 4.00231
# Velocity P-wave (km/s) = 6.77247 7.32364 7.05344
#
# Compressibility (1/GPa) = 0.01538996
#
# Stress axis : x y z
#
# Youngs Moduli (GPa) = 116.26074 140.94627 69.46017
#
# Poissons Ratio (x) = 0.31872 0.16426
# Poissons Ratio (y) = 0.26290 0.18931
# Poissons Ratio (z) = 0.27493 0.38414
#
# Static dielectric constant tensor:
#      x y z
#    x 1.986000 0.000000 0.079560 
#    y 0.000000 2.071510 0.000000 
#    z 0.079560 0.000000 2.010800 
# 
# From -- ./inp_files/12646.got.cif
#   From: 2010.05.17/outbox.cif.g08.bks.cpg/sg9_7_cif.got.tgz:12646.got - 2010.06.03 20:04:27.
