data_PCOD9139383
_publ_section_title
;
Structure prediction by ZEFSAII (Michael W. Deem and Ramdas Pophale) SiO2 
 PCOD9139383
Probable space group: C C
;
_chemical_formula_sum "Si O2"
_cell_formula_units_Z 24
_cell_length_a 20.389249
_cell_length_b 5.065391
_cell_length_c 8.687347
_cell_angle_alpha 90.000000
_cell_angle_beta 102.515071
_cell_angle_gamma 90.000000
_cell_volume 875.906088
_symmetry_space_group_name_H-M "C C"
_symmetry_group_IT_number 9
_symmetry_cell_setting 'monoclinic'
loop_
_space_group_symop_operation_xyz
x,y,z
x,-y,1/2+z
1/2+x,1/2+y,z
1/2+x,1/2-y,1/2+z
loop_
_atom_site_type_symbol
_atom_site_label
_atom_site_fract_x
_atom_site_fract_y
_atom_site_fract_z
Si Si1 0.654630 0.626693 0.233490
Si Si2 0.065654 0.217659 0.917352
Si Si3 0.833340 0.198880 0.587019
Si Si4 0.938342 0.123814 0.405613
Si Si5 0.744196 0.716175 0.553338
Si Si6 0.958249 0.487335 0.688641
O O1 0.602567 0.474339 0.316578
O O2 0.701496 0.777857 0.378043
O O3 0.697894 0.407725 0.162905
O O4 0.616647 0.786745 0.079663
O O5 0.002188 0.062335 0.958008
O O6 0.031135 0.439274 0.796240
O O7 0.867110 0.079916 0.449667
O O8 0.794487 0.526642 0.038288
O O9 0.898244 0.292678 0.720306
O O10 0.782890 0.979272 0.620776
O O11 0.958347 0.392108 0.513875
O O12 0.935669 0.225972 0.229236
#
# Coordination Sequence:
#
# PCOD9139383 Si02
#       6
#     4   4   4   4   4   4
#     4  10  25  47  70 100 153 206 257 302 366 455
#     4  11  22  50  66 110 150 194 262 301 388 443
#     4  10  27  47  79 105 154 186 260 307 391 439
#     4  10  25  42  76 112 148 196 244 333 384 450
#     4  11  26  50  71 109 149 208 249 311 365 458
#     4  10  25  42  76 112 142 200 242 336 378 453
#
# _framework density 27.400195
#
# number of rings (size 3 to 8) (size 9 to 14) (size 15 to 20)
#    1.000    0.667    1.667    0.000    9.333    1.333 
#   18.000    0.000    3.667    0.000    0.000    0.000 
#    0.000    0.000    0.000    0.000    0.000    0.000 
#
# Total GULP energy -67196.908357 kJ/mol
# GULP energy per Si atom -5599.742363 kJ/mol
# Density = 2.733783 g / cm^3
# Si number density = 27.400195 Si / 1000 Ang^3
#
#
#
# Elastic Constant Matrix: (Units=GPa)
#
#
# Indices 1 2 3 4 5 6 
#
# 1 125.0715 26.2544 40.2771 0.0000 1.6290 0.0000
# 2 26.2544 97.8824 6.9137 0.0000 12.9812 0.0000
# 3 40.2771 6.9137 141.1727 0.0000 32.7399 0.0000
# 4 0.0000 0.0000 0.0000 31.0291 0.0000 -8.4614
# 5 1.6290 12.9812 32.7399 0.0000 65.2071 0.0000
# 6 0.0000 0.0000 0.0000 -8.4614 0.0000 26.9311
#
#
#
# Elastic Compliance Matrix: (Units=1/GPa)
#
#
# Indices 1 2 3 4 5 6 
#
# 1 0.009473 -0.002565 -0.002989 0.000000 0.001775 0.000000
# 2 -0.002565 0.011188 0.000776 0.000000 -0.002553 0.000000
# 3 -0.002989 0.000776 0.008960 0.000000 -0.004579 0.000000
# 4 0.000000 0.000000 0.000000 0.035248 0.000000 0.011074
# 5 0.001775 -0.002553 -0.004579 0.000000 0.018098 0.000000
# 6 0.000000 0.000000 0.000000 0.011074 0.000000 0.040611
#
#
# Mechanical properties :
#
#
# Convention : Reuss Voigt Hill
#
# Bulk Modulus (GPa) = 49.83651 56.77967 53.30809
# Shear Modulus (GPa) = 35.75946 44.01223 39.88585
#
# Velocity S-wave (km/s) = 3.61651 4.01218 3.81947
# Velocity P-wave (km/s) = 5.97216 6.49853 6.24090
#
# Compressibility (1/GPa) = 0.02006561
#
# Stress axis : x y z
#
# Youngs Moduli (GPa) = 105.56050 89.38034 111.60670
#
# Poissons Ratio (x) = 0.22928 0.33356
# Poissons Ratio (y) = 0.27078 -0.08660
# Poissons Ratio (z) = 0.31549 -0.06936
#
# Static dielectric constant tensor:
#      x y z
#    x 2.135490 0.000000 -0.000590 
#    y 0.000000 2.162630 0.000000 
#    z -0.000590 0.000000 2.127170 
# 
# From -- ./inp_files/11944.got.cif
#   From: 2010.05.17/outbox.cif.g08.bks.cpg/sg9_6_cif.got.tgz:11944.got - 2010.06.03 20:04:27.
