data_PCOD9139099
_publ_section_title
;
Structure prediction by ZEFSAII (Michael W. Deem and Ramdas Pophale) SiO2 
 PCOD9139099
Probable space group: C C
;
_chemical_formula_sum "Si O2"
_cell_formula_units_Z 28
_cell_length_a 9.324587
_cell_length_b 12.347712
_cell_length_c 19.731982
_cell_angle_alpha 90.000000
_cell_angle_beta 30.461177
_cell_angle_gamma 90.000000
_cell_volume 1151.743362
_symmetry_space_group_name_H-M "C C"
_symmetry_group_IT_number 9
_symmetry_cell_setting 'monoclinic'
loop_
_space_group_symop_operation_xyz
x,y,z
x,-y,1/2+z
1/2+x,1/2+y,z
1/2+x,1/2-y,1/2+z
loop_
_atom_site_type_symbol
_atom_site_label
_atom_site_fract_x
_atom_site_fract_y
_atom_site_fract_z
Si Si1 0.674660 0.358838 0.628920
Si Si2 0.161714 0.212944 0.873212
Si Si3 0.184222 0.899970 0.841391
Si Si4 0.798857 0.056796 0.085900
Si Si5 0.505325 0.562923 0.636866
Si Si6 0.476806 0.195869 0.870397
Si Si7 0.236510 0.247769 0.448885
O O1 0.360592 0.316398 0.775386
O O2 0.668608 0.487516 0.622716
O O3 0.751585 0.316251 0.521790
O O4 0.941843 0.312936 0.562536
O O5 0.387898 0.155757 0.831930
O O6 0.010575 0.187901 0.863176
O O7 0.894964 0.180649 0.031143
O O8 0.471089 0.955931 0.702951
O O9 0.047231 0.823189 0.841123
O O10 0.276309 0.815289 0.862797
O O11 0.971235 0.982045 0.963274
O O12 0.879245 0.013076 0.127640
O O13 0.247619 0.624078 0.777365
O O14 0.693031 0.652476 0.522316
#
# Coordination Sequence:
#
# PCOD9139099 Si02
#       7
#     4   4   4   4   4   4   4
#     4  11  25  44  76 110 142 201 253 310 380 458
#     4  12  24  44  72 103 151 191 250 313 383 447
#     4  10  24  44  71 106 144 198 254 309 383 459
#     4  11  23  41  76 105 140 201 249 308 386 455
#     4  11  22  45  76 101 141 202 253 297 386 450
#     4  11  24  46  72 104 149 194 253 314 375 457
#     4  10  24  44  71 105 155 185 256 317 367 456
#
# _framework density 24.310970999999999
#
# number of rings (size 3 to 8) (size 9 to 14) (size 15 to 20)
#    0.000    1.143    2.857    2.571    8.000    0.000 
#    2.571    0.000    6.286    0.000    0.000    0.000 
#    0.000    0.000    0.000    0.000    0.000    0.000 
#
# Total GULP energy -78014.902056 kJ/mol
# GULP energy per Si atom -5572.493004 kJ/mol
# Density = 2.425564 g / cm^3
# Si number density = 24.310971 Si / 1000 Ang^3
#
#
#
# Elastic Constant Matrix: (Units=GPa)
#
#
# Indices 1 2 3 4 5 6 
#
# 1 92.6923 40.2201 35.7203 -0.0082 -15.4286 0.0038
# 2 40.2201 87.9281 48.2099 -0.0092 -4.1737 0.0005
# 3 35.7203 48.2099 127.4745 -0.0194 -10.9985 0.0150
# 4 -0.0082 -0.0092 -0.0194 40.1107 0.0033 9.2537
# 5 -15.4286 -4.1737 -10.9985 0.0033 35.3662 -0.0057
# 6 0.0038 0.0005 0.0150 9.2537 -0.0057 46.6384
#
#
#
# Elastic Compliance Matrix: (Units=1/GPa)
#
#
# Indices 1 2 3 4 5 6 
#
# 1 0.014701 -0.005633 -0.001534 0.000001 0.005272 0.000000
# 2 -0.005633 0.016507 -0.004838 0.000000 -0.002014 0.000002
# 3 -0.001534 -0.004838 0.010273 0.000004 0.001954 -0.000004
# 4 0.000001 0.000000 0.000004 0.026127 -0.000002 -0.005184
# 5 0.005272 -0.002014 0.001954 -0.000002 0.030945 0.000003
# 6 0.000000 0.000002 -0.000004 -0.005184 0.000003 0.022470
#
#
# Mechanical properties :
#
#
# Convention : Reuss Voigt Hill
#
# Bulk Modulus (GPa) = 57.24078 61.82172 59.53125
# Shear Modulus (GPa) = 33.14377 36.68606 34.91491
#
# Velocity S-wave (km/s) = 3.69633 3.88884 3.79381
# Velocity P-wave (km/s) = 6.46634 6.75640 6.61296
#
# Compressibility (1/GPa) = 0.01747006
#
# Stress axis : x y z
#
# Youngs Moduli (GPa) = 68.02054 60.58142 97.34316
#
# Poissons Ratio (x) = 0.34127 0.14935
# Poissons Ratio (y) = 0.38318 0.47094
# Poissons Ratio (z) = 0.10436 0.29309
#
# Static dielectric constant tensor:
#      x y z
#    x 2.011180 0.000000 -0.036400 
#    y 0.000000 2.044300 0.000010 
#    z -0.036400 0.000010 1.952990 
# 
# From -- ./inp_files/32728.got.cif
#   From: 2010.05.17/outbox.cif.g08.bks.cpg/sg9_17_cif.got.tgz:32728.got - 2010.06.03 20:04:27.
