data_PCOD9139186
_publ_section_title
;
Structure prediction by ZEFSAII (Michael W. Deem and Ramdas Pophale) SiO2 
 PCOD9139186
Probable space group: C C
;
_chemical_formula_sum "Si O2"
_cell_formula_units_Z 28
_cell_length_a 12.459717
_cell_length_b 7.332882
_cell_length_c 16.628334
_cell_angle_alpha 90.000000
_cell_angle_beta 126.426422
_cell_angle_gamma 90.000000
_cell_volume 1222.425688
_symmetry_space_group_name_H-M "C C"
_symmetry_group_IT_number 9
_symmetry_cell_setting 'monoclinic'
loop_
_space_group_symop_operation_xyz
x,y,z
x,-y,1/2+z
1/2+x,1/2+y,z
1/2+x,1/2-y,1/2+z
loop_
_atom_site_type_symbol
_atom_site_label
_atom_site_fract_x
_atom_site_fract_y
_atom_site_fract_z
Si Si1 0.219040 0.838576 0.847520
Si Si2 0.802288 0.953384 0.854625
Si Si3 0.836685 0.445075 0.742434
Si Si4 0.105596 0.298154 0.884285
Si Si5 0.414692 0.346458 0.731773
Si Si6 0.591803 0.482718 0.523432
Si Si7 0.715810 0.165918 0.009432
O O1 0.215225 0.635866 0.807045
O O2 0.308931 0.951315 0.825926
O O3 0.067562 0.902490 0.789643
O O4 0.267955 0.793690 0.959450
O O5 0.714982 0.803664 0.862422
O O6 0.854941 0.902365 0.790833
O O7 0.932910 0.011050 0.964489
O O8 0.896412 0.626971 0.728804
O O9 0.692606 0.415849 0.637343
O O10 0.954160 0.297880 0.784553
O O11 0.119438 0.146564 0.958853
O O12 0.132114 0.497270 0.937250
O O13 0.329271 0.409327 0.617947
O O14 0.627367 0.693016 0.520746
#
# Coordination Sequence:
#
# PCOD9139186 Si02
#       7
#     4   4   4   4   4   4   4
#     4  11  23  42  68  93 134 177 216 283 334 387
#     4  11  23  44  67  98 132 175 225 273 331 406
#     4  11  24  43  66 100 132 175 225 273 337 400
#     4  11  24  45  67  97 138 174 223 275 340 395
#     4  11  24  45  66  98 134 171 230 275 334 402
#     4  11  24  45  66 101 135 173 230 272 332 407
#     4  10  24  46  66  97 135 175 221 281 332 397
#
# _framework density 22.905277000000002
#
# number of rings (size 3 to 8) (size 9 to 14) (size 15 to 20)
#    0.000    1.143    5.714    0.000    8.000    0.000 
#    5.143    0.000    0.000    0.000    0.000    0.000 
#    0.000    0.000    0.000    0.000    0.000    0.000 
#
# Total GULP energy -78204.989599 kJ/mol
# GULP energy per Si atom -5586.070686 kJ/mol
# Density = 2.285314 g / cm^3
# Si number density = 22.905277 Si / 1000 Ang^3
#
#
#
# Elastic Constant Matrix: (Units=GPa)
#
#
# Indices 1 2 3 4 5 6 
#
# 1 152.0325 6.0852 43.0136 0.0000 7.7858 0.0000
# 2 6.0852 48.8068 -1.9387 0.0000 6.3514 0.0000
# 3 43.0136 -1.9387 120.4769 0.0000 22.9189 0.0000
# 4 0.0000 0.0000 0.0000 24.2286 0.0000 -11.1966
# 5 7.7858 6.3514 22.9189 0.0000 17.2538 0.0000
# 6 0.0000 0.0000 0.0000 -11.1966 0.0000 40.9980
#
#
#
# Elastic Compliance Matrix: (Units=1/GPa)
#
#
# Indices 1 2 3 4 5 6 
#
# 1 0.007375 -0.001138 -0.002808 0.000000 0.000820 0.000000
# 2 -0.001138 0.022264 0.002979 0.000000 -0.011639 0.000000
# 3 -0.002808 0.002979 0.012469 0.000000 -0.016393 0.000000
# 4 0.000000 0.000000 0.000000 0.047235 0.000000 0.012900
# 5 0.000820 -0.011639 -0.016393 0.000000 0.083648 0.000000
# 6 0.000000 0.000000 0.000000 0.012900 0.000000 0.027914
#
#
# Mechanical properties :
#
#
# Convention : Reuss Voigt Hill
#
# Bulk Modulus (GPa) = 24.89119 46.18182 35.53650
# Shear Modulus (GPa) = 23.12345 34.77314 28.94830
#
# Velocity S-wave (km/s) = 3.18075 3.90054 3.55889
# Velocity P-wave (km/s) = 4.93763 6.36329 5.69525
#
# Compressibility (1/GPa) = 0.04017486
#
# Stress axis : x y z
#
# Youngs Moduli (GPa) = 135.58578 44.91605 80.19808
#
# Poissons Ratio (x) = 0.05110 0.22516
# Poissons Ratio (y) = 0.15427 -0.23888
# Poissons Ratio (z) = 0.38066 -0.13379
#
# Static dielectric constant tensor:
#      x y z
#    x 1.861380 0.000000 0.025810 
#    y 0.000000 1.902860 0.000000 
#    z 0.025810 0.000000 1.881410 
# 
# From -- ./inp_files/21222.got.cif
#   From: 2010.05.17/outbox.cif.g08.bks.cpg/sg9_11_cif.got.tgz:21222.got - 2010.06.03 20:04:27.
