data_PCOD9139563
_publ_section_title
;
Structure prediction by ZEFSAII (Michael W. Deem and Ramdas Pophale) SiO2 
 PCOD9139563
Probable space group: C C
;
_chemical_formula_sum "Si O2"
_cell_formula_units_Z 24
_cell_length_a 5.030762
_cell_length_b 10.399556
_cell_length_c 18.382842
_cell_angle_alpha 90.000000
_cell_angle_beta 76.015536
_cell_angle_gamma 90.000000
_cell_volume 933.242883
_symmetry_space_group_name_H-M "C C"
_symmetry_group_IT_number 9
_symmetry_cell_setting 'monoclinic'
loop_
_space_group_symop_operation_xyz
x,y,z
x,-y,1/2+z
1/2+x,1/2+y,z
1/2+x,1/2-y,1/2+z
loop_
_atom_site_type_symbol
_atom_site_label
_atom_site_fract_x
_atom_site_fract_y
_atom_site_fract_z
Si Si1 0.123690 0.637425 0.504950
Si Si2 0.164429 0.399802 0.296244
Si Si3 0.211781 0.793141 0.907285
Si Si4 0.702933 0.463649 0.768527
Si Si5 0.611183 0.922663 0.606591
Si Si6 0.872351 0.833068 0.129992
O O1 0.433468 0.645890 0.455580
O O2 0.155214 0.706282 0.582057
O O3 0.937866 0.691777 0.453685
O O4 0.039580 0.493449 0.535648
O O5 0.175024 0.348433 0.377140
O O6 0.378279 0.520059 0.280977
O O7 0.283790 0.321716 0.219095
O O8 0.846958 0.410772 0.294412
O O9 0.276116 0.865597 0.827640
O O10 0.875876 0.449081 0.682952
O O11 0.869409 0.012230 0.614643
O O12 0.612479 0.769043 0.601627
#
# Coordination Sequence:
#
# PCOD9139563 Si02
#       6
#     4   4   4   4   4   4
#     4  10  26  40  72 104 149 186 245 312 390 446
#     4  11  24  43  73 102 138 192 247 303 370 461
#     4  12  24  48  66 110 141 190 237 320 376 450
#     4  11  24  43  73 102 138 192 247 303 370 461
#     4   9  21  45  71 106 143 195 252 308 378 466
#     4   9  21  45  71 106 143 195 252 308 378 466
#
# _framework density 25.71678
#
# number of rings (size 3 to 8) (size 9 to 14) (size 15 to 20)
#    1.000    0.667    1.667    2.000    2.333    4.000 
#    0.000    6.667    0.000    0.000    0.000    0.000 
#    0.000    0.000    0.000    0.000    0.000    0.000 
#
# Total GULP energy -66832.966501 kJ/mol
# GULP energy per Si atom -5569.413875 kJ/mol
# Density = 2.565825 g / cm^3
# Si number density = 25.716780 Si / 1000 Ang^3
#
#
#
# Elastic Constant Matrix: (Units=GPa)
#
#
# Indices 1 2 3 4 5 6 
#
# 1 137.7913 16.9276 43.5532 0.0000 10.2721 0.0000
# 2 16.9276 80.2108 23.4930 0.0000 0.6719 0.0000
# 3 43.5532 23.4930 154.2626 0.0000 37.6080 0.0000
# 4 0.0000 0.0000 0.0000 46.5779 0.0000 -2.7664
# 5 10.2721 0.6719 37.6080 0.0000 41.2664 0.0000
# 6 0.0000 0.0000 0.0000 -2.7664 0.0000 17.4069
#
#
#
# Elastic Compliance Matrix: (Units=1/GPa)
#
#
# Indices 1 2 3 4 5 6 
#
# 1 0.008057 -0.001088 -0.002089 0.000000 -0.000085 0.000000
# 2 -0.001088 0.013333 -0.002232 0.000000 0.002088 0.000000
# 3 -0.002089 -0.002232 0.009355 0.000000 -0.007969 0.000000
# 4 0.000000 0.000000 0.000000 0.021674 0.000000 0.003445
# 5 -0.000085 0.002088 -0.007969 0.000000 0.031483 0.000000
# 6 0.000000 0.000000 0.000000 0.003445 0.000000 0.057996
#
#
# Mechanical properties :
#
#
# Convention : Reuss Voigt Hill
#
# Bulk Modulus (GPa) = 50.18189 60.02359 55.10274
# Shear Modulus (GPa) = 31.37574 40.26963 35.82269
#
# Velocity S-wave (km/s) = 3.49671 3.96142 3.73630
# Velocity P-wave (km/s) = 5.98818 6.65693 6.33139
#
# Compressibility (1/GPa) = 0.01992751
#
# Stress axis : x y z
#
# Youngs Moduli (GPa) = 124.10841 75.00109 106.89489
#
# Poissons Ratio (x) = 0.08160 0.22326
# Poissons Ratio (y) = 0.13503 0.23864
# Poissons Ratio (z) = 0.25921 0.16744
#
# Static dielectric constant tensor:
#      x y z
#    x 1.981750 0.000000 0.005470 
#    y 0.000000 2.387520 0.000000 
#    z 0.005470 0.000000 1.979130 
# 
# From -- ./inp_files/28438.got.cif
#   From: 2010.05.17/outbox.cif.g08.bks.cpg/sg9_15_cif.got.tgz:28438.got - 2010.06.03 20:04:27.
