data_PCOD9139949
_publ_section_title
;
Structure prediction by ZEFSAII (Michael W. Deem and Ramdas Pophale) SiO2 
 PCOD9139949
Probable space group: C C
;
_chemical_formula_sum "Si O2"
_cell_formula_units_Z 28
_cell_length_a 10.152394
_cell_length_b 5.077213
_cell_length_c 23.111483
_cell_angle_alpha 90.000000
_cell_angle_beta 65.985671
_cell_angle_gamma 90.000000
_cell_volume 1088.186792
_symmetry_space_group_name_H-M "C C"
_symmetry_group_IT_number 9
_symmetry_cell_setting 'monoclinic'
loop_
_space_group_symop_operation_xyz
x,y,z
x,-y,1/2+z
1/2+x,1/2+y,z
1/2+x,1/2-y,1/2+z
loop_
_atom_site_type_symbol
_atom_site_label
_atom_site_fract_x
_atom_site_fract_y
_atom_site_fract_z
Si Si1 0.137140 0.896813 0.825710
Si Si2 0.698807 0.696528 0.529894
Si Si3 0.477853 0.007784 0.920001
Si Si4 0.211797 0.448205 0.211115
Si Si5 0.309336 0.068348 0.629949
Si Si6 0.590056 0.206006 0.510448
Si Si7 0.419868 0.130402 0.802961
O O1 0.225149 0.673984 0.773259
O O2 0.071043 0.773043 0.895645
O O3 0.995263 0.906982 0.809497
O O4 0.254590 0.118035 0.815079
O O5 0.826935 0.515729 0.479895
O O6 0.705621 0.672630 0.597283
O O7 0.572069 0.511356 0.529648
O O8 0.713480 0.993017 0.505427
O O9 0.439084 0.962877 0.859589
O O10 0.571321 0.826290 0.945340
O O11 0.292534 0.717399 0.183522
O O12 0.037664 0.479680 0.236862
O O13 0.265166 0.218138 0.159319
O O14 0.464198 0.073339 0.572108
#
# Coordination Sequence:
#
# PCOD9139949 Si02
#       7
#     4   4   4   4   4   4   4
#     4   8  18  39  66  97 130 178 221 288 343 425
#     4  11  23  39  64  92 128 172 217 275 337 407
#     4   8  20  38  64  92 132 164 226 272 344 410
#     4   9  22  37  66  87 136 165 230 268 348 405
#     4  11  22  43  58  99 122 177 214 282 328 417
#     4  11  23  39  64  92 128 172 217 275 337 407
#     4   8  18  39  66  97 130 178 221 288 343 425
#
# _framework density 25.730878000000001
#
# number of rings (size 3 to 8) (size 9 to 14) (size 15 to 20)
#    1.714    0.571    0.000    2.571    0.000    6.857 
#    0.000   17.143    0.000    0.000    0.000    0.000 
#    0.000    0.000    0.000    0.000    0.000    0.000 
#
# Total GULP energy -77936.543219 kJ/mol
# GULP energy per Si atom -5566.895944 kJ/mol
# Density = 2.567231 g / cm^3
# Si number density = 25.730878 Si / 1000 Ang^3
#
#
#
# Elastic Constant Matrix: (Units=GPa)
#
#
# Indices 1 2 3 4 5 6 
#
# 1 56.4052 37.0180 1.1138 0.0000 -2.3060 0.0000
# 2 37.0180 135.6253 34.6904 0.0000 -0.7243 0.0000
# 3 1.1138 34.6904 118.9681 0.0000 -10.7626 0.0000
# 4 0.0000 0.0000 0.0000 34.0974 0.0000 -5.3796
# 5 -2.3060 -0.7243 -10.7626 0.0000 36.4033 0.0000
# 6 0.0000 0.0000 0.0000 -5.3796 0.0000 13.9964
#
#
#
# Elastic Compliance Matrix: (Units=1/GPa)
#
#
# Indices 1 2 3 4 5 6 
#
# 1 0.022013 -0.006470 0.001844 0.000000 0.001811 0.000000
# 2 -0.006470 0.009880 -0.002918 0.000000 -0.001076 0.000000
# 3 0.001844 -0.002918 0.009498 0.000000 0.002867 0.000000
# 4 0.000000 0.000000 0.000000 0.031221 0.000000 0.012000
# 5 0.001811 -0.001076 0.002867 0.000000 0.028411 0.000000
# 6 0.000000 0.000000 0.000000 0.012000 0.000000 0.076059
#
#
# Mechanical properties :
#
#
# Convention : Reuss Voigt Hill
#
# Bulk Modulus (GPa) = 38.01690 50.73813 44.37751
# Shear Modulus (GPa) = 24.88333 32.77785 28.83059
#
# Velocity S-wave (km/s) = 3.11313 3.57301 3.35097
# Velocity P-wave (km/s) = 5.26584 6.06493 5.67946
#
# Compressibility (1/GPa) = 0.02630409
#
# Stress axis : x y z
#
# Youngs Moduli (GPa) = 45.42788 101.21615 105.27986
#
# Poissons Ratio (x) = 0.65491 -0.19419
# Poissons Ratio (y) = 0.29394 0.30717
# Poissons Ratio (z) = -0.08379 0.29531
#
# Static dielectric constant tensor:
#      x y z
#    x 2.320890 0.000000 -0.024490 
#    y 0.000000 2.152860 0.000000 
#    z -0.024490 0.000000 1.994110 
# 
# From -- ./inp_files/35114.got.cif
#   From: 2010.05.17/outbox.cif.g08.bks.cpg/sg9_18_cif.got.tgz:35114.got - 2010.06.03 20:04:27.
