data_PCOD9139218
_publ_section_title
;
Structure prediction by ZEFSAII (Michael W. Deem and Ramdas Pophale) SiO2 
 PCOD9139218
Probable space group: C C
;
_chemical_formula_sum "Si O2"
_cell_formula_units_Z 32
_cell_length_a 9.191972
_cell_length_b 12.197656
_cell_length_c 13.652088
_cell_angle_alpha 90.000000
_cell_angle_beta 127.494931
_cell_angle_gamma 90.000000
_cell_volume 1214.451812
_symmetry_space_group_name_H-M "C C"
_symmetry_group_IT_number 9
_symmetry_cell_setting 'monoclinic'
loop_
_space_group_symop_operation_xyz
x,y,z
x,-y,1/2+z
1/2+x,1/2+y,z
1/2+x,1/2-y,1/2+z
loop_
_atom_site_type_symbol
_atom_site_label
_atom_site_fract_x
_atom_site_fract_y
_atom_site_fract_z
Si Si1 0.986050 0.831194 0.900300
Si Si2 0.526065 0.665988 0.800535
Si Si3 0.761467 0.506937 0.272949
Si Si4 0.850369 0.774462 0.045819
Si Si5 0.719500 0.020610 0.776387
Si Si6 0.344108 0.077347 0.588383
Si Si7 0.460496 0.686958 0.177256
Si Si8 0.678655 0.985055 0.483137
O O1 0.982778 0.771445 0.003632
O O2 0.981951 0.768812 0.797172
O O3 0.804023 0.901853 0.822955
O O4 0.150135 0.919146 0.956066
O O5 0.645647 0.583204 0.783996
O O6 0.666405 0.711447 0.939232
O O7 0.445784 0.753168 0.688186
O O8 0.357031 0.603517 0.780569
O O9 0.787506 0.462358 0.173681
O O10 0.642909 0.619162 0.223960
O O11 0.963035 0.512216 0.403663
O O12 0.788782 0.900945 0.034051
O O13 0.527049 0.011338 0.642025
O O14 0.695969 0.058609 0.878614
O O15 0.412076 0.202713 0.601105
O O16 0.292563 0.601540 0.094700
#
# Coordination Sequence:
#
# PCOD9139218 Si02
#       8
#     4   4   4   4   4   4   4   4
#     4  11  23  46  69 107 144 193 252 316 383 474
#     4  12  24  47  70 107 146 197 253 320 388 473
#     4  11  23  47  72 104 145 195 250 317 387 463
#     4  11  25  45  73 104 153 192 259 321 390 472
#     4  10  24  47  69 104 146 188 250 317 388 457
#     4  11  26  44  75 107 148 198 258 313 389 472
#     4  12  25  44  78 105 150 197 255 319 391 469
#     4  10  24  46  72 102 148 194 243 323 390 454
#
# _framework density 26.349337999999999
#
# number of rings (size 3 to 8) (size 9 to 14) (size 15 to 20)
#    0.000    1.000    3.750    1.500    7.000    3.000 
#    6.750    0.000    0.000    0.000    0.000    0.000 
#    0.000    0.000    0.000    0.000    0.000    0.000 
#
# Total GULP energy -89609.099619 kJ/mol
# GULP energy per Si atom -5600.568726 kJ/mol
# Density = 2.628937 g / cm^3
# Si number density = 26.349338 Si / 1000 Ang^3
#
#
#
# Elastic Constant Matrix: (Units=GPa)
#
#
# Indices 1 2 3 4 5 6 
#
# 1 115.9533 27.1868 47.9706 0.0000 32.5534 0.0000
# 2 27.1868 77.5197 -7.1427 0.0000 4.2661 0.0000
# 3 47.9706 -7.1427 113.3426 0.0000 4.4433 0.0000
# 4 0.0000 0.0000 0.0000 34.1776 0.0000 19.3700
# 5 32.5534 4.2661 4.4433 0.0000 38.8598 0.0000
# 6 0.0000 0.0000 0.0000 19.3700 0.0000 35.5453
#
#
#
# Elastic Compliance Matrix: (Units=1/GPa)
#
#
# Indices 1 2 3 4 5 6 
#
# 1 0.016108 -0.005599 -0.006695 0.000000 -0.012113 0.000000
# 2 -0.005599 0.015012 0.003211 0.000000 0.002675 0.000000
# 3 -0.006695 0.003211 0.011705 0.000000 0.003918 0.000000
# 4 0.000000 0.000000 0.000000 0.042333 0.000000 -0.023069
# 5 -0.012113 0.002675 0.003918 0.000000 0.035139 0.000000
# 6 0.000000 0.000000 0.000000 -0.023069 0.000000 0.040704
#
#
# Mechanical properties :
#
#
# Convention : Reuss Voigt Hill
#
# Bulk Modulus (GPa) = 40.55494 49.20500 44.87997
# Shear Modulus (GPa) = 26.68250 37.63660 32.15955
#
# Velocity S-wave (km/s) = 3.18566 3.78348 3.49737
# Velocity P-wave (km/s) = 5.38107 6.14824 5.77740
#
# Compressibility (1/GPa) = 0.02465791
#
# Stress axis : x y z
#
# Youngs Moduli (GPa) = 62.08209 66.61196 85.43155
#
# Poissons Ratio (x) = 0.37299 0.57199
# Poissons Ratio (y) = 0.34762 -0.27432
# Poissons Ratio (z) = 0.41566 -0.21389
#
# Static dielectric constant tensor:
#      x y z
#    x 2.093130 0.000000 -0.025320 
#    y 0.000000 2.045750 0.000000 
#    z -0.025320 0.000000 2.127460 
# 
# From -- ./inp_files/23436.got.cif
#   From: 2010.05.17/outbox.cif.g08.bks.cpg/sg9_12_cif.got.tgz:23436.got - 2010.06.03 20:04:27.
