data_PCOD9139232
_publ_section_title
;
Structure prediction by ZEFSAII (Michael W. Deem and Ramdas Pophale) SiO2 
 PCOD9139232
Probable space group: C C
;
_chemical_formula_sum "Si O2"
_cell_formula_units_Z 32
_cell_length_a 19.380871
_cell_length_b 12.347711
_cell_length_c 9.887199
_cell_angle_alpha 90.000000
_cell_angle_beta 34.116848
_cell_angle_gamma 90.000000
_cell_volume 1327.103775
_symmetry_space_group_name_H-M "C C"
_symmetry_group_IT_number 9
_symmetry_cell_setting 'monoclinic'
loop_
_space_group_symop_operation_xyz
x,y,z
x,-y,1/2+z
1/2+x,1/2+y,z
1/2+x,1/2-y,1/2+z
loop_
_atom_site_type_symbol
_atom_site_label
_atom_site_fract_x
_atom_site_fract_y
_atom_site_fract_z
Si Si1 0.171810 0.098284 0.596920
Si Si2 0.205599 0.247605 0.102273
Si Si3 0.502023 0.193509 0.331198
Si Si4 0.736874 0.867648 0.311902
Si Si5 0.896290 0.445966 0.238771
Si Si6 0.653469 0.905399 0.942167
Si Si7 0.067842 0.071720 0.474158
Si Si8 0.329030 0.662948 0.937098
O O1 0.151780 0.071974 0.471106
O O2 0.088868 0.208927 0.752996
O O3 0.315445 0.056502 0.380789
O O4 0.101858 0.020408 0.815045
O O5 0.264277 0.328327 0.118055
O O6 0.169652 0.312396 0.026789
O O7 0.091834 0.184226 0.355782
O O8 0.301086 0.151459 0.921290
O O9 0.455193 0.095283 0.500767
O O10 0.387291 0.251332 0.445362
O O11 0.592688 0.152680 0.068242
O O12 0.804144 0.802885 0.322520
O O13 0.743358 0.994444 0.332424
O O14 0.011249 0.436276 0.153915
O O15 0.705829 0.875465 0.709252
O O16 0.931124 0.070438 0.754580
#
# Coordination Sequence:
#
# PCOD9139232 Si02
#       8
#     4   4   4   4   4   4   4   4
#     4  10  24  47  75 109 151 191 259 305 383 458
#     4  11  25  48  70 109 148 193 257 314 388 459
#     4  11  24  48  72 108 149 200 252 309 380 463
#     4  12  26  45  69 108 148 194 248 314 389 448
#     4  11  26  48  78 110 150 202 253 318 388 464
#     4  12  27  47  73 109 147 196 255 315 385 466
#     4  10  24  46  73 113 145 198 252 316 382 466
#     4  11  24  45  70 102 148 196 248 301 383 456
#
# _framework density 24.112658
#
# number of rings (size 3 to 8) (size 9 to 14) (size 15 to 20)
#    0.000    1.000    5.000    0.750    5.250    7.000 
#    0.000    0.000    0.000    0.000    0.000    0.000 
#    0.000    0.000    0.000    0.000    0.000    0.000 
#
# Total GULP energy -89233.057698 kJ/mol
# GULP energy per Si atom -5577.066106 kJ/mol
# Density = 2.405778 g / cm^3
# Si number density = 24.112658 Si / 1000 Ang^3
#
#
#
# Elastic Constant Matrix: (Units=GPa)
#
#
# Indices 1 2 3 4 5 6 
#
# 1 100.8536 33.1566 50.2770 0.0000 -15.8573 0.0000
# 2 33.1566 102.7540 31.8406 0.0000 2.2225 0.0000
# 3 50.2770 31.8406 97.2579 0.0000 4.6336 0.0000
# 4 0.0000 0.0000 0.0000 17.3847 0.0000 1.9085
# 5 -15.8573 2.2225 4.6336 0.0000 43.5275 0.0000
# 6 0.0000 0.0000 0.0000 1.9085 0.0000 42.8144
#
#
#
# Elastic Compliance Matrix: (Units=1/GPa)
#
#
# Indices 1 2 3 4 5 6 
#
# 1 0.015615 -0.002874 -0.007447 0.000000 0.006628 0.000000
# 2 -0.002874 0.011361 -0.002167 0.000000 -0.001397 0.000000
# 3 -0.007447 -0.002167 0.015041 0.000000 -0.004203 0.000000
# 4 0.000000 0.000000 0.000000 0.057805 0.000000 -0.002577
# 5 0.006628 -0.001397 -0.004203 0.000000 0.025907 0.000000
# 6 0.000000 0.000000 0.000000 -0.002577 0.000000 0.023471
#
#
# Mechanical properties :
#
#
# Convention : Reuss Voigt Hill
#
# Bulk Modulus (GPa) = 58.68242 59.04599 58.86421
# Shear Modulus (GPa) = 27.79980 33.11808 30.45894
#
# Velocity S-wave (km/s) = 3.39914 3.71006 3.55800
# Velocity P-wave (km/s) = 6.30834 6.54931 6.42995
#
# Compressibility (1/GPa) = 0.01704088
#
# Stress axis : x y z
#
# Youngs Moduli (GPa) = 64.04190 88.01895 66.48404
#
# Poissons Ratio (x) = 0.25300 0.49509
# Poissons Ratio (y) = 0.18408 0.14407
# Poissons Ratio (z) = 0.47690 0.19074
#
# Static dielectric constant tensor:
#      x y z
#    x 1.950050 0.000000 -0.043840 
#    y 0.000000 2.068390 0.000000 
#    z -0.043840 0.000000 1.930820 
# 
# From -- ./inp_files/10895.got.cif
#   From: 2010.05.17/outbox.cif.g08.bks.cpg/sg9_6_cif.got.tgz:10895.got - 2010.06.03 20:04:27.
