data_PCOD9139461
_publ_section_title
;
Structure prediction by ZEFSAII (Michael W. Deem and Ramdas Pophale) SiO2 
 PCOD9139461
Probable space group: C C
;
_chemical_formula_sum "Si O2"
_cell_formula_units_Z 28
_cell_length_a 14.248930
_cell_length_b 11.271518
_cell_length_c 8.728307
_cell_angle_alpha 90.000000
_cell_angle_beta 52.207766
_cell_angle_gamma 90.000000
_cell_volume 1107.777726
_symmetry_space_group_name_H-M "C C"
_symmetry_group_IT_number 9
_symmetry_cell_setting 'monoclinic'
loop_
_space_group_symop_operation_xyz
x,y,z
x,-y,1/2+z
1/2+x,1/2+y,z
1/2+x,1/2-y,1/2+z
loop_
_atom_site_type_symbol
_atom_site_label
_atom_site_fract_x
_atom_site_fract_y
_atom_site_fract_z
Si Si1 0.790910 0.724044 0.269500
Si Si2 0.461280 0.545029 0.045564
Si Si3 0.045941 0.408374 0.184327
Si Si4 0.966398 0.830222 0.868273
Si Si5 0.750800 0.919053 0.544485
Si Si6 0.878046 0.533411 0.594039
Si Si7 0.156590 0.186537 0.684352
O O1 0.823975 0.835794 0.350580
O O2 0.841482 0.589864 0.214575
O O3 0.669383 0.700021 0.487539
O O4 0.843408 0.772100 0.055309
O O5 0.454666 0.593560 0.223663
O O6 0.335898 0.530691 0.087710
O O7 0.517910 0.419666 0.942925
O O8 0.537311 0.637793 0.871726
O O9 0.056749 0.278797 0.249031
O O10 0.966058 0.489863 0.374894
O O11 0.958200 0.391198 0.129121
O O12 0.166707 0.483769 0.049481
O O13 0.674720 0.821992 0.713744
O O14 0.765161 0.606074 0.642364
#
# Coordination Sequence:
#
# PCOD9139461 Si02
#       7
#     4   4   4   4   4   4   4
#     4   9  23  47  77 113 156 218 270 344 400 479
#     4  12  27  51  77 116 168 219 272 344 413 495
#     4  11  25  46  79 116 154 210 273 341 399 493
#     4  11  27  50  78 113 165 212 278 333 416 487
#     4  10  25  49  80 114 165 210 274 340 414 474
#     4  11  22  46  75 114 157 210 279 327 407 481
#     4  10  25  45  82 110 161 215 270 335 411 479
#
# _framework density 25.275829999999999
#
# number of rings (size 3 to 8) (size 9 to 14) (size 15 to 20)
#    0.857    0.571    1.429    1.714    8.000    2.286 
#   12.857    0.000    0.000    0.000    0.000    0.000 
#    0.000    0.000    0.000    0.000    0.000    0.000 
#
# Total GULP energy -78015.340270 kJ/mol
# GULP energy per Si atom -5572.524305 kJ/mol
# Density = 2.521830 g / cm^3
# Si number density = 25.275830 Si / 1000 Ang^3
#
#
#
# Elastic Constant Matrix: (Units=GPa)
#
#
# Indices 1 2 3 4 5 6 
#
# 1 70.1685 42.3418 4.3962 0.0000 11.1189 0.0000
# 2 42.3418 172.2475 28.8113 0.0000 11.2135 0.0000
# 3 4.3962 28.8113 129.4641 0.0000 12.7537 0.0000
# 4 0.0000 0.0000 0.0000 54.9821 0.0000 8.3257
# 5 11.1189 11.2135 12.7537 0.0000 17.5134 0.0000
# 6 0.0000 0.0000 0.0000 8.3257 0.0000 15.7354
#
#
#
# Elastic Compliance Matrix: (Units=1/GPa)
#
#
# Indices 1 2 3 4 5 6 
#
# 1 0.018170 -0.004034 0.001253 0.000000 -0.009865 0.000000
# 2 -0.004034 0.007087 -0.001342 0.000000 -0.000999 0.000000
# 3 0.001253 -0.001342 0.008590 0.000000 -0.006192 0.000000
# 4 0.000000 0.000000 0.000000 0.019772 0.000000 -0.010461
# 5 -0.009865 -0.000999 -0.006192 0.000000 0.068511 0.000000
# 6 0.000000 0.000000 0.000000 -0.010461 0.000000 0.069086
#
#
# Mechanical properties :
#
#
# Convention : Reuss Voigt Hill
#
# Bulk Modulus (GPa) = 39.06073 58.10875 48.58474
# Shear Modulus (GPa) = 24.03891 37.40156 30.72024
#
# Velocity S-wave (km/s) = 3.08728 3.85091 3.49004
# Velocity P-wave (km/s) = 5.30996 6.54312 5.95853
#
# Compressibility (1/GPa) = 0.02560116
#
# Stress axis : x y z
#
# Youngs Moduli (GPa) = 55.03472 141.10968 116.41237
#
# Poissons Ratio (x) = 0.56922 -0.14581
# Poissons Ratio (y) = 0.22200 0.15619
# Poissons Ratio (z) = -0.06893 0.18932
#
# Static dielectric constant tensor:
#      x y z
#    x 2.005370 0.000000 0.002490 
#    y 0.000000 2.133640 0.000000 
#    z 0.002490 0.000000 2.072000 
# 
# From -- ./inp_files/9217.got.cif
#   From: 2010.05.17/outbox.cif.g08.bks.cpg/sg9_5_cif.got.tgz:9217.got - 2010.06.03 20:04:27.
