data_PCOD9139637
_publ_section_title
;
Structure prediction by ZEFSAII (Michael W. Deem and Ramdas Pophale) SiO2 
 PCOD9139637
Probable space group: C C
;
_chemical_formula_sum "Si O2"
_cell_formula_units_Z 20
_cell_length_a 20.919098
_cell_length_b 5.000267
_cell_length_c 8.936618
_cell_angle_alpha 90.000000
_cell_angle_beta 123.345044
_cell_angle_gamma 90.000000
_cell_volume 780.892169
_symmetry_space_group_name_H-M "C C"
_symmetry_group_IT_number 9
_symmetry_cell_setting 'monoclinic'
loop_
_space_group_symop_operation_xyz
x,y,z
x,-y,1/2+z
1/2+x,1/2+y,z
1/2+x,1/2-y,1/2+z
loop_
_atom_site_type_symbol
_atom_site_label
_atom_site_fract_x
_atom_site_fract_y
_atom_site_fract_z
Si Si1 0.127480 0.669548 0.533040
Si Si2 0.976330 0.326791 0.366575
Si Si3 0.680212 0.654045 0.427630
Si Si4 0.835368 0.671610 0.181240
Si Si5 0.910461 0.988236 0.514236
O O1 0.175297 0.431495 0.513397
O O2 0.162893 0.769466 0.734680
O O3 0.046935 0.524314 0.456610
O O4 0.122266 0.932550 0.422019
O O5 0.899540 0.470269 0.320056
O O6 0.954305 0.223324 0.174958
O O7 0.976861 0.092208 0.488256
O O8 0.759849 0.494625 0.549122
O O9 0.840040 0.882335 0.322374
O O10 0.871073 0.812415 0.081792
#
# Coordination Sequence:
#
# PCOD9139637 Si02
#       5
#     4   4   4   4   4
#     4  12  32  56  86 124 176 226 284 351 436 509
#     4  11  27  48  85 118 166 223 287 350 417 510
#     4  12  32  56  86 124 176 226 284 351 436 509
#     4  11  27  48  85 118 166 223 287 350 417 510
#     4  10  26  50  82 120 168 214 300 342 426 488
#
# _framework density 25.611733999999998
#
# number of rings (size 3 to 8) (size 9 to 14) (size 15 to 20)
#    0.000    0.800    0.000    2.400   22.400    0.000 
#    0.000    0.000    0.000    0.000    0.000    0.000 
#    0.000    0.000    0.000    0.000    0.000    0.000 
#
# Total GULP energy -56056.930560 kJ/mol
# GULP energy per Si atom -5605.693056 kJ/mol
# Density = 2.555344 g / cm^3
# Si number density = 25.611734 Si / 1000 Ang^3
#
#
#
# Elastic Constant Matrix: (Units=GPa)
#
#
# Indices 1 2 3 4 5 6 
#
# 1 66.3356 34.2250 75.2184 0.0000 -2.2507 0.0000
# 2 34.2250 151.4353 83.5959 0.0000 -21.6659 0.0000
# 3 75.2184 83.5959 181.9092 0.0000 -20.7621 0.0000
# 4 0.0000 0.0000 0.0000 59.5924 0.0000 -0.9865
# 5 -2.2507 -21.6659 -20.7621 0.0000 50.1271 0.0000
# 6 0.0000 0.0000 0.0000 -0.9865 0.0000 68.1804
#
#
#
# Elastic Compliance Matrix: (Units=1/GPa)
#
#
# Indices 1 2 3 4 5 6 
#
# 1 0.029088 -0.000335 -0.012324 0.000000 -0.003943 0.000000
# 2 -0.000335 0.009100 -0.003774 0.000000 0.002355 0.000000
# 3 -0.012324 -0.003774 0.012677 0.000000 0.003066 0.000000
# 4 0.000000 0.000000 0.000000 0.016785 0.000000 0.000243
# 5 -0.003943 0.002355 0.003066 0.000000 0.022060 0.000000
# 6 0.000000 0.000000 0.000000 0.000243 0.000000 0.014670
#
#
# Mechanical properties :
#
#
# Convention : Reuss Voigt Hill
#
# Bulk Modulus (GPa) = 55.56000 87.30652 71.43326
# Shear Modulus (GPa) = 34.90492 49.35603 42.13048
#
# Velocity S-wave (km/s) = 3.69568 4.39462 4.06022
# Velocity P-wave (km/s) = 6.32068 7.74033 7.06625
#
# Compressibility (1/GPa) = 0.01799856
#
# Stress axis : x y z
#
# Youngs Moduli (GPa) = 34.37853 109.89413 78.87995
#
# Poissons Ratio (x) = 0.03683 0.97209
# Poissons Ratio (y) = 0.01152 0.29772
# Poissons Ratio (z) = 0.42367 0.41478
#
# Static dielectric constant tensor:
#      x y z
#    x 2.040600 0.000000 0.026520 
#    y 0.000000 2.209180 0.000000 
#    z 0.026520 0.000000 1.928430 
# 
# From -- ./inp_files/10239.got.cif
#   From: 2010.05.17/outbox.cif.g08.bks.cpg/sg9_6_cif.got.tgz:10239.got - 2010.06.03 20:04:27.
