data_PCOD9139650
_publ_section_title
;
Structure prediction by ZEFSAII (Michael W. Deem and Ramdas Pophale) SiO2 
 PCOD9139650
Probable space group: C C
;
_chemical_formula_sum "Si O2"
_cell_formula_units_Z 32
_cell_length_a 23.801636
_cell_length_b 5.506871
_cell_length_c 9.341047
_cell_angle_alpha 90.000000
_cell_angle_beta 76.347888
_cell_angle_gamma 90.000000
_cell_volume 1189.762723
_symmetry_space_group_name_H-M "C C"
_symmetry_group_IT_number 9
_symmetry_cell_setting 'monoclinic'
loop_
_space_group_symop_operation_xyz
x,y,z
x,-y,1/2+z
1/2+x,1/2+y,z
1/2+x,1/2-y,1/2+z
loop_
_atom_site_type_symbol
_atom_site_label
_atom_site_fract_x
_atom_site_fract_y
_atom_site_fract_z
Si Si1 0.784310 0.382166 0.913650
Si Si2 0.175506 0.820805 0.543480
Si Si3 0.514501 0.018382 0.028322
Si Si4 0.642267 0.021981 0.315590
Si Si5 0.876443 0.088371 0.009924
Si Si6 0.073968 0.891373 0.171272
Si Si7 0.848134 0.594664 0.104764
Si Si8 0.978295 0.819809 0.803739
O O1 0.814900 0.145842 0.965959
O O2 0.792765 0.400356 0.740665
O O3 0.722441 0.467942 0.002133
O O4 0.828176 0.585273 0.952405
O O5 0.185214 0.624421 0.410972
O O6 0.168158 0.694371 0.703227
O O7 0.112746 0.936881 0.550029
O O8 0.521925 0.242822 0.132101
O O9 0.492911 0.793700 0.138489
O O10 0.475365 0.094436 0.916995
O O11 0.580852 0.014340 0.932218
O O12 0.621670 0.220104 0.212845
O O13 0.880413 0.338024 0.098655
O O14 0.927058 0.006793 0.870925
O O15 0.875491 0.854629 0.112384
O O16 0.038833 0.049303 0.306347
#
# Coordination Sequence:
#
# PCOD9139650 Si02
#       8
#     4   4   4   4   4   4   4   4
#     4  10  28  52  81 118 157 219 289 354 424 499
#     4  12  27  47  79 117 169 222 271 348 433 508
#     4  12  24  47  72 118 172 213 275 338 426 528
#     4  12  24  47  71 120 173 213 273 339 424 535
#     4  10  28  52  80 118 158 215 289 349 424 492
#     4  12  24  43  74 119 167 212 272 335 420 529
#     4  10  26  53  81 114 162 204 285 359 413 500
#     4  12  27  47  80 114 170 224 272 350 432 511
#
# _framework density 26.896118000000001
#
# number of rings (size 3 to 8) (size 9 to 14) (size 15 to 20)
#    0.750    0.000    5.000    0.750    5.250    4.000 
#    0.000    0.000    0.000    0.000    0.000    0.000 
#    0.000    0.000    0.000    0.000    0.000    0.000 
#
# Total GULP energy -89321.111659 kJ/mol
# GULP energy per Si atom -5582.569479 kJ/mol
# Density = 2.683490 g / cm^3
# Si number density = 26.896118 Si / 1000 Ang^3
#
#
#
# Elastic Constant Matrix: (Units=GPa)
#
#
# Indices 1 2 3 4 5 6 
#
# 1 113.5092 46.5038 43.9580 0.0000 -25.3131 0.0000
# 2 46.5038 154.9907 57.8983 0.0000 -31.7244 0.0000
# 3 43.9580 57.8983 133.9443 0.0000 -23.7785 0.0000
# 4 0.0000 0.0000 0.0000 34.9140 0.0000 -9.6806
# 5 -25.3131 -31.7244 -23.7785 0.0000 43.0472 0.0000
# 6 0.0000 0.0000 0.0000 -9.6806 0.0000 41.1548
#
#
#
# Elastic Compliance Matrix: (Units=1/GPa)
#
#
# Indices 1 2 3 4 5 6 
#
# 1 0.011300 -0.001706 -0.002234 0.000000 0.004154 0.000000
# 2 -0.001706 0.008724 -0.002492 0.000000 0.004049 0.000000
# 3 -0.002234 -0.002492 0.009665 0.000000 0.002188 0.000000
# 4 0.000000 0.000000 0.000000 0.030640 0.000000 0.007207
# 5 0.004154 0.004049 0.002188 0.000000 0.029866 0.000000
# 6 0.000000 0.000000 0.000000 0.007207 0.000000 0.025994
#
#
# Mechanical properties :
#
#
# Convention : Reuss Voigt Hill
#
# Bulk Modulus (GPa) = 59.43581 77.68494 68.56038
# Shear Modulus (GPa) = 37.13055 40.76214 38.94635
#
# Velocity S-wave (km/s) = 3.71956 3.89722 3.80943
# Velocity P-wave (km/s) = 6.37127 7.01406 6.70038
#
# Compressibility (1/GPa) = 0.01682487
#
# Stress axis : x y z
#
# Youngs Moduli (GPa) = 88.49490 114.63105 103.47036
#
# Poissons Ratio (x) = 0.19554 0.23112
# Poissons Ratio (y) = 0.15096 0.25787
# Poissons Ratio (z) = 0.19767 0.28568
#
# Static dielectric constant tensor:
#      x y z
#    x 2.099700 0.000000 0.018780 
#    y 0.000000 2.229070 0.000000 
#    z 0.018780 0.000000 2.138430 
# 
# From -- ./inp_files/12630.got.cif
#   From: 2010.05.17/outbox.cif.g08.bks.cpg/sg9_7_cif.got.tgz:12630.got - 2010.06.03 20:04:27.
