data_PCOD9139183
_publ_section_title
;
Structure prediction by ZEFSAII (Michael W. Deem and Ramdas Pophale) SiO2 
 PCOD9139183
Probable space group: C C
;
_chemical_formula_sum "Si O2"
_cell_formula_units_Z 28
_cell_length_a 5.096507
_cell_length_b 19.896217
_cell_length_c 11.975250
_cell_angle_alpha 90.000000
_cell_angle_beta 77.728814
_cell_angle_gamma 90.000000
_cell_volume 1186.561103
_symmetry_space_group_name_H-M "C C"
_symmetry_group_IT_number 9
_symmetry_cell_setting 'monoclinic'
loop_
_space_group_symop_operation_xyz
x,y,z
x,-y,1/2+z
1/2+x,1/2+y,z
1/2+x,1/2-y,1/2+z
loop_
_atom_site_type_symbol
_atom_site_label
_atom_site_fract_x
_atom_site_fract_y
_atom_site_fract_z
Si Si1 0.706180 0.815147 0.684390
Si Si2 0.269475 0.808261 0.052962
Si Si3 0.869164 0.866715 0.261416
Si Si4 0.124091 0.228230 0.330793
Si Si5 0.977990 0.454794 0.692172
Si Si6 0.148621 0.423863 0.050006
Si Si7 0.918559 0.011399 0.333330
O O1 0.844521 0.767612 0.578953
O O2 0.405461 0.795185 0.750770
O O3 0.646145 0.889120 0.643493
O O4 0.891012 0.801413 0.775019
O O5 0.489956 0.863783 0.006089
O O6 0.130600 0.833162 0.180298
O O7 0.091269 0.799101 0.959130
O O8 0.671703 0.809349 0.327294
O O9 0.735899 0.896246 0.161577
O O10 0.951185 0.930386 0.329459
O O11 0.976794 0.510601 0.595834
O O12 0.145050 0.477035 0.787611
O O13 0.667604 0.451145 0.753172
O O14 0.385507 0.453910 0.955229
#
# Coordination Sequence:
#
# PCOD9139183 Si02
#       7
#     4   4   4   4   4   4   4
#     4  11  25  44  67 107 142 184 258 316 365 468
#     4  11  24  44  73 100 151 200 247 313 401 455
#     4  10  24  46  66 106 148 186 262 314 366 480
#     4  11  25  42  73 100 144 195 251 308 386 455
#     4  11  25  44  67 107 142 184 258 316 365 468
#     4  11  24  44  73 100 151 200 247 313 401 455
#     4  11  25  42  73 100 144 195 251 308 386 455
#
# _framework density 23.597607
#
# number of rings (size 3 to 8) (size 9 to 14) (size 15 to 20)
#    0.000    1.143    2.857    1.714   10.000    0.000 
#    0.000    0.000    6.286    0.000    0.000    0.000 
#    0.000    0.000    0.000    0.000    0.000    0.000 
#
# Total GULP energy -78171.446103 kJ/mol
# GULP energy per Si atom -5583.674722 kJ/mol
# Density = 2.354390 g / cm^3
# Si number density = 23.597607 Si / 1000 Ang^3
#
#
#
# Elastic Constant Matrix: (Units=GPa)
#
#
# Indices 1 2 3 4 5 6 
#
# 1 82.2214 19.6379 15.2651 0.0000 3.4654 0.0000
# 2 19.6379 137.8585 42.7897 0.0000 -7.7633 0.0000
# 3 15.2651 42.7897 64.1668 0.0000 -1.6867 0.0000
# 4 0.0000 0.0000 0.0000 -45.6107 0.0000 2.8981
# 5 3.4654 -7.7633 -1.6867 0.0000 34.7208 0.0000
# 6 0.0000 0.0000 0.0000 2.8981 0.0000 29.9325
#
#
#
# Elastic Compliance Matrix: (Units=1/GPa)
#
#
# Indices 1 2 3 4 5 6 
#
# 1 0.012954 -0.001223 -0.002311 0.000000 -0.001679 0.000000
# 2 -0.001223 0.009370 -0.005907 0.000000 0.001930 0.000000
# 3 -0.002311 -0.005907 0.020070 0.000000 -0.000115 0.000000
# 4 0.000000 0.000000 0.000000 -0.021791 0.000000 0.002110
# 5 -0.001679 0.001930 -0.000115 0.000000 0.029395 0.000000
# 6 0.000000 0.000000 0.000000 0.002110 0.000000 0.033204
#
#
# Mechanical properties :
#
#
# Convention : Reuss Voigt Hill
#
# Bulk Modulus (GPa) = 42.52774 48.84803 45.68788
# Shear Modulus (GPa) = 45.48740 17.57878 31.53309
#
# Velocity S-wave (km/s) = 4.39524 2.73232 3.65949
# Velocity P-wave (km/s) = 6.61957 5.54071 6.10402
#
# Compressibility (1/GPa) = 0.02351406
#
# Stress axis : x y z
#
# Youngs Moduli (GPa) = 77.19611 106.72240 49.82553
#
# Poissons Ratio (x) = 0.13049 0.11512
# Poissons Ratio (y) = 0.09439 0.29431
# Poissons Ratio (z) = 0.17836 0.63039
#
# Static dielectric constant tensor:
#      x y z
#    x 1.902090 0.000000 -0.028450 
#    y 0.000000 2.053280 0.000000 
#    z -0.028450 0.000000 1.900930 
# 
# From -- ./inp_files/13179.got.cif
#   From: 2010.05.17/outbox.cif.g08.bks.cpg/sg9_7_cif.got.tgz:13179.got - 2010.06.03 20:04:27.
