data_PCOD9139381
_publ_section_title
;
Structure prediction by ZEFSAII (Michael W. Deem and Ramdas Pophale) SiO2 
 PCOD9139381
Probable space group: C C
;
_chemical_formula_sum "Si O2"
_cell_formula_units_Z 32
_cell_length_a 30.256511
_cell_length_b 5.199011
_cell_length_c 9.216231
_cell_angle_alpha 90.000000
_cell_angle_beta 68.567319
_cell_angle_gamma 90.000000
_cell_volume 1349.495655
_symmetry_space_group_name_H-M "C C"
_symmetry_group_IT_number 9
_symmetry_cell_setting 'monoclinic'
loop_
_space_group_symop_operation_xyz
x,y,z
x,-y,1/2+z
1/2+x,1/2+y,z
1/2+x,1/2-y,1/2+z
loop_
_atom_site_type_symbol
_atom_site_label
_atom_site_fract_x
_atom_site_fract_y
_atom_site_fract_z
Si Si1 0.826000 0.764825 0.981580
Si Si2 0.465335 0.498905 0.228745
Si Si3 0.862431 0.726616 0.609802
Si Si4 0.172310 0.450900 0.422730
Si Si5 0.630863 0.703746 0.716541
Si Si6 0.214374 0.205066 0.113501
Si Si7 0.523303 0.233751 0.409921
Si Si8 0.447539 0.869033 0.502899
O O1 0.847076 0.763234 0.794207
O O2 0.843127 0.535803 0.063940
O O3 0.770470 0.686890 0.031116
O O4 0.841195 0.034120 0.042188
O O5 0.497631 0.333953 0.296880
O O6 0.439240 0.702054 0.367152
O O7 0.435918 0.306407 0.157993
O O8 0.500605 0.647810 0.080614
O O9 0.918138 0.637460 0.540935
O O10 0.127689 0.343156 0.564262
O O11 0.154606 0.639041 0.319331
O O12 0.204734 0.255986 0.294787
O O13 0.203128 0.571395 0.512570
O O14 0.670605 0.489016 0.634564
O O15 0.577352 0.676032 0.833048
O O16 0.503960 0.938665 0.439590
#
# Coordination Sequence:
#
# PCOD9139381 Si02
#       8
#     4   4   4   4   4   4   4   4
#     4  12  30  52  86 119 161 213 274 341 420 494
#     4  10  26  46  75 110 156 209 263 322 413 475
#     4  12  31  53  85 121 162 210 281 338 417 499
#     4  10  25  42  72 104 148 193 255 313 404 464
#     4  11  26  42  74 109 152 201 262 326 400 478
#     4  11  25  47  76 107 154 196 259 325 402 484
#     4  11  26  43  76 105 155 206 265 329 401 484
#     4  11  27  49  78 111 162 210 271 338 407 494
#
# _framework density 23.712561999999998
#
# number of rings (size 3 to 8) (size 9 to 14) (size 15 to 20)
#    0.000    1.000    0.000    3.000   21.000    2.000 
#    0.000    0.000    0.000    0.000    0.000    0.000 
#    0.000    0.000    0.000    0.000    0.000    0.000 
#
# Total GULP energy -89283.816173 kJ/mol
# GULP energy per Si atom -5580.238511 kJ/mol
# Density = 2.365859 g / cm^3
# Si number density = 23.712562 Si / 1000 Ang^3
#
#
#
# Elastic Constant Matrix: (Units=GPa)
#
#
# Indices 1 2 3 4 5 6 
#
# 1 114.9676 16.8952 42.5477 0.0000 -22.5130 0.0000
# 2 16.8952 86.5817 22.5435 0.0000 7.8643 0.0000
# 3 42.5477 22.5435 139.0834 0.0000 26.9204 0.0000
# 4 0.0000 0.0000 0.0000 41.9488 0.0000 9.2681
# 5 -22.5130 7.8643 26.9204 0.0000 34.3584 0.0000
# 6 0.0000 0.0000 0.0000 9.2681 0.0000 21.6440
#
#
#
# Elastic Compliance Matrix: (Units=1/GPa)
#
#
# Indices 1 2 3 4 5 6 
#
# 1 0.014871 -0.002468 -0.007243 0.000000 0.015984 0.000000
# 2 -0.002468 0.012530 -0.000481 0.000000 -0.004108 0.000000
# 3 -0.007243 -0.000481 0.012237 0.000000 -0.014224 0.000000
# 4 0.000000 0.000000 0.000000 0.026330 0.000000 -0.011275
# 5 0.015984 -0.004108 -0.014224 0.000000 0.051663 0.000000
# 6 0.000000 0.000000 0.000000 -0.011275 0.000000 0.051030
#
#
# Mechanical properties :
#
#
# Convention : Reuss Voigt Hill
#
# Bulk Modulus (GPa) = 51.93694 56.06727 54.00210
# Shear Modulus (GPa) = 25.58033 36.83334 31.20684
#
# Velocity S-wave (km/s) = 3.28802 3.94550 3.63167
# Velocity P-wave (km/s) = 6.03034 6.66722 6.35676
#
# Compressibility (1/GPa) = 0.01925412
#
# Stress axis : x y z
#
# Youngs Moduli (GPa) = 67.24279 79.81040 81.72103
#
# Poissons Ratio (x) = 0.19696 0.59193
# Poissons Ratio (y) = 0.16595 0.03929
# Poissons Ratio (z) = 0.48706 0.03837
#
# Static dielectric constant tensor:
#      x y z
#    x 2.077340 0.000000 -0.073410 
#    y 0.000000 2.104510 0.000000 
#    z -0.073410 0.000000 1.874600 
# 
# From -- ./inp_files/12573.got.cif
#   From: 2010.05.17/outbox.cif.g08.bks.cpg/sg9_7_cif.got.tgz:12573.got - 2010.06.03 20:04:27.
