data_PCOD9139976
_publ_section_title
;
Structure prediction by ZEFSAII (Michael W. Deem and Ramdas Pophale) SiO2 
 PCOD9139976
Probable space group: C C
;
_chemical_formula_sum "Si O2"
_cell_formula_units_Z 32
_cell_length_a 16.638959
_cell_length_b 22.706578
_cell_length_c 9.360958
_cell_angle_alpha 90.000000
_cell_angle_beta 25.299258
_cell_angle_gamma 90.000000
_cell_volume 1511.394850
_symmetry_space_group_name_H-M "C C"
_symmetry_group_IT_number 9
_symmetry_cell_setting 'monoclinic'
loop_
_space_group_symop_operation_xyz
x,y,z
x,-y,1/2+z
1/2+x,1/2+y,z
1/2+x,1/2-y,1/2+z
loop_
_atom_site_type_symbol
_atom_site_label
_atom_site_fract_x
_atom_site_fract_y
_atom_site_fract_z
Si Si1 0.752660 0.486247 0.907560
Si Si2 0.286012 0.307524 0.693823
Si Si3 0.246497 0.620411 0.539856
Si Si4 0.472116 0.402088 0.214415
Si Si5 0.431405 0.181262 0.552894
Si Si6 0.576620 0.386639 0.731607
Si Si7 0.487351 0.091336 0.203887
Si Si8 0.664880 0.010973 0.120080
O O1 0.799750 0.445300 0.968965
O O2 0.955798 0.505500 0.520759
O O3 0.648767 0.443232 0.965189
O O4 0.633042 0.544350 0.130287
O O5 0.443213 0.350334 0.373437
O O6 0.362744 0.242526 0.596981
O O7 0.231008 0.334968 0.934879
O O8 0.111933 0.309394 0.863351
O O9 0.430035 0.629500 0.342625
O O10 0.250770 0.553684 0.473023
O O11 0.067501 0.621938 0.933722
O O12 0.292915 0.445462 0.505909
O O13 0.489213 0.376907 0.027748
O O14 0.470659 0.136198 0.360209
O O15 0.263704 0.151611 0.911983
O O16 0.639164 0.042135 0.008379
#
# Coordination Sequence:
#
# PCOD9139976 Si02
#       8
#     4   4   4   4   4   4   4   4
#     4  11  25  38  72 110 150 187 236 288 367 430
#     4  12  29  50  72 102 142 198 243 302 358 429
#     4  11  26  41  72 103 144 188 235 290 363 424
#     4  12  26  44  72 109 149 190 241 294 362 434
#     4  12  28  51  74  98 145 191 251 298 360 430
#     4  12  24  44  69 110 143 188 238 296 356 433
#     4  11  24  46  70 103 144 190 233 299 358 427
#     4  11  22  44  67 107 151 188 223 297 362 433
#
# _framework density 21.172495999999999
#
# number of rings (size 3 to 8) (size 9 to 14) (size 15 to 20)
#    0.000    0.500    5.000    1.500   14.000    1.000 
#    0.000    2.500    0.000    0.000    0.000    0.000 
#    0.000    0.000    0.000    0.000    0.000    0.000 
#
# Total GULP energy -89564.094410 kJ/mol
# GULP energy per Si atom -5597.755901 kJ/mol
# Density = 2.112431 g / cm^3
# Si number density = 21.172496 Si / 1000 Ang^3
#
#
#
# Elastic Constant Matrix: (Units=GPa)
#
#
# Indices 1 2 3 4 5 6 
#
# 1 111.6126 42.9888 24.1192 0.0053 3.8395 0.0063
# 2 42.9888 104.5647 29.9488 0.0249 -1.4701 0.0047
# 3 24.1192 29.9488 77.4213 0.0089 7.8495 0.0220
# 4 0.0053 0.0249 0.0089 23.7616 0.0171 -7.2782
# 5 3.8395 -1.4701 7.8495 0.0171 29.0999 -0.0054
# 6 0.0063 0.0047 0.0220 -7.2782 -0.0054 42.0300
#
#
#
# Elastic Compliance Matrix: (Units=1/GPa)
#
#
# Indices 1 2 3 4 5 6 
#
# 1 0.010918 -0.004009 -0.001731 0.000003 -0.001176 0.000000
# 2 -0.004009 0.012311 -0.003732 -0.000012 0.002158 -0.000001
# 3 -0.001731 -0.003732 0.015314 -0.000001 -0.004091 -0.000008
# 4 0.000003 -0.000012 -0.000001 0.044442 -0.000025 0.007696
# 5 -0.001176 0.002158 -0.004091 -0.000025 0.035732 0.000002
# 6 0.000000 -0.000001 -0.000008 0.007696 0.000002 0.025125
#
#
# Mechanical properties :
#
#
# Convention : Reuss Voigt Hill
#
# Bulk Modulus (GPa) = 51.02489 54.19024 52.60757
# Shear Modulus (GPa) = 29.52971 32.08108 30.80540
#
# Velocity S-wave (km/s) = 3.73865 3.89681 3.81855
# Velocity P-wave (km/s) = 6.54130 6.77474 6.65904
#
# Compressibility (1/GPa) = 0.01959828
#
# Stress axis : x y z
#
# Youngs Moduli (GPa) = 91.58828 81.22772 65.29940
#
# Poissons Ratio (x) = 0.32568 0.11305
# Poissons Ratio (y) = 0.36722 0.24369
# Poissons Ratio (z) = 0.15856 0.30314
#
# Static dielectric constant tensor:
#      x y z
#    x 1.792070 0.000000 -0.001630 
#    y 0.000000 1.732130 0.000000 
#    z -0.001630 0.000000 1.769230 
# 
# From -- ./inp_files/6090.got.cif
#   From: 2010.05.17/outbox.cif.g08.bks.cpg/sg9_4_cif.got.tgz:6090.got - 2010.06.03 20:04:27.
