data_PCOD9139844
_publ_section_title
;
Structure prediction by ZEFSAII (Michael W. Deem and Ramdas Pophale) SiO2 
 PCOD9139844
Probable space group: C C
;
_chemical_formula_sum "Si O2"
_cell_formula_units_Z 32
_cell_length_a 10.255002
_cell_length_b 14.722944
_cell_length_c 10.764361
_cell_angle_alpha 90.000000
_cell_angle_beta 125.852950
_cell_angle_gamma 90.000000
_cell_volume 1317.297732
_symmetry_space_group_name_H-M "C C"
_symmetry_group_IT_number 9
_symmetry_cell_setting 'monoclinic'
loop_
_space_group_symop_operation_xyz
x,y,z
x,-y,1/2+z
1/2+x,1/2+y,z
1/2+x,1/2-y,1/2+z
loop_
_atom_site_type_symbol
_atom_site_label
_atom_site_fract_x
_atom_site_fract_y
_atom_site_fract_z
Si Si1 0.976240 0.082111 0.534760
Si Si2 0.220306 0.946722 0.376986
Si Si3 0.545285 0.860285 0.639768
Si Si4 0.200460 0.472255 0.310206
Si Si5 0.291078 0.324633 0.559046
Si Si6 0.716485 0.141334 0.599456
Si Si7 0.512288 0.279019 0.337116
Si Si8 0.118673 0.149951 0.381027
O O1 0.844072 0.106178 0.567120
O O2 0.021050 0.155607 0.457443
O O3 0.884950 0.005697 0.404591
O O4 0.137234 0.053198 0.695070
O O5 0.197603 0.049516 0.413185
O O6 0.395650 0.901396 0.480812
O O7 0.116461 0.870619 0.392793
O O8 0.694580 0.838523 0.634299
O O9 0.512188 0.770946 0.702619
O O10 0.591564 0.938804 0.765213
O O11 0.209905 0.400635 0.425264
O O12 0.146429 0.436535 0.145820
O O13 0.480767 0.337508 0.697826
O O14 0.250336 0.228090 0.473987
O O15 0.588855 0.208239 0.472206
O O16 0.829578 0.195901 0.758587
#
# Coordination Sequence:
#
# PCOD9139844 Si02
#       8
#     4   4   4   4   4   4   4   4
#     4  11  21  44  76  99 139 191 240 288 361 430
#     4  11  26  46  72 111 141 187 241 307 357 427
#     4  12  26  44  76 109 140 193 247 299 355 443
#     4  12  25  46  70 102 151 190 237 297 373 423
#     4  12  28  47  73 108 149 196 242 301 369 437
#     4  11  23  42  69 102 136 187 236 291 349 431
#     4  11  22  44  73 102 137 178 246 292 355 422
#     4  12  27  49  75 107 151 192 243 305 369 431
#
# _framework density 24.292154
#
# number of rings (size 3 to 8) (size 9 to 14) (size 15 to 20)
#    0.000    0.500    5.000    3.750    5.250    1.000 
#    2.250    0.000    0.000    0.000    0.000    0.000 
#    0.000    0.000    0.000    0.000    0.000    0.000 
#
# Total GULP energy -89446.272031 kJ/mol
# GULP energy per Si atom -5590.392002 kJ/mol
# Density = 2.423686 g / cm^3
# Si number density = 24.292154 Si / 1000 Ang^3
#
#
#
# Elastic Constant Matrix: (Units=GPa)
#
#
# Indices 1 2 3 4 5 6 
#
# 1 43.4457 12.3030 1.1694 0.0000 -0.0872 0.0000
# 2 12.3030 141.8196 31.1664 0.0000 0.6995 0.0000
# 3 1.1694 31.1664 86.4969 0.0000 22.6919 0.0000
# 4 0.0000 0.0000 0.0000 53.9844 0.0000 6.3432
# 5 -0.0872 0.6995 22.6919 0.0000 39.9444 0.0000
# 6 0.0000 0.0000 0.0000 6.3432 0.0000 29.6667
#
#
#
# Elastic Compliance Matrix: (Units=1/GPa)
#
#
# Indices 1 2 3 4 5 6 
#
# 1 0.023615 -0.002160 0.000512 0.000000 -0.000201 0.000000
# 2 -0.002160 0.007953 -0.003289 0.000000 0.001724 0.000000
# 3 0.000512 -0.003289 0.014952 0.000000 -0.008435 0.000000
# 4 0.000000 0.000000 0.000000 0.019001 0.000000 -0.004063
# 5 -0.000201 0.001724 -0.008435 0.000000 0.029796 0.000000
# 6 0.000000 0.000000 0.000000 -0.004063 0.000000 0.034577
#
#
# Mechanical properties :
#
#
# Convention : Reuss Voigt Hill
#
# Bulk Modulus (GPa) = 27.28816 40.11552 33.70184
# Shear Modulus (GPa) = 32.89847 39.86067 36.37957
#
# Velocity S-wave (km/s) = 3.68405 4.05518 3.87406
# Velocity P-wave (km/s) = 5.41794 6.20287 5.82364
#
# Compressibility (1/GPa) = 0.03664593
#
# Stress axis : x y z
#
# Youngs Moduli (GPa) = 42.34637 125.74159 66.88011
#
# Poissons Ratio (x) = 0.27161 -0.03424
# Poissons Ratio (y) = 0.09147 0.21995
# Poissons Ratio (z) = -0.02168 0.41352
#
# Static dielectric constant tensor:
#      x y z
#    x 1.919550 0.000000 -0.034280 
#    y 0.000000 1.993770 0.000000 
#    z -0.034280 0.000000 1.976660 
# 
# From -- ./inp_files/16887.got.cif
#   From: 2010.05.17/outbox.cif.g08.bks.cpg/sg9_9_cif.got.tgz:16887.got - 2010.06.03 20:04:27.
