data_PCOD9139924
_publ_section_title
;
Structure prediction by ZEFSAII (Michael W. Deem and Ramdas Pophale) SiO2 
 PCOD9139924
Probable space group: C C
;
_chemical_formula_sum "Si O2"
_cell_formula_units_Z 28
_cell_length_a 15.630531
_cell_length_b 7.513031
_cell_length_c 19.573059
_cell_angle_alpha 90.000000
_cell_angle_beta 31.213246
_cell_angle_gamma 90.000000
_cell_volume 1191.148104
_symmetry_space_group_name_H-M "C C"
_symmetry_group_IT_number 9
_symmetry_cell_setting 'monoclinic'
loop_
_space_group_symop_operation_xyz
x,y,z
x,-y,1/2+z
1/2+x,1/2+y,z
1/2+x,1/2-y,1/2+z
loop_
_atom_site_type_symbol
_atom_site_label
_atom_site_fract_x
_atom_site_fract_y
_atom_site_fract_z
Si Si1 0.890200 0.030207 0.451850
Si Si2 0.298520 0.689880 0.800720
Si Si3 0.916472 0.769125 0.077153
Si Si4 0.825665 0.576410 0.579622
Si Si5 0.087278 0.667610 0.300225
Si Si6 0.523856 0.997049 0.698828
Si Si7 0.512031 0.398366 0.731568
O O1 0.882292 0.131415 0.528889
O O2 0.956162 0.153627 0.346353
O O3 0.712466 0.956676 0.552007
O O4 0.007751 0.861626 0.367145
O O5 0.333457 0.635474 0.698182
O O6 0.400418 0.872030 0.742868
O O7 0.382268 0.535941 0.788603
O O8 0.111870 0.736515 0.948010
O O9 0.831623 0.576809 0.131617
O O10 0.768905 0.764051 0.651703
O O11 0.686002 0.505438 0.621020
O O12 0.007083 0.574473 0.421151
O O13 0.014157 0.564353 0.284807
O O14 0.512041 0.208631 0.694556
#
# Coordination Sequence:
#
# PCOD9139924 Si02
#       7
#     4   4   4   4   4   4   4
#     4  11  22  46  74 105 139 199 256 295 363 451
#     4  12  27  48  71 110 162 187 237 324 389 418
#     4  12  28  48  71 110 160 193 238 326 385 430
#     4  11  23  44  75 105 146 193 255 297 368 445
#     4  11  22  41  74 108 134 188 258 305 342 437
#     4  12  24  43  78 104 141 196 252 304 359 454
#     4  11  24  46  79 106 138 202 260 289 362 469
#
# _framework density 23.506733000000001
#
# number of rings (size 3 to 8) (size 9 to 14) (size 15 to 20)
#    0.000    0.571    5.714    3.429    4.000    0.000 
#    7.714    0.000    0.000    0.000    0.000    0.000 
#    0.000    0.000    0.000    0.000    0.000    0.000 
#
# Total GULP energy -78181.169153 kJ/mol
# GULP energy per Si atom -5584.369225 kJ/mol
# Density = 2.345323 g / cm^3
# Si number density = 23.506733 Si / 1000 Ang^3
#
#
#
# Elastic Constant Matrix: (Units=GPa)
#
#
# Indices 1 2 3 4 5 6 
#
# 1 55.8043 19.5888 33.5787 -0.0001 6.3190 0.0000
# 2 19.5888 106.5136 16.0844 0.0000 -2.2208 0.0001
# 3 33.5787 16.0844 140.4015 0.0002 -2.9373 0.0000
# 4 -0.0001 0.0000 0.0002 25.7210 0.0000 4.5292
# 5 6.3190 -2.2208 -2.9373 0.0000 44.9151 0.0000
# 6 0.0000 0.0001 0.0000 4.5292 0.0000 38.3068
#
#
#
# Elastic Compliance Matrix: (Units=1/GPa)
#
#
# Indices 1 2 3 4 5 6 
#
# 1 0.022617 -0.003468 -0.005089 0.000000 -0.003686 0.000000
# 2 -0.003468 0.010093 -0.000307 0.000000 0.000967 0.000000
# 3 -0.005089 -0.000307 0.008401 0.000000 0.001250 0.000000
# 4 0.000000 0.000000 0.000000 0.039705 0.000000 -0.004695
# 5 -0.003686 0.000967 0.001250 0.000000 0.022912 0.000000
# 6 0.000000 0.000000 0.000000 -0.004695 0.000000 0.026660
#
#
# Mechanical properties :
#
#
# Convention : Reuss Voigt Hill
#
# Bulk Modulus (GPa) = 42.76527 49.02479 45.89503
# Shear Modulus (GPa) = 32.06999 37.35307 34.71153
#
# Velocity S-wave (km/s) = 3.69764 3.99060 3.84691
# Velocity P-wave (km/s) = 6.03840 6.49108 6.26883
#
# Compressibility (1/GPa) = 0.02338346
#
# Stress axis : x y z
#
# Youngs Moduli (GPa) = 44.21541 99.08158 119.03663
#
# Poissons Ratio (x) = 0.34359 0.60576
# Poissons Ratio (y) = 0.15333 0.03650
# Poissons Ratio (z) = 0.22501 0.03038
#
# Static dielectric constant tensor:
#      x y z
#    x 1.914120 0.000000 0.036660 
#    y 0.000000 1.886880 0.000000 
#    z 0.036660 0.000000 1.974060 
# 
# From -- ./inp_files/33648.got.cif
#   From: 2010.05.17/outbox.cif.g08.bks.cpg/sg9_17_cif.got.tgz:33648.got - 2010.06.03 20:04:27.
