data_PCOD9139672
_publ_section_title
;
Structure prediction by ZEFSAII (Michael W. Deem and Ramdas Pophale) SiO2 
 PCOD9139672
Probable space group: C C
;
_chemical_formula_sum "Si O2"
_cell_formula_units_Z 32
_cell_length_a 15.246838
_cell_length_b 17.706344
_cell_length_c 13.507034
_cell_angle_alpha 90.000000
_cell_angle_beta 27.664211
_cell_angle_gamma 90.000000
_cell_volume 1693.000098
_symmetry_space_group_name_H-M "C C"
_symmetry_group_IT_number 9
_symmetry_cell_setting 'monoclinic'
loop_
_space_group_symop_operation_xyz
x,y,z
x,-y,1/2+z
1/2+x,1/2+y,z
1/2+x,1/2-y,1/2+z
loop_
_atom_site_type_symbol
_atom_site_label
_atom_site_fract_x
_atom_site_fract_y
_atom_site_fract_z
Si Si1 0.079520 0.581379 0.767930
Si Si2 0.731936 0.085444 0.390214
Si Si3 0.576849 0.468110 0.053968
Si Si4 0.277713 0.248079 0.883744
Si Si5 0.227058 0.030666 0.619131
Si Si6 0.336157 0.905508 0.203037
Si Si7 0.019293 0.748727 0.796659
Si Si8 0.968634 0.901470 0.971235
O O1 0.158235 0.583915 0.577122
O O2 0.005582 0.666175 0.859600
O O3 0.251326 0.574991 0.672257
O O4 0.922120 0.517025 0.922558
O O5 0.895269 0.023550 0.227344
O O6 0.793098 0.171882 0.312659
O O7 0.557842 0.076731 0.490257
O O8 0.643260 0.445512 0.097084
O O9 0.740934 0.522326 0.849530
O O10 0.533475 0.401521 0.020214
O O11 0.284544 0.169396 0.816661
O O12 0.270641 0.251114 0.016804
O O13 0.027190 0.251525 0.162665
O O14 0.081580 0.969089 0.806486
O O15 0.259904 0.095604 0.667402
O O16 0.012968 0.824227 0.869237
#
# Coordination Sequence:
#
# PCOD9139672 Si02
#       8
#     4   4   4   4   4   4   4   4
#     4  11  20  34  58  83 114 144 177 231 281 323
#     4  11  20  34  58  83 114 144 177 231 281 323
#     4  11  22  37  55  81 118 147 187 221 271 337
#     4  11  18  31  55  83 112 135 176 229 277 323
#     4  11  22  37  55  81 118 147 187 221 271 337
#     4  11  22  35  55  86 112 151 179 227 282 322
#     4  11  18  31  55  83 112 135 176 229 277 323
#     4  11  22  35  55  86 112 151 179 227 282 322
#
# _framework density 18.901357000000001
#
# number of rings (size 3 to 8) (size 9 to 14) (size 15 to 20)
#    0.000    1.000    7.500    3.000    0.000    0.000 
#    0.000    0.000    0.000    1.500    0.000    0.000 
#    0.000    0.000    0.000    0.000    0.000    0.000 
#
# Total GULP energy -89123.734723 kJ/mol
# GULP energy per Si atom -5570.233420 kJ/mol
# Density = 1.885834 g / cm^3
# Si number density = 18.901357 Si / 1000 Ang^3
#
#
#
# Elastic Constant Matrix: (Units=GPa)
#
#
# Indices 1 2 3 4 5 6 
#
# 1 136.5993 32.9614 4.5044 -0.0013 9.2967 -0.0138
# 2 32.9614 72.3009 6.9098 -0.0006 2.4683 -0.0082
# 3 4.5044 6.9098 33.8639 -0.0207 -15.6519 -0.0020
# 4 -0.0013 -0.0006 -0.0207 14.8698 -0.0003 0.1814
# 5 9.2967 2.4683 -15.6519 -0.0003 20.6994 0.0040
# 6 -0.0138 -0.0082 -0.0020 0.1814 0.0040 34.2398
#
#
#
# Elastic Compliance Matrix: (Units=1/GPa)
#
#
# Indices 1 2 3 4 5 6 
#
# 1 0.008655 -0.003444 -0.003160 -0.000004 -0.005866 0.000003
# 2 -0.003444 0.015966 -0.004558 -0.000006 -0.003804 0.000003
# 3 -0.003160 -0.004558 0.048866 0.000068 0.038913 -0.000004
# 4 -0.000004 -0.000006 0.000068 0.067255 0.000055 -0.000356
# 5 -0.005866 -0.003804 0.038913 0.000055 0.080823 -0.000011
# 6 0.000003 0.000003 -0.000004 -0.000356 -0.000011 0.029208
#
#
# Mechanical properties :
#
#
# Convention : Reuss Voigt Hill
#
# Bulk Modulus (GPa) = 19.54472 36.83502 28.18987
# Shear Modulus (GPa) = 17.23240 27.18768 22.21004
#
# Velocity S-wave (km/s) = 3.02272 3.79674 3.43162
# Velocity P-wave (km/s) = 4.74818 6.22500 5.53606
#
# Compressibility (1/GPa) = 0.05116472
#
# Stress axis : x y z
#
# Youngs Moduli (GPa) = 115.53980 62.63146 20.46409
#
# Poissons Ratio (x) = 0.21567 0.06466
# Poissons Ratio (y) = 0.39786 0.09328
# Poissons Ratio (z) = 0.36509 0.28548
#
# Static dielectric constant tensor:
#      x y z
#    x 1.781390 -0.000010 -0.224870 
#    y -0.000010 1.600060 0.000020 
#    z -0.224870 0.000020 2.134480 
# 
# From -- ./inp_files/9847.got.cif
#   From: 2010.05.17/outbox.cif.g08.bks.cpg/sg9_5_cif.got.tgz:9847.got - 2010.06.03 20:04:27.
