data_PCOD9139086
_publ_section_title
;
Structure prediction by ZEFSAII (Michael W. Deem and Ramdas Pophale) SiO2 
 PCOD9139086
Probable space group: C C
;
_chemical_formula_sum "Si O2"
_cell_formula_units_Z 32
_cell_length_a 12.573795
_cell_length_b 11.248230
_cell_length_c 12.251795
_cell_angle_alpha 90.000000
_cell_angle_beta 52.548779
_cell_angle_gamma 90.000000
_cell_volume 1375.626077
_symmetry_space_group_name_H-M "C C"
_symmetry_group_IT_number 9
_symmetry_cell_setting 'monoclinic'
loop_
_space_group_symop_operation_xyz
x,y,z
x,-y,1/2+z
1/2+x,1/2+y,z
1/2+x,1/2-y,1/2+z
loop_
_atom_site_type_symbol
_atom_site_label
_atom_site_fract_x
_atom_site_fract_y
_atom_site_fract_z
Si Si1 0.969130 0.684237 0.911710
Si Si2 0.475271 0.175525 0.298684
Si Si3 0.259455 0.964627 0.051427
Si Si4 0.133518 0.847628 0.331415
Si Si5 0.618094 0.961883 0.138290
Si Si6 0.783945 0.183616 0.373532
Si Si7 0.863230 0.943329 0.601046
Si Si8 0.514424 0.341483 0.083171
O O1 0.849043 0.585513 0.001905
O O2 0.900760 0.791796 0.886947
O O3 0.077482 0.622917 0.764420
O O4 0.036734 0.738082 0.978748
O O5 0.365026 0.138836 0.454807
O O6 0.602407 0.224916 0.286391
O O7 0.499020 0.057730 0.210679
O O8 0.453459 0.281600 0.228958
O O9 0.138127 0.928843 0.042083
O O10 0.195144 0.941156 0.209579
O O11 0.233742 0.812279 0.364304
O O12 0.991646 0.885743 0.465593
O O13 0.743602 0.044378 0.090602
O O14 0.661071 0.885715 0.007397
O O15 0.835659 0.116817 0.234587
O O16 0.901626 0.077357 0.603497
#
# Coordination Sequence:
#
# PCOD9139086 Si02
#       8
#     4   4   4   4   4   4   4   4
#     4  11  26  47  70 106 144 190 233 299 363 423
#     4  10  24  44  70 103 134 187 234 290 359 421
#     4  10  25  45  71 102 144 184 246 289 351 440
#     4  11  24  44  73  98 140 187 232 298 356 423
#     4  11  26  45  68 104 137 179 237 290 351 430
#     4  12  25  45  72 100 144 182 237 297 358 429
#     4  12  26  44  68 106 134 181 237 288 352 433
#     4  11  26  42  72 103 141 188 230 297 360 429
#
# _framework density 23.262138
#
# number of rings (size 3 to 8) (size 9 to 14) (size 15 to 20)
#    0.000    1.000    2.500    2.250    8.750    4.000 
#    0.000    0.000    0.000    0.000    0.000    0.000 
#    0.000    0.000    0.000    0.000    0.000    0.000 
#
# Total GULP energy -89327.982101 kJ/mol
# GULP energy per Si atom -5582.998881 kJ/mol
# Density = 2.320919 g / cm^3
# Si number density = 23.262138 Si / 1000 Ang^3
#
#
#
# Elastic Constant Matrix: (Units=GPa)
#
#
# Indices 1 2 3 4 5 6 
#
# 1 53.3876 4.0026 13.5836 0.0000 14.2558 0.0000
# 2 4.0026 61.8777 42.7769 0.0000 1.0694 0.0000
# 3 13.5836 42.7769 150.4530 0.0000 1.5290 0.0000
# 4 0.0000 0.0000 0.0000 35.1314 0.0000 -4.5587
# 5 14.2558 1.0694 1.5290 0.0000 26.9363 0.0000
# 6 0.0000 0.0000 0.0000 -4.5587 0.0000 26.1467
#
#
#
# Elastic Compliance Matrix: (Units=1/GPa)
#
#
# Indices 1 2 3 4 5 6 
#
# 1 0.022343 0.000086 -0.001923 0.000000 -0.011719 0.000000
# 2 0.000086 0.020121 -0.005723 0.000000 -0.000520 0.000000
# 3 -0.001923 -0.005723 0.008440 0.000000 0.000766 0.000000
# 4 0.000000 0.000000 0.000000 0.029123 0.000000 0.005078
# 5 -0.011719 -0.000520 0.000766 0.000000 0.043304 0.000000
# 6 0.000000 0.000000 0.000000 0.005078 0.000000 0.039131
#
#
# Mechanical properties :
#
#
# Convention : Reuss Voigt Hill
#
# Bulk Modulus (GPa) = 27.94514 42.93829 35.44171
# Shear Modulus (GPa) = 26.38391 31.33321 28.85856
#
# Velocity S-wave (km/s) = 3.37144 3.67408 3.52601
# Velocity P-wave (km/s) = 5.21486 6.04127 5.64321
#
# Compressibility (1/GPa) = 0.03578440
#
# Stress axis : x y z
#
# Youngs Moduli (GPa) = 44.75682 49.69952 118.48819
#
# Poissons Ratio (x) = -0.00430 0.22782
# Poissons Ratio (y) = -0.00387 0.67815
# Poissons Ratio (z) = 0.08605 0.28445
#
# Static dielectric constant tensor:
#      x y z
#    x 1.916290 0.000000 0.029790 
#    y 0.000000 1.907370 0.000000 
#    z 0.029790 0.000000 1.919560 
# 
# From -- ./inp_files/18279.got.cif
#   From: 2010.05.17/outbox.cif.g08.bks.cpg/sg9_10_cif.got.tgz:18279.got - 2010.06.03 20:04:27.
