data_PCOD9139260
_publ_section_title
;
Structure prediction by ZEFSAII (Michael W. Deem and Ramdas Pophale) SiO2 
 PCOD9139260
Probable space group: C C
;
_chemical_formula_sum "Si O2"
_cell_formula_units_Z 32
_cell_length_a 10.494403
_cell_length_b 9.812001
_cell_length_c 13.702440
_cell_angle_alpha 90.000000
_cell_angle_beta 62.763008
_cell_angle_gamma 90.000000
_cell_volume 1254.510016
_symmetry_space_group_name_H-M "C C"
_symmetry_group_IT_number 9
_symmetry_cell_setting 'monoclinic'
loop_
_space_group_symop_operation_xyz
x,y,z
x,-y,1/2+z
1/2+x,1/2+y,z
1/2+x,1/2-y,1/2+z
loop_
_atom_site_type_symbol
_atom_site_label
_atom_site_fract_x
_atom_site_fract_y
_atom_site_fract_z
Si Si1 0.649560 0.835836 0.633960
Si Si2 0.445763 0.077934 0.676128
Si Si3 0.891968 0.586857 0.908939
Si Si4 0.186039 0.373342 0.394417
Si Si5 0.118246 0.934477 0.934807
Si Si6 0.632962 0.542999 0.721798
Si Si7 0.342838 0.464023 0.169135
Si Si8 0.674739 0.737707 0.111364
O O1 0.703306 0.862475 0.504797
O O2 0.601547 0.685739 0.680583
O O3 0.512104 0.933661 0.684332
O O4 0.769259 0.893775 0.665019
O O5 0.414901 0.144836 0.792182
O O6 0.306923 0.048800 0.663887
O O7 0.561574 0.176753 0.587563
O O8 0.767061 0.475203 0.935885
O O9 0.041927 0.548250 0.907672
O O10 0.813635 0.697238 0.002263
O O11 0.146558 0.216416 0.384130
O O12 0.322906 0.438131 0.291816
O O13 0.091671 0.029834 0.850035
O O14 0.986504 0.945573 0.055787
O O15 0.603905 0.399989 0.677818
O O16 0.234115 0.346237 0.168196
#
# Coordination Sequence:
#
# PCOD9139260 Si02
#       8
#     4   4   4   4   4   4   4   4
#     4  11  26  48  76 115 149 212 261 323 394 471
#     4  10  24  47  72 106 154 199 258 317 394 459
#     4  11  22  42  75 108 146 199 254 312 392 462
#     4  12  23  50  80 105 163 212 256 329 397 472
#     4  11  25  46  78 116 151 206 262 326 393 476
#     4  11  24  49  73 111 155 198 260 325 391 465
#     4  11  25  50  73 114 159 202 271 318 403 467
#     4  11  21  44  73 103 147 202 248 316 386 464
#
# _framework density 25.507967000000001
#
# number of rings (size 3 to 8) (size 9 to 14) (size 15 to 20)
#    0.000    1.000    5.000    1.500    1.750    0.000 
#   20.250    0.000    0.000    0.000    0.000    0.000 
#    0.000    0.000    0.000    0.000    0.000    0.000 
#
# Total GULP energy -89531.708642 kJ/mol
# GULP energy per Si atom -5595.731790 kJ/mol
# Density = 2.544991 g / cm^3
# Si number density = 25.507967 Si / 1000 Ang^3
#
#
#
# Elastic Constant Matrix: (Units=GPa)
#
#
# Indices 1 2 3 4 5 6 
#
# 1 99.3876 45.8279 36.9352 0.0000 -8.4399 0.0000
# 2 45.8279 126.8319 43.7126 0.0000 1.8402 0.0000
# 3 36.9352 43.7126 146.0997 0.0000 -5.6965 0.0000
# 4 0.0000 0.0000 0.0000 15.9222 0.0000 -11.6779
# 5 -8.4399 1.8402 -5.6965 0.0000 49.4776 0.0000
# 6 0.0000 0.0000 0.0000 -11.6779 0.0000 27.2987
#
#
#
# Elastic Compliance Matrix: (Units=1/GPa)
#
#
# Indices 1 2 3 4 5 6 
#
# 1 0.012806 -0.003981 -0.001964 0.000000 0.002106 0.000000
# 2 -0.003981 0.010048 -0.002050 0.000000 -0.001289 0.000000
# 3 -0.001964 -0.002050 0.007980 0.000000 0.000660 0.000000
# 4 0.000000 0.000000 0.000000 0.091520 0.000000 0.039150
# 5 0.002106 -0.001289 0.000660 0.000000 0.020694 0.000000
# 6 0.000000 0.000000 0.000000 0.039150 0.000000 0.053380
#
#
# Mechanical properties :
#
#
# Convention : Reuss Voigt Hill
#
# Bulk Modulus (GPa) = 67.36761 69.47450 68.42106
# Shear Modulus (GPa) = 23.00259 34.92927 28.96593
#
# Velocity S-wave (km/s) = 3.00622 3.70448 3.37347
# Velocity P-wave (km/s) = 6.20626 6.75227 6.48501
#
# Compressibility (1/GPa) = 0.01484393
#
# Stress axis : x y z
#
# Youngs Moduli (GPa) = 78.08834 99.52113 125.30702
#
# Poissons Ratio (x) = 0.39617 0.24614
# Poissons Ratio (y) = 0.31085 0.25691
# Poissons Ratio (z) = 0.15339 0.20404
#
# Static dielectric constant tensor:
#      x y z
#    x 2.083240 0.000000 0.039650 
#    y 0.000000 1.999960 0.000000 
#    z 0.039650 0.000000 2.062590 
# 
# From -- ./inp_files/24342.got.cif
#   From: 2010.05.17/outbox.cif.g08.bks.cpg/sg9_13_cif.got.tgz:24342.got - 2010.06.03 20:04:27.
