data_PCOD9139631
_publ_section_title
;
Structure prediction by ZEFSAII (Michael W. Deem and Ramdas Pophale) SiO2 
 PCOD9139631
Probable space group: C C
;
_chemical_formula_sum "Si O2"
_cell_formula_units_Z 28
_cell_length_a 26.104468
_cell_length_b 4.850556
_cell_length_c 8.655637
_cell_angle_alpha 90.000000
_cell_angle_beta 103.409791
_cell_angle_gamma 90.000000
_cell_volume 1066.106301
_symmetry_space_group_name_H-M "C C"
_symmetry_group_IT_number 9
_symmetry_cell_setting 'monoclinic'
loop_
_space_group_symop_operation_xyz
x,y,z
x,-y,1/2+z
1/2+x,1/2+y,z
1/2+x,1/2-y,1/2+z
loop_
_atom_site_type_symbol
_atom_site_label
_atom_site_fract_x
_atom_site_fract_y
_atom_site_fract_z
Si Si1 0.755550 0.653688 0.260660
Si Si2 0.027963 0.161089 0.789006
Si Si3 0.656308 0.360195 0.198236
Si Si4 0.071575 0.673681 0.650397
Si Si5 0.367691 0.876794 0.400527
Si Si6 0.406362 0.341561 0.245222
Si Si7 0.196560 0.480237 0.488108
O O1 0.717233 0.405932 0.192751
O O2 0.812076 0.526460 0.330287
O O3 0.728236 0.790213 0.390524
O O4 0.742677 0.866002 0.115711
O O5 0.060677 0.356619 0.692181
O O6 0.965463 0.157760 0.722047
O O7 0.044210 0.847976 0.768512
O O8 0.042512 0.257316 0.970324
O O9 0.626252 0.648754 0.180553
O O10 0.647409 0.153453 0.049824
O O11 0.664599 0.210042 0.365847
O O12 0.407294 0.123778 0.386805
O O13 0.382605 0.375528 0.796755
O O14 0.371750 0.770241 0.578006
#
# Coordination Sequence:
#
# PCOD9139631 Si02
#       7
#     4   4   4   4   4   4   4
#     4  11  27  45  76 111 162 219 273 332 401 493
#     4  12  27  53  82 118 159 205 272 349 414 485
#     4  11  27  45  76 111 162 219 273 332 401 493
#     4  12  29  48  83 116 159 213 269 326 420 488
#     4  12  29  48  83 116 159 213 269 326 420 488
#     4  12  27  53  82 118 159 205 272 349 414 485
#     4  10  26  50  72 106 174 212 280 332 398 460
#
# _framework density 26.263798000000001
#
# number of rings (size 3 to 8) (size 9 to 14) (size 15 to 20)
#    0.000    0.571    0.000    5.143   16.000    0.000 
#    0.000    0.000    0.000    0.000    0.000    0.000 
#    0.000    0.000    0.000    0.000    0.000    0.000 
#
# Total GULP energy -78380.050104 kJ/mol
# GULP energy per Si atom -5598.575007 kJ/mol
# Density = 2.620402 g / cm^3
# Si number density = 26.263798 Si / 1000 Ang^3
#
#
#
# Elastic Constant Matrix: (Units=GPa)
#
#
# Indices 1 2 3 4 5 6 
#
# 1 131.5526 31.4660 44.8921 0.0000 12.1930 0.0000
# 2 31.4660 132.3273 30.2193 0.0000 -6.9443 0.0000
# 3 44.8921 30.2193 131.0204 0.0000 1.0157 0.0000
# 4 0.0000 0.0000 0.0000 51.6502 0.0000 -18.7849
# 5 12.1930 -6.9443 1.0157 0.0000 33.0122 0.0000
# 6 0.0000 0.0000 0.0000 -18.7849 0.0000 37.0719
#
#
#
# Elastic Compliance Matrix: (Units=1/GPa)
#
#
# Indices 1 2 3 4 5 6 
#
# 1 0.009312 -0.001782 -0.002751 0.000000 -0.003730 0.000000
# 2 -0.001782 0.008419 -0.001350 0.000000 0.002471 0.000000
# 3 -0.002751 -0.001350 0.008883 0.000000 0.000459 0.000000
# 4 0.000000 0.000000 0.000000 0.023735 0.000000 0.012027
# 5 -0.003730 0.002471 0.000459 0.000000 0.032175 0.000000
# 6 0.000000 0.000000 0.000000 0.012027 0.000000 0.033069
#
#
# Mechanical properties :
#
#
# Convention : Reuss Voigt Hill
#
# Bulk Modulus (GPa) = 67.35057 67.56168 67.45613
# Shear Modulus (GPa) = 37.79070 43.56840 40.67955
#
# Velocity S-wave (km/s) = 3.79738 4.07735 3.93985
# Velocity P-wave (km/s) = 6.70272 6.92434 6.81443
#
# Compressibility (1/GPa) = 0.01484768
#
# Stress axis : x y z
#
# Youngs Moduli (GPa) = 107.38732 118.78236 112.57701
#
# Poissons Ratio (x) = 0.21165 0.30967
# Poissons Ratio (y) = 0.19135 0.15202
# Poissons Ratio (z) = 0.29540 0.16040
#
# Static dielectric constant tensor:
#      x y z
#    x 2.136500 0.000000 -0.044070 
#    y 0.000000 2.153840 0.000000 
#    z -0.044070 0.000000 2.176070 
# 
# From -- ./inp_files/12315.got.cif
#   From: 2010.05.17/outbox.cif.g08.bks.cpg/sg9_7_cif.got.tgz:12315.got - 2010.06.03 20:04:27.
