data_PCOD9139564
_publ_section_title
;
Structure prediction by ZEFSAII (Michael W. Deem and Ramdas Pophale) SiO2 
 PCOD9139564
Probable space group: C C
;
_chemical_formula_sum "Si O2"
_cell_formula_units_Z 24
_cell_length_a 22.424093
_cell_length_b 4.847335
_cell_length_c 18.031831
_cell_angle_alpha 90.000000
_cell_angle_beta 153.534313
_cell_angle_gamma 90.000000
_cell_volume 873.500462
_symmetry_space_group_name_H-M "C C"
_symmetry_group_IT_number 9
_symmetry_cell_setting 'monoclinic'
loop_
_space_group_symop_operation_xyz
x,y,z
x,-y,1/2+z
1/2+x,1/2+y,z
1/2+x,1/2-y,1/2+z
loop_
_atom_site_type_symbol
_atom_site_label
_atom_site_fract_x
_atom_site_fract_y
_atom_site_fract_z
Si Si1 0.835780 0.078673 0.961560
Si Si2 0.962303 0.834710 0.898196
Si Si3 0.582514 0.607149 0.320240
Si Si4 0.094690 0.565144 0.432581
Si Si5 0.089128 0.789115 0.193234
Si Si6 0.808575 0.668040 0.270615
O O1 0.688914 0.963173 0.813217
O O2 0.829797 0.251496 0.879052
O O3 0.935244 0.816673 0.050257
O O4 0.934319 0.213933 0.131782
O O5 0.839054 0.649342 0.791112
O O6 0.004243 0.665252 0.872937
O O7 0.913088 0.146437 0.838854
O O8 0.073138 0.833454 0.087321
O O9 0.560139 0.326609 0.342428
O O10 0.650458 0.512052 0.318490
O O11 0.663510 0.846293 0.452188
O O12 0.174513 0.715654 0.586899
#
# Coordination Sequence:
#
# PCOD9139564 Si02
#       6
#     4   4   4   4   4   4
#     4   9  21  45  72 106 142 196 242 297 358 444
#     4  11  24  43  73 104 141 195 245 298 357 446
#     4  10  26  40  72 104 150 188 238 303 373 426
#     4  12  24  48  66 112 142 187 238 313 364 429
#     4   9  21  45  72 106 144 195 245 298 359 446
#     4  11  24  43  73 102 139 195 244 297 361 439
#
# _framework density 27.475656000000001
#
# number of rings (size 3 to 8) (size 9 to 14) (size 15 to 20)
#    1.000    0.667    1.667    2.000    2.333    4.000 
#    3.000    6.667    0.000    0.000    0.000    0.000 
#    0.000    0.000    0.000    0.000    0.000    0.000 
#
# Total GULP energy -67008.718756 kJ/mol
# GULP energy per Si atom -5584.059896 kJ/mol
# Density = 2.741312 g / cm^3
# Si number density = 27.475656 Si / 1000 Ang^3
#
#
#
# Elastic Constant Matrix: (Units=GPa)
#
#
# Indices 1 2 3 4 5 6 
#
# 1 76.5908 32.0271 23.1908 0.0004 -14.7044 -0.0005
# 2 32.0271 125.5852 20.0545 0.0074 -16.7544 0.0026
# 3 23.1908 20.0545 88.4985 0.0020 -20.6314 0.0008
# 4 0.0004 0.0074 0.0020 39.7120 0.0005 -5.9875
# 5 -14.7044 -16.7544 -20.6314 0.0005 42.9322 -0.0001
# 6 -0.0005 0.0026 0.0008 -5.9875 -0.0001 36.2272
#
#
#
# Elastic Compliance Matrix: (Units=1/GPa)
#
#
# Indices 1 2 3 4 5 6 
#
# 1 0.015772 -0.003206 -0.002747 0.000001 0.002831 0.000001
# 2 -0.003206 0.009183 -0.000745 -0.000002 0.002128 -0.000001
# 3 -0.002747 -0.000745 0.013403 -0.000001 0.005209 0.000000
# 4 0.000001 -0.000002 -0.000001 0.025825 -0.000001 0.004268
# 5 0.002831 0.002128 0.005209 -0.000001 0.027596 0.000000
# 6 0.000001 -0.000001 0.000000 0.004268 0.000000 0.028309
#
#
# Mechanical properties :
#
#
# Convention : Reuss Voigt Hill
#
# Bulk Modulus (GPa) = 40.05913 49.02439 44.54176
# Shear Modulus (GPa) = 35.26009 38.13441 36.69725
#
# Velocity S-wave (km/s) = 3.58623 3.72954 3.65859
# Velocity P-wave (km/s) = 5.63557 6.03552 5.83897
#
# Compressibility (1/GPa) = 0.02496310
#
# Stress axis : x y z
#
# Youngs Moduli (GPa) = 63.40295 108.89542 74.61249
#
# Poissons Ratio (x) = 0.34912 0.20493
# Poissons Ratio (y) = 0.20327 0.05557
# Poissons Ratio (z) = 0.17414 0.08111
#
# Static dielectric constant tensor:
#      x y z
#    x 2.304890 0.000000 0.076660 
#    y 0.000000 2.103400 0.000000 
#    z 0.076660 0.000000 2.196000 
# 
# From -- ./inp_files/18851.got.cif
#   From: 2010.05.17/outbox.cif.g08.bks.cpg/sg9_10_cif.got.tgz:18851.got - 2010.06.03 20:04:27.
