data_PCOD9139662
_publ_section_title
;
Structure prediction by ZEFSAII (Michael W. Deem and Ramdas Pophale) SiO2 
 PCOD9139662
Probable space group: C C
;
_chemical_formula_sum "Si O2"
_cell_formula_units_Z 32
_cell_length_a 5.099449
_cell_length_b 18.327452
_cell_length_c 13.517657
_cell_angle_alpha 90.000000
_cell_angle_beta 70.130732
_cell_angle_gamma 90.000000
_cell_volume 1188.151915
_symmetry_space_group_name_H-M "C C"
_symmetry_group_IT_number 9
_symmetry_cell_setting 'monoclinic'
loop_
_space_group_symop_operation_xyz
x,y,z
x,-y,1/2+z
1/2+x,1/2+y,z
1/2+x,1/2-y,1/2+z
loop_
_atom_site_type_symbol
_atom_site_label
_atom_site_fract_x
_atom_site_fract_y
_atom_site_fract_z
Si Si1 0.423610 0.851561 0.982410
Si Si2 0.312144 0.718388 0.122899
Si Si3 0.784043 0.334035 0.785317
Si Si4 0.468825 0.584310 0.678123
Si Si5 0.078797 0.069390 0.154609
Si Si6 0.090758 0.502961 0.973041
Si Si7 0.481909 0.196943 0.798611
Si Si8 0.197711 0.062442 0.861415
O O1 0.452888 0.851678 0.861217
O O2 0.619826 0.917272 0.993873
O O3 0.425693 0.769628 0.022024
O O4 0.131694 0.881714 0.064903
O O5 0.983332 0.698790 0.173461
O O6 0.459032 0.641056 0.118388
O O7 0.365511 0.769181 0.212395
O O8 0.627957 0.403394 0.760479
O O9 0.583422 0.268119 0.842778
O O10 0.381608 0.501056 0.667208
O O11 0.235010 0.640909 0.742543
O O12 0.679337 0.569810 0.744266
O O13 0.373330 0.043474 0.072505
O O14 0.391000 0.538735 0.931960
O O15 0.928833 0.514336 0.888174
O O16 0.266452 0.145643 0.881455
#
# Coordination Sequence:
#
# PCOD9139662 Si02
#       8
#     4   4   4   4   4   4   4   4
#     4  11  25  50  77 113 158 214 268 323 402 481
#     4  11  25  48  73 113 158 212 262 332 396 474
#     4  11  25  49  74 116 163 212 266 331 402 480
#     4  11  23  49  79 113 156 211 262 333 389 478
#     4  10  27  47  75 113 156 208 265 338 391 478
#     4  11  28  47  80 118 156 213 268 329 399 476
#     4  11  23  47  77 111 159 211 261 321 407 470
#     4  12  24  47  79 119 154 203 266 327 396 467
#
# _framework density 26.932580999999999
#
# number of rings (size 3 to 8) (size 9 to 14) (size 15 to 20)
#    0.000    1.000    3.750    0.750    3.500    6.000 
#    4.500    0.000    0.000    1.500    0.000    0.000 
#    0.000    0.000    0.000    0.000    0.000    0.000 
#
# Total GULP energy -89660.893177 kJ/mol
# GULP energy per Si atom -5603.805824 kJ/mol
# Density = 2.687128 g / cm^3
# Si number density = 26.932581 Si / 1000 Ang^3
#
#
#
# Elastic Constant Matrix: (Units=GPa)
#
#
# Indices 1 2 3 4 5 6 
#
# 1 96.3347 27.5962 13.4510 0.0000 -13.4633 0.0000
# 2 27.5962 200.5301 27.9920 0.0000 -11.1476 0.0000
# 3 13.4510 27.9920 81.8852 0.0000 -14.6136 0.0000
# 4 0.0000 0.0000 0.0000 40.9092 0.0000 -0.9433
# 5 -13.4633 -11.1476 -14.6136 0.0000 37.7409 0.0000
# 6 0.0000 0.0000 0.0000 -0.9433 0.0000 36.2208
#
#
#
# Elastic Compliance Matrix: (Units=1/GPa)
#
#
# Indices 1 2 3 4 5 6 
#
# 1 0.011324 -0.001256 -0.000834 0.000000 0.003346 0.000000
# 2 -0.001256 0.005406 -0.001543 0.000000 0.000551 0.000000
# 3 -0.000834 -0.001543 0.013688 0.000000 0.004547 0.000000
# 4 0.000000 0.000000 0.000000 0.024459 0.000000 0.000637
# 5 0.003346 0.000551 0.004547 0.000000 0.029613 0.000000
# 6 0.000000 0.000000 0.000000 0.000637 0.000000 0.027625
#
#
# Mechanical properties :
#
#
# Convention : Reuss Voigt Hill
#
# Bulk Modulus (GPa) = 43.19241 57.42536 50.30888
# Shear Modulus (GPa) = 39.33938 43.62155 41.48047
#
# Velocity S-wave (km/s) = 3.82601 4.02886 3.92874
# Velocity P-wave (km/s) = 5.96572 6.55824 6.26898
#
# Compressibility (1/GPa) = 0.02315222
#
# Stress axis : x y z
#
# Youngs Moduli (GPa) = 88.30565 184.99036 73.05577
#
# Poissons Ratio (x) = 0.23235 0.06091
# Poissons Ratio (y) = 0.11091 0.11274
# Poissons Ratio (z) = 0.07362 0.28548
#
# Static dielectric constant tensor:
#      x y z
#    x 2.125940 0.000000 0.032130 
#    y 0.000000 2.093890 0.000000 
#    z 0.032130 0.000000 2.136370 
# 
# From -- ./inp_files/22061.got.cif
#   From: 2010.05.17/outbox.cif.g08.bks.cpg/sg9_12_cif.got.tgz:22061.got - 2010.06.03 20:04:27.
