data_PCOD9139128
_publ_section_title
;
Structure prediction by ZEFSAII (Michael W. Deem and Ramdas Pophale) SiO2 
 PCOD9139128
Probable space group: C C
;
_chemical_formula_sum "Si O2"
_cell_formula_units_Z 24
_cell_length_a 22.039403
_cell_length_b 7.011917
_cell_length_c 12.234243
_cell_angle_alpha 90.000000
_cell_angle_beta 147.509420
_cell_angle_gamma 90.000000
_cell_volume 1015.589307
_symmetry_space_group_name_H-M "C C"
_symmetry_group_IT_number 9
_symmetry_cell_setting 'monoclinic'
loop_
_space_group_symop_operation_xyz
x,y,z
x,-y,1/2+z
1/2+x,1/2+y,z
1/2+x,1/2-y,1/2+z
loop_
_atom_site_type_symbol
_atom_site_label
_atom_site_fract_x
_atom_site_fract_y
_atom_site_fract_z
Si Si1 0.795300 0.201249 0.205270
Si Si2 0.230888 0.559092 0.417956
Si Si3 0.944719 0.994219 0.594969
Si Si4 0.314548 0.093612 0.143184
Si Si5 0.653344 0.483545 0.574627
Si Si6 0.541707 0.220509 0.570124
O O1 0.753781 0.020382 0.075188
O O2 0.815399 0.364964 0.144078
O O3 0.698848 0.298324 0.134976
O O4 0.615165 0.034124 0.704252
O O5 0.331929 0.481759 0.495756
O O6 0.243551 0.786303 0.448881
O O7 0.405511 0.352803 0.942707
O O8 0.986302 0.806919 0.594580
O O9 0.048557 0.041571 0.832158
O O10 0.257776 0.124736 0.176160
O O11 0.440478 0.170659 0.334742
O O12 0.617530 0.385844 0.631614
#
# Coordination Sequence:
#
# PCOD9139128 Si02
#       6
#     4   4   4   4   4   4
#     4  10  25  46  69 105 142 188 244 298 357 438
#     4  12  25  47  71 103 148 189 242 302 369 435
#     4  12  23  46  76 102 149 192 238 312 363 432
#     4  10  24  45  66 106 135 189 246 290 369 425
#     4  10  24  46  68 107 144 185 250 293 365 436
#     4  12  23  46  72 105 146 191 242 305 361 442
#
# _framework density 23.631598
#
# number of rings (size 3 to 8) (size 9 to 14) (size 15 to 20)
#    1.000    0.000    5.000    1.000    2.333    2.667 
#    6.000    0.000    0.000    0.000    0.000    0.000 
#    0.000    0.000    0.000    0.000    0.000    0.000 
#
# Total GULP energy -66998.946338 kJ/mol
# GULP energy per Si atom -5583.245528 kJ/mol
# Density = 2.357781 g / cm^3
# Si number density = 23.631598 Si / 1000 Ang^3
#
#
#
# Elastic Constant Matrix: (Units=GPa)
#
#
# Indices 1 2 3 4 5 6 
#
# 1 57.7537 10.8828 4.9772 0.0000 10.8797 0.0000
# 2 10.8828 104.1374 50.5552 0.0000 3.1541 0.0000
# 3 4.9772 50.5552 120.0324 0.0000 7.4704 0.0000
# 4 0.0000 0.0000 0.0000 45.9288 0.0000 2.7382
# 5 10.8797 3.1541 7.4704 0.0000 32.4371 0.0000
# 6 0.0000 0.0000 0.0000 2.7382 0.0000 34.1637
#
#
#
# Elastic Compliance Matrix: (Units=1/GPa)
#
#
# Indices 1 2 3 4 5 6 
#
# 1 0.018825 -0.001996 0.000447 0.000000 -0.006223 0.000000
# 2 -0.001996 0.012282 -0.005131 0.000000 0.000657 0.000000
# 3 0.000447 -0.005131 0.010604 0.000000 -0.002093 0.000000
# 4 0.000000 0.000000 0.000000 0.021877 0.000000 -0.001753
# 5 -0.006223 0.000657 -0.002093 0.000000 0.033334 0.000000
# 6 0.000000 0.000000 0.000000 -0.001753 0.000000 0.029411
#
#
# Mechanical properties :
#
#
# Convention : Reuss Voigt Hill
#
# Bulk Modulus (GPa) = 35.27147 46.08377 40.67762
# Shear Modulus (GPa) = 33.52456 36.87314 35.19885
#
# Velocity S-wave (km/s) = 3.77056 3.95439 3.86357
# Velocity P-wave (km/s) = 5.82358 6.35554 6.09537
#
# Compressibility (1/GPa) = 0.02835152
#
# Stress axis : x y z
#
# Youngs Moduli (GPa) = 53.12152 81.41708 94.30419
#
# Poissons Ratio (x) = 0.16251 -0.04219
# Poissons Ratio (y) = 0.10603 0.48390
# Poissons Ratio (z) = -0.02377 0.41777
#
# Static dielectric constant tensor:
#      x y z
#    x 1.890980 0.000000 -0.019090 
#    y 0.000000 1.948600 0.000000 
#    z -0.019090 0.000000 1.868200 
# 
# From -- ./inp_files/17440.got.cif
#   From: 2010.05.17/outbox.cif.g08.bks.cpg/sg9_9_cif.got.tgz:17440.got - 2010.06.03 20:04:27.
