data_PCOD9139750
_publ_section_title
;
Structure prediction by ZEFSAII (Michael W. Deem and Ramdas Pophale) SiO2 
 PCOD9139750
Probable space group: C C
;
_chemical_formula_sum "Si O2"
_cell_formula_units_Z 28
_cell_length_a 15.316342
_cell_length_b 7.424756
_cell_length_c 14.953901
_cell_angle_alpha 90.000000
_cell_angle_beta 129.522555
_cell_angle_gamma 90.000000
_cell_volume 1311.767327
_symmetry_space_group_name_H-M "C C"
_symmetry_group_IT_number 9
_symmetry_cell_setting 'monoclinic'
loop_
_space_group_symop_operation_xyz
x,y,z
x,-y,1/2+z
1/2+x,1/2+y,z
1/2+x,1/2-y,1/2+z
loop_
_atom_site_type_symbol
_atom_site_label
_atom_site_fract_x
_atom_site_fract_y
_atom_site_fract_z
Si Si1 0.170690 0.530364 0.280010
Si Si2 0.242491 0.925581 0.613045
Si Si3 0.000800 0.435915 0.814581
Si Si4 0.433099 0.499537 0.943937
Si Si5 0.557189 0.493730 0.353361
Si Si6 0.580592 0.136406 0.542334
Si Si7 0.107428 0.072477 0.693974
O O1 0.096341 0.476617 0.316331
O O2 0.300848 0.477351 0.369143
O O3 0.109571 0.452424 0.153558
O O4 0.164661 0.746153 0.266370
O O5 0.374464 0.961510 0.697750
O O6 0.173376 0.012608 0.485862
O O7 0.199777 0.717744 0.582258
O O8 0.193088 0.988495 0.677074
O O9 0.022338 0.218946 0.826038
O O10 0.022664 0.488893 0.931096
O O11 0.464806 0.431121 0.864218
O O12 0.496264 0.692920 0.996539
O O13 0.493989 0.386927 0.062223
O O14 0.574675 0.542873 0.260943
#
# Coordination Sequence:
#
# PCOD9139750 Si02
#       7
#     4   4   4   4   4   4   4
#     4  11  21  35  57  84 107 140 184 226 265 314
#     4   9  18  36  53  76 108 142 181 219 266 327
#     4   9  19  32  53  79 105 140 182 216 264 327
#     4   9  20  37  55  80 111 142 180 221 266 325
#     4   8  17  34  56  74 100 147 183 213 262 323
#     4   9  19  37  56  74 105 149 184 220 264 319
#     4   9  20  35  56  81 106 140 180 225 271 311
#
# _framework density 21.34525
#
# number of rings (size 3 to 8) (size 9 to 14) (size 15 to 20)
#    0.000    3.429    0.000    1.714    0.000   10.286 
#    0.000   10.000    0.000    3.429    0.000    0.000 
#    0.000    0.000    0.000    0.000    0.000    0.000 
#
# Total GULP energy -77986.559340 kJ/mol
# GULP energy per Si atom -5570.468524 kJ/mol
# Density = 2.129667 g / cm^3
# Si number density = 21.345250 Si / 1000 Ang^3
#
#
#
# Elastic Constant Matrix: (Units=GPa)
#
#
# Indices 1 2 3 4 5 6 
#
# 1 122.9523 9.2921 78.6731 0.0000 19.2496 0.0000
# 2 9.2921 20.5741 -2.1061 0.0000 7.0989 0.0000
# 3 78.6731 -2.1061 107.3453 0.0000 11.2101 0.0000
# 4 0.0000 0.0000 0.0000 24.6283 0.0000 -3.2704
# 5 19.2496 7.0989 11.2101 0.0000 41.6891 0.0000
# 6 0.0000 0.0000 0.0000 -3.2704 0.0000 10.0061
#
#
#
# Elastic Compliance Matrix: (Units=1/GPa)
#
#
# Indices 1 2 3 4 5 6 
#
# 1 0.017177 -0.007906 -0.012405 0.000000 -0.003249 0.000000
# 2 -0.007906 0.055693 0.007713 0.000000 -0.007907 0.000000
# 3 -0.012405 0.007713 0.018620 0.000000 -0.000593 0.000000
# 4 0.000000 0.000000 0.000000 0.042446 0.000000 0.013873
# 5 -0.003249 -0.007907 -0.000593 0.000000 0.026993 0.000000
# 6 0.000000 0.000000 0.000000 0.013873 0.000000 0.104473
#
#
# Mechanical properties :
#
#
# Convention : Reuss Voigt Hill
#
# Bulk Modulus (GPa) = 15.08423 46.95442 31.01933
# Shear Modulus (GPa) = 15.98992 26.26556 21.12774
#
# Velocity S-wave (km/s) = 2.73996 3.51167 3.14954
# Velocity P-wave (km/s) = 4.13424 6.20385 5.27161
#
# Compressibility (1/GPa) = 0.06629440
#
# Stress axis : x y z
#
# Youngs Moduli (GPa) = 58.21805 17.95547 53.70490
#
# Poissons Ratio (x) = 0.14196 0.66619
# Poissons Ratio (y) = 0.46030 -0.41423
# Poissons Ratio (z) = 0.72217 -0.13849
#
# Static dielectric constant tensor:
#      x y z
#    x 1.808660 0.000000 -0.056760 
#    y 0.000000 1.866650 0.000000 
#    z -0.056760 0.000000 1.804770 
# 
# From -- ./inp_files/17567.got.cif
#   From: 2010.05.17/outbox.cif.g08.bks.cpg/sg9_9_cif.got.tgz:17567.got - 2010.06.03 20:04:27.
