data_PCOD9139572
_publ_section_title
;
Structure prediction by ZEFSAII (Michael W. Deem and Ramdas Pophale) SiO2 
 PCOD9139572
Probable space group: C C
;
_chemical_formula_sum "Si O2"
_cell_formula_units_Z 24
_cell_length_a 20.885041
_cell_length_b 5.280740
_cell_length_c 18.761464
_cell_angle_alpha 90.000000
_cell_angle_beta 26.588967
_cell_angle_gamma 90.000000
_cell_volume 926.134810
_symmetry_space_group_name_H-M "C C"
_symmetry_group_IT_number 9
_symmetry_cell_setting 'monoclinic'
loop_
_space_group_symop_operation_xyz
x,y,z
x,-y,1/2+z
1/2+x,1/2+y,z
1/2+x,1/2-y,1/2+z
loop_
_atom_site_type_symbol
_atom_site_label
_atom_site_fract_x
_atom_site_fract_y
_atom_site_fract_z
Si Si1 0.865680 0.964714 0.763210
Si Si2 0.941709 0.096437 0.892059
Si Si3 0.586167 0.865048 0.002339
Si Si4 0.689130 0.266083 0.678126
Si Si5 0.419092 0.036739 0.287451
Si Si6 0.441098 0.031401 0.507500
O O1 0.850435 0.732912 0.835741
O O2 0.025608 0.917059 0.574261
O O3 0.849001 0.234301 0.814254
O O4 0.748236 0.904864 0.820388
O O5 0.952026 0.187415 0.963559
O O6 0.930617 0.349409 0.854683
O O7 0.088710 0.946243 0.728563
O O8 0.799879 0.924811 0.029642
O O9 0.568647 0.995279 0.097142
O O10 0.476879 0.980486 0.054594
O O11 0.790174 0.424282 0.631017
O O12 0.570281 0.115806 0.840448
#
# Coordination Sequence:
#
# PCOD9139572 Si02
#       6
#     4   4   4   4   4   4
#     4  10  26  46  74 108 141 202 247 313 377 451
#     4  11  25  48  73 111 151 199 254 322 382 458
#     4  10  27  45  76 105 154 196 257 311 378 456
#     4  10  26  42  76 108 146 199 253 316 384 453
#     4  10  27  46  74 106 153 191 254 308 383 445
#     4  11  25  47  71 112 149 197 255 312 382 453
#
# _framework density 25.914154
#
# number of rings (size 3 to 8) (size 9 to 14) (size 15 to 20)
#    1.000    0.667    0.000    1.000   14.000    5.333 
#    0.000    0.000    0.000    0.000    0.000    0.000 
#    0.000    0.000    0.000    0.000    0.000    0.000 
#
# Total GULP energy -67022.153394 kJ/mol
# GULP energy per Si atom -5585.179449 kJ/mol
# Density = 2.585517 g / cm^3
# Si number density = 25.914154 Si / 1000 Ang^3
#
#
#
# Elastic Constant Matrix: (Units=GPa)
#
#
# Indices 1 2 3 4 5 6 
#
# 1 69.5222 16.5820 20.1624 -0.0078 2.0756 0.0021
# 2 16.5820 100.0061 27.5353 0.0038 -1.7315 -0.0016
# 3 20.1624 27.5353 117.3878 -0.0099 -35.1819 0.0046
# 4 -0.0078 0.0038 -0.0099 36.2368 0.0041 -9.6900
# 5 2.0756 -1.7315 -35.1819 0.0041 26.6818 -0.0022
# 6 0.0021 -0.0016 0.0046 -9.6900 -0.0022 32.0209
#
#
#
# Elastic Compliance Matrix: (Units=1/GPa)
#
#
# Indices 1 2 3 4 5 6 
#
# 1 0.016349 -0.001542 -0.004725 0.000003 -0.007602 0.000000
# 2 -0.001542 0.011145 -0.003467 -0.000002 -0.003728 0.000000
# 3 -0.004725 -0.003467 0.016842 0.000001 0.022350 0.000000
# 4 0.000003 -0.000002 0.000001 0.030026 -0.000003 0.009086
# 5 -0.007602 -0.003728 0.022350 -0.000003 0.067298 0.000001
# 6 0.000000 0.000000 0.000000 0.009086 0.000001 0.033979
#
#
# Mechanical properties :
#
#
# Convention : Reuss Voigt Hill
#
# Bulk Modulus (GPa) = 40.20994 46.16394 43.18694
# Shear Modulus (GPa) = 24.58278 33.83034 29.20656
#
# Velocity S-wave (km/s) = 3.08332 3.61706 3.36080
# Velocity P-wave (km/s) = 5.31282 5.94113 5.63574
#
# Compressibility (1/GPa) = 0.02486947
#
# Stress axis : x y z
#
# Youngs Moduli (GPa) = 61.16673 89.72656 59.37596
#
# Poissons Ratio (x) = 0.13831 0.28054
# Poissons Ratio (y) = 0.09429 0.20584
# Poissons Ratio (z) = 0.28900 0.31106
#
# Static dielectric constant tensor:
#      x y z
#    x 2.052390 0.000000 0.018910 
#    y 0.000000 2.072770 0.000010 
#    z 0.018910 0.000010 2.028630 
# 
# From -- ./inp_files/11120.got.cif
#   From: 2010.05.17/outbox.cif.g08.bks.cpg/sg9_6_cif.got.tgz:11120.got - 2010.06.03 20:04:27.
