data_PCOD9139640
_publ_section_title
;
Structure prediction by ZEFSAII (Michael W. Deem and Ramdas Pophale) SiO2 
 PCOD9139640
Probable space group: C C
;
_chemical_formula_sum "Si O2"
_cell_formula_units_Z 16
_cell_length_a 5.098305
_cell_length_b 13.594503
_cell_length_c 8.764137
_cell_angle_alpha 90.000000
_cell_angle_beta 94.609105
_cell_angle_gamma 90.000000
_cell_volume 605.468529
_symmetry_space_group_name_H-M "C C"
_symmetry_group_IT_number 9
_symmetry_cell_setting 'monoclinic'
loop_
_space_group_symop_operation_xyz
x,y,z
x,-y,1/2+z
1/2+x,1/2+y,z
1/2+x,1/2-y,1/2+z
loop_
_atom_site_type_symbol
_atom_site_label
_atom_site_fract_x
_atom_site_fract_y
_atom_site_fract_z
Si Si1 0.133360 0.002910 0.861520
Si Si2 0.614105 0.878864 0.793532
Si Si3 0.281309 0.342736 0.487249
Si Si4 0.329196 0.182681 0.728713
O O1 0.186273 0.078299 0.721766
O O2 0.020704 0.082245 0.976721
O O3 0.395748 0.937777 0.874843
O O4 0.895863 0.927222 0.836291
O O5 0.585343 0.888263 0.608293
O O6 0.653413 0.761912 0.815300
O O7 0.358187 0.240925 0.573160
O O8 0.105337 0.331293 0.328160
#
# Coordination Sequence:
#
# PCOD9139640 Si02
#       4
#     4   4   4   4
#     4  12  24  52  75 115 161 212 259 331 397 479
#     4  10  28  46  78 115 160 208 266 319 405 479
#     4  10  26  51  81 118 160 209 268 326 416 464
#     4  10  26  51  76 120 161 203 267 334 394 488
#
# _framework density 26.425813999999999
#
# number of rings (size 3 to 8) (size 9 to 14) (size 15 to 20)
#    1.500    0.000    2.500    0.000    7.000    4.000 
#    4.500    0.000    0.000    0.000    0.000    0.000 
#    0.000    0.000    0.000    0.000    0.000    0.000 
#
# Total GULP energy -44709.255945 kJ/mol
# GULP energy per Si atom -5588.656993 kJ/mol
# Density = 2.636567 g / cm^3
# Si number density = 26.425814 Si / 1000 Ang^3
#
#
#
# Elastic Constant Matrix: (Units=GPa)
#
#
# Indices 1 2 3 4 5 6 
#
# 1 169.4386 41.5278 24.5319 0.0000 4.1082 0.0000
# 2 41.5278 172.3620 5.7887 0.0000 -5.8707 0.0000
# 3 24.5319 5.7887 50.9737 0.0000 -11.4446 0.0000
# 4 0.0000 0.0000 0.0000 44.6747 0.0000 -7.1440
# 5 4.1082 -5.8707 -11.4446 0.0000 36.8717 0.0000
# 6 0.0000 0.0000 0.0000 -7.1440 0.0000 44.6154
#
#
#
# Elastic Compliance Matrix: (Units=1/GPa)
#
#
# Indices 1 2 3 4 5 6 
#
# 1 0.006869 -0.001607 -0.003604 0.000000 -0.002140 0.000000
# 2 -0.001607 0.006221 0.000354 0.000000 0.001279 0.000000
# 3 -0.003604 0.000354 0.023019 0.000000 0.007603 0.000000
# 4 0.000000 0.000000 0.000000 0.022972 0.000000 0.003678
# 5 -0.002140 0.001279 0.007603 0.000000 0.029923 0.000000
# 6 0.000000 0.000000 0.000000 0.003678 0.000000 0.023003
#
#
# Mechanical properties :
#
#
# Convention : Reuss Voigt Hill
#
# Bulk Modulus (GPa) = 37.88486 59.60790 48.74638
# Shear Modulus (GPa) = 38.30857 46.62742 42.46800
#
# Velocity S-wave (km/s) = 3.81158 4.20511 4.01317
# Velocity P-wave (km/s) = 5.80846 6.79580 6.32144
#
# Compressibility (1/GPa) = 0.02639577
#
# Stress axis : x y z
#
# Youngs Moduli (GPa) = 145.57412 160.75666 43.44207
#
# Poissons Ratio (x) = 0.25832 0.15656
# Poissons Ratio (y) = 0.23392 -0.01539
# Poissons Ratio (z) = 0.52464 -0.05694
#
# Static dielectric constant tensor:
#      x y z
#    x 2.042410 0.000000 -0.082510 
#    y 0.000000 2.028970 0.000000 
#    z -0.082510 0.000000 2.164050 
# 
# From -- ./inp_files/12796.got.cif
#   From: 2010.05.17/outbox.cif.g08.bks.cpg/sg9_7_cif.got.tgz:12796.got - 2010.06.03 20:04:27.
