data_PCOD9139985
_publ_section_title
;
Structure prediction by ZEFSAII (Michael W. Deem and Ramdas Pophale) SiO2 
 PCOD9139985
Probable space group: C C
;
_chemical_formula_sum "Si O2"
_cell_formula_units_Z 32
_cell_length_a 10.672355
_cell_length_b 9.564623
_cell_length_c 27.615819
_cell_angle_alpha 90.000000
_cell_angle_beta 147.784607
_cell_angle_gamma 90.000000
_cell_volume 1502.787788
_symmetry_space_group_name_H-M "C C"
_symmetry_group_IT_number 9
_symmetry_cell_setting 'monoclinic'
loop_
_space_group_symop_operation_xyz
x,y,z
x,-y,1/2+z
1/2+x,1/2+y,z
1/2+x,1/2-y,1/2+z
loop_
_atom_site_type_symbol
_atom_site_label
_atom_site_fract_x
_atom_site_fract_y
_atom_site_fract_z
Si Si1 0.597550 0.363909 0.509970
Si Si2 0.402733 0.168897 0.206517
Si Si3 0.955414 0.993135 0.242375
Si Si4 0.563661 0.774487 0.615262
Si Si5 0.622351 0.158176 0.031137
Si Si6 0.927019 0.872451 0.897812
Si Si7 0.803345 0.594007 0.437624
Si Si8 0.097090 0.979612 0.679505
O O1 0.742690 0.373397 0.608116
O O2 0.462187 0.499905 0.446717
O O3 0.415082 0.237653 0.455866
O O4 0.797096 0.325069 0.535694
O O5 0.375685 0.333301 0.209434
O O6 0.676892 0.132426 0.289369
O O7 0.320488 0.087026 0.227270
O O8 0.743623 0.099809 0.185222
O O9 0.141908 0.020216 0.345042
O O10 0.078769 0.027748 0.231278
O O11 0.626916 0.742715 0.579897
O O12 0.584126 0.638437 0.655950
O O13 0.872125 0.114783 0.090515
O O14 0.461160 0.230967 0.939092
O O15 0.515635 0.013271 0.015923
O O16 0.141032 0.881099 0.930519
#
# Coordination Sequence:
#
# PCOD9139985 Si02
#       8
#     4   4   4   4   4   4   4   4
#     4  12  25  46  75 101 143 189 233 291 356 416
#     4  12  26  49  71 105 143 191 233 289 358 419
#     4  11  26  44  70 102 143 185 231 291 356 418
#     4  11  22  44  71  99 142 187 230 286 352 420
#     4  11  23  45  69 101 138 188 231 288 356 409
#     4  12  28  45  72 107 142 183 242 293 344 427
#     4  12  25  46  70 101 141 185 231 300 352 411
#     4  11  25  45  70 102 142 186 233 286 348 426
#
# _framework density 21.293759000000001
#
# number of rings (size 3 to 8) (size 9 to 14) (size 15 to 20)
#    0.000    0.500    5.000    3.000    3.500    2.000 
#    4.500    0.000    0.000    0.000    0.000    0.000 
#    0.000    0.000    0.000    0.000    0.000    0.000 
#
# Total GULP energy -89446.375112 kJ/mol
# GULP energy per Si atom -5590.398444 kJ/mol
# Density = 2.124529 g / cm^3
# Si number density = 21.293759 Si / 1000 Ang^3
#
#
#
# Elastic Constant Matrix: (Units=GPa)
#
#
# Indices 1 2 3 4 5 6 
#
# 1 86.0221 43.6398 4.1661 0.0000 14.3608 0.0000
# 2 43.6398 95.0756 17.4381 0.0000 -8.3938 0.0000
# 3 4.1661 17.4381 57.4993 0.0001 -9.1861 0.0000
# 4 0.0000 0.0000 0.0001 30.7391 0.0000 7.2053
# 5 14.3608 -8.3938 -9.1861 0.0000 29.7683 0.0000
# 6 0.0000 0.0000 0.0000 7.2053 0.0000 36.3915
#
#
#
# Elastic Compliance Matrix: (Units=1/GPa)
#
#
# Indices 1 2 3 4 5 6 
#
# 1 0.018333 -0.009377 -0.000337 0.000000 -0.011592 0.000000
# 2 -0.009377 0.016073 -0.002891 0.000000 0.008164 0.000000
# 3 -0.000337 -0.002891 0.019132 0.000000 0.005251 0.000000
# 4 0.000000 0.000000 0.000000 0.034115 0.000000 -0.006755
# 5 -0.011592 0.008164 0.005251 0.000000 0.043107 0.000000
# 6 0.000000 0.000000 0.000000 -0.006755 0.000000 0.028816
#
#
# Mechanical properties :
#
#
# Convention : Reuss Voigt Hill
#
# Bulk Modulus (GPa) = 35.29914 41.00945 38.15429
# Shear Modulus (GPa) = 25.74294 30.93664 28.33979
#
# Velocity S-wave (km/s) = 3.48076 3.81576 3.65210
# Velocity P-wave (km/s) = 5.72429 6.22207 5.97836
#
# Compressibility (1/GPa) = 0.02832931
#
# Stress axis : x y z
#
# Youngs Moduli (GPa) = 54.54534 62.21683 52.26971
#
# Poissons Ratio (x) = 0.58339 0.01759
# Poissons Ratio (y) = 0.51146 0.15111
# Poissons Ratio (z) = 0.01836 0.17986
#
# Static dielectric constant tensor:
#      x y z
#    x 1.741640 0.000000 -0.026740 
#    y 0.000000 1.757580 0.000000 
#    z -0.026740 0.000000 1.785970 
# 
# From -- ./inp_files/24185.got.cif
#   From: 2010.05.17/outbox.cif.g08.bks.cpg/sg9_13_cif.got.tgz:24185.got - 2010.06.03 20:04:27.
