data_PCOD9139864
_publ_section_title
;
Structure prediction by ZEFSAII (Michael W. Deem and Ramdas Pophale) SiO2 
 PCOD9139864
Probable space group: C C
;
_chemical_formula_sum "Si O2"
_cell_formula_units_Z 32
_cell_length_a 14.643554
_cell_length_b 11.801547
_cell_length_c 7.856754
_cell_angle_alpha 90.000000
_cell_angle_beta 104.011234
_cell_angle_gamma 90.000000
_cell_volume 1317.381218
_symmetry_space_group_name_H-M "C C"
_symmetry_group_IT_number 9
_symmetry_cell_setting 'monoclinic'
loop_
_space_group_symop_operation_xyz
x,y,z
x,-y,1/2+z
1/2+x,1/2+y,z
1/2+x,1/2-y,1/2+z
loop_
_atom_site_type_symbol
_atom_site_label
_atom_site_fract_x
_atom_site_fract_y
_atom_site_fract_z
Si Si1 0.498550 0.842505 0.283050
Si Si2 0.335479 0.668034 0.195473
Si Si3 0.827482 0.243609 0.722307
Si Si4 0.672147 0.761434 0.856830
Si Si5 0.122146 0.039761 0.658443
Si Si6 0.671696 0.677114 0.342601
Si Si7 0.405419 0.543787 0.568974
Si Si8 0.493421 0.101472 0.182406
O O1 0.405299 0.772592 0.193924
O O2 0.588354 0.766249 0.274480
O O3 0.499771 0.860337 0.488306
O O4 0.498540 0.966483 0.200459
O O5 0.233408 0.702107 0.218950
O O6 0.384069 0.610556 0.386916
O O7 0.339255 0.563334 0.068215
O O8 0.743082 0.229667 0.546301
O O9 0.771310 0.260149 0.872146
O O10 0.889688 0.132476 0.716309
O O11 0.896402 0.347897 0.712535
O O12 0.640780 0.632529 0.813040
O O13 0.580786 0.840728 0.820493
O O14 0.146597 0.107773 0.499885
O O15 0.013136 0.006434 0.614697
O O16 0.178960 0.925447 0.710981
#
# Coordination Sequence:
#
# PCOD9139864 Si02
#       8
#     4   4   4   4   4   4   4   4
#     4  12  26  51  71 110 150 195 240 306 367 448
#     4  11  24  44  74 105 144 185 247 298 363 433
#     4  11  26  47  71 113 147 194 251 297 365 444
#     4  11  24  47  78 102 149 200 238 307 367 433
#     4  12  22  47  74 101 147 194 242 312 361 426
#     4  12  26  44  75 109 146 189 254 299 369 438
#     4  11  21  47  73 100 145 183 240 311 350 424
#     4  12  27  51  74 104 158 194 242 304 370 440
#
# _framework density 24.290614999999999
#
# number of rings (size 3 to 8) (size 9 to 14) (size 15 to 20)
#    0.000    0.500    7.500    0.750    5.250    3.000 
#    2.250    0.000    0.000    0.000    0.000    0.000 
#    0.000    0.000    0.000    0.000    0.000    0.000 
#
# Total GULP energy -89669.701138 kJ/mol
# GULP energy per Si atom -5604.356321 kJ/mol
# Density = 2.423533 g / cm^3
# Si number density = 24.290615 Si / 1000 Ang^3
#
#
#
# Elastic Constant Matrix: (Units=GPa)
#
#
# Indices 1 2 3 4 5 6 
#
# 1 133.6848 48.0368 23.7433 0.0000 2.0777 0.0000
# 2 48.0368 177.5718 17.6974 0.0000 1.7352 0.0000
# 3 23.7433 17.6974 52.4555 0.0000 7.4706 0.0000
# 4 0.0000 0.0000 0.0000 42.2467 0.0000 -2.4526
# 5 2.0777 1.7352 7.4706 0.0000 34.3567 0.0000
# 6 0.0000 0.0000 0.0000 -2.4526 0.0000 45.3990
#
#
#
# Elastic Compliance Matrix: (Units=1/GPa)
#
#
# Indices 1 2 3 4 5 6 
#
# 1 0.008806 -0.002053 -0.003335 0.000000 0.000296 0.000000
# 2 -0.002053 0.006307 -0.001208 0.000000 0.000068 0.000000
# 3 -0.003335 -0.001208 0.021613 0.000000 -0.004437 0.000000
# 4 0.000000 0.000000 0.000000 0.023745 0.000000 0.001283
# 5 0.000296 0.000068 -0.004437 0.000000 0.030050 0.000000
# 6 0.000000 0.000000 0.000000 0.001283 0.000000 0.022096
#
#
# Mechanical properties :
#
#
# Convention : Reuss Voigt Hill
#
# Bulk Modulus (GPa) = 42.49451 60.29633 51.39542
# Shear Modulus (GPa) = 37.41026 42.68280 40.04653
#
# Velocity S-wave (km/s) = 3.92868 4.19641 4.06475
# Velocity P-wave (km/s) = 6.17346 6.95389 6.57526
#
# Compressibility (1/GPa) = 0.02353245
#
# Stress axis : x y z
#
# Youngs Moduli (GPa) = 113.56380 158.56536 46.26826
#
# Poissons Ratio (x) = 0.32547 0.15433
# Poissons Ratio (y) = 0.23310 0.05591
# Poissons Ratio (z) = 0.37879 0.19161
#
# Static dielectric constant tensor:
#      x y z
#    x 1.871120 0.000000 -0.060900 
#    y 0.000000 1.860620 0.000000 
#    z -0.060900 0.000000 2.076640 
# 
# From -- ./inp_files/9172.got.cif
#   From: 2010.05.17/outbox.cif.g08.bks.cpg/sg9_5_cif.got.tgz:9172.got - 2010.06.03 20:04:27.
