data_PCOD9139800
_publ_section_title
;
Structure prediction by ZEFSAII (Michael W. Deem and Ramdas Pophale) SiO2 
 PCOD9139800
Probable space group: C C
;
_chemical_formula_sum "Si O2"
_cell_formula_units_Z 32
_cell_length_a 14.328119
_cell_length_b 8.820026
_cell_length_c 12.030454
_cell_angle_alpha 90.000000
_cell_angle_beta 96.510534
_cell_angle_gamma 90.000000
_cell_volume 1510.536550
_symmetry_space_group_name_H-M "C C"
_symmetry_group_IT_number 9
_symmetry_cell_setting 'monoclinic'
loop_
_space_group_symop_operation_xyz
x,y,z
x,-y,1/2+z
1/2+x,1/2+y,z
1/2+x,1/2-y,1/2+z
loop_
_atom_site_type_symbol
_atom_site_label
_atom_site_fract_x
_atom_site_fract_y
_atom_site_fract_z
Si Si1 0.095150 0.800247 0.225900
Si Si2 0.942668 0.336743 0.302099
Si Si3 0.615720 0.504883 0.539874
Si Si4 0.255160 0.013359 0.873138
Si Si5 0.087114 0.309357 0.135500
Si Si6 0.951360 0.015869 0.832744
Si Si7 0.101845 0.534239 0.402909
Si Si8 0.249644 0.343641 0.331120
O O1 0.113435 0.830416 0.098237
O O2 0.181379 0.887525 0.294376
O O3 0.088735 0.642649 0.292318
O O4 0.001020 0.892927 0.240421
O O5 0.854398 0.429664 0.337958
O O6 0.990742 0.354442 0.186188
O O7 0.028433 0.397253 0.387798
O O8 0.924802 0.158256 0.308275
O O9 0.715738 0.468622 0.494105
O O10 0.597193 0.372079 0.626602
O O11 0.531158 0.489957 0.439614
O O12 0.245072 0.834182 0.854521
O O13 0.179490 0.364396 0.215585
O O14 0.086841 0.369967 0.010920
O O15 0.856748 0.107333 0.840517
O O16 0.202663 0.455685 0.413890
#
# Coordination Sequence:
#
# PCOD9139800 Si02
#       8
#     4   4   4   4   4   4   4   4
#     4  11  21  42  67  99 133 175 217 281 333 401
#     4  11  25  44  65  99 137 177 227 283 326 409
#     4  11  22  43  70  96 136 183 217 277 350 397
#     4  11  23  42  65  95 136 175 226 275 332 402
#     4  11  22  45  69  97 135 178 223 277 352 398
#     4  11  23  42  65  95 136 175 226 275 332 402
#     4  11  23  42  70  98 136 178 225 281 339 402
#     4  11  25  44  65  99 137 177 227 283 326 409
#
# _framework density 21.184526999999999
#
# number of rings (size 3 to 8) (size 9 to 14) (size 15 to 20)
#    0.000    1.000    5.000    3.750    0.000    6.000 
#    0.000    0.000    0.000    0.000    0.000    0.000 
#    0.000    0.000    0.000    0.000    0.000    0.000 
#
# Total GULP energy -89193.740697 kJ/mol
# GULP energy per Si atom -5574.608794 kJ/mol
# Density = 2.113631 g / cm^3
# Si number density = 21.184527 Si / 1000 Ang^3
#
#
#
# Elastic Constant Matrix: (Units=GPa)
#
#
# Indices 1 2 3 4 5 6 
#
# 1 101.9727 4.0919 31.1299 0.0000 -37.4516 0.0000
# 2 4.0919 96.8613 23.2963 0.0000 -15.0714 0.0000
# 3 31.1299 23.2963 66.8853 0.0000 -22.5988 0.0000
# 4 0.0000 0.0000 0.0000 27.0341 0.0000 1.5400
# 5 -37.4516 -15.0714 -22.5988 0.0000 23.7962 0.0000
# 6 0.0000 0.0000 0.0000 1.5400 0.0000 33.4608
#
#
#
# Elastic Compliance Matrix: (Units=1/GPa)
#
#
# Indices 1 2 3 4 5 6 
#
# 1 0.025984 0.005696 0.001412 0.000000 0.045843 0.000000
# 2 0.005696 0.012939 -0.002003 0.000000 0.015258 0.000000
# 3 0.001412 -0.002003 0.022549 0.000000 0.022368 0.000000
# 4 0.000000 0.000000 0.000000 0.037088 0.000000 -0.001707
# 5 0.045843 0.015258 0.022368 0.000000 0.145079 0.000000
# 6 0.000000 0.000000 0.000000 -0.001707 0.000000 0.029964
#
#
# Mechanical properties :
#
#
# Convention : Reuss Voigt Hill
#
# Bulk Modulus (GPa) = 13.95057 42.52840 28.23948
# Shear Modulus (GPa) = 17.40426 30.67162 24.03794
#
# Velocity S-wave (km/s) = 2.86939 3.80917 3.37218
# Velocity P-wave (km/s) = 4.19254 6.28213 5.34053
#
# Compressibility (1/GPa) = 0.07168165
#
# Stress axis : x y z
#
# Youngs Moduli (GPa) = 38.48574 77.28523 44.34809
#
# Poissons Ratio (x) = -0.44020 -0.06261
# Poissons Ratio (y) = -0.21921 0.08881
# Poissons Ratio (z) = -0.05433 0.15477
#
# Static dielectric constant tensor:
#      x y z
#    x 1.758500 0.000000 -0.057690 
#    y 0.000000 1.770130 0.000000 
#    z -0.057690 0.000000 1.845190 
# 
# From -- ./inp_files/17939.got.cif
#   From: 2010.05.17/outbox.cif.g08.bks.cpg/sg9_9_cif.got.tgz:17939.got - 2010.06.03 20:04:27.
