data_PCOD9139288
_publ_section_title
;
Structure prediction by ZEFSAII (Michael W. Deem and Ramdas Pophale) SiO2 
 PCOD9139288
Probable space group: C C
;
_chemical_formula_sum "Si O2"
_cell_formula_units_Z 28
_cell_length_a 7.223652
_cell_length_b 16.506364
_cell_length_c 14.893632
_cell_angle_alpha 90.000000
_cell_angle_beta 40.352928
_cell_angle_gamma 90.000000
_cell_volume 1149.859089
_symmetry_space_group_name_H-M "C C"
_symmetry_group_IT_number 9
_symmetry_cell_setting 'monoclinic'
loop_
_space_group_symop_operation_xyz
x,y,z
x,-y,1/2+z
1/2+x,1/2+y,z
1/2+x,1/2-y,1/2+z
loop_
_atom_site_type_symbol
_atom_site_label
_atom_site_fract_x
_atom_site_fract_y
_atom_site_fract_z
Si Si1 0.889820 0.782943 0.404440
Si Si2 0.996115 0.924873 0.482634
Si Si3 0.468391 0.345966 0.190535
Si Si4 0.137207 0.655429 0.402809
Si Si5 0.881102 0.481071 0.706139
Si Si6 0.983987 0.977789 0.680671
Si Si7 0.632662 0.307973 0.848867
O O1 0.652666 0.726016 0.442808
O O2 0.881691 0.836198 0.496805
O O3 0.931492 0.849367 0.311905
O O4 0.161975 0.724553 0.317148
O O5 0.079263 0.930840 0.556092
O O6 0.721062 0.982990 0.570113
O O7 0.247154 0.954842 0.324673
O O8 0.380961 0.433558 0.188458
O O9 0.289486 0.264865 0.236322
O O10 0.804339 0.338788 0.047865
O O11 0.236522 0.572074 0.322268
O O12 0.327780 0.676411 0.417709
O O13 0.733165 0.485579 0.662932
O O14 0.798998 0.392545 0.777274
#
# Coordination Sequence:
#
# PCOD9139288 Si02
#       7
#     4   4   4   4   4   4   4
#     4  10  24  48  69 109 146 188 256 307 367 465
#     4  12  27  44  76 107 151 195 247 316 379 442
#     4  10  24  49  70 106 154 190 252 316 362 461
#     4  11  24  46  76 103 149 200 246 314 385 436
#     4  11  25  47  70 111 146 194 253 305 374 456
#     4  11  27  44  72 107 149 194 247 306 380 442
#     4   9  23  46  71 107 139 191 247 308 373 444
#
# _framework density 24.350809999999999
#
# number of rings (size 3 to 8) (size 9 to 14) (size 15 to 20)
#    0.857    0.571    1.429    1.714   10.000    2.286 
#    5.143    0.000    0.000    0.000    0.000    0.000 
#    0.000    0.000    0.000    0.000    0.000    0.000 
#
# Total GULP energy -78172.635280 kJ/mol
# GULP energy per Si atom -5583.759663 kJ/mol
# Density = 2.429539 g / cm^3
# Si number density = 24.350810 Si / 1000 Ang^3
#
#
#
# Elastic Constant Matrix: (Units=GPa)
#
#
# Indices 1 2 3 4 5 6 
#
# 1 114.4404 23.9782 20.5387 -0.0001 10.2888 0.0000
# 2 23.9782 119.6323 -4.7814 -0.0001 0.8313 0.0000
# 3 20.5387 -4.7814 34.0826 -0.0012 -9.6257 0.0002
# 4 -0.0001 -0.0001 -0.0012 18.4004 0.0003 -3.4343
# 5 10.2888 0.8313 -9.6257 0.0003 39.2671 0.0002
# 6 0.0000 0.0000 0.0002 -3.4343 0.0002 26.2661
#
#
#
# Elastic Compliance Matrix: (Units=1/GPa)
#
#
# Indices 1 2 3 4 5 6 
#
# 1 0.011260 -0.002564 -0.008555 0.000000 -0.004993 0.000000
# 2 -0.002564 0.008990 0.003161 0.000000 0.001256 0.000000
# 3 -0.008555 0.003161 0.038198 0.000002 0.011538 0.000000
# 4 0.000000 0.000000 0.000002 0.055706 0.000000 0.007284
# 5 -0.004993 0.001256 0.011538 0.000000 0.029577 0.000000
# 6 0.000000 0.000000 0.000000 0.007284 0.000000 0.039024
#
#
# Mechanical properties :
#
#
# Convention : Reuss Voigt Hill
#
# Bulk Modulus (GPa) = 23.51145 38.62511 31.06828
# Shear Modulus (GPa) = 23.49084 32.01471 27.75278
#
# Velocity S-wave (km/s) = 3.10931 3.62985 3.37962
# Velocity P-wave (km/s) = 4.75044 5.78482 5.29296
#
# Compressibility (1/GPa) = 0.04253246
#
# Stress axis : x y z
#
# Youngs Moduli (GPa) = 88.81213 111.22876 26.17925
#
# Poissons Ratio (x) = 0.28520 0.22397
# Poissons Ratio (y) = 0.22772 -0.08276
# Poissons Ratio (z) = 0.75980 -0.35162
#
# Static dielectric constant tensor:
#      x y z
#    x 1.934930 0.000000 0.060280 
#    y 0.000000 2.231790 0.000000 
#    z 0.060280 0.000000 1.984730 
# 
# From -- ./inp_files/29529.got.cif
#   From: 2010.05.17/outbox.cif.g08.bks.cpg/sg9_15_cif.got.tgz:29529.got - 2010.06.03 20:04:27.
