data_PCOD9139797
_publ_section_title
;
Structure prediction by ZEFSAII (Michael W. Deem and Ramdas Pophale) SiO2 
 PCOD9139797
Probable space group: C C
;
_chemical_formula_sum "Si O2"
_cell_formula_units_Z 20
_cell_length_a 12.846548
_cell_length_b 13.663989
_cell_length_c 5.519831
_cell_angle_alpha 90.000000
_cell_angle_beta 54.976432
_cell_angle_gamma 90.000000
_cell_volume 793.467434
_symmetry_space_group_name_H-M "C C"
_symmetry_group_IT_number 9
_symmetry_cell_setting 'monoclinic'
loop_
_space_group_symop_operation_xyz
x,y,z
x,-y,1/2+z
1/2+x,1/2+y,z
1/2+x,1/2-y,1/2+z
loop_
_atom_site_type_symbol
_atom_site_label
_atom_site_fract_x
_atom_site_fract_y
_atom_site_fract_z
Si Si1 0.727280 0.765171 0.886180
Si Si2 0.519928 0.578103 0.725993
Si Si3 0.287928 0.035540 0.810416
Si Si4 0.477143 0.309806 0.787690
Si Si5 0.739712 0.957111 0.596764
O O1 0.766199 0.651257 0.793939
O O2 0.827662 0.793460 0.960363
O O3 0.742752 0.840700 0.643861
O O4 0.580359 0.777039 0.152919
O O5 0.511603 0.640024 0.493501
O O6 0.650660 0.518379 0.534105
O O7 0.512877 0.641879 0.978427
O O8 0.349752 0.986726 0.489989
O O9 0.390479 0.484868 0.394830
O O10 0.686328 0.992317 0.411771
#
# Coordination Sequence:
#
# PCOD9139797 Si02
#       5
#     4   4   4   4   4
#     4  11  26  46  70 112 145 194 236 314 361 441
#     4  11  21  41  71 105 134 186 247 302 328 434
#     4  12  22  39  71 106 137 181 245 297 348 425
#     4  11  25  43  70 104 150 182 244 289 369 420
#     4  11  24  41  68  99 142 187 240 294 354 426
#
# _framework density 25.205822000000001
#
# number of rings (size 3 to 8) (size 9 to 14) (size 15 to 20)
#    0.000    0.800    4.000    3.600    2.800    9.600 
#    0.000    2.000    0.000    0.000    0.000    0.000 
#    0.000    0.000    0.000    0.000    0.000    0.000 
#
# Total GULP energy -55826.242786 kJ/mol
# GULP energy per Si atom -5582.624279 kJ/mol
# Density = 2.514845 g / cm^3
# Si number density = 25.205822 Si / 1000 Ang^3
#
#
#
# Elastic Constant Matrix: (Units=GPa)
#
#
# Indices 1 2 3 4 5 6 
#
# 1 71.7354 -2.8694 40.2541 0.0000 6.1887 0.0000
# 2 -2.8694 125.5534 59.0887 0.0000 19.2581 0.0000
# 3 40.2541 59.0887 180.6572 0.0000 52.6405 0.0000
# 4 0.0000 0.0000 0.0000 34.1411 0.0000 -0.3274
# 5 6.1887 19.2581 52.6405 0.0000 33.5727 0.0000
# 6 0.0000 0.0000 0.0000 -0.3274 0.0000 37.4622
#
#
#
# Elastic Compliance Matrix: (Units=1/GPa)
#
#
# Indices 1 2 3 4 5 6 
#
# 1 0.016995 0.002472 -0.006019 0.000000 0.004888 0.000000
# 2 0.002472 0.009794 -0.003653 0.000000 -0.000345 0.000000
# 3 -0.006019 -0.003653 0.013142 0.000000 -0.017400 0.000000
# 4 0.000000 0.000000 0.000000 0.029293 0.000000 0.000256
# 5 0.004888 -0.000345 -0.017400 0.000000 0.056366 0.000000
# 6 0.000000 0.000000 0.000000 0.000256 0.000000 0.026696
#
#
# Mechanical properties :
#
#
# Convention : Reuss Voigt Hill
#
# Bulk Modulus (GPa) = 39.17288 63.43253 51.30271
# Shear Modulus (GPa) = 28.53941 39.80005 34.16973
#
# Velocity S-wave (km/s) = 3.36855 3.97798 3.68588
# Velocity P-wave (km/s) = 5.54116 6.80584 6.20580
#
# Compressibility (1/GPa) = 0.02552786
#
# Stress axis : x y z
#
# Youngs Moduli (GPa) = 58.84050 102.10808 76.09370
#
# Poissons Ratio (x) = -0.25237 0.45804
# Poissons Ratio (y) = -0.14543 0.27800
# Poissons Ratio (z) = 0.35418 0.37305
#
# Static dielectric constant tensor:
#      x y z
#    x 2.044320 0.000000 -0.002200 
#    y 0.000000 2.128220 0.000000 
#    z -0.002200 0.000000 2.002640 
# 
# From -- ./inp_files/1509.got.cif
#   From: 2010.05.17/outbox.cif.g08.bks.cpg/sg9_1_cif.got.tgz:1509.got - 2010.06.03 20:04:27.
