data_PCOD9139071
_publ_section_title
;
Structure prediction by ZEFSAII (Michael W. Deem and Ramdas Pophale) SiO2 
 PCOD9139071
Probable space group: C C
;
_chemical_formula_sum "Si O2"
_cell_formula_units_Z 32
_cell_length_a 4.926051
_cell_length_b 30.923314
_cell_length_c 9.244708
_cell_angle_alpha 90.000000
_cell_angle_beta 73.755505
_cell_angle_gamma 90.000000
_cell_volume 1352.022997
_symmetry_space_group_name_H-M "C C"
_symmetry_group_IT_number 9
_symmetry_cell_setting 'monoclinic'
loop_
_space_group_symop_operation_xyz
x,y,z
x,-y,1/2+z
1/2+x,1/2+y,z
1/2+x,1/2-y,1/2+z
loop_
_atom_site_type_symbol
_atom_site_label
_atom_site_fract_x
_atom_site_fract_y
_atom_site_fract_z
Si Si1 0.113990 0.337039 0.533170
Si Si2 0.120927 0.982609 0.688271
Si Si3 0.333494 0.122970 0.440497
Si Si4 0.016596 0.470902 0.896900
Si Si5 0.502710 0.670307 0.697889
Si Si6 0.330283 0.257442 0.651050
Si Si7 0.236509 0.702636 0.438812
Si Si8 0.055941 0.115523 0.165304
O O1 0.286954 0.337253 0.358489
O O2 0.115331 0.288878 0.599631
O O3 0.278416 0.365944 0.628690
O O4 0.810741 0.357826 0.555254
O O5 0.827444 0.991960 0.821926
O O6 0.362540 0.976940 0.769394
O O7 0.066543 0.935248 0.629557
O O8 0.282565 0.012213 0.546981
O O9 0.532206 0.080891 0.417653
O O10 0.514345 0.167063 0.415690
O O11 0.132101 0.120522 0.327282
O O12 0.162693 0.127543 0.617127
O O13 0.704739 0.710487 0.708030
O O14 0.365095 0.686067 0.567658
O O15 0.572943 0.246169 0.503424
O O16 0.432785 0.283189 0.777265
#
# Coordination Sequence:
#
# PCOD9139071 Si02
#       8
#     4   4   4   4   4   4   4   4
#     4  12  26  44  68 100 138 181 238 298 355 425
#     4  11  25  47  75 111 145 190 238 300 364 443
#     4  10  24  44  68  98 135 191 230 290 354 440
#     4  11  25  46  77 107 149 188 244 292 372 434
#     4  11  27  40  63 100 136 183 241 294 365 420
#     4  11  24  40  62  96 133 186 231 299 351 424
#     4  11  24  42  65  92 140 181 241 290 361 423
#     4  11  25  45  72  98 138 184 235 285 362 427
#
# _framework density 23.668234999999999
#
# number of rings (size 3 to 8) (size 9 to 14) (size 15 to 20)
#    0.000    1.000    2.500    3.000   10.500    2.000 
#    0.000    0.000    0.000    0.000    0.000    0.000 
#    0.000    0.000    0.000    0.000    0.000    0.000 
#
# Total GULP energy -89380.792364 kJ/mol
# GULP energy per Si atom -5586.299523 kJ/mol
# Density = 2.361437 g / cm^3
# Si number density = 23.668235 Si / 1000 Ang^3
#
#
#
# Elastic Constant Matrix: (Units=GPa)
#
#
# Indices 1 2 3 4 5 6 
#
# 1 80.6841 14.1398 -1.5179 0.0000 -5.8693 0.0000
# 2 14.1398 82.5599 43.6116 0.0000 -5.4421 0.0000
# 3 -1.5179 43.6116 130.1839 0.0000 -24.1599 0.0000
# 4 0.0000 0.0000 0.0000 30.5302 0.0000 -10.3780
# 5 -5.8693 -5.4421 -24.1599 0.0000 40.4306 0.0000
# 6 0.0000 0.0000 0.0000 -10.3780 0.0000 24.1535
#
#
#
# Elastic Compliance Matrix: (Units=1/GPa)
#
#
# Indices 1 2 3 4 5 6 
#
# 1 0.013115 -0.002923 0.001589 0.000000 0.002460 0.000000
# 2 -0.002923 0.015411 -0.005500 0.000000 -0.001637 0.000000
# 3 0.001589 -0.005500 0.010626 0.000000 0.005840 0.000000
# 4 0.000000 0.000000 0.000000 0.038357 0.000000 0.016481
# 5 0.002460 -0.001637 0.005840 0.000000 0.028360 0.000000
# 6 0.000000 0.000000 0.000000 0.016481 0.000000 0.048483
#
#
# Mechanical properties :
#
#
# Convention : Reuss Voigt Hill
#
# Bulk Modulus (GPa) = 39.24291 45.09941 42.17116
# Shear Modulus (GPa) = 28.32592 34.83583 31.58088
#
# Velocity S-wave (km/s) = 3.46322 3.84062 3.65679
# Velocity P-wave (km/s) = 5.71036 6.22602 5.97376
#
# Compressibility (1/GPa) = 0.02548231
#
# Stress axis : x y z
#
# Youngs Moduli (GPa) = 76.24777 64.88974 94.10462
#
# Poissons Ratio (x) = 0.18969 -0.14951
# Poissons Ratio (y) = 0.22289 0.51762
# Poissons Ratio (z) = -0.12114 0.35692
#
# Static dielectric constant tensor:
#      x y z
#    x 1.946010 0.000000 -0.068830 
#    y 0.000000 1.940320 0.000000 
#    z -0.068830 0.000000 1.914520 
# 
# From -- ./inp_files/4398.got.cif
#   From: 2010.05.17/outbox.cif.g08.bks.cpg/sg9_3_cif.got.tgz:4398.got - 2010.06.03 20:04:27.
