data_PCOD9139775
_publ_section_title
;
Structure prediction by ZEFSAII (Michael W. Deem and Ramdas Pophale) SiO2 
 PCOD9139775
Probable space group: C C
;
_chemical_formula_sum "Si O2"
_cell_formula_units_Z 32
_cell_length_a 10.493197
_cell_length_b 8.343695
_cell_length_c 26.093187
_cell_angle_alpha 90.000000
_cell_angle_beta 144.351074
_cell_angle_gamma 90.000000
_cell_volume 1331.452399
_symmetry_space_group_name_H-M "C C"
_symmetry_group_IT_number 9
_symmetry_cell_setting 'monoclinic'
loop_
_space_group_symop_operation_xyz
x,y,z
x,-y,1/2+z
1/2+x,1/2+y,z
1/2+x,1/2-y,1/2+z
loop_
_atom_site_type_symbol
_atom_site_label
_atom_site_fract_x
_atom_site_fract_y
_atom_site_fract_z
Si Si1 0.487740 0.721264 0.087590
Si Si2 0.256321 0.992240 0.354458
Si Si3 0.622350 0.175491 0.533895
Si Si4 0.823045 0.868746 0.752278
Si Si5 0.276661 0.611593 0.347459
Si Si6 0.537367 0.386731 0.104577
Si Si7 0.670533 0.442357 0.036172
Si Si8 0.095223 0.423334 0.385810
O O1 0.625504 0.838047 0.096039
O O2 0.631860 0.564772 0.148332
O O3 0.381328 0.830489 0.096358
O O4 0.293568 0.642272 0.987421
O O5 0.398084 0.089088 0.443182
O O6 0.004079 0.039859 0.278225
O O7 0.249659 0.798818 0.352532
O O8 0.413239 0.027189 0.356729
O O9 0.667878 0.366166 0.541389
O O10 0.811445 0.101786 0.561598
O O11 0.964821 0.729506 0.824708
O O12 0.714321 0.939657 0.769117
O O13 0.652441 0.771400 0.662828
O O14 0.533462 0.579249 0.439592
O O15 0.173749 0.509176 0.359844
O O16 0.547430 0.374477 0.046338
#
# Coordination Sequence:
#
# PCOD9139775 Si02
#       8
#     4   4   4   4   4   4   4   4
#     4  11  21  42  65  95 124 166 217 265 317 380
#     4  11  21  39  65  95 125 167 219 257 324 387
#     4  11  21  39  65  95 125 167 219 257 324 387
#     4  11  25  42  61  94 136 165 207 275 327 371
#     4  11  21  39  65  93 126 165 218 265 314 388
#     4  11  25  42  61  94 136 165 207 275 327 371
#     4  11  21  39  65  93 126 165 218 265 314 388
#     4  11  21  42  65  95 124 166 217 265 317 380
#
# _framework density 24.033902999999999
#
# number of rings (size 3 to 8) (size 9 to 14) (size 15 to 20)
#    0.000    1.000    7.500    0.000    0.000   10.000 
#    0.000    1.250    0.000    0.000    0.000    0.000 
#    0.000    0.000    0.000    0.000    0.000    0.000 
#
# Total GULP energy -89131.851849 kJ/mol
# GULP energy per Si atom -5570.740741 kJ/mol
# Density = 2.397920 g / cm^3
# Si number density = 24.033903 Si / 1000 Ang^3
#
#
#
# Elastic Constant Matrix: (Units=GPa)
#
#
# Indices 1 2 3 4 5 6 
#
# 1 154.6050 32.0187 12.9111 0.0000 -5.4543 0.0000
# 2 32.0187 30.5388 5.2264 0.0000 9.8485 0.0000
# 3 12.9111 5.2264 50.3186 0.0000 -1.2573 0.0000
# 4 0.0000 0.0000 0.0000 27.3048 0.0000 10.4992
# 5 -5.4543 9.8485 -1.2573 0.0000 18.1627 0.0000
# 6 0.0000 0.0000 0.0000 10.4992 0.0000 1.6335
#
#
#
# Elastic Compliance Matrix: (Units=1/GPa)
#
#
# Indices 1 2 3 4 5 6 
#
# 1 0.009612 -0.013142 -0.000853 0.000000 0.009954 0.000000
# 2 -0.013142 0.058778 -0.003634 0.000000 -0.036070 0.000000
# 3 -0.000853 -0.003634 0.020548 0.000000 0.003137 0.000000
# 4 0.000000 0.000000 0.000000 -0.024889 0.000000 0.159973
# 5 0.009954 -0.036070 0.003137 0.000000 0.077823 0.000000
# 6 0.000000 0.000000 0.000000 0.159973 0.000000 -0.416035
#
#
# Mechanical properties :
#
#
# Convention : Reuss Voigt Hill
#
# Bulk Modulus (GPa) = 18.62868 37.30831 27.96849
# Shear Modulus (GPa) = -22.62332 21.77393 -0.42470
#
# Velocity S-wave (km/s) = -3.07140 3.01319 -0.42082
# Velocity P-wave (km/s) = 2.19322 5.25953 3.38027
#
# Compressibility (1/GPa) = 0.05368067
#
# Stress axis : x y z
#
# Youngs Moduli (GPa) = 104.03496 17.01311 48.66655
#
# Poissons Ratio (x) = 0.22359 0.04150
# Poissons Ratio (y) = 1.36722 0.17686
# Poissons Ratio (z) = 0.08871 0.06183
#
# Static dielectric constant tensor:
#      x y z
#    x 2.010350 0.000000 0.031200 
#    y 0.000000 1.988160 0.000000 
#    z 0.031200 0.000000 1.985510 
# 
# From -- ./inp_files/37244.got.cif
#   From: 2010.05.17/outbox.cif.g08.bks.cpg/sg9_19_cif.got.tgz:37244.got - 2010.06.03 20:04:27.
