data_PCOD9139282
_publ_section_title
;
Structure prediction by ZEFSAII (Michael W. Deem and Ramdas Pophale) SiO2 
 PCOD9139282
Probable space group: C C
;
_chemical_formula_sum "Si O2"
_cell_formula_units_Z 32
_cell_length_a 9.144636
_cell_length_b 12.147800
_cell_length_c 13.613458
_cell_angle_alpha 90.000000
_cell_angle_beta 68.503922
_cell_angle_gamma 90.000000
_cell_volume 1407.090799
_symmetry_space_group_name_H-M "C C"
_symmetry_group_IT_number 9
_symmetry_cell_setting 'monoclinic'
loop_
_space_group_symop_operation_xyz
x,y,z
x,-y,1/2+z
1/2+x,1/2+y,z
1/2+x,1/2-y,1/2+z
loop_
_atom_site_type_symbol
_atom_site_label
_atom_site_fract_x
_atom_site_fract_y
_atom_site_fract_z
Si Si1 0.611290 0.633174 0.507000
Si Si2 0.733905 0.115645 0.794882
Si Si3 0.592020 0.673001 0.282024
Si Si4 0.078289 0.614345 0.035085
Si Si5 0.564075 0.672032 0.819022
Si Si6 0.770907 0.480150 0.139317
Si Si7 0.910450 0.075780 0.044222
Si Si8 0.784223 0.139143 0.262941
O O1 0.642046 0.644198 0.382400
O O2 0.570286 0.754434 0.558755
O O3 0.747543 0.578741 0.539787
O O4 0.472672 0.545103 0.554768
O O5 0.669889 0.209722 0.738916
O O6 0.902390 0.153167 0.798947
O O7 0.752855 0.990039 0.761172
O O8 0.600802 0.112337 0.912592
O O9 0.652050 0.580858 0.191835
O O10 0.402981 0.668991 0.321479
O O11 0.240864 0.568542 0.036294
O O12 0.938227 0.538312 0.106039
O O13 0.709613 0.608067 0.733459
O O14 0.622313 0.796439 0.808015
O O15 0.529354 0.624660 0.934858
O O16 0.883177 0.160612 0.139481
#
# Coordination Sequence:
#
# PCOD9139282 Si02
#       8
#     4   4   4   4   4   4   4   4
#     4  11  23  48  71  96 146 189 225 295 356 410
#     4  10  24  48  66  99 144 183 233 296 352 419
#     4  11  24  44  70 102 138 183 235 288 351 420
#     4  10  26  44  71 105 137 189 240 286 357 426
#     4  11  25  48  71 101 149 186 235 299 358 416
#     4  12  24  45  73 105 140 186 238 288 357 423
#     4  11  23  46  70 101 143 186 229 298 355 414
#     4  12  25  45  72 105 137 192 237 290 360 422
#
# _framework density 22.741958
#
# number of rings (size 3 to 8) (size 9 to 14) (size 15 to 20)
#    0.000    1.000    3.750    1.500    5.250    7.000 
#    0.000    1.250    0.000    0.000    0.000    0.000 
#    0.000    0.000    0.000    0.000    0.000    0.000 
#
# Total GULP energy -89399.346511 kJ/mol
# GULP energy per Si atom -5587.459157 kJ/mol
# Density = 2.269020 g / cm^3
# Si number density = 22.741958 Si / 1000 Ang^3
#
#
#
# Elastic Constant Matrix: (Units=GPa)
#
#
# Indices 1 2 3 4 5 6 
#
# 1 47.8921 53.4481 18.9909 0.0000 -15.4297 0.0000
# 2 53.4481 149.5802 18.0012 0.0000 -12.7240 0.0000
# 3 18.9909 18.0012 58.6440 0.0000 -10.2307 0.0000
# 4 0.0000 0.0000 0.0000 21.3268 0.0000 -9.1976
# 5 -15.4297 -12.7240 -10.2307 0.0000 29.4358 0.0000
# 6 0.0000 0.0000 0.0000 -9.1976 0.0000 38.7489
#
#
#
# Elastic Compliance Matrix: (Units=1/GPa)
#
#
# Indices 1 2 3 4 5 6 
#
# 1 0.043408 -0.013392 -0.007438 0.000000 0.014380 0.000000
# 2 -0.013392 0.011238 0.000543 0.000000 -0.001974 0.000000
# 3 -0.007438 0.000543 0.019859 0.000000 0.003238 0.000000
# 4 0.000000 0.000000 0.000000 0.052237 0.000000 0.012399
# 5 0.014380 -0.001974 0.003238 0.000000 0.041782 0.000000
# 6 0.000000 0.000000 0.000000 0.012399 0.000000 0.028750
#
#
# Mechanical properties :
#
#
# Convention : Reuss Voigt Hill
#
# Bulk Modulus (GPa) = 29.47158 48.55519 39.01338
# Shear Modulus (GPa) = 20.06760 28.94738 24.50749
#
# Velocity S-wave (km/s) = 2.97375 3.57159 3.28629
# Velocity P-wave (km/s) = 4.97777 6.19719 5.62065
#
# Compressibility (1/GPa) = 0.03393100
#
# Stress axis : x y z
#
# Youngs Moduli (GPa) = 23.03702 88.98773 50.35561
#
# Poissons Ratio (x) = 1.19176 0.37452
# Poissons Ratio (y) = 0.30852 -0.02735
# Poissons Ratio (z) = 0.17134 -0.04833
#
# Static dielectric constant tensor:
#      x y z
#    x 1.863950 0.000000 0.040750 
#    y 0.000000 1.872510 0.000000 
#    z 0.040750 0.000000 1.935940 
# 
# From -- ./inp_files/22884.got.cif
#   From: 2010.05.17/outbox.cif.g08.bks.cpg/sg9_12_cif.got.tgz:22884.got - 2010.06.03 20:04:27.
