data_PCOD9139253
_publ_section_title
;
Structure prediction by ZEFSAII (Michael W. Deem and Ramdas Pophale) SiO2 
 PCOD9139253
Probable space group: C C
;
_chemical_formula_sum "Si O2"
_cell_formula_units_Z 28
_cell_length_a 16.643209
_cell_length_b 13.381274
_cell_length_c 7.755889
_cell_angle_alpha 90.000000
_cell_angle_beta 140.144524
_cell_angle_gamma 90.000000
_cell_volume 1106.941648
_symmetry_space_group_name_H-M "C C"
_symmetry_group_IT_number 9
_symmetry_cell_setting 'monoclinic'
loop_
_space_group_symop_operation_xyz
x,y,z
x,-y,1/2+z
1/2+x,1/2+y,z
1/2+x,1/2-y,1/2+z
loop_
_atom_site_type_symbol
_atom_site_label
_atom_site_fract_x
_atom_site_fract_y
_atom_site_fract_z
Si Si1 0.172870 0.304875 0.312490
Si Si2 0.697638 0.651213 0.050604
Si Si3 0.095307 0.795649 0.032783
Si Si4 0.932573 0.410743 0.783547
Si Si5 0.953757 0.057796 0.520975
Si Si6 0.275569 0.464434 0.016901
Si Si7 0.505303 0.109216 0.041624
O O1 0.215283 0.230058 0.230773
O O2 0.160198 0.236866 0.463708
O O3 0.242025 0.414492 0.442600
O O4 0.031410 0.334624 0.026086
O O5 0.816174 0.582047 0.219384
O O6 0.689784 0.704981 0.851019
O O7 0.571613 0.584262 0.838596
O O8 0.011163 0.893233 0.937983
O O9 0.998867 0.708792 0.923553
O O10 0.914494 0.385308 0.554417
O O11 0.989282 0.520672 0.881854
O O12 0.888945 0.957505 0.341290
O O13 0.833603 0.087136 0.442142
O O14 0.144487 0.413579 0.848222
#
# Coordination Sequence:
#
# PCOD9139253 Si02
#       7
#     4   4   4   4   4   4   4
#     4  11  23  45  75 105 139 193 241 291 358 419
#     4  10  26  46  69 105 146 186 232 296 363 424
#     4  10  24  47  69 109 137 183 243 289 359 420
#     4  11  23  44  69 105 141 185 234 296 348 433
#     4  10  25  43  68 109 142 182 235 302 354 415
#     4  11  23  44  74 104 141 187 244 290 353 434
#     4  11  22  43  72 105 138 186 243 286 353 425
#
# _framework density 25.294917999999999
#
# number of rings (size 3 to 8) (size 9 to 14) (size 15 to 20)
#    0.857    0.571    1.429    4.286    2.000    6.857 
#    2.571    0.000    0.000    0.000    0.000    0.000 
#    0.000    0.000    0.000    0.000    0.000    0.000 
#
# Total GULP energy -77937.394510 kJ/mol
# GULP energy per Si atom -5566.956751 kJ/mol
# Density = 2.523735 g / cm^3
# Si number density = 25.294918 Si / 1000 Ang^3
#
#
#
# Elastic Constant Matrix: (Units=GPa)
#
#
# Indices 1 2 3 4 5 6 
#
# 1 162.2993 34.2409 28.7679 0.0000 -5.5564 0.0000
# 2 34.2409 58.1661 8.7761 0.0000 2.4924 0.0000
# 3 28.7679 8.7761 40.6420 0.0000 -1.7812 0.0000
# 4 0.0000 0.0000 0.0000 21.7459 0.0000 -4.6466
# 5 -5.5564 2.4924 -1.7812 0.0000 40.6245 0.0000
# 6 0.0000 0.0000 0.0000 -4.6466 0.0000 41.3357
#
#
#
# Elastic Compliance Matrix: (Units=1/GPa)
#
#
# Indices 1 2 3 4 5 6 
#
# 1 0.007864 -0.003974 -0.004659 0.000000 0.001115 0.000000
# 2 -0.003974 0.019844 -0.001552 0.000000 -0.001829 0.000000
# 3 -0.004659 -0.001552 0.028269 0.000000 0.000697 0.000000
# 4 0.000000 0.000000 0.000000 0.047117 0.000000 0.005297
# 5 0.001115 -0.001829 0.000697 0.000000 0.024911 0.000000
# 6 0.000000 0.000000 0.000000 0.005297 0.000000 0.024788
#
#
# Mechanical properties :
#
#
# Convention : Reuss Voigt Hill
#
# Bulk Modulus (GPa) = 28.08545 44.96413 36.52479
# Shear Modulus (GPa) = 27.02222 33.36273 30.19247
#
# Velocity S-wave (km/s) = 3.27201 3.63567 3.45863
# Velocity P-wave (km/s) = 5.04004 5.95304 5.51547
#
# Compressibility (1/GPa) = 0.03560563
#
# Stress axis : x y z
#
# Youngs Moduli (GPa) = 127.16269 50.39261 35.37458
#
# Poissons Ratio (x) = 0.20026 0.16482
# Poissons Ratio (y) = 0.50536 0.05491
# Poissons Ratio (z) = 0.59250 0.07822
#
# Static dielectric constant tensor:
#      x y z
#    x 2.005170 0.000000 -0.004930 
#    y 0.000000 2.044860 0.000000 
#    z -0.004930 0.000000 2.156490 
# 
# From -- ./inp_files/9768.got.cif
#   From: 2010.05.17/outbox.cif.g08.bks.cpg/sg9_5_cif.got.tgz:9768.got - 2010.06.03 20:04:27.
