data_PCOD9139455
_publ_section_title
;
Structure prediction by ZEFSAII (Michael W. Deem and Ramdas Pophale) SiO2 
 PCOD9139455
Probable space group: C C
;
_chemical_formula_sum "Si O2"
_cell_formula_units_Z 32
_cell_length_a 17.239333
_cell_length_b 5.198375
_cell_length_c 14.895900
_cell_angle_alpha 90.000000
_cell_angle_beta 117.004509
_cell_angle_gamma 90.000000
_cell_volume 1189.373561
_symmetry_space_group_name_H-M "C C"
_symmetry_group_IT_number 9
_symmetry_cell_setting 'monoclinic'
loop_
_space_group_symop_operation_xyz
x,y,z
x,-y,1/2+z
1/2+x,1/2+y,z
1/2+x,1/2-y,1/2+z
loop_
_atom_site_type_symbol
_atom_site_label
_atom_site_fract_x
_atom_site_fract_y
_atom_site_fract_z
Si Si1 0.884620 0.617807 0.458180
Si Si2 0.574991 0.276849 0.527358
Si Si3 0.655590 0.890483 0.714443
Si Si4 0.126355 0.457536 0.398771
Si Si5 0.827142 0.593180 0.756873
Si Si6 0.238605 0.900602 0.035846
Si Si7 0.479396 0.725484 0.241599
Si Si8 0.976204 0.754618 0.120987
O O1 0.842644 0.620989 0.338431
O O2 0.800441 0.609397 0.480040
O O3 0.925424 0.341474 0.507938
O O4 0.972248 0.798750 0.505178
O O5 0.647897 0.463724 0.520034
O O6 0.624547 0.132340 0.636921
O O7 0.560161 0.100732 0.429323
O O8 0.747331 0.777142 0.736877
O O9 0.577209 0.691788 0.650402
O O10 0.657847 0.912123 0.823999
O O11 0.203972 0.390858 0.507133
O O12 0.076893 0.208623 0.331007
O O13 0.803492 0.499840 0.645410
O O14 0.914847 0.750907 0.790030
O O15 0.446558 0.491360 0.164725
O O16 0.480672 0.994307 0.185955
#
# Coordination Sequence:
#
# PCOD9139455 Si02
#       8
#     4   4   4   4   4   4   4   4
#     4  11  26  49  73 117 156 211 273 333 420 498
#     4  11  25  51  73 108 161 205 265 334 417 488
#     4  10  25  45  75 111 150 207 267 328 410 491
#     4  11  25  50  72 109 153 209 260 333 408 486
#     4  12  25  46  74 118 148 208 277 329 411 494
#     4  12  28  48  78 110 160 206 272 348 401 504
#     4  11  25  47  79 110 157 203 259 330 399 482
#     4  10  25  50  74 111 159 205 257 329 404 479
#
# _framework density 26.904917000000001
#
# number of rings (size 3 to 8) (size 9 to 14) (size 15 to 20)
#    0.000    1.000    3.750    0.750    8.750    3.000 
#    2.250    0.000    0.000    0.000    0.000    0.000 
#    0.000    0.000    0.000    0.000    0.000    0.000 
#
# Total GULP energy -89187.056500 kJ/mol
# GULP energy per Si atom -5574.191031 kJ/mol
# Density = 2.684368 g / cm^3
# Si number density = 26.904917 Si / 1000 Ang^3
#
#
#
# Elastic Constant Matrix: (Units=GPa)
#
#
# Indices 1 2 3 4 5 6 
#
# 1 178.4536 23.3903 9.3278 0.0000 -23.7255 0.0000
# 2 23.3903 54.7778 -5.6972 0.0001 -7.1706 -0.0001
# 3 9.3278 -5.6972 99.5701 0.0000 -20.4124 0.0000
# 4 0.0000 0.0001 0.0000 31.7198 0.0000 -1.3559
# 5 -23.7255 -7.1706 -20.4124 0.0000 44.1722 0.0000
# 6 0.0000 -0.0001 0.0000 -1.3559 0.0000 19.1236
#
#
#
# Elastic Compliance Matrix: (Units=1/GPa)
#
#
# Indices 1 2 3 4 5 6 
#
# 1 0.006307 -0.002318 -0.000117 0.000000 0.002957 0.000000
# 2 -0.002318 0.019823 0.001940 0.000000 0.002869 0.000000
# 3 -0.000117 0.001940 0.011286 0.000000 0.005467 0.000000
# 4 0.000000 0.000000 0.000000 0.031622 0.000000 0.002242
# 5 0.002957 0.002869 0.005467 0.000000 0.027219 0.000000
# 6 0.000000 0.000000 0.000000 0.002242 0.000000 0.052450
#
#
# Mechanical properties :
#
#
# Convention : Reuss Voigt Hill
#
# Bulk Modulus (GPa) = 27.45459 42.98259 35.21859
# Shear Modulus (GPa) = 30.89471 39.38846 35.14159
#
# Velocity S-wave (km/s) = 3.39232 3.83036 3.61798
# Velocity P-wave (km/s) = 5.05670 5.96428 5.52914
#
# Compressibility (1/GPa) = 0.03642378
#
# Stress axis : x y z
#
# Youngs Moduli (GPa) = 158.55891 50.44712 88.60571
#
# Poissons Ratio (x) = 0.11694 0.01039
# Poissons Ratio (y) = 0.36756 -0.17186
# Poissons Ratio (z) = 0.01859 -0.09785
#
# Static dielectric constant tensor:
#      x y z
#    x 2.167640 0.000000 0.017330 
#    y 0.000000 2.176860 0.000000 
#    z 0.017330 0.000000 2.205330 
# 
# From -- ./inp_files/26489.got.cif
#   From: 2010.05.17/outbox.cif.g08.bks.cpg/sg9_14_cif.got.tgz:26489.got - 2010.06.03 20:04:27.
