data_PCOD9139236
_publ_section_title
;
Structure prediction by ZEFSAII (Michael W. Deem and Ramdas Pophale) SiO2 
 PCOD9139236
Probable space group: C C
;
_chemical_formula_sum "Si O2"
_cell_formula_units_Z 20
_cell_length_a 22.546355
_cell_length_b 7.202952
_cell_length_c 8.810128
_cell_angle_alpha 90.000000
_cell_angle_beta 145.521471
_cell_angle_gamma 90.000000
_cell_volume 809.953735
_symmetry_space_group_name_H-M "C C"
_symmetry_group_IT_number 9
_symmetry_cell_setting 'monoclinic'
loop_
_space_group_symop_operation_xyz
x,y,z
x,-y,1/2+z
1/2+x,1/2+y,z
1/2+x,1/2-y,1/2+z
loop_
_atom_site_type_symbol
_atom_site_label
_atom_site_fract_x
_atom_site_fract_y
_atom_site_fract_z
Si Si1 0.020610 0.753842 0.457830
Si Si2 0.254426 0.259717 0.233014
Si Si3 0.297688 0.890613 0.486641
Si Si4 0.150362 0.365157 0.497828
Si Si5 0.979734 0.914488 0.681488
O O1 0.117453 0.666119 0.753527
O O2 0.979671 0.902143 0.499181
O O3 0.025494 0.888258 0.325270
O O4 0.923659 0.612630 0.240151
O O5 0.253663 0.089899 0.347612
O O6 0.262653 0.172269 0.080716
O O7 0.363530 0.369007 0.489320
O O8 0.165800 0.417382 0.053489
O O9 0.252225 0.744898 0.268328
O O10 0.057160 0.256033 0.388166
#
# Coordination Sequence:
#
# PCOD9139236 Si02
#       5
#     4   4   4   4   4
#     4   9  21  44  70 109 146 195 247 302 384 439
#     4  11  25  48  72 106 155 198 252 305 383 446
#     4  11  25  44  73 108 150 202 244 316 372 452
#     4  10  24  46  74 106 148 200 245 313 374 444
#     4   9  21  44  73 105 147 197 242 312 373 449
#
# _framework density 24.692768000000001
#
# number of rings (size 3 to 8) (size 9 to 14) (size 15 to 20)
#    1.200    0.800    2.000    0.000    2.800    4.800 
#    3.600    0.000    4.400    0.000    0.000    0.000 
#    0.000    0.000    0.000    0.000    0.000    0.000 
#
# Total GULP energy -55876.113413 kJ/mol
# GULP energy per Si atom -5587.611341 kJ/mol
# Density = 2.463657 g / cm^3
# Si number density = 24.692768 Si / 1000 Ang^3
#
#
#
# Elastic Constant Matrix: (Units=GPa)
#
#
# Indices 1 2 3 4 5 6 
#
# 1 24.1215 29.9060 22.2565 0.0000 -2.2417 0.0000
# 2 29.9060 179.6819 59.4291 0.0000 -10.5630 0.0000
# 3 22.2565 59.4291 133.3892 0.0000 -18.7038 0.0000
# 4 0.0000 0.0000 0.0000 49.8887 0.0000 -5.1401
# 5 -2.2417 -10.5630 -18.7038 0.0000 21.6984 0.0000
# 6 0.0000 0.0000 0.0000 -5.1401 0.0000 26.4882
#
#
#
# Elastic Compliance Matrix: (Units=1/GPa)
#
#
# Indices 1 2 3 4 5 6 
#
# 1 0.056409 -0.007411 -0.006596 0.000000 -0.003466 0.000000
# 2 -0.007411 0.007512 -0.001939 0.000000 0.001220 0.000000
# 3 -0.006596 -0.001939 0.010503 0.000000 0.007428 0.000000
# 4 0.000000 0.000000 0.000000 0.020454 0.000000 0.003969
# 5 -0.003466 0.001220 0.007428 0.000000 0.052725 0.000000
# 6 0.000000 0.000000 0.000000 0.003969 0.000000 0.038523
#
#
# Mechanical properties :
#
#
# Convention : Reuss Voigt Hill
#
# Bulk Modulus (GPa) = 23.51210 62.26397 42.88803
# Shear Modulus (GPa) = 21.53363 34.65512 28.09437
#
# Velocity S-wave (km/s) = 2.95627 3.75033 3.37672
# Velocity P-wave (km/s) = 4.60383 6.63502 5.71046
#
# Compressibility (1/GPa) = 0.04253129
#
# Stress axis : x y z
#
# Youngs Moduli (GPa) = 17.72769 133.12173 95.21047
#
# Poissons Ratio (x) = 0.98652 0.62804
# Poissons Ratio (y) = 0.13137 0.18464
# Poissons Ratio (z) = 0.11694 0.25816
#
# Static dielectric constant tensor:
#      x y z
#    x 2.086970 0.000000 0.067990 
#    y 0.000000 1.930450 0.000000 
#    z 0.067990 0.000000 1.941740 
# 
# From -- ./inp_files/21371.got.cif
#   From: 2010.05.17/outbox.cif.g08.bks.cpg/sg9_11_cif.got.tgz:21371.got - 2010.06.03 20:04:27.
