data_PCOD9139838
_publ_section_title
;
Structure prediction by ZEFSAII (Michael W. Deem and Ramdas Pophale) SiO2 
 PCOD9139838
Probable space group: C C
;
_chemical_formula_sum "Si O2"
_cell_formula_units_Z 32
_cell_length_a 14.135718
_cell_length_b 10.601316
_cell_length_c 9.412302
_cell_angle_alpha 90.000000
_cell_angle_beta 71.401553
_cell_angle_gamma 90.000000
_cell_volume 1336.840815
_symmetry_space_group_name_H-M "C C"
_symmetry_group_IT_number 9
_symmetry_cell_setting 'monoclinic'
loop_
_space_group_symop_operation_xyz
x,y,z
x,-y,1/2+z
1/2+x,1/2+y,z
1/2+x,1/2-y,1/2+z
loop_
_atom_site_type_symbol
_atom_site_label
_atom_site_fract_x
_atom_site_fract_y
_atom_site_fract_z
Si Si1 0.599170 0.395389 0.284300
Si Si2 0.212974 0.934826 0.520419
Si Si3 0.706700 0.910519 0.315850
Si Si4 0.208479 0.654410 0.139027
Si Si5 0.939786 0.781976 0.529762
Si Si6 0.866252 0.745802 0.104027
Si Si7 0.408797 0.935165 0.842071
Si Si8 0.010993 0.290125 0.296163
O O1 0.665555 0.396223 0.394816
O O2 0.633139 0.509766 0.169200
O O3 0.631717 0.269168 0.186665
O O4 0.487780 0.383007 0.398289
O O5 0.279407 0.825508 0.557860
O O6 0.293779 0.042686 0.441960
O O7 0.701403 0.905856 0.487056
O O8 0.813849 0.860234 0.210495
O O9 0.622719 0.818010 0.291562
O O10 0.687211 0.048775 0.265610
O O11 0.322255 0.699506 0.106090
O O12 0.955402 0.647836 0.444773
O O13 0.994260 0.777218 0.654541
O O14 0.908208 0.645099 0.197887
O O15 0.951752 0.779195 0.951028
O O16 0.459633 0.070962 0.804244
#
# Coordination Sequence:
#
# PCOD9139838 Si02
#       8
#     4   4   4   4   4   4   4   4
#     4  12  26  47  76 104 149 182 249 300 362 435
#     4  11  22  44  75 106 138 187 238 304 361 417
#     4  12  29  48  73 107 153 195 244 294 374 437
#     4  12  29  49  73 108 155 195 238 305 369 440
#     4  12  26  47  70 106 149 190 239 301 373 431
#     4  11  23  45  72 104 143 184 245 302 356 428
#     4  11  21  44  72 104 139 183 245 307 353 427
#     4  11  26  42  79 107 136 192 256 297 362 429
#
# _framework density 23.937031000000001
#
# number of rings (size 3 to 8) (size 9 to 14) (size 15 to 20)
#    0.000    0.500    3.750    4.500   10.500    1.000 
#    2.250    0.000    0.000    0.000    0.000    0.000 
#    0.000    0.000    0.000    0.000    0.000    0.000 
#
# Total GULP energy -89701.466494 kJ/mol
# GULP energy per Si atom -5606.341656 kJ/mol
# Density = 2.388255 g / cm^3
# Si number density = 23.937031 Si / 1000 Ang^3
#
#
#
# Elastic Constant Matrix: (Units=GPa)
#
#
# Indices 1 2 3 4 5 6 
#
# 1 65.2191 11.8923 17.8742 0.0000 -2.7592 0.0000
# 2 11.8923 27.0131 15.6627 0.0000 -3.6661 0.0000
# 3 17.8742 15.6627 104.8428 0.0000 8.5776 0.0000
# 4 0.0000 0.0000 0.0000 36.4001 0.0000 -3.9375
# 5 -2.7592 -3.6661 8.5776 0.0000 51.2995 0.0000
# 6 0.0000 0.0000 0.0000 -3.9375 0.0000 28.0686
#
#
#
# Elastic Compliance Matrix: (Units=1/GPa)
#
#
# Indices 1 2 3 4 5 6 
#
# 1 0.017062 -0.006213 -0.002047 0.000000 0.000816 0.000000
# 2 -0.006213 0.043603 -0.005761 0.000000 0.003745 0.000000
# 3 -0.002047 -0.005761 0.010940 0.000000 -0.002351 0.000000
# 4 0.000000 0.000000 0.000000 0.027896 0.000000 0.003913
# 5 0.000816 0.003745 -0.002351 0.000000 0.020198 0.000000
# 6 0.000000 0.000000 0.000000 0.003913 0.000000 0.036176
#
#
# Mechanical properties :
#
#
# Convention : Reuss Voigt Hill
#
# Bulk Modulus (GPa) = 22.95616 31.99260 27.47438
# Shear Modulus (GPa) = 25.19672 33.26336 29.23004
#
# Velocity S-wave (km/s) = 3.24794 3.73180 3.49825
# Velocity P-wave (km/s) = 4.86585 5.65357 5.27444
#
# Compressibility (1/GPa) = 0.04356129
#
# Stress axis : x y z
#
# Youngs Moduli (GPa) = 58.61144 22.93409 91.40655
#
# Poissons Ratio (x) = 0.14250 0.18713
# Poissons Ratio (y) = 0.36418 0.52660
# Poissons Ratio (z) = 0.11999 0.13213
#
# Static dielectric constant tensor:
#      x y z
#    x 1.897840 0.000000 -0.045280 
#    y 0.000000 1.905430 0.000000 
#    z -0.045280 0.000000 1.873180 
# 
# From -- ./inp_files/9082.got.cif
#   From: 2010.05.17/outbox.cif.g08.bks.cpg/sg9_5_cif.got.tgz:9082.got - 2010.06.03 20:04:27.
