data_PCOD9139065
_publ_section_title
;
Structure prediction by ZEFSAII (Michael W. Deem and Ramdas Pophale) SiO2 
 PCOD9139065
Probable space group: C C
;
_chemical_formula_sum "Si O2"
_cell_formula_units_Z 28
_cell_length_a 15.738966
_cell_length_b 13.969688
_cell_length_c 5.392055
_cell_angle_alpha 90.000000
_cell_angle_beta 60.664762
_cell_angle_gamma 90.000000
_cell_volume 1033.518380
_symmetry_space_group_name_H-M "C C"
_symmetry_group_IT_number 9
_symmetry_cell_setting 'monoclinic'
loop_
_space_group_symop_operation_xyz
x,y,z
x,-y,1/2+z
1/2+x,1/2+y,z
1/2+x,1/2-y,1/2+z
loop_
_atom_site_type_symbol
_atom_site_label
_atom_site_fract_x
_atom_site_fract_y
_atom_site_fract_z
Si Si1 0.047680 0.743467 0.358410
Si Si2 0.338923 0.542962 0.196724
Si Si3 0.221866 0.792697 0.810169
Si Si4 0.316753 0.787610 0.169107
Si Si5 0.609154 0.947527 0.047224
Si Si6 0.040207 0.937948 0.572228
Si Si7 0.835055 0.494568 0.667913
O O1 0.073459 0.651184 0.482634
O O2 0.932803 0.725426 0.473640
O O3 0.087033 0.835309 0.461241
O O4 0.108793 0.765588 0.016639
O O5 0.355438 0.456346 0.375985
O O6 0.226577 0.560664 0.388093
O O7 0.428417 0.598648 0.191625
O O8 0.272883 0.752793 0.491531
O O9 0.258988 0.905926 0.767075
O O10 0.270219 0.747648 0.986419
O O11 0.288314 0.900923 0.216524
O O12 0.585647 0.025974 0.865335
O O13 0.057199 0.991325 0.809346
O O14 0.894956 0.494646 0.331748
#
# Coordination Sequence:
#
# PCOD9139065 Si02
#       7
#     4   4   4   4   4   4   4
#     4  12  28  46  80 116 150 208 264 318 388 476
#     4   8  16  38  64  92 130 182 234 298 370 430
#     4  10  24  44  68 104 146 190 247 310 376 453
#     4  10  24  44  68 104 146 190 247 310 376 453
#     4  10  24  44  70 106 147 194 251 316 381 456
#     4  10  24  44  70 106 147 194 251 316 381 456
#     4   8  16  36  64  92 134 186 230 292 368 436
#
# _framework density 27.091925
#
# number of rings (size 3 to 8) (size 9 to 14) (size 15 to 20)
#    0.000    2.286    0.000    0.000    2.000   13.714 
#   10.286    0.000    0.000    0.000    0.000    0.000 
#    0.000    0.000    0.000    0.000    0.000    0.000 
#
# Total GULP energy -77967.281182 kJ/mol
# GULP energy per Si atom -5569.091513 kJ/mol
# Density = 2.703026 g / cm^3
# Si number density = 27.091925 Si / 1000 Ang^3
#
#
#
# Elastic Constant Matrix: (Units=GPa)
#
#
# Indices 1 2 3 4 5 6 
#
# 1 111.2312 6.9940 77.1239 0.0000 -0.2949 0.0000
# 2 6.9940 111.7598 25.2856 0.0000 -5.3324 0.0000
# 3 77.1239 25.2856 230.0102 0.0000 18.0318 0.0000
# 4 0.0000 0.0000 0.0000 19.2668 0.0000 -6.3420
# 5 -0.2949 -5.3324 18.0318 0.0000 57.6137 0.0000
# 6 0.0000 0.0000 0.0000 -6.3420 0.0000 10.4930
#
#
#
# Elastic Compliance Matrix: (Units=1/GPa)
#
#
# Indices 1 2 3 4 5 6 
#
# 1 0.011819 0.000253 -0.004098 0.000000 0.001366 0.000000
# 2 0.000253 0.009262 -0.001200 0.000000 0.001234 0.000000
# 3 -0.004098 -0.001200 0.006011 0.000000 -0.002013 0.000000
# 4 0.000000 0.000000 0.000000 0.064793 0.000000 0.039161
# 5 0.001366 0.001234 -0.002013 0.000000 0.018108 0.000000
# 6 0.000000 0.000000 0.000000 0.039161 0.000000 0.118970
#
#
# Mechanical properties :
#
#
# Convention : Reuss Voigt Hill
#
# Bulk Modulus (GPa) = 58.81276 74.64534 66.72905
# Shear Modulus (GPa) = 20.43128 40.38122 30.40625
#
# Velocity S-wave (km/s) = 2.74915 3.86492 3.35376
# Velocity P-wave (km/s) = 5.64206 6.89415 6.29929
#
# Compressibility (1/GPa) = 0.01700311
#
# Stress axis : x y z
#
# Youngs Moduli (GPa) = 84.60619 107.96507 166.34867
#
# Poissons Ratio (x) = -0.02728 0.68171
# Poissons Ratio (y) = -0.02138 0.19957
# Poissons Ratio (z) = 0.34672 0.12953
#
# Static dielectric constant tensor:
#      x y z
#    x 2.140820 0.000000 -0.018230 
#    y 0.000000 2.300160 0.000000 
#    z -0.018230 0.000000 2.344120 
# 
# From -- ./inp_files/2952.got.cif
#   From: 2010.05.17/outbox.cif.g08.bks.cpg/sg9_2_cif.got.tgz:2952.got - 2010.06.03 20:04:27.
