data_PCOD9139916
_publ_section_title
;
Structure prediction by ZEFSAII (Michael W. Deem and Ramdas Pophale) SiO2 
 PCOD9139916
Probable space group: C C
;
_chemical_formula_sum "Si O2"
_cell_formula_units_Z 28
_cell_length_a 4.828603
_cell_length_b 13.205498
_cell_length_c 18.456901
_cell_angle_alpha 90.000000
_cell_angle_beta 111.873530
_cell_angle_gamma 90.000000
_cell_volume 1092.161862
_symmetry_space_group_name_H-M "C C"
_symmetry_group_IT_number 9
_symmetry_cell_setting 'monoclinic'
loop_
_space_group_symop_operation_xyz
x,y,z
x,-y,1/2+z
1/2+x,1/2+y,z
1/2+x,1/2-y,1/2+z
loop_
_atom_site_type_symbol
_atom_site_label
_atom_site_fract_x
_atom_site_fract_y
_atom_site_fract_z
Si Si1 0.412850 0.980944 0.201060
Si Si2 0.486388 0.763178 0.528631
Si Si3 0.420155 0.790393 0.289112
Si Si4 0.282456 0.455384 0.610415
Si Si5 0.542029 0.630894 0.874044
Si Si6 0.730873 0.417770 0.831253
Si Si7 0.980237 0.631645 0.502348
O O1 0.702966 0.006585 0.183292
O O2 0.386481 0.039259 0.274684
O O3 0.125084 0.019204 0.128715
O O4 0.393367 0.861584 0.216191
O O5 0.701824 0.839376 0.591088
O O6 0.270636 0.830083 0.456296
O O7 0.253304 0.701988 0.554374
O O8 0.679727 0.681608 0.502948
O O9 0.129536 0.807498 0.309580
O O10 0.511604 0.674592 0.290150
O O11 0.701041 0.842913 0.358991
O O12 0.066321 0.522158 0.539439
O O13 0.583453 0.513251 0.858565
O O14 0.959136 0.373515 0.913338
#
# Coordination Sequence:
#
# PCOD9139916 Si02
#       7
#     4   4   4   4   4   4   4
#     4  11  27  46  72 102 146 194 232 284 358 435
#     4  12  24  44  73 105 138 181 238 291 355 418
#     4  11  24  43  69 102 142 173 236 284 349 411
#     4  12  27  51  67 102 149 190 233 292 354 430
#     4  11  22  41  67 109 135 169 227 296 343 408
#     4  11  24  45  74 106 139 185 232 299 354 406
#     4  12  26  44  76 106 137 184 244 296 357 408
#
# _framework density 25.637224
#
# number of rings (size 3 to 8) (size 9 to 14) (size 15 to 20)
#    0.000    0.571    4.286    3.429    0.000   10.286 
#    0.000    2.857    0.000    0.000    0.000    0.000 
#    0.000    0.000    0.000    0.000    0.000    0.000 
#
# Total GULP energy -78518.602304 kJ/mol
# GULP energy per Si atom -5608.471593 kJ/mol
# Density = 2.557887 g / cm^3
# Si number density = 25.637224 Si / 1000 Ang^3
#
#
#
# Elastic Constant Matrix: (Units=GPa)
#
#
# Indices 1 2 3 4 5 6 
#
# 1 89.9663 8.5512 -4.1756 0.0000 12.5558 0.0000
# 2 8.5512 145.2970 12.2477 0.0000 6.1205 0.0000
# 3 -4.1756 12.2477 61.4156 0.0000 9.6242 0.0000
# 4 0.0000 0.0000 0.0000 42.7237 0.0000 10.0254
# 5 12.5558 6.1205 9.6242 0.0000 37.4328 0.0000
# 6 0.0000 0.0000 0.0000 10.0254 0.0000 35.9082
#
#
#
# Elastic Compliance Matrix: (Units=1/GPa)
#
#
# Indices 1 2 3 4 5 6 
#
# 1 0.011849 -0.000652 0.001607 0.000000 -0.004281 0.000000
# 2 -0.000652 0.007060 -0.001361 0.000000 -0.000586 0.000000
# 3 0.001607 -0.001361 0.017414 0.000000 -0.004794 0.000000
# 4 0.000000 0.000000 0.000000 0.025047 0.000000 -0.006993
# 5 -0.004281 -0.000586 -0.004794 0.000000 0.029479 0.000000
# 6 0.000000 0.000000 0.000000 -0.006993 0.000000 0.029801
#
#
# Mechanical properties :
#
#
# Convention : Reuss Voigt Hill
#
# Bulk Modulus (GPa) = 28.16035 36.65839 32.40937
# Shear Modulus (GPa) = 37.50918 41.88332 39.69625
#
# Velocity S-wave (km/s) = 3.82917 4.04628 3.93922
# Velocity P-wave (km/s) = 5.52793 6.01330 5.77572
#
# Compressibility (1/GPa) = 0.03551092
#
# Stress axis : x y z
#
# Youngs Moduli (GPa) = 84.39311 141.63879 57.42420
#
# Poissons Ratio (x) = 0.09242 -0.09226
# Poissons Ratio (y) = 0.05506 0.07813
# Poissons Ratio (z) = -0.13558 0.19271
#
# Static dielectric constant tensor:
#      x y z
#    x 1.922890 0.000000 0.045170 
#    y 0.000000 1.996760 0.000000 
#    z 0.045170 0.000000 2.076780 
# 
# From -- ./inp_files/32043.got.cif
#   From: 2010.05.17/outbox.cif.g08.bks.cpg/sg9_17_cif.got.tgz:32043.got - 2010.06.03 20:04:27.
