data_PCOD9139980
_publ_section_title
;
Structure prediction by ZEFSAII (Michael W. Deem and Ramdas Pophale) SiO2 
 PCOD9139980
Probable space group: C C
;
_chemical_formula_sum "Si O2"
_cell_formula_units_Z 32
_cell_length_a 6.081269
_cell_length_b 13.206569
_cell_length_c 14.247323
_cell_angle_alpha 90.000000
_cell_angle_beta 85.748962
_cell_angle_gamma 90.000000
_cell_volume 1141.092971
_symmetry_space_group_name_H-M "C C"
_symmetry_group_IT_number 9
_symmetry_cell_setting 'monoclinic'
loop_
_space_group_symop_operation_xyz
x,y,z
x,-y,1/2+z
1/2+x,1/2+y,z
1/2+x,1/2-y,1/2+z
loop_
_atom_site_type_symbol
_atom_site_label
_atom_site_fract_x
_atom_site_fract_y
_atom_site_fract_z
Si Si1 0.614270 0.994513 0.313390
Si Si2 0.571476 0.276718 0.968876
Si Si3 0.551630 0.223282 0.502401
Si Si4 0.062775 0.944862 0.451610
Si Si5 0.508836 0.505487 0.157887
Si Si6 0.060333 0.444863 0.519667
Si Si7 0.217195 0.119313 0.306096
Si Si8 0.405911 0.119313 0.665181
O O1 0.477032 0.098833 0.312389
O O2 0.457522 0.909898 0.270573
O O3 0.811553 0.000000 0.235639
O O4 0.097038 0.030729 0.372249
O O5 0.311553 0.309299 0.985639
O O6 0.591826 0.175523 0.031288
O O7 0.811553 0.330003 0.985639
O O8 0.614543 0.280344 0.854485
O O9 0.531280 0.324477 0.439989
O O10 0.508562 0.219656 0.616792
O O11 0.935069 0.970482 0.554340
O O12 0.311553 0.943089 0.485639
O O13 0.688036 0.970482 0.416937
O O14 0.665584 0.590102 0.200703
O O15 0.646074 0.401167 0.158888
O O16 0.026068 0.530729 0.599028
#
# Coordination Sequence:
#
# PCOD9139980 Si02
#       8
#     4   4   4   4   4   4   4   4
#     4  11  23  40  68  99 130 178 227 277 343 402
#     4  11  25  42  70 103 133 183 230 275 339 404
#     4  11  25  42  70 103 133 183 230 275 339 404
#     4  11  22  44  69  94 136 177 224 282 339 404
#     4  11  23  40  68  99 130 178 227 277 343 402
#     4  11  22  44  69  94 136 177 224 282 339 404
#     4  11  24  42  70  96 134 180 225 280 339 406
#     4  11  24  42  70  96 134 180 225 280 339 406
#
# _framework density 28.043291
#
# number of rings (size 3 to 8) (size 9 to 14) (size 15 to 20)
#    0.000    1.000    2.500    4.500    3.500    1.000 
#    0.000    1.250    0.000    0.000    0.000    0.000 
#    0.000    0.000    0.000    0.000    0.000    0.000 
#
# Total GULP energy -89091.828401 kJ/mol
# GULP energy per Si atom -5568.239275 kJ/mol
# Density = 2.797946 g / cm^3
# Si number density = 28.043291 Si / 1000 Ang^3
#
#
#
# Elastic Constant Matrix: (Units=GPa)
#
#
# Indices 1 2 3 4 5 6 
#
# 1 110.4339 35.4198 42.5770 0.0000 -25.9210 0.0000
# 2 35.4198 117.4024 34.1020 0.0000 0.4310 0.0000
# 3 42.5770 34.1020 163.0683 0.0000 9.3469 0.0000
# 4 0.0000 0.0000 0.0000 21.8328 0.0000 4.3550
# 5 -25.9210 0.4310 9.3469 0.0000 72.1454 0.0000
# 6 0.0000 0.0000 0.0000 4.3550 0.0000 28.4331
#
#
#
# Elastic Compliance Matrix: (Units=1/GPa)
#
#
# Indices 1 2 3 4 5 6 
#
# 1 0.012196 -0.002867 -0.002858 0.000000 0.004769 0.000000
# 2 -0.002867 0.009745 -0.001236 0.000000 -0.000928 0.000000
# 3 -0.002858 -0.001236 0.007249 0.000000 -0.001959 0.000000
# 4 0.000000 0.000000 0.000000 0.047246 0.000000 -0.007237
# 5 0.004769 -0.000928 -0.001959 0.000000 0.015834 0.000000
# 6 0.000000 0.000000 0.000000 -0.007237 0.000000 0.036279
#
#
# Mechanical properties :
#
#
# Convention : Reuss Voigt Hill
#
# Bulk Modulus (GPa) = 65.49585 68.34467 66.92026
# Shear Modulus (GPa) = 33.88421 43.06930 38.47676
#
# Velocity S-wave (km/s) = 3.47981 3.92320 3.70814
# Velocity P-wave (km/s) = 6.28899 6.70418 6.49990
#
# Compressibility (1/GPa) = 0.01526814
#
# Stress axis : x y z
#
# Youngs Moduli (GPa) = 81.99343 102.61559 137.94071
#
# Poissons Ratio (x) = 0.29418 0.39427
# Poissons Ratio (y) = 0.23506 0.17053
# Poissons Ratio (z) = 0.23436 0.12686
#
# Static dielectric constant tensor:
#      x y z
#    x 2.934410 0.000000 0.007650 
#    y 0.000000 2.180040 0.000000 
#    z 0.007650 0.000000 2.317800 
# 
# From -- ./inp_files/28783.got.cif
#   From: 2010.05.17/outbox.cif.g08.bks.cpg/sg9_15_cif.got.tgz:28783.got - 2010.06.03 20:04:27.
