data_PCOD9139390
_publ_section_title
;
Structure prediction by ZEFSAII (Michael W. Deem and Ramdas Pophale) SiO2 
 PCOD9139390
Probable space group: C C
;
_chemical_formula_sum "Si O2"
_cell_formula_units_Z 32
_cell_length_a 11.466594
_cell_length_b 14.823030
_cell_length_c 17.385202
_cell_angle_alpha 90.000000
_cell_angle_beta 150.852750
_cell_angle_gamma 90.000000
_cell_volume 1439.228903
_symmetry_space_group_name_H-M "C C"
_symmetry_group_IT_number 9
_symmetry_cell_setting 'monoclinic'
loop_
_space_group_symop_operation_xyz
x,y,z
x,-y,1/2+z
1/2+x,1/2+y,z
1/2+x,1/2-y,1/2+z
loop_
_atom_site_type_symbol
_atom_site_label
_atom_site_fract_x
_atom_site_fract_y
_atom_site_fract_z
Si Si1 0.958970 0.360247 0.486850
Si Si2 0.570530 0.038731 0.458211
Si Si3 0.050892 0.947498 0.486799
Si Si4 0.915458 0.773189 0.815998
Si Si5 0.611594 0.000684 0.806750
Si Si6 0.421483 0.814524 0.151481
Si Si7 0.952681 0.857234 0.274500
Si Si8 0.191945 0.185239 0.191802
O O1 0.925757 0.293851 0.394436
O O2 0.717585 0.353291 0.394942
O O3 0.009615 0.458499 0.481212
O O4 0.176312 0.330673 0.667203
O O5 0.779979 0.101186 0.611185
O O6 0.344907 0.104928 0.317270
O O7 0.642231 0.997274 0.416692
O O8 0.035715 0.862143 0.536141
O O9 0.876311 0.024164 0.424508
O O10 0.955733 0.923426 0.348687
O O11 0.341856 0.958248 0.646176
O O12 0.923564 0.718003 0.740835
O O13 0.155731 0.830917 0.965584
O O14 0.562114 0.092933 0.733143
O O15 0.536321 0.737475 0.164902
O O16 0.860858 0.759791 0.249418
#
# Coordination Sequence:
#
# PCOD9139390 Si02
#       8
#     4   4   4   4   4   4   4   4
#     4  11  27  48  73 111 150 201 244 316 382 462
#     4  11  28  48  75 109 148 198 256 315 373 460
#     4  11  27  47  73 108 146 194 251 311 378 452
#     4  10  25  43  73 108 151 192 247 306 387 454
#     4  11  25  47  72 106 149 192 248 310 381 439
#     4  11  22  44  78 104 145 193 253 305 378 450
#     4  12  28  45  75 106 151 195 253 307 384 453
#     4  11  26  48  77 106 144 195 252 312 379 450
#
# _framework density 22.234127999999998
#
# number of rings (size 3 to 8) (size 9 to 14) (size 15 to 20)
#    0.000    1.000    2.500    1.500   14.000    0.000 
#    4.500    0.000    0.000    0.000    0.000    0.000 
#    0.000    0.000    0.000    0.000    0.000    0.000 
#
# Total GULP energy -89415.874519 kJ/mol
# GULP energy per Si atom -5588.492157 kJ/mol
# Density = 2.218352 g / cm^3
# Si number density = 22.234128 Si / 1000 Ang^3
#
#
#
# Elastic Constant Matrix: (Units=GPa)
#
#
# Indices 1 2 3 4 5 6 
#
# 1 96.0721 21.9191 32.9812 0.0024 14.3120 -0.0017
# 2 21.9191 70.6940 37.4122 0.0125 12.9846 -0.0001
# 3 32.9812 37.4122 127.6264 0.0206 -1.4284 0.0003
# 4 0.0024 0.0125 0.0206 27.3252 0.0013 1.9506
# 5 14.3120 12.9846 -1.4284 0.0013 35.1433 -0.0013
# 6 -0.0017 -0.0001 0.0003 1.9506 -0.0013 29.8477
#
#
#
# Elastic Compliance Matrix: (Units=1/GPa)
#
#
# Indices 1 2 3 4 5 6 
#
# 1 0.012406 -0.001510 -0.002815 0.000002 -0.004609 0.000000
# 2 -0.001510 0.018495 -0.005103 -0.000004 -0.006426 0.000000
# 3 -0.002815 -0.005103 0.010097 -0.000005 0.003442 0.000000
# 4 0.000002 -0.000004 -0.000005 0.036768 -0.000001 -0.002403
# 5 -0.004609 -0.006426 0.003442 -0.000001 0.032846 0.000001
# 6 0.000000 0.000000 0.000000 -0.002403 0.000001 0.033660
#
#
# Mechanical properties :
#
#
# Convention : Reuss Voigt Hill
#
# Bulk Modulus (GPa) = 45.16426 53.22417 49.19421
# Shear Modulus (GPa) = 29.32387 31.93525 30.62956
#
# Velocity S-wave (km/s) = 3.63556 3.79399 3.71562
# Velocity P-wave (km/s) = 6.16281 6.57134 6.37035
#
# Compressibility (1/GPa) = 0.02214140
#
# Stress axis : x y z
#
# Youngs Moduli (GPa) = 80.60373 54.06970 99.03719
#
# Poissons Ratio (x) = 0.08167 0.27877
# Poissons Ratio (y) = 0.12175 0.50539
# Poissons Ratio (z) = 0.22689 0.27592
#
# Static dielectric constant tensor:
#      x y z
#    x 1.832000 0.000000 0.070660 
#    y 0.000000 1.874950 0.000000 
#    z 0.070660 0.000000 1.845720 
# 
# From -- ./inp_files/7623.got.cif
#   From: 2010.05.17/outbox.cif.g08.bks.cpg/sg9_4_cif.got.tgz:7623.got - 2010.06.03 20:04:27.
