data_PCOD9139510
_publ_section_title
;
Structure prediction by ZEFSAII (Michael W. Deem and Ramdas Pophale) SiO2 
 PCOD9139510
Probable space group: C C
;
_chemical_formula_sum "Si O2"
_cell_formula_units_Z 28
_cell_length_a 10.211818
_cell_length_b 14.117379
_cell_length_c 16.373921
_cell_angle_alpha 90.000000
_cell_angle_beta 30.216022
_cell_angle_gamma 90.000000
_cell_volume 1187.964966
_symmetry_space_group_name_H-M "C C"
_symmetry_group_IT_number 9
_symmetry_cell_setting 'monoclinic'
loop_
_space_group_symop_operation_xyz
x,y,z
x,-y,1/2+z
1/2+x,1/2+y,z
1/2+x,1/2-y,1/2+z
loop_
_atom_site_type_symbol
_atom_site_label
_atom_site_fract_x
_atom_site_fract_y
_atom_site_fract_z
Si Si1 0.595880 0.305753 0.485990
Si Si2 0.186525 0.843429 0.183078
Si Si3 0.893318 0.874802 0.032816
Si Si4 0.311415 0.948677 0.681307
Si Si5 0.790881 0.694062 0.437347
Si Si6 0.191539 0.565322 0.120786
Si Si7 0.116001 0.805747 0.648509
O O1 0.381366 0.226759 0.624200
O O2 0.463109 0.377622 0.492037
O O3 0.617069 0.359875 0.561219
O O4 0.845478 0.244511 0.323053
O O5 0.904410 0.796920 0.351957
O O6 0.247102 0.949551 0.177104
O O7 0.267123 0.825417 0.045500
O O8 0.105906 0.926173 0.863062
O O9 0.012232 0.830199 0.049821
O O10 0.791922 0.786017 0.038047
O O11 0.693422 0.958991 0.155203
O O12 0.581495 0.944847 0.587398
O O13 0.249486 0.871047 0.645205
O O14 0.989570 0.625081 0.283639
#
# Coordination Sequence:
#
# PCOD9139510 Si02
#       7
#     4   4   4   4   4   4   4
#     4  11  25  45  74 105 148 196 239 308 375 436
#     4  11  25  49  77 107 151 191 252 304 374 443
#     4  11  26  45  73 108 149 198 243 310 371 436
#     4  11  27  47  74 113 144 200 251 306 372 441
#     4  10  26  46  77 111 145 200 242 314 372 437
#     4  10  25  47  75 105 151 195 247 302 375 445
#     4  12  26  47  70 111 148 190 250 308 365 444
#
# _framework density 23.56972
#
# number of rings (size 3 to 8) (size 9 to 14) (size 15 to 20)
#    0.000    1.143    1.429    2.571   18.000    0.000 
#    0.000    0.000    0.000    0.000    0.000    0.000 
#    0.000    0.000    0.000    0.000    0.000    0.000 
#
# Total GULP energy -78182.842653 kJ/mol
# GULP energy per Si atom -5584.488761 kJ/mol
# Density = 2.351607 g / cm^3
# Si number density = 23.569720 Si / 1000 Ang^3
#
#
#
# Elastic Constant Matrix: (Units=GPa)
#
#
# Indices 1 2 3 4 5 6 
#
# 1 178.9628 70.6756 46.5531 -0.0022 12.8344 -0.0009
# 2 70.6756 174.1315 38.0022 -0.0122 1.7329 0.0017
# 3 46.5531 38.0022 49.2684 -0.0321 13.0475 0.0069
# 4 -0.0022 -0.0122 -0.0321 27.1708 0.0053 2.7883
# 5 12.8344 1.7329 13.0475 0.0053 31.4545 -0.0001
# 6 -0.0009 0.0017 0.0069 2.7883 -0.0001 33.8023
#
#
#
# Elastic Compliance Matrix: (Units=1/GPa)
#
#
# Indices 1 2 3 4 5 6 
#
# 1 0.007911 -0.001941 -0.005788 -0.000007 -0.000720 0.000002
# 2 -0.001941 0.007502 -0.004553 -0.000003 0.002267 0.000001
# 3 -0.005788 -0.004553 0.032113 0.000038 -0.010708 -0.000010
# 4 -0.000007 -0.000003 0.000038 0.037118 -0.000019 -0.003062
# 5 -0.000720 0.002267 -0.010708 -0.000019 0.036403 0.000004
# 6 0.000002 0.000001 -0.000010 -0.003062 0.000004 0.029836
#
#
# Mechanical properties :
#
#
# Convention : Reuss Voigt Hill
#
# Bulk Modulus (GPa) = 43.54678 79.20271 61.37474
# Shear Modulus (GPa) = 27.30742 34.96097 31.13420
#
# Velocity S-wave (km/s) = 3.40749 3.85554 3.63842
# Velocity P-wave (km/s) = 5.83070 7.31415 6.61415
#
# Compressibility (1/GPa) = 0.02296381
#
# Stress axis : x y z
#
# Youngs Moduli (GPa) = 126.40016 133.30635 31.13998
#
# Poissons Ratio (x) = 0.25872 0.18023
# Poissons Ratio (y) = 0.24532 0.14177
# Poissons Ratio (z) = 0.73155 0.60690
#
# Static dielectric constant tensor:
#      x y z
#    x 1.991450 0.000000 -0.085040 
#    y 0.000000 1.864990 0.000010 
#    z -0.085040 0.000010 1.962570 
# 
# From -- ./inp_files/16538.got.cif
#   From: 2010.05.17/outbox.cif.g08.bks.cpg/sg9_9_cif.got.tgz:16538.got - 2010.06.03 20:04:27.
