data_PCOD9139866
_publ_section_title
;
Structure prediction by ZEFSAII (Michael W. Deem and Ramdas Pophale) SiO2 
 PCOD9139866
Probable space group: C C
;
_chemical_formula_sum "Si O2"
_cell_formula_units_Z 20
_cell_length_a 8.369418
_cell_length_b 13.331603
_cell_length_c 7.580472
_cell_angle_alpha 90.000000
_cell_angle_beta 91.423087
_cell_angle_gamma 90.000000
_cell_volume 845.551192
_symmetry_space_group_name_H-M "C C"
_symmetry_group_IT_number 9
_symmetry_cell_setting 'monoclinic'
loop_
_space_group_symop_operation_xyz
x,y,z
x,-y,1/2+z
1/2+x,1/2+y,z
1/2+x,1/2-y,1/2+z
loop_
_atom_site_type_symbol
_atom_site_label
_atom_site_fract_x
_atom_site_fract_y
_atom_site_fract_z
Si Si1 0.686680 0.892468 0.676000
Si Si2 0.859929 0.086444 0.541572
Si Si3 0.414704 0.056182 0.689445
Si Si4 0.686867 0.794976 0.321644
Si Si5 0.201104 0.080983 0.374859
O O1 0.694724 0.802749 0.535342
O O2 0.802188 0.976284 0.594143
O O3 0.519061 0.953788 0.671593
O O4 0.748805 0.874308 0.875884
O O5 0.828027 0.153527 0.713293
O O6 0.037209 0.076683 0.475812
O O7 0.530828 0.137716 0.776838
O O8 0.353708 0.098071 0.503978
O O9 0.254270 0.021324 0.783665
O O10 0.678859 0.680645 0.258897
#
# Coordination Sequence:
#
# PCOD9139866 Si02
#       5
#     4   4   4   4   4
#     4  11  21  47  74  93 149 196 232 298 377 427
#     4  11  23  44  71 106 139 193 243 299 367 435
#     4  11  23  49  71 101 151 190 239 311 362 429
#     4  11  26  46  71 106 144 199 244 290 380 441
#     4  12  27  44  75 110 145 190 248 314 356 436
#
# _framework density 23.653207999999999
#
# number of rings (size 3 to 8) (size 9 to 14) (size 15 to 20)
#    0.000    0.800    6.000    2.400    5.600    0.000 
#    0.000    0.000    0.000    0.000    0.000    0.000 
#    0.000    0.000    0.000    0.000    0.000    0.000 
#
# Total GULP energy -55866.711534 kJ/mol
# GULP energy per Si atom -5586.671153 kJ/mol
# Density = 2.359937 g / cm^3
# Si number density = 23.653208 Si / 1000 Ang^3
#
#
#
# Elastic Constant Matrix: (Units=GPa)
#
#
# Indices 1 2 3 4 5 6 
#
# 1 119.0221 27.0307 14.6273 0.0000 -32.3835 0.0000
# 2 27.0307 50.7085 10.3834 0.0000 -21.9936 0.0000
# 3 14.6273 10.3834 81.1317 0.0000 2.7309 0.0000
# 4 0.0000 0.0000 0.0000 6.4622 0.0000 -7.6143
# 5 -32.3835 -21.9936 2.7309 0.0000 35.5618 0.0000
# 6 0.0000 0.0000 0.0000 -7.6143 0.0000 9.6716
#
#
#
# Elastic Compliance Matrix: (Units=1/GPa)
#
#
# Indices 1 2 3 4 5 6 
#
# 1 0.011716 -0.001477 -0.002258 0.000000 0.009929 0.000000
# 2 -0.001477 0.028510 -0.003941 0.000000 0.016591 0.000000
# 3 -0.002258 -0.003941 0.013423 0.000000 -0.005524 0.000000
# 4 0.000000 0.000000 0.000000 2.138388 0.000000 1.683518
# 5 0.009929 0.016591 -0.005524 0.000000 0.047847 0.000000
# 6 0.000000 0.000000 0.000000 1.683518 0.000000 1.428802
#
#
# Mechanical properties :
#
#
# Convention : Reuss Voigt Hill
#
# Bulk Modulus (GPa) = 26.11024 39.43835 32.77430
# Shear Modulus (GPa) = 1.35252 23.59385 12.47318
#
# Velocity S-wave (km/s) = 0.75700 3.16173 2.29887
# Velocity P-wave (km/s) = 3.43901 5.48074 4.57522
#
# Compressibility (1/GPa) = 0.03829915
#
# Stress axis : x y z
#
# Youngs Moduli (GPa) = 85.35270 35.07486 74.49920
#
# Poissons Ratio (x) = 0.05179 0.16818
# Poissons Ratio (y) = 0.12603 0.29360
# Poissons Ratio (z) = 0.19269 0.13823
#
# Static dielectric constant tensor:
#      x y z
#    x 1.901000 0.000000 -0.001720 
#    y 0.000000 1.944830 0.000000 
#    z -0.001720 0.000000 1.979420 
# 
# From -- ./inp_files/4683.got.cif
#   From: 2010.05.17/outbox.cif.g08.bks.cpg/sg9_3_cif.got.tgz:4683.got - 2010.06.03 20:04:27.
