data_PCOD9139651
_publ_section_title
;
Structure prediction by ZEFSAII (Michael W. Deem and Ramdas Pophale) SiO2 
 PCOD9139651
Probable space group: C C
;
_chemical_formula_sum "Si O2"
_cell_formula_units_Z 32
_cell_length_a 25.166056
_cell_length_b 5.953184
_cell_length_c 9.448409
_cell_angle_alpha 90.000000
_cell_angle_beta 71.437380
_cell_angle_gamma 90.000000
_cell_volume 1341.901469
_symmetry_space_group_name_H-M "C C"
_symmetry_group_IT_number 9
_symmetry_cell_setting 'monoclinic'
loop_
_space_group_symop_operation_xyz
x,y,z
x,-y,1/2+z
1/2+x,1/2+y,z
1/2+x,1/2-y,1/2+z
loop_
_atom_site_type_symbol
_atom_site_label
_atom_site_fract_x
_atom_site_fract_y
_atom_site_fract_z
Si Si1 0.033010 0.727562 0.079060
Si Si2 0.164039 0.724960 0.999846
Si Si3 0.485714 0.067000 0.857372
Si Si4 0.343460 0.301182 0.352821
Si Si5 0.450643 0.420137 0.689487
Si Si6 0.874501 0.555751 0.592016
Si Si7 0.722419 0.510462 0.198956
Si Si8 0.246846 0.670140 0.429307
O O1 0.097488 0.752121 0.058218
O O2 0.000488 0.635047 0.242248
O O3 0.994147 0.934385 0.062111
O O4 0.025527 0.554164 0.957657
O O5 0.189422 0.860531 0.111473
O O6 0.188839 0.471782 0.985477
O O7 0.185591 0.833326 0.834702
O O8 0.491381 0.290055 0.760884
O O9 0.421084 0.073123 0.960025
O O10 0.403312 0.424878 0.300858
O O11 0.336296 0.180871 0.509782
O O12 0.295173 0.483389 0.372467
O O13 0.346987 0.115274 0.225987
O O14 0.412816 0.238721 0.639590
O O15 0.747183 0.335418 0.294175
O O16 0.754468 0.686796 0.067338
#
# Coordination Sequence:
#
# PCOD9139651 Si02
#       8
#     4   4   4   4   4   4   4   4
#     4  12  28  42  79 111 158 206 256 317 393 456
#     4  11  27  48  79 117 155 206 259 330 389 466
#     4  12  24  47  68 111 156 199 261 313 382 469
#     4  12  28  48  78 111 154 210 258 327 390 468
#     4  12  24  45  73 108 155 207 256 321 375 459
#     4  12  24  50  73 114 155 203 268 309 388 472
#     4  10  26  54  76 113 153 195 271 321 400 480
#     4  11  27  54  80 111 154 204 263 334 397 472
#
# _framework density 23.84676
#
# number of rings (size 3 to 8) (size 9 to 14) (size 15 to 20)
#    0.000    0.500    5.000    1.500    5.250    6.000 
#    2.250    2.500    0.000    0.000    0.000    0.000 
#    0.000    0.000    0.000    0.000    0.000    0.000 
#
# Total GULP energy -89561.647883 kJ/mol
# GULP energy per Si atom -5597.602993 kJ/mol
# Density = 2.379248 g / cm^3
# Si number density = 23.846760 Si / 1000 Ang^3
#
#
#
# Elastic Constant Matrix: (Units=GPa)
#
#
# Indices 1 2 3 4 5 6 
#
# 1 118.3226 60.0752 52.6356 0.0000 -7.9168 0.0000
# 2 60.0752 127.4888 63.6768 0.0000 -1.8963 0.0000
# 3 52.6356 63.6768 154.3241 0.0000 21.2865 0.0000
# 4 0.0000 0.0000 0.0000 36.8619 0.0000 7.8707
# 5 -7.9168 -1.8963 21.2865 0.0000 27.7203 0.0000
# 6 0.0000 0.0000 0.0000 7.8707 0.0000 26.0191
#
#
#
# Elastic Compliance Matrix: (Units=1/GPa)
#
#
# Indices 1 2 3 4 5 6 
#
# 1 0.012407 -0.004086 -0.003351 0.000000 0.005837 0.000000
# 2 -0.004086 0.011696 -0.003782 0.000000 0.002538 0.000000
# 3 -0.003351 -0.003782 0.010459 0.000000 -0.009247 0.000000
# 4 0.000000 0.000000 0.000000 0.029001 0.000000 -0.008773
# 5 0.005837 0.002538 -0.009247 0.000000 0.045016 0.000000
# 6 0.000000 0.000000 0.000000 -0.008773 0.000000 0.041087
#
#
# Mechanical properties :
#
#
# Convention : Reuss Voigt Hill
#
# Bulk Modulus (GPa) = 82.48373 83.65675 83.07024
# Shear Modulus (GPa) = 28.38534 33.03679 30.71107
#
# Velocity S-wave (km/s) = 3.45385 3.72611 3.59256
# Velocity P-wave (km/s) = 7.11123 7.32591 7.21937
#
# Compressibility (1/GPa) = 0.01212360
#
# Stress axis : x y z
#
# Youngs Moduli (GPa) = 80.59799 85.49769 95.61135
#
# Poissons Ratio (x) = 0.34935 0.32039
# Poissons Ratio (y) = 0.32933 0.36165
# Poissons Ratio (z) = 0.27008 0.32339
#
# Static dielectric constant tensor:
#      x y z
#    x 1.919670 0.000000 -0.016740 
#    y 0.000000 1.941210 0.000000 
#    z -0.016740 0.000000 1.912240 
# 
# From -- ./inp_files/12576.got.cif
#   From: 2010.05.17/outbox.cif.g08.bks.cpg/sg9_7_cif.got.tgz:12576.got - 2010.06.03 20:04:27.
