data_PCOD9139146
_publ_section_title
;
Structure prediction by ZEFSAII (Michael W. Deem and Ramdas Pophale) SiO2 
 PCOD9139146
Probable space group: C C
;
_chemical_formula_sum "Si O2"
_cell_formula_units_Z 32
_cell_length_a 25.866507
_cell_length_b 10.331520
_cell_length_c 14.960678
_cell_angle_alpha 90.000000
_cell_angle_beta 20.765784
_cell_angle_gamma 90.000000
_cell_volume 1417.519702
_symmetry_space_group_name_H-M "C C"
_symmetry_group_IT_number 9
_symmetry_cell_setting 'monoclinic'
loop_
_space_group_symop_operation_xyz
x,y,z
x,-y,1/2+z
1/2+x,1/2+y,z
1/2+x,1/2-y,1/2+z
loop_
_atom_site_type_symbol
_atom_site_label
_atom_site_fract_x
_atom_site_fract_y
_atom_site_fract_z
Si Si1 0.747830 0.100536 0.464980
Si Si2 0.944137 0.149816 0.651637
Si Si3 0.277834 0.077889 0.110009
Si Si4 0.462744 0.943825 0.945839
Si Si5 0.999022 0.217424 0.752446
Si Si6 0.428204 0.143832 0.701792
Si Si7 0.740702 0.924117 0.766480
Si Si8 0.293569 0.278291 0.215432
O O1 0.832370 0.224968 0.365987
O O2 0.746757 0.118092 0.359715
O O3 0.842722 0.973819 0.333792
O O4 0.583608 0.058124 0.757085
O O5 0.108149 0.099883 0.373213
O O6 0.936387 0.239152 0.752812
O O7 0.897120 0.206412 0.632489
O O8 0.322593 0.976057 0.112366
O O9 0.349055 0.208995 0.036720
O O10 0.354469 0.048827 0.892836
O O11 0.527143 0.830102 0.779501
O O12 0.421090 0.900458 0.111322
O O13 0.888634 0.118281 0.977481
O O14 0.164635 0.184162 0.459119
O O15 0.599987 0.141873 0.448776
O O16 0.732925 0.080754 0.784625
#
# Coordination Sequence:
#
# PCOD9139146 Si02
#       8
#     4   4   4   4   4   4   4   4
#     4  11  24  47  69 105 146 185 248 299 361 435
#     4  10  24  45  70 102 139 194 233 304 366 432
#     4  11  27  45  69 106 140 188 247 299 362 450
#     4  12  25  48  68 106 148 188 244 302 366 437
#     4  11  22  43  73 101 140 194 239 288 366 430
#     4  12  27  44  76 104 142 197 235 309 367 428
#     4  11  23  44  72 108 141 190 240 300 359 436
#     4  10  24  48  69 100 152 186 238 307 365 424
#
# _framework density 22.574642000000001
#
# number of rings (size 3 to 8) (size 9 to 14) (size 15 to 20)
#    0.000    1.000    5.000    0.750    7.000    2.000 
#   11.250    0.000    0.000    0.000    0.000    0.000 
#    0.000    0.000    0.000    0.000    0.000    0.000 
#
# Total GULP energy -89276.502244 kJ/mol
# GULP energy per Si atom -5579.781390 kJ/mol
# Density = 2.252326 g / cm^3
# Si number density = 22.574642 Si / 1000 Ang^3
#
#
#
# Elastic Constant Matrix: (Units=GPa)
#
#
# Indices 1 2 3 4 5 6 
#
# 1 140.9617 23.0865 28.0241 0.0000 9.1665 0.0000
# 2 23.0865 34.4362 24.7587 0.0000 12.2442 0.0000
# 3 28.0241 24.7587 105.0850 0.0000 -0.2151 0.0000
# 4 0.0000 0.0000 0.0000 29.0547 0.0000 -9.8177
# 5 9.1665 12.2442 -0.2151 0.0000 34.9472 0.0000
# 6 0.0000 0.0000 0.0000 -9.8177 0.0000 19.0459
#
#
#
# Elastic Compliance Matrix: (Units=1/GPa)
#
#
# Indices 1 2 3 4 5 6 
#
# 1 0.008075 -0.004404 -0.001117 0.000000 -0.000582 0.000000
# 2 -0.004404 0.043592 -0.009125 0.000000 -0.014174 0.000000
# 3 -0.001117 -0.009125 0.011971 0.000000 0.003564 0.000000
# 4 0.000000 0.000000 0.000000 0.041677 0.000000 0.021484
# 5 -0.000582 -0.014174 0.003564 0.000000 0.033755 0.000000
# 6 0.000000 0.000000 0.000000 0.021484 0.000000 0.063579
#
#
# Mechanical properties :
#
#
# Convention : Reuss Voigt Hill
#
# Bulk Modulus (GPa) = 29.11493 48.02463 38.56978
# Shear Modulus (GPa) = 20.54304 30.25044 25.39674
#
# Velocity S-wave (km/s) = 3.01990 3.66460 3.35776
# Velocity P-wave (km/s) = 5.00849 6.26303 5.67056
#
# Compressibility (1/GPa) = 0.03434664
#
# Stress axis : x y z
#
# Youngs Moduli (GPa) = 123.83438 22.93994 83.53306
#
# Poissons Ratio (x) = 0.10102 0.09332
# Poissons Ratio (y) = 0.54531 0.76226
# Poissons Ratio (z) = 0.13835 0.20933
#
# Static dielectric constant tensor:
#      x y z
#    x 1.831020 0.000000 -0.012810 
#    y 0.000000 1.898920 0.000000 
#    z -0.012810 0.000000 1.837590 
# 
# From -- ./inp_files/28093.got.cif
#   From: 2010.05.17/outbox.cif.g08.bks.cpg/sg9_15_cif.got.tgz:28093.got - 2010.06.03 20:04:27.
