data_PCOD9139244
_publ_section_title
;
Structure prediction by ZEFSAII (Michael W. Deem and Ramdas Pophale) SiO2 
 PCOD9139244
Probable space group: C C
;
_chemical_formula_sum "Si O2"
_cell_formula_units_Z 20
_cell_length_a 11.734227
_cell_length_b 9.327407
_cell_length_c 8.924875
_cell_angle_alpha 90.000000
_cell_angle_beta 58.788984
_cell_angle_gamma 90.000000
_cell_volume 835.445406
_symmetry_space_group_name_H-M "C C"
_symmetry_group_IT_number 9
_symmetry_cell_setting 'monoclinic'
loop_
_space_group_symop_operation_xyz
x,y,z
x,-y,1/2+z
1/2+x,1/2+y,z
1/2+x,1/2-y,1/2+z
loop_
_atom_site_type_symbol
_atom_site_label
_atom_site_fract_x
_atom_site_fract_y
_atom_site_fract_z
Si Si1 0.204450 0.441955 0.710430
Si Si2 0.969394 0.653098 0.852737
Si Si3 0.393304 0.463495 0.836677
Si Si4 0.799871 0.540513 0.239833
Si Si5 0.130494 0.150306 0.623935
O O1 0.260902 0.417399 0.836935
O O2 0.336936 0.463607 0.523299
O O3 0.124869 0.309912 0.692976
O O4 0.112408 0.580640 0.772113
O O5 0.974587 0.819192 0.809794
O O6 0.891607 0.566927 0.774984
O O7 0.888348 0.628677 0.061787
O O8 0.487820 0.579011 0.693953
O O9 0.719465 0.635880 0.414385
O O10 0.701569 0.444122 0.205356
#
# Coordination Sequence:
#
# PCOD9139244 Si02
#       5
#     4   4   4   4   4
#     4  12  29  48  76 110 147 191 246 299 363 430
#     4  11  26  48  76 107 147 192 242 301 359 434
#     4  12  29  48  76 110 147 191 246 299 363 430
#     4  10  24  46  78 104 148 192 242 296 368 422
#     4  11  26  48  76 107 147 192 242 301 359 434
#
# _framework density 23.939326999999999
#
# number of rings (size 3 to 8) (size 9 to 14) (size 15 to 20)
#    0.000    0.800    2.000    2.400   14.000    6.400 
#    0.000    0.000    0.000    0.000    0.000    0.000 
#    0.000    0.000    0.000    0.000    0.000    0.000 
#
# Total GULP energy -56085.968384 kJ/mol
# GULP energy per Si atom -5608.596838 kJ/mol
# Density = 2.388484 g / cm^3
# Si number density = 23.939327 Si / 1000 Ang^3
#
#
#
# Elastic Constant Matrix: (Units=GPa)
#
#
# Indices 1 2 3 4 5 6 
#
# 1 82.9642 40.1215 31.2914 0.0000 6.7290 0.0000
# 2 40.1215 120.7614 -7.3093 0.0000 -1.9043 0.0000
# 3 31.2914 -7.3093 56.5045 0.0000 10.6624 0.0000
# 4 0.0000 0.0000 0.0000 28.2945 0.0000 -5.9529
# 5 6.7290 -1.9043 10.6624 0.0000 42.6460 0.0000
# 6 0.0000 0.0000 0.0000 -5.9529 0.0000 38.8535
#
#
#
# Elastic Compliance Matrix: (Units=1/GPa)
#
#
# Indices 1 2 3 4 5 6 
#
# 1 0.020273 -0.007476 -0.012098 0.000000 -0.000508 0.000000
# 2 -0.007476 0.011103 0.005521 0.000000 0.000295 0.000000
# 3 -0.012098 0.005521 0.025928 0.000000 -0.004327 0.000000
# 4 0.000000 0.000000 0.000000 0.036520 0.000000 0.005595
# 5 -0.000508 0.000295 -0.004327 0.000000 0.024624 0.000000
# 6 0.000000 0.000000 0.000000 0.005595 0.000000 0.026595
#
#
# Mechanical properties :
#
#
# Convention : Reuss Voigt Hill
#
# Bulk Modulus (GPa) = 34.24907 43.15971 38.70439
# Shear Modulus (GPa) = 27.34006 35.03390 31.18698
#
# Velocity S-wave (km/s) = 3.38310 3.82965 3.61328
# Velocity P-wave (km/s) = 5.44042 6.13375 5.79746
#
# Compressibility (1/GPa) = 0.02919787
#
# Stress axis : x y z
#
# Youngs Moduli (GPa) = 49.32716 90.06343 38.56826
#
# Poissons Ratio (x) = 0.67328 0.46660
# Poissons Ratio (y) = 0.36875 -0.21292
# Poissons Ratio (z) = 0.59676 -0.49720
#
# Static dielectric constant tensor:
#      x y z
#    x 1.897370 0.000000 0.030700 
#    y 0.000000 1.856670 0.000000 
#    z 0.030700 0.000000 1.915060 
# 
# From -- ./inp_files/6628.got.cif
#   From: 2010.05.17/outbox.cif.g08.bks.cpg/sg9_4_cif.got.tgz:6628.got - 2010.06.03 20:04:27.
