data_PCOD9139858
_publ_section_title
;
Structure prediction by ZEFSAII (Michael W. Deem and Ramdas Pophale) SiO2 
 PCOD9139858
Probable space group: C C
;
_chemical_formula_sum "Si O2"
_cell_formula_units_Z 32
_cell_length_a 9.412668
_cell_length_b 10.560219
_cell_length_c 14.136576
_cell_angle_alpha 90.000000
_cell_angle_beta 90.554609
_cell_angle_gamma 90.000000
_cell_volume 1405.107498
_symmetry_space_group_name_H-M "C C"
_symmetry_group_IT_number 9
_symmetry_cell_setting 'monoclinic'
loop_
_space_group_symop_operation_xyz
x,y,z
x,-y,1/2+z
1/2+x,1/2+y,z
1/2+x,1/2-y,1/2+z
loop_
_atom_site_type_symbol
_atom_site_label
_atom_site_fract_x
_atom_site_fract_y
_atom_site_fract_z
Si Si1 0.717460 0.314552 0.243490
Si Si2 0.398154 0.090816 0.448312
Si Si3 0.673076 0.663782 0.285894
Si Si4 0.227946 0.539170 0.173218
Si Si5 0.200847 0.968307 0.595501
Si Si6 0.453089 0.435109 0.302063
Si Si7 0.014519 0.427136 0.299913
Si Si8 0.903644 0.873700 0.507018
O O1 0.755310 0.170806 0.227307
O O2 0.688403 0.395739 0.148311
O O3 0.569887 0.324495 0.297999
O O4 0.850931 0.384362 0.290817
O O5 0.290093 0.136055 0.365284
O O6 0.426033 0.221166 0.505483
O O7 0.319631 0.990636 0.516734
O O8 0.521589 0.019947 0.390217
O O9 0.728624 0.633828 0.179681
O O10 0.548425 0.560567 0.296977
O O11 0.605082 0.799359 0.304280
O O12 0.341067 0.440016 0.216851
O O13 0.072584 0.494447 0.204570
O O14 0.272828 0.576201 0.068717
O O15 0.050374 0.931642 0.548337
O O16 0.380159 0.423178 0.401640
#
# Coordination Sequence:
#
# PCOD9139858 Si02
#       8
#     4   4   4   4   4   4   4   4
#     4  11  21  46  72  94 137 186 228 281 358 407
#     4  12  25  46  73 103 142 187 240 289 351 424
#     4  11  23  46  70 102 145 181 234 290 350 416
#     4  12  25  44  70 103 146 181 230 298 346 416
#     4  11  22  44  77  99 137 194 230 287 354 418
#     4  11  22  44  72  97 141 188 228 292 350 406
#     4  12  25  45  72 104 142 186 231 293 353 419
#     4  12  23  43  72 106 138 185 245 284 350 430
#
# _framework density 22.774056999999999
#
# number of rings (size 3 to 8) (size 9 to 14) (size 15 to 20)
#    0.000    0.500    8.750    1.500    0.000    0.000 
#    6.750    0.000    0.000    0.000    0.000    0.000 
#    0.000    0.000    0.000    0.000    0.000    0.000 
#
# Total GULP energy -89430.422227 kJ/mol
# GULP energy per Si atom -5589.401389 kJ/mol
# Density = 2.272222 g / cm^3
# Si number density = 22.774057 Si / 1000 Ang^3
#
#
#
# Elastic Constant Matrix: (Units=GPa)
#
#
# Indices 1 2 3 4 5 6 
#
# 1 72.9424 24.9427 35.6116 0.0000 -14.5972 0.0000
# 2 24.9427 83.9667 26.7231 0.0000 -12.3220 0.0000
# 3 35.6116 26.7231 121.0589 0.0000 -37.9251 0.0000
# 4 0.0000 0.0000 0.0000 28.7298 0.0000 -5.1588
# 5 -14.5972 -12.3220 -37.9251 0.0000 51.5474 0.0000
# 6 0.0000 0.0000 0.0000 -5.1588 0.0000 34.4518
#
#
#
# Elastic Compliance Matrix: (Units=1/GPa)
#
#
# Indices 1 2 3 4 5 6 
#
# 1 0.017076 -0.003680 -0.003862 0.000000 0.001115 0.000000
# 2 -0.003680 0.013667 -0.001608 0.000000 0.001042 0.000000
# 3 -0.003862 -0.001608 0.012071 0.000000 0.007403 0.000000
# 4 0.000000 0.000000 0.000000 0.035769 0.000000 0.005356
# 5 0.001115 0.001042 0.007403 0.000000 0.025411 0.000000
# 6 0.000000 0.000000 0.000000 0.005356 0.000000 0.029828
#
#
# Mechanical properties :
#
#
# Convention : Reuss Voigt Hill
#
# Bulk Modulus (GPa) = 40.79200 50.28031 45.53615
# Shear Modulus (GPa) = 31.19292 35.65849 33.42570
#
# Velocity S-wave (km/s) = 3.70492 3.96125 3.83523
# Velocity P-wave (km/s) = 6.02100 6.56108 6.29683
#
# Compressibility (1/GPa) = 0.02451461
#
# Stress axis : x y z
#
# Youngs Moduli (GPa) = 58.56086 73.16732 82.84647
#
# Poissons Ratio (x) = 0.26925 0.31993
# Poissons Ratio (y) = 0.21550 0.13322
# Poissons Ratio (z) = 0.22615 0.11766
#
# Static dielectric constant tensor:
#      x y z
#    x 1.866100 0.000000 -0.014900 
#    y 0.000000 1.858410 0.000000 
#    z -0.014900 0.000000 1.872200 
# 
# From -- ./inp_files/22757.got.cif
#   From: 2010.05.17/outbox.cif.g08.bks.cpg/sg9_12_cif.got.tgz:22757.got - 2010.06.03 20:04:27.
