data_PCOD9139861
_publ_section_title
;
Structure prediction by ZEFSAII (Michael W. Deem and Ramdas Pophale) SiO2 
 PCOD9139861
Probable space group: C C
;
_chemical_formula_sum "Si O2"
_cell_formula_units_Z 28
_cell_length_a 10.722994
_cell_length_b 9.704059
_cell_length_c 9.655099
_cell_angle_alpha 90.000000
_cell_angle_beta 91.368412
_cell_angle_gamma 90.000000
_cell_volume 1004.389924
_symmetry_space_group_name_H-M "C C"
_symmetry_group_IT_number 9
_symmetry_cell_setting 'monoclinic'
loop_
_space_group_symop_operation_xyz
x,y,z
x,-y,1/2+z
1/2+x,1/2+y,z
1/2+x,1/2-y,1/2+z
loop_
_atom_site_type_symbol
_atom_site_label
_atom_site_fract_x
_atom_site_fract_y
_atom_site_fract_z
Si Si1 0.407560 0.314223 0.721620
Si Si2 0.345618 0.273943 0.196631
Si Si3 0.539681 0.374701 0.996171
Si Si4 0.080289 0.396158 0.885163
Si Si5 0.917924 0.509155 0.640664
Si Si6 0.240772 0.359163 0.466054
Si Si7 0.159577 0.159628 0.049971
O O1 0.537410 0.340715 0.647515
O O2 0.435314 0.373511 0.873105
O O3 0.303840 0.373929 0.616467
O O4 0.382040 0.148144 0.719304
O O5 0.458952 0.351626 0.132177
O O6 0.507760 0.081363 0.239369
O O7 0.334568 0.285572 0.359412
O O8 0.214997 0.312271 0.125954
O O9 0.621766 0.239093 0.975504
O O10 0.637243 0.498065 0.996254
O O11 0.980228 0.446602 0.999881
O O12 0.191346 0.504055 0.895276
O O13 0.127848 0.241993 0.905162
O O14 0.312964 0.884913 0.623147
#
# Coordination Sequence:
#
# PCOD9139861 Si02
#       7
#     4   4   4   4   4   4   4
#     4  11  25  49  78 111 161 207 274 339 409 487
#     4  12  25  49  85 113 162 211 272 339 414 484
#     4  12  27  54  78 119 161 214 274 338 412 498
#     4  11  24  48  74 106 154 199 260 326 400 474
#     4  11  21  46  75 109 141 204 258 327 401 482
#     4  12  25  52  80 113 159 208 272 345 408 490
#     4  11  27  48  74 119 160 205 268 334 402 493
#
# _framework density 27.877618999999999
#
# number of rings (size 3 to 8) (size 9 to 14) (size 15 to 20)
#    0.000    0.571    4.286    3.429    2.000    4.571 
#    5.143    0.000    0.000    0.000    0.000    0.000 
#    0.000    0.000    0.000    0.000    0.000    0.000 
#
# Total GULP energy -78343.517823 kJ/mol
# GULP energy per Si atom -5595.965559 kJ/mol
# Density = 2.781417 g / cm^3
# Si number density = 27.877619 Si / 1000 Ang^3
#
#
#
# Elastic Constant Matrix: (Units=GPa)
#
#
# Indices 1 2 3 4 5 6 
#
# 1 170.9562 75.3495 65.9091 0.0000 30.4514 0.0000
# 2 75.3495 178.4585 36.3011 0.0000 19.7324 0.0000
# 3 65.9091 36.3011 131.1308 0.0000 27.6250 0.0000
# 4 0.0000 0.0000 0.0000 29.8644 0.0000 -1.5450
# 5 30.4514 19.7324 27.6250 0.0000 58.7025 0.0000
# 6 0.0000 0.0000 0.0000 -1.5450 0.0000 47.2255
#
#
#
# Elastic Compliance Matrix: (Units=1/GPa)
#
#
# Indices 1 2 3 4 5 6 
#
# 1 0.008660 -0.002787 -0.003144 0.000000 -0.002076 0.000000
# 2 -0.002787 0.006934 -0.000369 0.000000 -0.000711 0.000000
# 3 -0.003144 -0.000369 0.009922 0.000000 -0.002915 0.000000
# 4 0.000000 0.000000 0.000000 0.033541 0.000000 0.001097
# 5 -0.002076 -0.000711 -0.002915 0.000000 0.019723 0.000000
# 6 0.000000 0.000000 0.000000 0.001097 0.000000 0.021211
#
#
# Mechanical properties :
#
#
# Convention : Reuss Voigt Hill
#
# Bulk Modulus (GPa) = 77.42012 92.85165 85.13588
# Shear Modulus (GPa) = 42.77313 47.35752 45.06533
#
# Velocity S-wave (km/s) = 3.92129 4.12608 4.02499
# Velocity P-wave (km/s) = 6.95224 7.48856 7.22538
#
# Compressibility (1/GPa) = 0.01291654
#
# Stress axis : x y z
#
# Youngs Moduli (GPa) = 115.47735 144.21493 100.78502
#
# Poissons Ratio (x) = 0.40198 0.31683
# Poissons Ratio (y) = 0.32188 0.03716
# Poissons Ratio (z) = 0.36302 0.05318
#
# Static dielectric constant tensor:
#      x y z
#    x 2.305620 0.000000 0.033120 
#    y 0.000000 2.561550 0.000000 
#    z 0.033120 0.000000 2.193560 
# 
# From -- ./inp_files/17720.got.cif
#   From: 2010.05.17/outbox.cif.g08.bks.cpg/sg9_9_cif.got.tgz:17720.got - 2010.06.03 20:04:27.
