data_PCOD9139319
_publ_section_title
;
Structure prediction by ZEFSAII (Michael W. Deem and Ramdas Pophale) SiO2 
 PCOD9139319
Probable space group: C C
;
_chemical_formula_sum "Si O2"
_cell_formula_units_Z 28
_cell_length_a 25.658922
_cell_length_b 7.503384
_cell_length_c 8.466134
_cell_angle_alpha 90.000000
_cell_angle_beta 136.983818
_cell_angle_gamma 90.000000
_cell_volume 1111.976335
_symmetry_space_group_name_H-M "C C"
_symmetry_group_IT_number 9
_symmetry_cell_setting 'monoclinic'
loop_
_space_group_symop_operation_xyz
x,y,z
x,-y,1/2+z
1/2+x,1/2+y,z
1/2+x,1/2-y,1/2+z
loop_
_atom_site_type_symbol
_atom_site_label
_atom_site_fract_x
_atom_site_fract_y
_atom_site_fract_z
Si Si1 0.462220 0.699824 0.819810
Si Si2 0.536191 0.426834 0.185848
Si Si3 0.179898 0.249732 0.991392
Si Si4 0.803053 0.742474 0.808487
Si Si5 0.492470 0.880356 0.347439
Si Si6 0.323044 0.860019 0.983787
Si Si7 0.151416 0.412317 0.590395
O O1 0.522691 0.606403 0.838142
O O2 0.378738 0.669452 0.554999
O O3 0.481587 0.910470 0.869968
O O4 0.479889 0.584161 0.011697
O O5 0.628038 0.428001 0.362788
O O6 0.510265 0.246905 0.035563
O O7 0.265377 0.232711 0.237741
O O8 0.145469 0.378108 0.048828
O O9 0.174027 0.354079 0.815516
O O10 0.818209 0.696095 0.657151
O O11 0.721609 0.840307 0.641849
O O12 0.798711 0.565124 0.906732
O O13 0.407808 0.833772 0.106218
O O14 0.563216 0.851591 0.385583
#
# Coordination Sequence:
#
# PCOD9139319 Si02
#       7
#     4   4   4   4   4   4   4
#     4  11  25  48  75 115 152 199 265 320 390 466
#     4  11  25  48  74 113 153 203 261 319 390 458
#     4  11  25  46  73 110 153 206 252 325 382 476
#     4  11  25  46  78 114 150 213 250 336 387 480
#     4  10  24  49  78 109 152 208 253 328 381 474
#     4  11  24  47  77 110 162 192 274 309 406 463
#     4  11  24  46  75 109 152 199 265 311 406 445
#
# _framework density 25.180394
#
# number of rings (size 3 to 8) (size 9 to 14) (size 15 to 20)
#    0.000    1.143    2.857    1.714    2.000    5.714 
#   10.286    0.000    0.000    0.000    0.000    0.000 
#    0.000    0.000    0.000    0.000    0.000    0.000 
#
# Total GULP energy -78268.706983 kJ/mol
# GULP energy per Si atom -5590.621927 kJ/mol
# Density = 2.512308 g / cm^3
# Si number density = 25.180394 Si / 1000 Ang^3
#
#
#
# Elastic Constant Matrix: (Units=GPa)
#
#
# Indices 1 2 3 4 5 6 
#
# 1 93.8924 45.5935 63.4907 0.0000 37.6675 0.0000
# 2 45.5935 74.0960 59.5131 0.0000 6.6187 0.0000
# 3 63.4907 59.5131 183.8477 0.0000 33.2469 0.0000
# 4 0.0000 0.0000 0.0000 53.3516 0.0000 1.0374
# 5 37.6675 6.6187 33.2469 0.0000 38.0102 0.0000
# 6 0.0000 0.0000 0.0000 1.0374 0.0000 19.7492
#
#
#
# Elastic Compliance Matrix: (Units=1/GPa)
#
#
# Indices 1 2 3 4 5 6 
#
# 1 0.028052 -0.014690 -0.000437 0.000000 -0.024859 0.000000
# 2 -0.014690 0.026111 -0.006165 0.000000 0.015403 0.000000
# 3 -0.000437 -0.006165 0.008687 0.000000 -0.006092 0.000000
# 4 0.000000 0.000000 0.000000 0.018763 0.000000 -0.000986
# 5 -0.024859 0.015403 -0.006092 0.000000 0.053590 0.000000
# 6 0.000000 0.000000 0.000000 -0.000986 0.000000 0.050687
#
#
# Mechanical properties :
#
#
# Convention : Reuss Voigt Hill
#
# Bulk Modulus (GPa) = 49.34032 76.55899 62.94965
# Shear Modulus (GPa) = 21.25593 34.43811 27.84702
#
# Velocity S-wave (km/s) = 2.90857 3.70220 3.32912
# Velocity P-wave (km/s) = 5.56030 6.98178 6.31119
#
# Compressibility (1/GPa) = 0.02026740
#
# Stress axis : x y z
#
# Youngs Moduli (GPa) = 35.64799 38.29863 115.10864
#
# Poissons Ratio (x) = 0.56260 0.05029
# Poissons Ratio (y) = 0.52366 0.70960
# Poissons Ratio (z) = 0.01557 0.23610
#
# Static dielectric constant tensor:
#      x y z
#    x 2.010740 0.000000 0.037010 
#    y 0.000000 2.148330 0.000000 
#    z 0.037010 0.000000 1.990140 
# 
# From -- ./inp_files/12430.got.cif
#   From: 2010.05.17/outbox.cif.g08.bks.cpg/sg9_7_cif.got.tgz:12430.got - 2010.06.03 20:04:27.
