data_PCOD9139155
_publ_section_title
;
Structure prediction by ZEFSAII (Michael W. Deem and Ramdas Pophale) SiO2 
 PCOD9139155
Probable space group: C C
;
_chemical_formula_sum "Si O2"
_cell_formula_units_Z 24
_cell_length_a 8.211058
_cell_length_b 28.529202
_cell_length_c 5.121774
_cell_angle_alpha 90.000000
_cell_angle_beta 58.747550
_cell_angle_gamma 90.000000
_cell_volume 1025.697349
_symmetry_space_group_name_H-M "C C"
_symmetry_group_IT_number 9
_symmetry_cell_setting 'monoclinic'
loop_
_space_group_symop_operation_xyz
x,y,z
x,-y,1/2+z
1/2+x,1/2+y,z
1/2+x,1/2-y,1/2+z
loop_
_atom_site_type_symbol
_atom_site_label
_atom_site_fract_x
_atom_site_fract_y
_atom_site_fract_z
Si Si1 0.078870 0.391845 0.259100
Si Si2 0.947047 0.699813 0.171728
Si Si3 0.761829 0.164359 0.224687
Si Si4 0.857186 0.970827 0.075760
Si Si5 0.500206 0.307958 0.030409
Si Si6 0.311384 0.971462 0.672022
O O1 0.036079 0.341061 0.417586
O O2 0.902740 0.424815 0.477615
O O3 0.140651 0.381543 0.908734
O O4 0.254326 0.422335 0.220040
O O5 0.726049 0.686823 0.383367
O O6 0.087178 0.700157 0.307603
O O7 0.957124 0.752337 0.057909
O O8 0.905194 0.172784 0.345723
O O9 0.895458 0.168574 0.862917
O O10 0.084083 0.965330 0.875160
O O11 0.802034 0.992062 0.842967
O O12 0.364338 0.012098 0.419050
#
# Coordination Sequence:
#
# PCOD9139155 Si02
#       6
#     4   4   4   4   4   4
#     4  12  27  44  76 112 142 195 250 310 361 446
#     4  12  29  48  78 109 149 200 251 308 372 438
#     4  12  29  49  72 113 144 196 250 306 374 433
#     4  10  24  46  70 102 148 192 237 301 373 439
#     4  12  29  50  75 102 157 199 246 305 379 439
#     4  10  24  45  71 104 144 192 238 300 373 439
#
# _framework density 23.398714999999999
#
# number of rings (size 3 to 8) (size 9 to 14) (size 15 to 20)
#    0.000    0.667    3.333    1.000   14.000    0.000 
#    3.000    0.000    0.000    0.000    0.000    0.000 
#    0.000    0.000    0.000    0.000    0.000    0.000 
#
# Total GULP energy -67050.079358 kJ/mol
# GULP energy per Si atom -5587.506613 kJ/mol
# Density = 2.334546 g / cm^3
# Si number density = 23.398715 Si / 1000 Ang^3
#
#
#
# Elastic Constant Matrix: (Units=GPa)
#
#
# Indices 1 2 3 4 5 6 
#
# 1 96.5026 -24.7186 74.3184 0.0000 -12.6224 0.0000
# 2 -24.7186 90.4930 57.9280 0.0000 2.1941 0.0000
# 3 74.3184 57.9280 176.3223 0.0000 -10.9801 0.0000
# 4 0.0000 0.0000 0.0000 42.6473 0.0000 -3.9667
# 5 -12.6224 2.1941 -10.9801 0.0000 51.1936 0.0000
# 6 0.0000 0.0000 0.0000 -3.9667 0.0000 20.1001
#
#
#
# Elastic Compliance Matrix: (Units=1/GPa)
#
#
# Indices 1 2 3 4 5 6 
#
# 1 0.032182 0.021918 -0.020605 0.000000 0.002576 0.000000
# 2 0.021918 0.029053 -0.018775 0.000000 0.000132 0.000000
# 3 -0.020605 -0.018775 0.020532 0.000000 0.000128 0.000000
# 4 0.000000 0.000000 0.000000 0.023887 0.000000 0.004714
# 5 0.002576 0.000132 0.000128 0.000000 0.020191 0.000000
# 6 0.000000 0.000000 0.000000 0.004714 0.000000 0.050681
#
#
# Mechanical properties :
#
#
# Convention : Reuss Voigt Hill
#
# Bulk Modulus (GPa) = 21.34765 64.26371 42.80568
# Shear Modulus (GPa) = 22.02031 39.84087 30.93059
#
# Velocity S-wave (km/s) = 3.07105 4.13085 3.63973
# Velocity P-wave (km/s) = 4.66029 7.09057 5.99977
#
# Compressibility (1/GPa) = 0.04684357
#
# Stress axis : x y z
#
# Youngs Moduli (GPa) = 31.07368 34.41993 48.70367
#
# Poissons Ratio (x) = -0.75441 1.00352
# Poissons Ratio (y) = -0.68107 0.91441
# Poissons Ratio (z) = 0.64026 0.64623
#
# Static dielectric constant tensor:
#      x y z
#    x 1.926970 0.000000 0.029040 
#    y 0.000000 1.882550 0.000000 
#    z 0.029040 0.000000 1.894550 
# 
# From -- ./inp_files/1015.got.cif
#   From: 2010.05.17/outbox.cif.g08.bks.cpg/sg9_1_cif.got.tgz:1015.got - 2010.06.03 20:04:27.
