data_PCOD9139755
_publ_section_title
;
Structure prediction by ZEFSAII (Michael W. Deem and Ramdas Pophale) SiO2 
 PCOD9139755
Probable space group: C C
;
_chemical_formula_sum "Si O2"
_cell_formula_units_Z 32
_cell_length_a 8.882143
_cell_length_b 12.721933
_cell_length_c 12.720073
_cell_angle_alpha 90.000000
_cell_angle_beta 94.272883
_cell_angle_gamma 90.000000
_cell_volume 1433.348083
_symmetry_space_group_name_H-M "C C"
_symmetry_group_IT_number 9
_symmetry_cell_setting 'monoclinic'
loop_
_space_group_symop_operation_xyz
x,y,z
x,-y,1/2+z
1/2+x,1/2+y,z
1/2+x,1/2-y,1/2+z
loop_
_atom_site_type_symbol
_atom_site_label
_atom_site_fract_x
_atom_site_fract_y
_atom_site_fract_z
Si Si1 0.271040 0.634142 0.519760
Si Si2 0.290977 0.149512 0.314626
Si Si3 0.431185 0.641377 0.741665
Si Si4 0.508026 0.964822 0.683425
Si Si5 0.706555 0.938528 0.373708
Si Si6 0.679218 0.744796 0.648866
Si Si7 0.042069 0.220987 0.423112
Si Si8 0.949100 0.665337 0.550877
O O1 0.367683 0.599607 0.627071
O O2 0.212951 0.529694 0.458946
O O3 0.368119 0.700782 0.439887
O O4 0.123334 0.697421 0.548325
O O5 0.334296 0.251772 0.250219
O O6 0.364218 0.059284 0.249719
O O7 0.115860 0.149209 0.336650
O O8 0.378403 0.164703 0.430372
O O9 0.378028 0.582102 0.843246
O O10 0.604996 0.675911 0.737909
O O11 0.598076 0.858897 0.653487
O O12 0.624109 0.023441 0.764949
O O13 0.453882 0.045259 0.592384
O O14 0.611024 0.836820 0.404988
O O15 0.615380 0.693131 0.538972
O O16 0.856186 0.734740 0.631830
#
# Coordination Sequence:
#
# PCOD9139755 Si02
#       8
#     4   4   4   4   4   4   4   4
#     4  11  21  38  66  92 124 169 216 254 324 391
#     4   9  20  41  61  90 128 166 208 270 319 376
#     4   9  20  41  61  90 128 166 208 270 319 376
#     4  11  21  36  64  90 125 161 213 265 318 381
#     4  11  21  36  64  90 125 161 213 265 318 381
#     4   9  21  39  62  86 128 165 205 267 318 370
#     4   9  21  39  62  86 128 165 205 267 318 370
#     4  11  21  38  66  92 124 169 216 254 324 391
#
# _framework density 22.325351000000001
#
# number of rings (size 3 to 8) (size 9 to 14) (size 15 to 20)
#    0.000    2.000    2.500    0.750    0.000    2.000 
#    0.000    0.000   11.000    0.000    0.000    0.000 
#    0.000    0.000    0.000    0.000    0.000    0.000 
#
# Total GULP energy -89124.172053 kJ/mol
# GULP energy per Si atom -5570.260753 kJ/mol
# Density = 2.227454 g / cm^3
# Si number density = 22.325351 Si / 1000 Ang^3
#
#
#
# Elastic Constant Matrix: (Units=GPa)
#
#
# Indices 1 2 3 4 5 6 
#
# 1 141.6512 39.0518 38.6957 0.0000 -61.6497 0.0000
# 2 39.0518 54.4414 30.8952 0.0000 -21.2724 0.0000
# 3 38.6957 30.8952 68.8804 0.0000 -27.3971 0.0000
# 4 0.0000 0.0000 0.0000 30.2899 0.0000 -17.8974
# 5 -61.6497 -21.2724 -27.3971 0.0000 53.6168 0.0000
# 6 0.0000 0.0000 0.0000 -17.8974 0.0000 24.3223
#
#
#
# Elastic Compliance Matrix: (Units=1/GPa)
#
#
# Indices 1 2 3 4 5 6 
#
# 1 0.015124 -0.004677 -0.000276 0.000000 0.015393 0.000000
# 2 -0.004677 0.027290 -0.009345 0.000000 0.000674 0.000000
# 3 -0.000276 -0.009345 0.021667 0.000000 0.007047 0.000000
# 4 0.000000 0.000000 0.000000 0.058410 0.000000 0.042981
# 5 0.015393 0.000674 0.007047 0.000000 0.040218 0.000000
# 6 0.000000 0.000000 0.000000 0.042981 0.000000 0.072741
#
#
# Mechanical properties :
#
#
# Convention : Reuss Voigt Hill
#
# Bulk Modulus (GPa) = 28.18066 53.58427 40.88247
# Shear Modulus (GPa) = 18.12414 32.06783 25.09598
#
# Velocity S-wave (km/s) = 2.85233 3.79408 3.35640
# Velocity P-wave (km/s) = 4.84746 6.57625 5.77689
#
# Compressibility (1/GPa) = 0.03548532
#
# Stress axis : x y z
#
# Youngs Moduli (GPa) = 66.12092 36.64338 46.15282
#
# Poissons Ratio (x) = 0.17140 0.01272
# Poissons Ratio (y) = 0.30928 0.43128
# Poissons Ratio (z) = 0.01823 0.34242
#
# Static dielectric constant tensor:
#      x y z
#    x 1.991740 0.000000 -0.066430 
#    y 0.000000 1.868380 0.000000 
#    z -0.066430 0.000000 1.813160 
# 
# From -- ./inp_files/14645.got.cif
#   From: 2010.05.17/outbox.cif.g08.bks.cpg/sg9_8_cif.got.tgz:14645.got - 2010.06.03 20:04:27.
