data_PCOD9139740
_publ_section_title
;
Structure prediction by ZEFSAII (Michael W. Deem and Ramdas Pophale) SiO2 
 PCOD9139740
Probable space group: C C
;
_chemical_formula_sum "Si O2"
_cell_formula_units_Z 32
_cell_length_a 17.747707
_cell_length_b 5.625018
_cell_length_c 14.988673
_cell_angle_alpha 90.000000
_cell_angle_beta 114.437769
_cell_angle_gamma 90.000000
_cell_volume 1362.281687
_symmetry_space_group_name_H-M "C C"
_symmetry_group_IT_number 9
_symmetry_cell_setting 'monoclinic'
loop_
_space_group_symop_operation_xyz
x,y,z
x,-y,1/2+z
1/2+x,1/2+y,z
1/2+x,1/2-y,1/2+z
loop_
_atom_site_type_symbol
_atom_site_label
_atom_site_fract_x
_atom_site_fract_y
_atom_site_fract_z
Si Si1 0.652770 0.213458 0.459110
Si Si2 0.038693 0.329322 0.475024
Si Si3 0.186417 0.191338 0.654846
Si Si4 0.801583 0.489410 0.597074
Si Si5 0.047725 0.092927 0.300517
Si Si6 0.291546 0.371451 0.446905
Si Si7 0.939527 0.823098 0.099690
Si Si8 0.176737 0.309080 0.247465
O O1 0.723477 0.310783 0.561453
O O2 0.613604 0.400486 0.371121
O O3 0.574534 0.089118 0.468741
O O4 0.712364 0.025351 0.438830
O O5 0.122845 0.188952 0.541036
O O6 0.004697 0.205567 0.368108
O O7 0.986556 0.306217 0.540555
O O8 0.279982 0.175110 0.663596
O O9 0.169665 0.444789 0.691232
O O10 0.169943 0.956354 0.703681
O O11 0.793396 0.624912 0.499826
O O12 0.887864 0.359167 0.635603
O O13 0.100095 0.300285 0.278900
O O14 0.992925 0.974953 0.195922
O O15 0.372851 0.511509 0.515771
O O16 0.269021 0.320110 0.334483
#
# Coordination Sequence:
#
# PCOD9139740 Si02
#       8
#     4   4   4   4   4   4   4   4
#     4  11  20  44  81 104 149 209 275 321 394 482
#     4  12  25  45  78 117 153 216 270 341 403 493
#     4  12  25  44  83 118 149 210 280 330 398 492
#     4  11  24  49  72 108 156 212 257 342 405 483
#     4  12  25  48  78 117 159 210 280 346 402 489
#     4  11  24  47  74 104 155 209 257 335 405 477
#     4  11  30  47  73 120 171 208 266 347 434 476
#     4  12  25  44  83 118 152 206 285 328 397 490
#
# _framework density 23.490000999999999
#
# number of rings (size 3 to 8) (size 9 to 14) (size 15 to 20)
#    0.000    0.500    6.250    1.500    3.500    4.000 
#    2.250    0.000    0.000    0.000    0.000    0.000 
#    0.000    0.000    0.000    0.000    0.000    0.000 
#
# Total GULP energy -89313.055398 kJ/mol
# GULP energy per Si atom -5582.065962 kJ/mol
# Density = 2.343654 g / cm^3
# Si number density = 23.490001 Si / 1000 Ang^3
#
#
#
# Elastic Constant Matrix: (Units=GPa)
#
#
# Indices 1 2 3 4 5 6 
#
# 1 121.2086 48.3847 48.2558 0.0000 -3.6336 0.0000
# 2 48.3847 106.8060 50.4847 0.0000 -3.3398 0.0000
# 3 48.2558 50.4847 92.7507 0.0000 -6.4927 0.0000
# 4 0.0000 0.0000 0.0000 40.8022 0.0000 -9.9737
# 5 -3.6336 -3.3398 -6.4927 0.0000 26.9608 0.0000
# 6 0.0000 0.0000 0.0000 -9.9737 0.0000 48.0706
#
#
#
# Elastic Compliance Matrix: (Units=1/GPa)
#
#
# Indices 1 2 3 4 5 6 
#
# 1 0.011120 -0.003101 -0.004088 0.000000 0.000130 0.000000
# 2 -0.003101 0.013471 -0.005728 0.000000 -0.000129 0.000000
# 3 -0.004088 -0.005728 0.016212 0.000000 0.002643 0.000000
# 4 0.000000 0.000000 0.000000 0.025818 0.000000 0.005357
# 5 0.000130 -0.000129 0.002643 0.000000 0.037729 0.000000
# 6 0.000000 0.000000 0.000000 0.005357 0.000000 0.021914
#
#
# Mechanical properties :
#
#
# Convention : Reuss Voigt Hill
#
# Bulk Modulus (GPa) = 66.81076 68.33508 67.57292
# Shear Modulus (GPa) = 31.82953 34.74273 33.28613
#
# Velocity S-wave (km/s) = 3.68506 3.85001 3.76844
# Velocity P-wave (km/s) = 6.82716 6.99412 6.91115
#
# Compressibility (1/GPa) = 0.01496765
#
# Stress axis : x y z
#
# Youngs Moduli (GPa) = 89.93136 74.23363 61.68458
#
# Poissons Ratio (x) = 0.23018 0.25219
# Poissons Ratio (y) = 0.27886 0.35333
# Poissons Ratio (z) = 0.36767 0.42521
#
# Static dielectric constant tensor:
#      x y z
#    x 1.957680 0.000000 -0.083570 
#    y 0.000000 1.966700 0.000000 
#    z -0.083570 0.000000 1.966390 
# 
# From -- ./inp_files/26514.got.cif
#   From: 2010.05.17/outbox.cif.g08.bks.cpg/sg9_14_cif.got.tgz:26514.got - 2010.06.03 20:04:27.
