data_PCOD9139620
_publ_section_title
;
Structure prediction by ZEFSAII (Michael W. Deem and Ramdas Pophale) SiO2 
 PCOD9139620
Probable space group: C C
;
_chemical_formula_sum "Si O2"
_cell_formula_units_Z 32
_cell_length_a 27.811537
_cell_length_b 4.747126
_cell_length_c 9.142345
_cell_angle_alpha 90.000000
_cell_angle_beta 76.202104
_cell_angle_gamma 90.000000
_cell_volume 1172.186073
_symmetry_space_group_name_H-M "C C"
_symmetry_group_IT_number 9
_symmetry_cell_setting 'monoclinic'
loop_
_space_group_symop_operation_xyz
x,y,z
x,-y,1/2+z
1/2+x,1/2+y,z
1/2+x,1/2-y,1/2+z
loop_
_atom_site_type_symbol
_atom_site_label
_atom_site_fract_x
_atom_site_fract_y
_atom_site_fract_z
Si Si1 0.628790 0.547055 0.756510
Si Si2 0.406840 0.239232 0.284349
Si Si3 0.617615 0.038122 0.592422
Si Si4 0.778951 0.261783 0.345813
Si Si5 0.036362 0.180865 0.501873
Si Si6 0.475825 0.737197 0.257627
Si Si7 0.210632 0.244760 0.372709
Si Si8 0.342429 0.895913 0.562541
O O1 0.624075 0.880442 0.743849
O O2 0.581304 0.463054 0.882195
O O3 0.680964 0.436400 0.774598
O O4 0.621430 0.368958 0.612717
O O5 0.429014 0.533643 0.317288
O O6 0.374282 0.266999 0.161830
O O7 0.452807 0.027444 0.216746
O O8 0.376466 0.096539 0.437317
O O9 0.565429 0.921331 0.572293
O O10 0.666672 0.912925 0.483555
O O11 0.740647 0.499440 0.432027
O O12 0.813587 0.210808 0.461895
O O13 0.807279 0.410426 0.190958
O O14 0.750811 0.985052 0.310141
O O15 0.002513 0.288038 0.392750
O O16 0.008587 0.950806 0.622378
#
# Coordination Sequence:
#
# PCOD9139620 Si02
#       8
#     4   4   4   4   4   4   4   4
#     4  11  25  45  71 102 155 190 239 294 354 419
#     4  11  26  48  72 105 141 184 229 300 373 422
#     4  11  25  45  71 102 155 190 239 294 354 418
#     4  11  26  44  74 103 139 185 240 293 347 442
#     4  11  26  46  72 110 144 193 240 293 353 419
#     4  12  26  45  77 105 143 185 246 292 349 449
#     4  11  26  43  70 107 141 190 239 290 353 412
#     4  10  26  48  73 102 144 181 232 300 373 423
#
# _framework density 27.299419
#
# number of rings (size 3 to 8) (size 9 to 14) (size 15 to 20)
#    0.000    1.000    1.250    3.000    7.000   11.000 
#    0.000    0.000    0.000    0.000    0.000    0.000 
#    0.000    0.000    0.000    0.000    0.000    0.000 
#
# Total GULP energy -89761.931950 kJ/mol
# GULP energy per Si atom -5610.120747 kJ/mol
# Density = 2.723728 g / cm^3
# Si number density = 27.299419 Si / 1000 Ang^3
#
#
#
# Elastic Constant Matrix: (Units=GPa)
#
#
# Indices 1 2 3 4 5 6 
#
# 1 149.7062 37.7821 56.7724 0.0000 21.2668 0.0000
# 2 37.7821 125.2591 13.9777 0.0000 0.6789 0.0000
# 3 56.7724 13.9777 115.7168 0.0000 3.0609 0.0000
# 4 0.0000 0.0000 0.0000 41.3956 0.0000 -1.3059
# 5 21.2668 0.6789 3.0609 0.0000 52.6269 0.0000
# 6 0.0000 0.0000 0.0000 -1.3059 0.0000 37.4527
#
#
#
# Elastic Compliance Matrix: (Units=1/GPa)
#
#
# Indices 1 2 3 4 5 6 
#
# 1 0.009369 -0.002336 -0.004221 0.000000 -0.003510 0.000000
# 2 -0.002336 0.008675 0.000076 0.000000 0.000828 0.000000
# 3 -0.004221 0.000076 0.010675 0.000000 0.001084 0.000000
# 4 0.000000 0.000000 0.000000 0.024184 0.000000 0.000843
# 5 -0.003510 0.000828 0.001084 0.000000 0.020347 0.000000
# 6 0.000000 0.000000 0.000000 0.000843 0.000000 0.026730
#
#
# Mechanical properties :
#
#
# Convention : Reuss Voigt Hill
#
# Bulk Modulus (GPa) = 63.46509 67.52741 65.49625
# Shear Modulus (GPa) = 42.30359 45.10502 43.70431
#
# Velocity S-wave (km/s) = 3.94079 4.06918 4.00550
# Velocity P-wave (km/s) = 6.63360 6.84596 6.74062
#
# Compressibility (1/GPa) = 0.01575669
#
# Stress axis : x y z
#
# Youngs Moduli (GPa) = 106.73708 115.27350 93.67659
#
# Poissons Ratio (x) = 0.26926 0.39545
# Poissons Ratio (y) = 0.24932 -0.00714
# Poissons Ratio (z) = 0.45059 -0.00879
#
# Static dielectric constant tensor:
#      x y z
#    x 2.160610 0.000000 -0.026290 
#    y 0.000000 2.033450 0.000000 
#    z -0.026290 0.000000 2.176070 
# 
# From -- ./inp_files/12582.got.cif
#   From: 2010.05.17/outbox.cif.g08.bks.cpg/sg9_7_cif.got.tgz:12582.got - 2010.06.03 20:04:27.
