data_PCOD9139761
_publ_section_title
;
Structure prediction by ZEFSAII (Michael W. Deem and Ramdas Pophale) SiO2 
 PCOD9139761
Probable space group: C C
;
_chemical_formula_sum "Si O2"
_cell_formula_units_Z 32
_cell_length_a 7.589493
_cell_length_b 23.405804
_cell_length_c 9.117966
_cell_angle_alpha 90.000000
_cell_angle_beta 53.414060
_cell_angle_gamma 90.000000
_cell_volume 1300.559549
_symmetry_space_group_name_H-M "C C"
_symmetry_group_IT_number 9
_symmetry_cell_setting 'monoclinic'
loop_
_space_group_symop_operation_xyz
x,y,z
x,-y,1/2+z
1/2+x,1/2+y,z
1/2+x,1/2-y,1/2+z
loop_
_atom_site_type_symbol
_atom_site_label
_atom_site_fract_x
_atom_site_fract_y
_atom_site_fract_z
Si Si1 0.350660 0.333949 0.197470
Si Si2 0.618579 0.898046 0.072871
Si Si3 0.072770 0.805380 0.448580
Si Si4 0.626677 0.814104 0.827770
Si Si5 0.038494 0.040228 0.244441
Si Si6 0.139230 0.932308 0.355479
Si Si7 0.912995 0.289337 0.525384
Si Si8 0.768314 0.626707 0.336682
O O1 0.211584 0.383418 0.185163
O O2 0.388452 0.275510 0.086768
O O3 0.164096 0.312248 0.405875
O O4 0.595965 0.360298 0.052218
O O5 0.396418 0.932631 0.191343
O O6 0.585581 0.837074 0.010353
O O7 0.807391 0.929104 0.887686
O O8 0.038238 0.750658 0.361665
O O9 0.065723 0.866624 0.375920
O O10 0.301306 0.797934 0.422036
O O11 0.878607 0.808388 0.661989
O O12 0.505003 0.861406 0.789804
O O13 0.105030 0.049976 0.042901
O O14 0.206443 0.069576 0.278806
O O15 0.021068 0.975005 0.303707
O O16 0.765399 0.326196 0.709684
#
# Coordination Sequence:
#
# PCOD9139761 Si02
#       8
#     4   4   4   4   4   4   4   4
#     4  11  21  37  69  99 133 190 234 283 359 453
#     4  11  23  47  74 103 143 191 243 306 375 437
#     4  12  23  45  72 107 148 196 243 298 380 448
#     4  12  26  42  72 114 153 188 239 313 377 458
#     4  11  27  50  76 106 142 202 254 308 366 445
#     4  12  26  49  79 105 144 195 258 308 366 437
#     4  12  20  40  67  98 137 191 234 282 366 445
#     4  11  26  44  65 104 150 183 241 310 367 431
#
# _framework density 24.604792
#
# number of rings (size 3 to 8) (size 9 to 14) (size 15 to 20)
#    0.000    0.500    6.250    2.250    3.500    2.000 
#    2.250    0.000    0.000    0.000    0.000    0.000 
#    0.000    0.000    0.000    0.000    0.000    0.000 
#
# Total GULP energy -89476.010367 kJ/mol
# GULP energy per Si atom -5592.250648 kJ/mol
# Density = 2.454879 g / cm^3
# Si number density = 24.604792 Si / 1000 Ang^3
#
#
#
# Elastic Constant Matrix: (Units=GPa)
#
#
# Indices 1 2 3 4 5 6 
#
# 1 48.8575 2.3683 36.1223 0.0000 -11.9467 0.0000
# 2 2.3683 104.8121 27.3785 0.0000 6.8741 0.0000
# 3 36.1223 27.3785 143.6734 0.0000 2.4055 0.0000
# 4 0.0000 0.0000 0.0000 25.6882 0.0000 1.6731
# 5 -11.9467 6.8741 2.4055 0.0000 36.4557 0.0000
# 6 0.0000 0.0000 0.0000 1.6731 0.0000 18.9992
#
#
#
# Elastic Compliance Matrix: (Units=1/GPa)
#
#
# Indices 1 2 3 4 5 6 
#
# 1 0.028252 0.000661 -0.007390 0.000000 0.009621 0.000000
# 2 0.000661 0.010171 -0.002078 0.000000 -0.001564 0.000000
# 3 -0.007390 -0.002078 0.009259 0.000000 -0.002641 0.000000
# 4 0.000000 0.000000 0.000000 0.039153 0.000000 -0.003448
# 5 0.009621 -0.001564 -0.002641 0.000000 0.031053 0.000000
# 6 0.000000 0.000000 0.000000 -0.003448 0.000000 0.052938
#
#
# Mechanical properties :
#
#
# Convention : Reuss Voigt Hill
#
# Bulk Modulus (GPa) = 33.25885 47.67569 40.46727
# Shear Modulus (GPa) = 25.19368 31.66020 28.42694
#
# Velocity S-wave (km/s) = 3.20337 3.59102 3.40272
# Velocity P-wave (km/s) = 5.21811 6.05083 5.64983
#
# Compressibility (1/GPa) = 0.03006719
#
# Stress axis : x y z
#
# Youngs Moduli (GPa) = 35.39559 98.31476 108.00860
#
# Poissons Ratio (x) = -0.06499 0.79820
# Poissons Ratio (y) = -0.02340 0.22447
# Poissons Ratio (z) = 0.26158 0.20433
#
# Static dielectric constant tensor:
#      x y z
#    x 2.030780 0.000000 0.038580 
#    y 0.000000 1.946290 0.000000 
#    z 0.038580 0.000000 1.916040 
# 
# From -- ./inp_files/15615.got.cif
#   From: 2010.05.17/outbox.cif.g08.bks.cpg/sg9_8_cif.got.tgz:15615.got - 2010.06.03 20:04:27.
