data_PCOD9139166
_publ_section_title
;
Structure prediction by ZEFSAII (Michael W. Deem and Ramdas Pophale) SiO2 
 PCOD9139166
Probable space group: C C
;
_chemical_formula_sum "Si O2"
_cell_formula_units_Z 32
_cell_length_a 6.220970
_cell_length_b 24.583640
_cell_length_c 8.911975
_cell_angle_alpha 90.000000
_cell_angle_beta 99.206920
_cell_angle_gamma 90.000000
_cell_volume 1345.385871
_symmetry_space_group_name_H-M "C C"
_symmetry_group_IT_number 9
_symmetry_cell_setting 'monoclinic'
loop_
_space_group_symop_operation_xyz
x,y,z
x,-y,1/2+z
1/2+x,1/2+y,z
1/2+x,1/2-y,1/2+z
loop_
_atom_site_type_symbol
_atom_site_label
_atom_site_fract_x
_atom_site_fract_y
_atom_site_fract_z
Si Si1 0.469010 0.362031 0.192680
Si Si2 0.591228 0.134642 0.416392
Si Si3 0.549568 0.512802 0.389476
Si Si4 0.724468 0.289441 0.011074
Si Si5 0.399227 0.691225 0.215418
Si Si6 0.354507 0.596502 0.995502
Si Si7 0.598365 0.042733 0.196937
Si Si8 0.303702 0.052839 0.680625
O O1 0.554272 0.307481 0.122711
O O2 0.351704 0.369729 0.339908
O O3 0.704553 0.392611 0.240217
O O4 0.285625 0.382602 0.052804
O O5 0.410748 0.165917 0.494109
O O6 0.703368 0.174555 0.306428
O O7 0.498249 0.085029 0.305646
O O8 0.483035 0.458753 0.474440
O O9 0.338463 0.537118 0.291448
O O10 0.672109 0.552887 0.511667
O O11 0.704549 0.492132 0.278499
O O12 0.830991 0.234808 0.083837
O O13 0.588863 0.285840 0.842061
O O14 0.456202 0.636102 0.131646
O O15 0.126256 0.573650 0.040015
O O16 0.524951 0.979791 0.170373
#
# Coordination Sequence:
#
# PCOD9139166 Si02
#       8
#     4   4   4   4   4   4   4   4
#     4  10  24  47  70 105 142 184 240 302 349 427
#     4  10  24  45  73 102 141 187 233 298 359 433
#     4  11  23  42  62  96 141 179 229 295 332 425
#     4  11  26  46  77 103 139 189 237 299 370 427
#     4  10  26  48  70 104 140 183 241 303 361 428
#     4  10  24  46  67  98 147 183 230 299 348 427
#     4  11  24  43  68  99 141 192 235 284 364 415
#     4  11  25  39  67  97 137 185 235 280 349 424
#
# _framework density 23.784997000000001
#
# number of rings (size 3 to 8) (size 9 to 14) (size 15 to 20)
#    0.000    1.500    2.500    0.000    8.750    3.000 
#    2.250    0.000    0.000    0.000    0.000    0.000 
#    0.000    0.000    0.000    0.000    0.000    0.000 
#
# Total GULP energy -89217.158822 kJ/mol
# GULP energy per Si atom -5576.072426 kJ/mol
# Density = 2.373086 g / cm^3
# Si number density = 23.784997 Si / 1000 Ang^3
#
#
#
# Elastic Constant Matrix: (Units=GPa)
#
#
# Indices 1 2 3 4 5 6 
#
# 1 53.1087 34.6996 34.9557 0.0000 -3.5660 0.0000
# 2 34.6996 99.2939 39.9217 0.0000 4.5290 0.0000
# 3 34.9557 39.9217 114.5878 0.0000 -11.9933 0.0000
# 4 0.0000 0.0000 0.0000 40.4889 0.0000 -3.6337
# 5 -3.5660 4.5290 -11.9933 0.0000 38.6144 0.0000
# 6 0.0000 0.0000 0.0000 -3.6337 0.0000 27.3845
#
#
#
# Elastic Compliance Matrix: (Units=1/GPa)
#
#
# Indices 1 2 3 4 5 6 
#
# 1 0.027494 -0.007421 -0.005628 0.000000 0.001662 0.000000
# 2 -0.007421 0.014000 -0.002953 0.000000 -0.003245 0.000000
# 3 -0.005628 -0.002953 0.011839 0.000000 0.003504 0.000000
# 4 0.000000 0.000000 0.000000 0.024996 0.000000 0.003317
# 5 0.001662 -0.003245 0.003504 0.000000 0.027519 0.000000
# 6 0.000000 0.000000 0.000000 0.003317 0.000000 0.036957
#
#
# Mechanical properties :
#
#
# Convention : Reuss Voigt Hill
#
# Bulk Modulus (GPa) = 46.88508 54.01602 50.45055
# Shear Modulus (GPa) = 27.48476 31.79180 29.63828
#
# Velocity S-wave (km/s) = 3.40303 3.65996 3.53383
# Velocity P-wave (km/s) = 5.93259 6.37337 6.15693
#
# Compressibility (1/GPa) = 0.02132875
#
# Stress axis : x y z
#
# Youngs Moduli (GPa) = 36.37183 71.42920 84.46444
#
# Poissons Ratio (x) = 0.53009 0.47534
# Poissons Ratio (y) = 0.26992 0.24944
# Poissons Ratio (z) = 0.20469 0.21094
#
# Static dielectric constant tensor:
#      x y z
#    x 2.007550 0.000000 -0.050270 
#    y 0.000000 1.906270 0.000000 
#    z -0.050270 0.000000 1.927190 
# 
# From -- ./inp_files/4494.got.cif
#   From: 2010.05.17/outbox.cif.g08.bks.cpg/sg9_3_cif.got.tgz:4494.got - 2010.06.03 20:04:27.
