data_PCOD9139376
_publ_section_title
;
Structure prediction by ZEFSAII (Michael W. Deem and Ramdas Pophale) SiO2 
 PCOD9139376
Probable space group: C C
;
_chemical_formula_sum "Si O2"
_cell_formula_units_Z 32
_cell_length_a 30.980936
_cell_length_b 5.432369
_cell_length_c 9.076454
_cell_angle_alpha 90.000000
_cell_angle_beta 116.872728
_cell_angle_gamma 90.000000
_cell_volume 1362.608473
_symmetry_space_group_name_H-M "C C"
_symmetry_group_IT_number 9
_symmetry_cell_setting 'monoclinic'
loop_
_space_group_symop_operation_xyz
x,y,z
x,-y,1/2+z
1/2+x,1/2+y,z
1/2+x,1/2-y,1/2+z
loop_
_atom_site_type_symbol
_atom_site_label
_atom_site_fract_x
_atom_site_fract_y
_atom_site_fract_z
Si Si1 0.375000 0.755425 0.387620
Si Si2 0.069026 0.331214 0.165210
Si Si3 0.989366 0.290963 0.547292
Si Si4 0.221439 0.705007 0.552085
Si Si5 0.666658 0.033452 0.739431
Si Si6 0.339516 0.747083 0.993388
Si Si7 0.543092 0.475041 0.879778
Si Si8 0.245601 0.216943 0.517287
O O1 0.433021 0.779596 0.489464
O O2 0.361718 0.749903 0.193762
O O3 0.356800 0.504067 0.439475
O O4 0.354570 0.004974 0.430489
O O5 0.111586 0.518755 0.193525
O O6 0.074590 0.213897 0.333726
O O7 0.015334 0.444228 0.078072
O O8 0.072941 0.130352 0.043315
O O9 0.002687 0.163347 0.413330
O O10 0.017743 0.150202 0.721171
O O11 0.178298 0.636658 0.596766
O O12 0.200485 0.686825 0.351660
O O13 0.255959 0.467764 0.621288
O O14 0.247222 0.963312 0.603726
O O15 0.690035 0.245900 0.879804
O O16 0.282266 0.766820 0.938995
#
# Coordination Sequence:
#
# PCOD9139376 Si02
#       8
#     4   4   4   4   4   4   4   4
#     4  12  29  47  78 109 149 190 253 304 384 443
#     4  11  25  44  68 104 139 191 238 298 356 437
#     4  11  25  44  71  97 145 178 242 294 368 427
#     4  10  25  42  71 101 140 188 228 292 352 424
#     4  10  27  41  71  99 147 181 245 286 362 425
#     4  12  28  48  78 110 147 194 248 310 375 453
#     4  10  25  42  71  97 138 184 238 294 363 423
#     4  10  26  44  74  99 149 178 244 288 370 418
#
# _framework density 23.484369999999998
#
# number of rings (size 3 to 8) (size 9 to 14) (size 15 to 20)
#    0.750    0.500    0.000    3.000   17.500    1.000 
#    0.000    0.000    0.000    0.000    0.000    0.000 
#    0.000    0.000    0.000    0.000    0.000    0.000 
#
# Total GULP energy -89359.375917 kJ/mol
# GULP energy per Si atom -5584.960995 kJ/mol
# Density = 2.343092 g / cm^3
# Si number density = 23.484370 Si / 1000 Ang^3
#
#
#
# Elastic Constant Matrix: (Units=GPa)
#
#
# Indices 1 2 3 4 5 6 
#
# 1 125.3548 40.3227 29.6962 0.0000 -7.9220 0.0000
# 2 40.3227 155.7559 39.4810 0.0000 -18.8498 0.0000
# 3 29.6962 39.4810 103.4866 0.0000 -24.3573 0.0000
# 4 0.0000 0.0000 0.0000 4.8154 0.0000 -19.6780
# 5 -7.9220 -18.8498 -24.3573 0.0000 31.2176 0.0000
# 6 0.0000 0.0000 0.0000 -19.6780 0.0000 31.1235
#
#
#
# Elastic Compliance Matrix: (Units=1/GPa)
#
#
# Indices 1 2 3 4 5 6 
#
# 1 0.009024 -0.001885 -0.001959 0.000000 -0.000377 0.000000
# 2 -0.001885 0.007687 -0.001729 0.000000 0.002814 0.000000
# 3 -0.001959 -0.001729 0.012889 0.000000 0.008515 0.000000
# 4 0.000000 0.000000 0.000000 -0.131128 0.000000 -0.082906
# 5 -0.000377 0.002814 0.008515 0.000000 0.040281 0.000000
# 6 0.000000 0.000000 0.000000 -0.082906 0.000000 -0.020288
#
#
# Mechanical properties :
#
#
# Convention : Reuss Voigt Hill
#
# Bulk Modulus (GPa) = 54.19103 67.06635 60.62869
# Shear Modulus (GPa) = -77.83798 31.77112 -23.03343
#
# Velocity S-wave (km/s) = -5.76338 3.68212 -3.13517
# Velocity P-wave (km/s) = 4.60036 6.83353 3.57309
#
# Compressibility (1/GPa) = 0.01845324
#
# Stress axis : x y z
#
# Youngs Moduli (GPa) = 110.81514 130.08485 77.58392
#
# Poissons Ratio (x) = 0.24524 0.15198
# Poissons Ratio (y) = 0.20891 0.13418
# Poissons Ratio (z) = 0.21708 0.22498
#
# Static dielectric constant tensor:
#      x y z
#    x 1.860240 0.000000 0.005320 
#    y 0.000000 1.942640 0.000000 
#    z 0.005320 0.000000 1.921060 
# 
# From -- ./inp_files/12601.got.cif
#   From: 2010.05.17/outbox.cif.g08.bks.cpg/sg9_7_cif.got.tgz:12601.got - 2010.06.03 20:04:27.
