data_PCOD9139379
_publ_section_title
;
Structure prediction by ZEFSAII (Michael W. Deem and Ramdas Pophale) SiO2 
 PCOD9139379
Probable space group: C C
;
_chemical_formula_sum "Si O2"
_cell_formula_units_Z 20
_cell_length_a 13.147135
_cell_length_b 4.697037
_cell_length_c 13.737418
_cell_angle_alpha 90.000000
_cell_angle_beta 82.687119
_cell_angle_gamma 90.000000
_cell_volume 841.420629
_symmetry_space_group_name_H-M "C C"
_symmetry_group_IT_number 9
_symmetry_cell_setting 'monoclinic'
loop_
_space_group_symop_operation_xyz
x,y,z
x,-y,1/2+z
1/2+x,1/2+y,z
1/2+x,1/2-y,1/2+z
loop_
_atom_site_type_symbol
_atom_site_label
_atom_site_fract_x
_atom_site_fract_y
_atom_site_fract_z
Si Si1 0.385250 0.921157 0.156960
Si Si2 0.684249 0.211595 0.649503
Si Si3 0.395432 0.989197 0.367383
Si Si4 0.559252 0.743253 0.723418
Si Si5 0.821736 0.023685 0.989916
O O1 0.378470 0.816916 0.269297
O O2 0.289156 0.131195 0.160762
O O3 0.488656 0.109719 0.148586
O O4 0.373823 0.689711 0.074559
O O5 0.593455 0.431818 0.686157
O O6 0.661243 0.932258 0.714251
O O7 0.711392 0.096059 0.538186
O O8 0.389931 0.743695 0.448125
O O9 0.494857 0.183546 0.328520
O O10 0.314322 0.229660 0.409659
#
# Coordination Sequence:
#
# PCOD9139379 Si02
#       5
#     4   4   4   4   4
#     4  10  26  44  76  92 153 186 226 298 375 383
#     4  12  22  44  73 100 138 188 235 292 353 424
#     4  10  25  42  72 103 145 182 241 292 350 425
#     4  10  25  42  72 101 138 188 236 287 356 420
#     4  12  22  44  73 108 136 192 240 289 350 432
#
# _framework density 23.769321999999999
#
# number of rings (size 3 to 8) (size 9 to 14) (size 15 to 20)
#    1.200    0.000    4.000    1.200    5.600    0.000 
#    0.000    8.000    4.400    0.000    0.000    0.000 
#    0.000    0.000    0.000    0.000    0.000    0.000 
#
# Total GULP energy -55705.500717 kJ/mol
# GULP energy per Si atom -5570.550072 kJ/mol
# Density = 2.371522 g / cm^3
# Si number density = 23.769322 Si / 1000 Ang^3
#
#
#
# Elastic Constant Matrix: (Units=GPa)
#
#
# Indices 1 2 3 4 5 6 
#
# 1 54.2589 18.8298 13.3329 0.0000 -18.0108 0.0000
# 2 18.8298 134.1568 29.5427 0.0000 -19.0780 0.0000
# 3 13.3329 29.5427 100.7148 0.0000 -25.9815 0.0000
# 4 0.0000 0.0000 0.0000 39.2311 0.0000 -15.8884
# 5 -18.0108 -19.0780 -25.9815 0.0000 31.5403 0.0000
# 6 0.0000 0.0000 0.0000 -15.8884 0.0000 39.5671
#
#
#
# Elastic Compliance Matrix: (Units=1/GPa)
#
#
# Indices 1 2 3 4 5 6 
#
# 1 0.023049 -0.001572 0.000711 0.000000 0.012797 0.000000
# 2 -0.001572 0.008426 -0.001499 0.000000 0.002965 0.000000
# 3 0.000711 -0.001499 0.012883 0.000000 0.010112 0.000000
# 4 0.000000 0.000000 0.000000 0.030440 0.000000 0.012224
# 5 0.012797 0.002965 0.010112 0.000000 0.049136 0.000000
# 6 0.000000 0.000000 0.000000 0.012224 0.000000 0.030182
#
#
# Mechanical properties :
#
#
# Convention : Reuss Voigt Hill
#
# Bulk Modulus (GPa) = 25.22783 45.83792 35.53288
# Shear Modulus (GPa) = 29.06156 37.22939 33.14547
#
# Velocity S-wave (km/s) = 3.50043 3.96192 3.73830
# Velocity P-wave (km/s) = 5.19365 6.34471 5.79782
#
# Compressibility (1/GPa) = 0.03963876
#
# Stress axis : x y z
#
# Youngs Moduli (GPa) = 43.38647 118.67723 77.62076
#
# Poissons Ratio (x) = 0.18654 -0.05519
# Poissons Ratio (y) = 0.06820 0.11634
# Poissons Ratio (z) = -0.03085 0.17787
#
# Static dielectric constant tensor:
#      x y z
#    x 1.925490 0.000000 -0.015090 
#    y 0.000000 1.919480 0.000000 
#    z -0.015090 0.000000 1.999610 
# 
# From -- ./inp_files/25160.got.cif
#   From: 2010.05.17/outbox.cif.g08.bks.cpg/sg9_13_cif.got.tgz:25160.got - 2010.06.03 20:04:27.
