data_PCOD9139751
_publ_section_title
;
Structure prediction by ZEFSAII (Michael W. Deem and Ramdas Pophale) SiO2 
 PCOD9139751
Probable space group: C C
;
_chemical_formula_sum "Si O2"
_cell_formula_units_Z 32
_cell_length_a 26.689074
_cell_length_b 8.683951
_cell_length_c 20.699586
_cell_angle_alpha 90.000000
_cell_angle_beta 19.487642
_cell_angle_gamma 90.000000
_cell_volume 1600.453917
_symmetry_space_group_name_H-M "C C"
_symmetry_group_IT_number 9
_symmetry_cell_setting 'monoclinic'
loop_
_space_group_symop_operation_xyz
x,y,z
x,-y,1/2+z
1/2+x,1/2+y,z
1/2+x,1/2-y,1/2+z
loop_
_atom_site_type_symbol
_atom_site_label
_atom_site_fract_x
_atom_site_fract_y
_atom_site_fract_z
Si Si1 0.455350 0.559825 0.559010
Si Si2 0.413023 0.916021 0.642553
Si Si3 0.163553 0.886017 0.694788
Si Si4 0.358263 0.941833 0.349777
Si Si5 0.727086 0.915802 0.734676
Si Si6 0.389570 0.392548 0.938970
Si Si7 0.168968 0.111584 0.871953
Si Si8 0.614018 0.264909 0.576758
O O1 0.431673 0.734156 0.609943
O O2 0.607469 0.551078 0.330795
O O3 0.323182 0.495397 0.675336
O O4 0.502209 0.449884 0.560220
O O5 0.380351 0.958736 0.757877
O O6 0.562344 0.008941 0.440018
O O7 0.281383 0.974985 0.754995
O O8 0.251917 0.998120 0.537912
O O9 0.266566 0.738778 0.580369
O O10 0.009683 0.837693 0.846659
O O11 0.514013 0.889336 0.193769
O O12 0.260919 0.793324 0.442072
O O13 0.720833 0.734786 0.755809
O O14 0.808763 0.960665 0.568360
O O15 0.495008 0.394169 0.747621
O O16 0.162337 0.208198 0.945604
#
# Coordination Sequence:
#
# PCOD9139751 Si02
#       8
#     4   4   4   4   4   4   4   4
#     4  11  23  37  57  85 115 152 193 242 296 348
#     4  11  21  36  57  84 117 151 192 242 290 342
#     4   9  18  33  55  82 112 149 189 230 280 339
#     4   9  18  33  55  82 112 149 191 234 272 342
#     4  11  21  36  57  84 117 151 192 242 290 342
#     4   9  18  33  55  82 112 149 191 234 272 342
#     4  11  23  37  57  85 115 152 193 242 296 348
#     4   9  18  33  55  82 112 149 189 230 280 339
#
# _framework density 19.994326999999998
#
# number of rings (size 3 to 8) (size 9 to 14) (size 15 to 20)
#    0.000    2.000    2.500    1.500    3.500    0.000 
#    0.000    1.250    0.000    3.000    0.000    0.000 
#    0.000    0.000    0.000    0.000    0.000    0.000 
#
# Total GULP energy -89084.781893 kJ/mol
# GULP energy per Si atom -5567.798868 kJ/mol
# Density = 1.994882 g / cm^3
# Si number density = 19.994327 Si / 1000 Ang^3
#
#
#
# Elastic Constant Matrix: (Units=GPa)
#
#
# Indices 1 2 3 4 5 6 
#
# 1 34.1916 15.3085 7.0356 0.0001 1.1802 -0.0001
# 2 15.3085 73.7439 15.0037 -0.0003 7.5854 0.0000
# 3 7.0356 15.0037 56.9332 -0.0001 1.1091 0.0000
# 4 0.0001 -0.0003 -0.0001 18.4133 0.0000 -1.7246
# 5 1.1802 7.5854 1.1091 0.0000 33.4364 0.0000
# 6 -0.0001 0.0000 0.0000 -1.7246 0.0000 23.3928
#
#
#
# Elastic Compliance Matrix: (Units=1/GPa)
#
#
# Indices 1 2 3 4 5 6 
#
# 1 0.032547 -0.006312 -0.002366 0.000000 0.000362 0.000000
# 2 -0.006312 0.015887 -0.003343 0.000000 -0.003271 0.000000
# 3 -0.002366 -0.003343 0.018733 0.000000 0.000220 0.000000
# 4 0.000000 0.000000 0.000000 0.054686 0.000000 0.004032
# 5 0.000362 -0.003271 0.000220 0.000000 0.030629 0.000000
# 6 0.000000 0.000000 0.000000 0.004032 0.000000 0.043045
#
#
# Mechanical properties :
#
#
# Convention : Reuss Voigt Hill
#
# Bulk Modulus (GPa) = 23.18777 26.61825 24.90301
# Shear Modulus (GPa) = 21.37237 23.54990 22.46113
#
# Velocity S-wave (km/s) = 3.27298 3.43567 3.35532
# Velocity P-wave (km/s) = 5.08975 5.39261 5.24337
#
# Compressibility (1/GPa) = 0.04312618
#
# Stress axis : x y z
#
# Youngs Moduli (GPa) = 30.72435 62.94290 53.38032
#
# Poissons Ratio (x) = 0.39732 0.12628
# Poissons Ratio (y) = 0.19395 0.17845
# Poissons Ratio (z) = 0.07268 0.21042
#
# Static dielectric constant tensor:
#      x y z
#    x 1.785510 0.000000 0.020490 
#    y 0.000000 1.681940 0.000000 
#    z 0.020490 0.000000 1.752480 
# 
# From -- ./inp_files/11341.got.cif
#   From: 2010.05.17/outbox.cif.g08.bks.cpg/sg9_6_cif.got.tgz:11341.got - 2010.06.03 20:04:27.
