data_PCOD9139343
_publ_section_title
;
Structure prediction by ZEFSAII (Michael W. Deem and Ramdas Pophale) SiO2 
 PCOD9139343
Probable space group: C C
;
_chemical_formula_sum "Si O2"
_cell_formula_units_Z 24
_cell_length_a 7.130078
_cell_length_b 11.803626
_cell_length_c 12.304222
_cell_angle_alpha 90.000000
_cell_angle_beta 111.343872
_cell_angle_gamma 90.000000
_cell_volume 964.508559
_symmetry_space_group_name_H-M "C C"
_symmetry_group_IT_number 9
_symmetry_cell_setting 'monoclinic'
loop_
_space_group_symop_operation_xyz
x,y,z
x,-y,1/2+z
1/2+x,1/2+y,z
1/2+x,1/2-y,1/2+z
loop_
_atom_site_type_symbol
_atom_site_label
_atom_site_fract_x
_atom_site_fract_y
_atom_site_fract_z
Si Si1 0.763130 0.412581 0.899430
Si Si2 0.244213 0.711885 0.756951
Si Si3 0.305538 0.710403 0.532293
Si Si4 0.403779 0.715105 0.052867
Si Si5 0.813354 0.977654 0.844054
Si Si6 0.588700 0.075540 0.078773
O O1 0.810839 0.339992 0.800839
O O2 0.546131 0.470218 0.852739
O O3 0.747267 0.308083 0.979361
O O4 0.946224 0.486936 0.985229
O O5 0.339977 0.667800 0.663904
O O6 0.272577 0.612689 0.849802
O O7 0.008448 0.731063 0.682916
O O8 0.464219 0.808689 0.546346
O O9 0.296471 0.614558 0.437927
O O10 0.092065 0.775331 0.508929
O O11 0.303950 0.599644 0.068873
O O12 0.650329 0.950388 0.715400
#
# Coordination Sequence:
#
# PCOD9139343 Si02
#       6
#     4   4   4   4   4   4
#     4  12  26  49  83 119 162 225 271 340 426 498
#     4  10  26  51  79 118 168 214 274 349 408 491
#     4  10  26  49  81 120 158 225 284 329 423 494
#     4  10  24  52  74 119 158 210 279 335 411 487
#     4  12  25  50  86 122 168 220 276 350 415 500
#     4  12  25  51  83 120 168 218 278 345 423 494
#
# _framework density 24.883139
#
# number of rings (size 3 to 8) (size 9 to 14) (size 15 to 20)
#    1.000    0.000    5.000    0.000    4.667    2.667 
#    3.000    3.333    0.000    0.000    0.000    0.000 
#    0.000    0.000    0.000    0.000    0.000    0.000 
#
# Total GULP energy -66908.473247 kJ/mol
# GULP energy per Si atom -5575.706104 kJ/mol
# Density = 2.482650 g / cm^3
# Si number density = 24.883139 Si / 1000 Ang^3
#
#
#
# Elastic Constant Matrix: (Units=GPa)
#
#
# Indices 1 2 3 4 5 6 
#
# 1 102.4230 57.0515 41.1713 0.0000 9.2346 0.0000
# 2 57.0515 154.1876 62.1599 0.0000 -2.5139 0.0000
# 3 41.1713 62.1599 123.8680 0.0000 -1.7456 0.0000
# 4 0.0000 0.0000 0.0000 59.7298 0.0000 7.9072
# 5 9.2346 -2.5139 -1.7456 0.0000 43.9328 0.0000
# 6 0.0000 0.0000 0.0000 7.9072 0.0000 34.7063
#
#
#
# Elastic Compliance Matrix: (Units=1/GPa)
#
#
# Indices 1 2 3 4 5 6 
#
# 1 0.013236 -0.003957 -0.002457 0.000000 -0.003106 0.000000
# 2 -0.003957 0.009318 -0.003343 0.000000 0.001232 0.000000
# 3 -0.002457 -0.003343 0.010578 0.000000 0.000745 0.000000
# 4 0.000000 0.000000 0.000000 0.017263 0.000000 -0.003933
# 5 -0.003106 0.001232 0.000745 0.000000 0.023515 0.000000
# 6 0.000000 0.000000 0.000000 -0.003933 0.000000 0.029709
#
#
# Mechanical properties :
#
#
# Convention : Reuss Voigt Hill
#
# Bulk Modulus (GPa) = 73.44307 77.91599 75.67953
# Shear Modulus (GPa) = 39.16278 42.34683 40.75481
#
# Velocity S-wave (km/s) = 3.97150 4.12980 4.05142
# Velocity P-wave (km/s) = 7.11405 7.35670 7.23639
#
# Compressibility (1/GPa) = 0.01361599
#
# Stress axis : x y z
#
# Youngs Moduli (GPa) = 75.55432 107.32185 94.53606
#
# Poissons Ratio (x) = 0.42472 0.23228
# Poissons Ratio (y) = 0.29900 0.31605
# Poissons Ratio (z) = 0.18564 0.35879
#
# Static dielectric constant tensor:
#      x y z
#    x 2.033890 0.000000 -0.075010 
#    y 0.000000 1.957900 0.000000 
#    z -0.075010 0.000000 2.179620 
# 
# From -- ./inp_files/22482.got.cif
#   From: 2010.05.17/outbox.cif.g08.bks.cpg/sg9_12_cif.got.tgz:22482.got - 2010.06.03 20:04:27.
