data_PCOD9139767
_publ_section_title
;
Structure prediction by ZEFSAII (Michael W. Deem and Ramdas Pophale) SiO2 
 PCOD9139767
Probable space group: C C
;
_chemical_formula_sum "Si O2"
_cell_formula_units_Z 32
_cell_length_a 27.383580
_cell_length_b 9.294811
_cell_length_c 9.119213
_cell_angle_alpha 90.000000
_cell_angle_beta 37.993498
_cell_angle_gamma 90.000000
_cell_volume 1428.785514
_symmetry_space_group_name_H-M "C C"
_symmetry_group_IT_number 9
_symmetry_cell_setting 'monoclinic'
loop_
_space_group_symop_operation_xyz
x,y,z
x,-y,1/2+z
1/2+x,1/2+y,z
1/2+x,1/2-y,1/2+z
loop_
_atom_site_type_symbol
_atom_site_label
_atom_site_fract_x
_atom_site_fract_y
_atom_site_fract_z
Si Si1 0.216490 0.408031 0.084970
Si Si2 0.228668 0.069376 0.016099
Si Si3 0.391946 0.684938 0.796364
Si Si4 0.377140 0.139528 0.845831
Si Si5 0.857634 0.921514 0.078743
Si Si6 0.461423 0.088575 0.347311
Si Si7 0.715119 0.326649 0.234330
Si Si8 0.628734 0.044437 0.526516
O O1 0.210956 0.236605 0.089835
O O2 0.201793 0.457179 0.282891
O O3 0.141336 0.464003 0.169712
O O4 0.291242 0.486043 0.830405
O O5 0.184466 0.928589 0.177401
O O6 0.310263 0.054542 0.912267
O O7 0.228427 0.071341 0.843005
O O8 0.410433 0.645883 0.585130
O O9 0.448292 0.796364 0.747883
O O10 0.394330 0.542585 0.888915
O O11 0.300409 0.746618 0.010522
O O12 0.436083 0.157631 0.565403
O O13 0.410553 0.043925 0.899778
O O14 0.344665 0.285503 0.998599
O O15 0.547598 0.024059 0.169812
O O16 0.649656 0.206146 0.426706
#
# Coordination Sequence:
#
# PCOD9139767 Si02
#       8
#     4   4   4   4   4   4   4   4
#     4  11  21  41  66 100 136 182 235 298 361 428
#     4  11  21  38  64 101 134 175 236 307 354 406
#     4  12  22  42  66 108 141 182 242 306 367 426
#     4  12  23  39  67 100 143 190 244 309 363 426
#     4  12  23  40  71 105 145 183 247 315 362 420
#     4  12  25  43  64 102 143 195 242 293 371 452
#     4  11  23  39  66 102 140 175 242 302 354 426
#     4  11  24  42  66  96 142 188 232 284 366 452
#
# _framework density 22.396644999999999
#
# number of rings (size 3 to 8) (size 9 to 14) (size 15 to 20)
#    0.000    0.500    6.250    3.750    1.750    1.000 
#    0.000    1.250    0.000    6.000    0.000    0.000 
#    0.000    0.000    0.000    0.000    0.000    0.000 
#
# Total GULP energy -89182.699630 kJ/mol
# GULP energy per Si atom -5573.918727 kJ/mol
# Density = 2.234567 g / cm^3
# Si number density = 22.396645 Si / 1000 Ang^3
#
#
#
# Elastic Constant Matrix: (Units=GPa)
#
#
# Indices 1 2 3 4 5 6 
#
# 1 85.2847 40.9268 33.8568 0.0000 12.6295 0.0000
# 2 40.9268 106.0954 27.1172 0.0000 14.3956 0.0000
# 3 33.8568 27.1172 56.8066 0.0000 21.4473 0.0000
# 4 0.0000 0.0000 0.0000 30.3975 0.0000 16.4330
# 5 12.6295 14.3956 21.4473 0.0000 36.9254 0.0000
# 6 0.0000 0.0000 0.0000 16.4330 0.0000 48.7020
#
#
#
# Elastic Compliance Matrix: (Units=1/GPa)
#
#
# Indices 1 2 3 4 5 6 
#
# 1 0.017104 -0.004581 -0.008291 0.000000 0.000751 0.000000
# 2 -0.004581 0.012032 -0.002349 0.000000 -0.001760 0.000000
# 3 -0.008291 -0.002349 0.028500 0.000000 -0.012802 0.000000
# 4 0.000000 0.000000 0.000000 0.040237 0.000000 -0.013577
# 5 0.000751 -0.001760 -0.012802 0.000000 0.034946 0.000000
# 6 0.000000 0.000000 0.000000 -0.013577 0.000000 0.025114
#
#
# Mechanical properties :
#
#
# Convention : Reuss Voigt Hill
#
# Bulk Modulus (GPa) = 36.77312 50.22091 43.49702
# Shear Modulus (GPa) = 25.32435 32.95737 29.14086
#
# Velocity S-wave (km/s) = 3.36627 3.84022 3.61103
# Velocity P-wave (km/s) = 5.61816 6.49116 6.07037
#
# Compressibility (1/GPa) = 0.02719377
#
# Stress axis : x y z
#
# Youngs Moduli (GPa) = 58.46672 83.11413 35.08815
#
# Poissons Ratio (x) = 0.38072 0.29091
# Poissons Ratio (y) = 0.26782 0.08242
# Poissons Ratio (z) = 0.48474 0.19524
#
# Static dielectric constant tensor:
#      x y z
#    x 1.834650 0.000000 -0.010720 
#    y 0.000000 1.916190 0.000000 
#    z -0.010720 0.000000 1.907960 
# 
# From -- ./inp_files/12418.got.cif
#   From: 2010.05.17/outbox.cif.g08.bks.cpg/sg9_7_cif.got.tgz:12418.got - 2010.06.03 20:04:27.
