data_PCOD9139552
_publ_section_title
;
Structure prediction by ZEFSAII (Michael W. Deem and Ramdas Pophale) SiO2 
 PCOD9139552
Probable space group: C C
;
_chemical_formula_sum "Si O2"
_cell_formula_units_Z 20
_cell_length_a 9.511787
_cell_length_b 12.010911
_cell_length_c 9.603374
_cell_angle_alpha 90.000000
_cell_angle_beta 137.215665
_cell_angle_gamma 90.000000
_cell_volume 745.221870
_symmetry_space_group_name_H-M "C C"
_symmetry_group_IT_number 9
_symmetry_cell_setting 'monoclinic'
loop_
_space_group_symop_operation_xyz
x,y,z
x,-y,1/2+z
1/2+x,1/2+y,z
1/2+x,1/2-y,1/2+z
loop_
_atom_site_type_symbol
_atom_site_label
_atom_site_fract_x
_atom_site_fract_y
_atom_site_fract_z
Si Si1 0.485290 0.753565 0.512370
Si Si2 0.042289 0.476115 0.657733
Si Si3 0.120000 0.267538 0.872032
Si Si4 0.647610 0.377869 0.881548
Si Si5 0.874085 0.844575 0.436132
O O1 0.534790 0.885338 0.527955
O O2 0.530885 0.656805 0.436124
O O3 0.217083 0.766323 0.281588
O O4 0.094890 0.400996 0.832012
O O5 0.818606 0.528490 0.519497
O O6 0.205384 0.572619 0.751901
O O7 0.884302 0.239154 0.601410
O O8 0.038704 0.201276 0.945835
O O9 0.760747 0.263220 0.917617
O O10 0.491620 0.406736 0.645451
#
# Coordination Sequence:
#
# PCOD9139552 Si02
#       5
#     4   4   4   4   4
#     4  10  25  52  74 111 159 202 261 321 389 473
#     4  10  28  50  82 110 162 208 260 318 416 448
#     4  10  25  52  74 111 159 202 261 321 389 473
#     4  12  25  50  80 114 157 203 267 327 384 475
#     4  12  25  50  80 114 157 203 267 327 384 475
#
# _framework density 26.837644999999998
#
# number of rings (size 3 to 8) (size 9 to 14) (size 15 to 20)
#    1.200    0.000    2.000    2.400    0.000    4.800 
#    0.000    0.000    0.000    0.000    0.000    0.000 
#    0.000    0.000    0.000    0.000    0.000    0.000 
#
# Total GULP energy -55930.603095 kJ/mol
# GULP energy per Si atom -5593.060309 kJ/mol
# Density = 2.677656 g / cm^3
# Si number density = 26.837645 Si / 1000 Ang^3
#
#
#
# Elastic Constant Matrix: (Units=GPa)
#
#
# Indices 1 2 3 4 5 6 
#
# 1 83.5539 -1.6308 41.5091 0.0000 3.4393 0.0000
# 2 -1.6308 106.8806 14.1036 0.0000 12.6842 0.0000
# 3 41.5091 14.1036 154.7873 0.0000 14.2851 0.0000
# 4 0.0000 0.0000 0.0000 53.9891 0.0000 28.7689
# 5 3.4393 12.6842 14.2851 0.0000 50.8791 0.0000
# 6 0.0000 0.0000 0.0000 28.7689 0.0000 39.9858
#
#
#
# Elastic Compliance Matrix: (Units=1/GPa)
#
#
# Indices 1 2 3 4 5 6 
#
# 1 0.013861 0.000716 -0.003777 0.000000 -0.000055 0.000000
# 2 0.000716 0.009748 -0.000874 0.000000 -0.002233 0.000000
# 3 -0.003777 -0.000874 0.007709 0.000000 -0.001691 0.000000
# 4 0.000000 0.000000 0.000000 0.030039 0.000000 -0.021612
# 5 -0.000055 -0.002233 -0.001691 0.000000 0.020690 0.000000
# 6 0.000000 0.000000 0.000000 -0.021612 0.000000 0.040558
#
#
# Mechanical properties :
#
#
# Convention : Reuss Voigt Hill
#
# Bulk Modulus (GPa) = 42.64810 50.35397 46.50104
# Shear Modulus (GPa) = 36.15579 48.38679 42.27129
#
# Velocity S-wave (km/s) = 3.67441 4.25072 3.97303
# Velocity P-wave (km/s) = 5.82472 6.54940 6.19766
#
# Compressibility (1/GPa) = 0.02344770
#
# Stress axis : x y z
#
# Youngs Moduli (GPa) = 72.14422 102.59005 129.71565
#
# Poissons Ratio (x) = -0.07350 0.48998
# Poissons Ratio (y) = -0.05169 0.11340
# Poissons Ratio (z) = 0.27251 0.08969
#
# Static dielectric constant tensor:
#      x y z
#    x 2.068570 0.000000 0.093590 
#    y 0.000000 1.899890 0.000000 
#    z 0.093590 0.000000 2.515580 
# 
# From -- ./inp_files/16056.got.cif
#   From: 2010.05.17/outbox.cif.g08.bks.cpg/sg9_9_cif.got.tgz:16056.got - 2010.06.03 20:04:27.
