data_PCOD9139954
_publ_section_title
;
Structure prediction by ZEFSAII (Michael W. Deem and Ramdas Pophale) SiO2 
 PCOD9139954
Probable space group: C C
;
_chemical_formula_sum "Si O2"
_cell_formula_units_Z 32
_cell_length_a 21.050637
_cell_length_b 7.797283
_cell_length_c 8.916119
_cell_angle_alpha 90.000000
_cell_angle_beta 63.564628
_cell_angle_gamma 90.000000
_cell_volume 1310.447043
_symmetry_space_group_name_H-M "C C"
_symmetry_group_IT_number 9
_symmetry_cell_setting 'monoclinic'
loop_
_space_group_symop_operation_xyz
x,y,z
x,-y,1/2+z
1/2+x,1/2+y,z
1/2+x,1/2-y,1/2+z
loop_
_atom_site_type_symbol
_atom_site_label
_atom_site_fract_x
_atom_site_fract_y
_atom_site_fract_z
Si Si1 0.155840 0.593378 0.458040
Si Si2 0.835206 0.702365 0.266156
Si Si3 0.753540 0.761972 0.643582
Si Si4 0.795044 0.129751 0.522240
Si Si5 0.999482 0.229455 0.912517
Si Si6 0.981641 0.885581 0.100852
Si Si7 0.867999 0.339783 0.216330
Si Si8 0.070488 0.603616 0.843841
O O1 0.175378 0.709532 0.291522
O O2 0.228020 0.603157 0.481089
O O3 0.097972 0.634495 0.646157
O O4 0.133858 0.414592 0.401102
O O5 0.774653 0.705880 0.456376
O O6 0.794593 0.728177 0.151919
O O7 0.882633 0.533042 0.248830
O O8 0.896371 0.850590 0.196874
O O9 0.791063 0.641385 0.723475
O O10 0.793272 0.947675 0.607334
O O11 0.860622 0.199671 0.354033
O O12 0.009352 0.156542 0.737138
O O13 0.038391 0.411528 0.888764
O O14 0.918673 0.282109 0.031522
O O15 0.007841 0.071952 0.019326
O O16 0.015096 0.745908 0.952496
#
# Coordination Sequence:
#
# PCOD9139954 Si02
#       8
#     4   4   4   4   4   4   4   4
#     4  11  25  45  76 101 140 205 259 289 373 452
#     4  12  24  43  74 110 153 189 251 316 390 451
#     4  11  22  43  68 104 141 192 251 294 375 448
#     4  11  24  41  72 104 142 198 247 306 364 458
#     4  12  27  48  74 115 153 195 256 319 387 458
#     4  12  28  47  77 117 150 198 252 326 391 449
#     4  11  24  42  68 111 153 190 243 316 390 448
#     4  12  26  51  81 106 152 203 261 308 374 474
#
# _framework density 24.419150999999999
#
# number of rings (size 3 to 8) (size 9 to 14) (size 15 to 20)
#    0.000    0.500    5.000    3.750    3.500    0.000 
#    0.000    5.000    5.500    0.000    0.000    0.000 
#    0.000    0.000    0.000    0.000    0.000    0.000 
#
# Total GULP energy -89261.060318 kJ/mol
# GULP energy per Si atom -5578.816270 kJ/mol
# Density = 2.436357 g / cm^3
# Si number density = 24.419151 Si / 1000 Ang^3
#
#
#
# Elastic Constant Matrix: (Units=GPa)
#
#
# Indices 1 2 3 4 5 6 
#
# 1 45.0491 5.2339 5.6230 0.0000 -0.9096 0.0000
# 2 5.2339 138.2027 39.9246 0.0000 -3.3711 0.0000
# 3 5.6230 39.9246 198.6856 0.0000 -4.0849 0.0000
# 4 0.0000 0.0000 0.0000 28.8831 0.0000 0.4499
# 5 -0.9096 -3.3711 -4.0849 0.0000 31.7761 0.0000
# 6 0.0000 0.0000 0.0000 0.4499 0.0000 26.6803
#
#
#
# Elastic Compliance Matrix: (Units=1/GPa)
#
#
# Indices 1 2 3 4 5 6 
#
# 1 0.022349 -0.000695 -0.000483 0.000000 0.000504 0.000000
# 2 -0.000695 0.007715 -0.001518 0.000000 0.000603 0.000000
# 3 -0.000483 -0.001518 0.005362 0.000000 0.000514 0.000000
# 4 0.000000 0.000000 0.000000 0.034631 0.000000 -0.000584
# 5 0.000504 0.000603 0.000514 0.000000 0.031615 0.000000
# 6 0.000000 0.000000 0.000000 -0.000584 0.000000 0.037491
#
#
# Mechanical properties :
#
#
# Convention : Reuss Voigt Hill
#
# Bulk Modulus (GPa) = 33.29352 53.72226 43.50789
# Shear Modulus (GPa) = 32.34849 39.54498 35.94673
#
# Velocity S-wave (km/s) = 3.64362 4.02857 3.84092
# Velocity P-wave (km/s) = 5.60045 6.60962 6.12585
#
# Compressibility (1/GPa) = 0.03003587
#
# Stress axis : x y z
#
# Youngs Moduli (GPa) = 44.74445 129.61115 186.48358
#
# Poissons Ratio (x) = 0.09004 0.08999
# Poissons Ratio (y) = 0.03108 0.28314
# Poissons Ratio (z) = 0.02159 0.19679
#
# Static dielectric constant tensor:
#      x y z
#    x 2.022590 0.000000 -0.001070 
#    y 0.000000 1.982870 0.000000 
#    z -0.001070 0.000000 1.927760 
# 
# From -- ./inp_files/12066.got.cif
#   From: 2010.05.17/outbox.cif.g08.bks.cpg/sg9_7_cif.got.tgz:12066.got - 2010.06.03 20:04:27.
