data_PCOD9139971
_publ_section_title
;
Structure prediction by ZEFSAII (Michael W. Deem and Ramdas Pophale) SiO2 
 PCOD9139971
Probable space group: C C
;
_chemical_formula_sum "Si O2"
_cell_formula_units_Z 32
_cell_length_a 8.002248
_cell_length_b 13.774623
_cell_length_c 16.176862
_cell_angle_alpha 90.000000
_cell_angle_beta 133.609444
_cell_angle_gamma 90.000000
_cell_volume 1291.098791
_symmetry_space_group_name_H-M "C C"
_symmetry_group_IT_number 9
_symmetry_cell_setting 'monoclinic'
loop_
_space_group_symop_operation_xyz
x,y,z
x,-y,1/2+z
1/2+x,1/2+y,z
1/2+x,1/2-y,1/2+z
loop_
_atom_site_type_symbol
_atom_site_label
_atom_site_fract_x
_atom_site_fract_y
_atom_site_fract_z
Si Si1 0.902660 0.135692 0.209670
Si Si2 0.232684 0.814797 0.258791
Si Si3 0.188423 0.563816 0.681764
Si Si4 0.916010 0.665006 0.440714
Si Si5 0.559929 0.159878 0.305998
Si Si6 0.235805 0.648309 0.972163
Si Si7 0.403934 0.504120 0.900875
Si Si8 0.785037 0.478392 0.156026
O O1 0.807578 0.234963 0.216565
O O2 0.163887 0.117114 0.332450
O O3 0.727964 0.047068 0.166984
O O4 0.884295 0.147372 0.105273
O O5 0.045914 0.760527 0.251532
O O6 0.463135 0.834793 0.391183
O O7 0.169407 0.912626 0.187509
O O8 0.411672 0.567795 0.819845
O O9 0.079832 0.617053 0.566192
O O10 0.008365 0.576139 0.696080
O O11 0.839632 0.768270 0.450168
O O12 0.050546 0.673939 0.400404
O O13 0.792033 0.103446 0.355112
O O14 0.363921 0.082677 0.215186
O O15 0.260664 0.550628 0.928162
O O16 0.647655 0.492258 0.025298
#
# Coordination Sequence:
#
# PCOD9139971 Si02
#       8
#     4   4   4   4   4   4   4   4
#     4  11  23  44  74 107 143 198 252 311 394 464
#     4  11  23  45  76 107 147 198 254 320 389 467
#     4  11  22  43  75 108 146 200 255 316 394 460
#     4  11  26  44  72 107 155 197 253 324 387 467
#     4  11  24  48  70 115 149 196 265 316 387 483
#     4  11  24  45  74 101 150 200 245 315 393 462
#     4  11  23  46  72 108 148 198 253 318 393 458
#     4  11  23  45  77 107 152 199 255 330 389 469
#
# _framework density 24.785088999999999
#
# number of rings (size 3 to 8) (size 9 to 14) (size 15 to 20)
#    0.000    1.000    5.000    3.000    5.250    0.000 
#    6.750    2.500    0.000    0.000    0.000    0.000 
#    0.000    0.000    0.000    0.000    0.000    0.000 
#
# Total GULP energy -89370.476648 kJ/mol
# GULP energy per Si atom -5585.654791 kJ/mol
# Density = 2.472868 g / cm^3
# Si number density = 24.785089 Si / 1000 Ang^3
#
#
#
# Elastic Constant Matrix: (Units=GPa)
#
#
# Indices 1 2 3 4 5 6 
#
# 1 42.8366 24.3697 18.3440 0.0000 -25.2784 0.0000
# 2 24.3697 90.4270 38.6280 0.0000 -5.5343 0.0000
# 3 18.3440 38.6280 169.9608 0.0000 -16.5128 0.0000
# 4 0.0000 0.0000 0.0000 34.2526 0.0000 -11.8184
# 5 -25.2784 -5.5343 -16.5128 0.0000 37.1732 0.0000
# 6 0.0000 0.0000 0.0000 -11.8184 0.0000 40.4600
#
#
#
# Elastic Compliance Matrix: (Units=1/GPa)
#
#
# Indices 1 2 3 4 5 6 
#
# 1 0.047851 -0.011161 0.000389 0.000000 0.031050 0.000000
# 2 -0.011161 0.014865 -0.002818 0.000000 -0.006629 0.000000
# 3 0.000389 -0.002818 0.006759 0.000000 0.002847 0.000000
# 4 0.000000 0.000000 0.000000 0.032467 0.000000 0.009484
# 5 0.031050 -0.006629 0.002847 0.000000 0.048294 0.000000
# 6 0.000000 0.000000 0.000000 0.009484 0.000000 0.027486
#
#
# Mechanical properties :
#
#
# Convention : Reuss Voigt Hill
#
# Bulk Modulus (GPa) = 23.64410 51.76753 37.70581
# Shear Modulus (GPa) = 22.83111 37.16934 30.00023
#
# Velocity S-wave (km/s) = 3.03836 3.87675 3.48288
# Velocity P-wave (km/s) = 4.67645 6.40085 5.60536
#
# Compressibility (1/GPa) = 0.04229385
#
# Stress axis : x y z
#
# Youngs Moduli (GPa) = 20.89825 67.27415 147.95602
#
# Poissons Ratio (x) = 0.75087 -0.05754
# Poissons Ratio (y) = 0.23325 0.41690
# Poissons Ratio (z) = -0.00813 0.18956
#
# Static dielectric constant tensor:
#      x y z
#    x 2.147630 0.000000 0.123850 
#    y 0.000000 1.988000 0.000000 
#    z 0.123850 0.000000 2.055780 
# 
# From -- ./inp_files/23374.got.cif
#   From: 2010.05.17/outbox.cif.g08.bks.cpg/sg9_12_cif.got.tgz:23374.got - 2010.06.03 20:04:27.
