data_PCOD9139570
_publ_section_title
;
Structure prediction by ZEFSAII (Michael W. Deem and Ramdas Pophale) SiO2 
 PCOD9139570
Probable space group: C C
;
_chemical_formula_sum "Si O2"
_cell_formula_units_Z 24
_cell_length_a 21.301894
_cell_length_b 5.179501
_cell_length_c 19.090896
_cell_angle_alpha 90.000000
_cell_angle_beta 152.255564
_cell_angle_gamma 90.000000
_cell_volume 980.570442
_symmetry_space_group_name_H-M "C C"
_symmetry_group_IT_number 9
_symmetry_cell_setting 'monoclinic'
loop_
_space_group_symop_operation_xyz
x,y,z
x,-y,1/2+z
1/2+x,1/2+y,z
1/2+x,1/2-y,1/2+z
loop_
_atom_site_type_symbol
_atom_site_label
_atom_site_fract_x
_atom_site_fract_y
_atom_site_fract_z
Si Si1 0.758620 0.245429 0.074000
Si Si2 0.662439 0.385885 0.582012
Si Si3 0.410985 0.242509 0.257870
Si Si4 0.500611 0.721797 0.062688
Si Si5 0.627938 0.001087 0.812035
Si Si6 0.377900 0.209222 0.002896
O O1 0.677585 0.322870 0.065525
O O2 0.844401 0.507440 0.150272
O O3 0.867288 0.019366 0.187279
O O4 0.666941 0.160897 0.918929
O O5 0.568293 0.242867 0.430642
O O6 0.814876 0.280815 0.732792
O O7 0.583063 0.335492 0.574058
O O8 0.608768 0.797781 0.229601
O O9 0.424801 0.463055 0.008528
O O10 0.398695 0.966665 0.970880
O O11 0.486896 0.850463 0.671250
O O12 0.737893 0.788381 0.898909
#
# Coordination Sequence:
#
# PCOD9139570 Si02
#       6
#     4   4   4   4   4   4
#     4  10  26  42  76  99 152 189 251 299 374 439
#     4  10  26  48  74 108 149 198 252 310 370 449
#     4  10  26  43  73 103 141 200 245 307 365 438
#     4  10  26  43  77 109 150 190 253 306 382 440
#     4  10  26  49  71 116 145 200 245 318 372 451
#     4  10  26  41  77 105 153 187 248 308 381 441
#
# _framework density 24.475549999999998
#
# number of rings (size 3 to 8) (size 9 to 14) (size 15 to 20)
#    2.000    0.000    0.000    0.000   11.667    2.667 
#    0.000    0.000    0.000    0.000    0.000    0.000 
#    0.000    0.000    0.000    0.000    0.000    0.000 
#
# Total GULP energy -66958.202418 kJ/mol
# GULP energy per Si atom -5579.850201 kJ/mol
# Density = 2.441984 g / cm^3
# Si number density = 24.475550 Si / 1000 Ang^3
#
#
#
# Elastic Constant Matrix: (Units=GPa)
#
#
# Indices 1 2 3 4 5 6 
#
# 1 119.2244 57.1574 22.2784 0.0001 6.1254 -0.0001
# 2 57.1574 180.0088 15.6100 0.0013 0.3856 0.0007
# 3 22.2784 15.6100 53.7908 0.0003 10.5837 0.0001
# 4 0.0001 0.0013 0.0003 22.2460 0.0003 -1.2576
# 5 6.1254 0.3856 10.5837 0.0003 32.5366 0.0002
# 6 -0.0001 0.0007 0.0001 -1.2576 0.0002 33.9284
#
#
#
# Elastic Compliance Matrix: (Units=1/GPa)
#
#
# Indices 1 2 3 4 5 6 
#
# 1 0.010510 -0.003050 -0.003297 0.000000 -0.000870 0.000000
# 2 -0.003050 0.006591 -0.000798 0.000000 0.000756 0.000000
# 3 -0.003297 -0.000798 0.021436 0.000000 -0.006343 0.000000
# 4 0.000000 0.000000 0.000000 0.045046 0.000000 0.001670
# 5 -0.000870 0.000756 -0.006343 0.000000 0.032953 0.000000
# 6 0.000000 0.000000 0.000000 0.001670 0.000000 0.029536
#
#
# Mechanical properties :
#
#
# Convention : Reuss Voigt Hill
#
# Bulk Modulus (GPa) = 41.24135 60.34618 50.79376
# Shear Modulus (GPa) = 29.68345 34.94072 32.31208
#
# Velocity S-wave (km/s) = 3.48628 3.78243 3.63737
# Velocity P-wave (km/s) = 5.75257 6.61702 6.19988
#
# Compressibility (1/GPa) = 0.02424751
#
# Stress axis : x y z
#
# Youngs Moduli (GPa) = 95.14498 151.71733 46.65128
#
# Poissons Ratio (x) = 0.46267 0.15380
# Poissons Ratio (y) = 0.29015 0.03725
# Poissons Ratio (z) = 0.31368 0.12114
#
# Static dielectric constant tensor:
#      x y z
#    x 2.032970 0.000000 -0.023760 
#    y 0.000000 1.914740 0.000000 
#    z -0.023760 0.000000 1.942290 
# 
# From -- ./inp_files/34416.got.cif
#   From: 2010.05.17/outbox.cif.g08.bks.cpg/sg9_18_cif.got.tgz:34416.got - 2010.06.03 20:04:27.
