data_PCOD9139294
_publ_section_title
;
Structure prediction by ZEFSAII (Michael W. Deem and Ramdas Pophale) SiO2 
 PCOD9139294
Probable space group: C C
;
_chemical_formula_sum "Si O2"
_cell_formula_units_Z 28
_cell_length_a 17.058119
_cell_length_b 7.279551
_cell_length_c 9.155713
_cell_angle_alpha 90.000000
_cell_angle_beta 81.814628
_cell_angle_gamma 90.000000
_cell_volume 1125.332566
_symmetry_space_group_name_H-M "C C"
_symmetry_group_IT_number 9
_symmetry_cell_setting 'monoclinic'
loop_
_space_group_symop_operation_xyz
x,y,z
x,-y,1/2+z
1/2+x,1/2+y,z
1/2+x,1/2-y,1/2+z
loop_
_atom_site_type_symbol
_atom_site_label
_atom_site_fract_x
_atom_site_fract_y
_atom_site_fract_z
Si Si1 0.753130 0.286796 0.672050
Si Si2 0.571639 0.366460 0.801475
Si Si3 0.436406 0.210964 0.646672
Si Si4 0.313370 0.108373 0.467456
Si Si5 0.110767 0.282687 0.850293
Si Si6 0.773231 0.861714 0.718124
Si Si7 0.538483 0.910611 0.571747
O O1 0.657504 0.305224 0.714916
O O2 0.793802 0.409162 0.537000
O O3 0.788944 0.374530 0.809528
O O4 0.775021 0.073203 0.672661
O O5 0.506011 0.338107 0.692697
O O6 0.584732 0.572542 0.854294
O O7 0.541292 0.244956 0.947233
O O8 0.399107 0.192854 0.491973
O O9 0.358367 0.289473 0.746865
O O10 0.459805 0.997741 0.666548
O O11 0.256238 0.241270 0.577929
O O12 0.203479 0.318486 0.848003
O O13 0.091479 0.356612 0.693772
O O14 0.067426 0.409722 0.977444
#
# Coordination Sequence:
#
# PCOD9139294 Si02
#       7
#     4   4   4   4   4   4   4
#     4  12  24  48  79 106 154 202 254 308 376 465
#     4  12  26  45  76 112 149 201 254 314 377 455
#     4  10  26  48  70 110 154 193 255 316 384 435
#     4  10  27  46  73 111 149 199 252 308 378 452
#     4  12  27  48  79 110 153 204 259 303 383 462
#     4  10  24  48  71 108 147 200 251 311 371 448
#     4  12  26  49  76 109 156 195 255 314 379 453
#
# _framework density 24.881532
#
# number of rings (size 3 to 8) (size 9 to 14) (size 15 to 20)
#    0.857    0.000    4.286    0.857    4.000    4.571 
#    0.000    0.000    0.000    0.000    0.000    0.000 
#    0.000    0.000    0.000    0.000    0.000    0.000 
#
# Total GULP energy -78263.865199 kJ/mol
# GULP energy per Si atom -5590.276086 kJ/mol
# Density = 2.482490 g / cm^3
# Si number density = 24.881532 Si / 1000 Ang^3
#
#
#
# Elastic Constant Matrix: (Units=GPa)
#
#
# Indices 1 2 3 4 5 6 
#
# 1 169.7648 51.2968 21.7910 0.0000 6.8082 0.0000
# 2 51.2968 215.7711 49.7361 0.0000 -13.6712 0.0000
# 3 21.7910 49.7361 75.1510 0.0000 9.5105 0.0000
# 4 0.0000 0.0000 0.0000 36.7176 0.0000 -3.0516
# 5 6.8082 -13.6712 9.5105 0.0000 27.6975 0.0000
# 6 0.0000 0.0000 0.0000 -3.0516 0.0000 38.2752
#
#
#
# Elastic Compliance Matrix: (Units=1/GPa)
#
#
# Indices 1 2 3 4 5 6 
#
# 1 0.006522 -0.001552 -0.000590 0.000000 -0.002167 0.000000
# 2 -0.001552 0.006328 -0.004372 0.000000 0.005006 0.000000
# 3 -0.000590 -0.004372 0.017381 0.000000 -0.007981 0.000000
# 4 0.000000 0.000000 0.000000 0.027417 0.000000 0.002186
# 5 -0.002167 0.005006 -0.007981 0.000000 0.041848 0.000000
# 6 0.000000 0.000000 0.000000 0.002186 0.000000 0.026301
#
#
# Mechanical properties :
#
#
# Convention : Reuss Voigt Hill
#
# Bulk Modulus (GPa) = 58.12528 78.48163 68.30345
# Shear Modulus (GPa) = 34.58797 43.06226 38.82511
#
# Velocity S-wave (km/s) = 3.73246 4.16467 3.95447
# Velocity P-wave (km/s) = 6.47970 7.39842 6.95425
#
# Compressibility (1/GPa) = 0.01720422
#
# Stress axis : x y z
#
# Youngs Moduli (GPa) = 153.32681 158.01857 57.53423
#
# Poissons Ratio (x) = 0.24521 0.03394
# Poissons Ratio (y) = 0.23793 0.25153
# Poissons Ratio (z) = 0.09046 0.69083
#
# Static dielectric constant tensor:
#      x y z
#    x 2.132600 0.000000 -0.078240 
#    y 0.000000 1.944830 0.000000 
#    z -0.078240 0.000000 1.983330 
# 
# From -- ./inp_files/10420.got.cif
#   From: 2010.05.17/outbox.cif.g08.bks.cpg/sg9_6_cif.got.tgz:10420.got - 2010.06.03 20:04:27.
