data_PCOD9139905
_publ_section_title
;
Structure prediction by ZEFSAII (Michael W. Deem and Ramdas Pophale) SiO2 
 PCOD9139905
Probable space group: C C
;
_chemical_formula_sum "Si O2"
_cell_formula_units_Z 32
_cell_length_a 22.369050
_cell_length_b 9.522695
_cell_length_c 18.827584
_cell_angle_alpha 90.000000
_cell_angle_beta 158.815880
_cell_angle_gamma 90.000000
_cell_volume 1449.270604
_symmetry_space_group_name_H-M "C C"
_symmetry_group_IT_number 9
_symmetry_cell_setting 'monoclinic'
loop_
_space_group_symop_operation_xyz
x,y,z
x,-y,1/2+z
1/2+x,1/2+y,z
1/2+x,1/2-y,1/2+z
loop_
_atom_site_type_symbol
_atom_site_label
_atom_site_fract_x
_atom_site_fract_y
_atom_site_fract_z
Si Si1 0.008890 0.555256 0.297600
Si Si2 0.978874 0.066863 0.201952
Si Si3 0.561801 0.196102 0.125850
Si Si4 0.512245 0.589313 0.406666
Si Si5 0.721650 0.531822 0.755870
Si Si6 0.154429 0.402239 0.583399
Si Si7 0.307598 0.152956 0.483656
Si Si8 0.278535 0.688035 0.503681
O O1 0.033262 0.505878 0.405610
O O2 0.182500 0.618089 0.462911
O O3 0.865590 0.669195 0.124500
O O4 0.959393 0.424165 0.192292
O O5 0.000495 0.065847 0.310466
O O6 0.146368 0.110896 0.349509
O O7 0.917638 0.909936 0.121952
O O8 0.844003 0.182091 0.028277
O O9 0.581613 0.361204 0.130061
O O10 0.651026 0.097652 0.165182
O O11 0.641309 0.189918 0.290776
O O12 0.377386 0.136148 0.920988
O O13 0.642980 0.490276 0.593234
O O14 0.333201 0.582894 0.245390
O O15 0.584022 0.746604 0.491535
O O16 0.775726 0.411187 0.870153
#
# Coordination Sequence:
#
# PCOD9139905 Si02
#       8
#     4   4   4   4   4   4   4   4
#     4  12  24  44  69 103 133 176 232 288 337 411
#     4  12  26  42  71  96 137 179 224 278 343 408
#     4  11  22  40  68 100 134 178 219 279 338 408
#     4  11  22  41  66 103 132 179 220 281 338 410
#     4  11  24  40  69 102 138 171 232 280 343 407
#     4  11  23  40  70 100 139 173 231 278 343 406
#     4  12  25  43  70 101 133 176 232 285 338 406
#     4  12  24  44  69  99 136 178 226 279 346 408
#
# _framework density 22.080071
#
# number of rings (size 3 to 8) (size 9 to 14) (size 15 to 20)
#    0.000    0.500    5.000    5.250    5.250    0.000 
#    0.000    1.250    0.000    0.000    0.000    0.000 
#    0.000    0.000    0.000    0.000    0.000    0.000 
#
# Total GULP energy -89410.987428 kJ/mol
# GULP energy per Si atom -5588.186714 kJ/mol
# Density = 2.202982 g / cm^3
# Si number density = 22.080071 Si / 1000 Ang^3
#
#
#
# Elastic Constant Matrix: (Units=GPa)
#
#
# Indices 1 2 3 4 5 6 
#
# 1 79.7721 15.6011 33.2592 0.0001 -10.7789 0.0000
# 2 15.6011 47.7308 20.0560 -0.0001 -16.2841 0.0000
# 3 33.2592 20.0560 102.7747 -0.0001 -3.3345 0.0000
# 4 0.0001 -0.0001 -0.0001 36.4792 0.0000 -5.3380
# 5 -10.7789 -16.2841 -3.3345 0.0000 32.3471 0.0000
# 6 0.0000 0.0000 0.0000 -5.3380 0.0000 29.3673
#
#
#
# Elastic Compliance Matrix: (Units=1/GPa)
#
#
# Indices 1 2 3 4 5 6 
#
# 1 0.015254 -0.001855 -0.004455 0.000000 0.003690 0.000000
# 2 -0.001855 0.027823 -0.004409 0.000000 0.012934 0.000000
# 3 -0.004455 -0.004409 0.011952 0.000000 -0.002472 0.000000
# 4 0.000000 0.000000 0.000000 0.028162 0.000000 0.005119
# 5 0.003690 0.012934 -0.002472 0.000000 0.038400 0.000000
# 6 0.000000 0.000000 0.000000 0.005119 0.000000 0.034982
#
#
# Mechanical properties :
#
#
# Convention : Reuss Voigt Hill
#
# Bulk Modulus (GPa) = 29.77078 40.90115 35.33597
# Shear Modulus (GPa) = 26.42584 30.39614 28.41099
#
# Velocity S-wave (km/s) = 3.46326 3.71432 3.59099
# Velocity P-wave (km/s) = 5.43181 6.07941 5.76471
#
# Compressibility (1/GPa) = 0.03358998
#
# Stress axis : x y z
#
# Youngs Moduli (GPa) = 65.55462 35.94211 83.66860
#
# Poissons Ratio (x) = 0.06668 0.37272
# Poissons Ratio (y) = 0.12162 0.36893
# Poissons Ratio (z) = 0.29203 0.15848
#
# Static dielectric constant tensor:
#      x y z
#    x 1.911020 0.000000 -0.037100 
#    y 0.000000 1.814750 0.000000 
#    z -0.037100 0.000000 1.851520 
# 
# From -- ./inp_files/12709.got.cif
#   From: 2010.05.17/outbox.cif.g08.bks.cpg/sg9_7_cif.got.tgz:12709.got - 2010.06.03 20:04:27.
