data_PCOD9139290
_publ_section_title
;
Structure prediction by ZEFSAII (Michael W. Deem and Ramdas Pophale) SiO2 
 PCOD9139290
Probable space group: C C
;
_chemical_formula_sum "Si O2"
_cell_formula_units_Z 28
_cell_length_a 18.677257
_cell_length_b 9.406815
_cell_length_c 9.176194
_cell_angle_alpha 90.000000
_cell_angle_beta 129.355486
_cell_angle_gamma 90.000000
_cell_volume 1246.593904
_symmetry_space_group_name_H-M "C C"
_symmetry_group_IT_number 9
_symmetry_cell_setting 'monoclinic'
loop_
_space_group_symop_operation_xyz
x,y,z
x,-y,1/2+z
1/2+x,1/2+y,z
1/2+x,1/2-y,1/2+z
loop_
_atom_site_type_symbol
_atom_site_label
_atom_site_fract_x
_atom_site_fract_y
_atom_site_fract_z
Si Si1 0.369370 0.772862 0.831570
Si Si2 0.715945 0.817838 0.933609
Si Si3 0.029557 0.823797 0.161515
Si Si4 0.301566 0.257239 0.556456
Si Si5 0.956242 0.427576 0.409196
Si Si6 0.660099 0.909580 0.545931
Si Si7 0.946781 0.999375 0.317050
O O1 0.309108 0.755652 0.607394
O O2 0.423756 0.624578 0.902396
O O3 0.434956 0.909273 0.916022
O O4 0.304162 0.775876 0.889081
O O5 0.635526 0.702201 0.831505
O O6 0.712569 0.885147 0.767832
O O7 0.687575 0.941221 0.009611
O O8 0.984454 0.919503 0.225739
O O9 0.979809 0.670270 0.079954
O O10 0.017097 0.896322 0.988430
O O11 0.364743 0.138655 0.716876
O O12 0.200668 0.286798 0.492945
O O13 0.358665 0.403506 0.662633
O O14 0.050238 0.411455 0.435162
#
# Coordination Sequence:
#
# PCOD9139290 Si02
#       7
#     4   4   4   4   4   4   4
#     4  12  25  44  74 110 148 190 249 309 380 429
#     4  11  25  44  73 106 146 192 245 306 368 448
#     4  10  24  48  70 103 143 190 247 300 368 444
#     4  11  25  46  75 110 141 199 251 303 366 453
#     4  10  27  46  76 109 152 192 248 321 370 444
#     4  11  24  47  75 103 151 201 248 298 384 453
#     4  11  22  45  73  97 143 194 244 295 364 453
#
# _framework density 22.461203000000001
#
# number of rings (size 3 to 8) (size 9 to 14) (size 15 to 20)
#    0.000    1.143    2.857    1.714   10.000    0.000 
#   12.857    0.000    0.000    0.000    0.000    0.000 
#    0.000    0.000    0.000    0.000    0.000    0.000 
#
# Total GULP energy -78299.804745 kJ/mol
# GULP energy per Si atom -5592.843196 kJ/mol
# Density = 2.241008 g / cm^3
# Si number density = 22.461203 Si / 1000 Ang^3
#
#
#
# Elastic Constant Matrix: (Units=GPa)
#
#
# Indices 1 2 3 4 5 6 
#
# 1 114.8466 26.8534 33.2336 0.0000 -7.6838 0.0000
# 2 26.8534 82.3205 25.7405 0.0000 6.0782 0.0000
# 3 33.2336 25.7405 62.1482 0.0000 1.8064 0.0000
# 4 0.0000 0.0000 0.0000 30.6052 0.0000 3.9524
# 5 -7.6838 6.0782 1.8064 0.0000 35.1313 0.0000
# 6 0.0000 0.0000 0.0000 3.9524 0.0000 28.7224
#
#
#
# Elastic Compliance Matrix: (Units=1/GPa)
#
#
# Indices 1 2 3 4 5 6 
#
# 1 0.010868 -0.002209 -0.004984 0.000000 0.003016 0.000000
# 2 -0.002209 0.014564 -0.004770 0.000000 -0.002758 0.000000
# 3 -0.004984 -0.004770 0.020770 0.000000 -0.001333 0.000000
# 4 0.000000 0.000000 0.000000 0.033265 0.000000 -0.004578
# 5 0.003016 -0.002758 -0.001333 0.000000 0.029670 0.000000
# 6 0.000000 0.000000 0.000000 -0.004578 0.000000 0.035446
#
#
# Mechanical properties :
#
#
# Convention : Reuss Voigt Hill
#
# Bulk Modulus (GPa) = 44.89510 47.88558 46.39034
# Shear Modulus (GPa) = 28.41953 30.45763 29.43858
#
# Velocity S-wave (km/s) = 3.56093 3.68640 3.62421
# Velocity P-wave (km/s) = 6.07768 6.28370 6.18155
#
# Compressibility (1/GPa) = 0.02227414
#
# Stress axis : x y z
#
# Youngs Moduli (GPa) = 92.01412 68.66452 48.14554
#
# Poissons Ratio (x) = 0.15170 0.23997
# Poissons Ratio (y) = 0.20329 0.22967
# Poissons Ratio (z) = 0.45861 0.32755
#
# Static dielectric constant tensor:
#      x y z
#    x 1.837070 0.000000 -0.016720 
#    y 0.000000 1.824540 0.000000 
#    z -0.016720 0.000000 1.822180 
# 
# From -- ./inp_files/11424.got.cif
#   From: 2010.05.17/outbox.cif.g08.bks.cpg/sg9_6_cif.got.tgz:11424.got - 2010.06.03 20:04:27.
