data_PCOD9139691
_publ_section_title
;
Structure prediction by ZEFSAII (Michael W. Deem and Ramdas Pophale) SiO2 
 PCOD9139691
Probable space group: C C
;
_chemical_formula_sum "Si O2"
_cell_formula_units_Z 32
_cell_length_a 11.803327
_cell_length_b 18.608937
_cell_length_c 15.256428
_cell_angle_alpha 90.000000
_cell_angle_beta 151.658669
_cell_angle_gamma 90.000000
_cell_volume 1590.813805
_symmetry_space_group_name_H-M "C C"
_symmetry_group_IT_number 9
_symmetry_cell_setting 'monoclinic'
loop_
_space_group_symop_operation_xyz
x,y,z
x,-y,1/2+z
1/2+x,1/2+y,z
1/2+x,1/2-y,1/2+z
loop_
_atom_site_type_symbol
_atom_site_label
_atom_site_fract_x
_atom_site_fract_y
_atom_site_fract_z
Si Si1 0.763520 0.639494 0.176810
Si Si2 0.342766 0.424578 0.495115
Si Si3 0.043857 0.184039 0.695834
Si Si4 0.572755 0.832760 0.609050
Si Si5 0.660773 0.200829 0.578079
Si Si6 0.504725 0.817997 0.166457
Si Si7 0.482373 0.666762 0.247482
Si Si8 0.177890 0.416130 0.842354
O O1 0.637029 0.713002 0.061060
O O2 0.954278 0.664581 0.380053
O O3 0.922303 0.605229 0.209091
O O4 0.570733 0.587489 0.087902
O O5 0.422600 0.401795 0.646813
O O6 0.243529 0.503784 0.414555
O O7 0.143511 0.367406 0.329137
O O8 0.055017 0.263676 0.661556
O O9 0.909830 0.185926 0.698408
O O10 0.879220 0.135853 0.521010
O O11 0.311693 0.156461 0.890416
O O12 0.766108 0.817947 0.665955
O O13 0.658474 0.899453 0.726317
O O14 0.625956 0.175952 0.653612
O O15 0.513961 0.735579 0.205033
O O16 0.229856 0.840313 0.967692
#
# Coordination Sequence:
#
# PCOD9139691 Si02
#       8
#     4   4   4   4   4   4   4   4
#     4  11  21  41  70  98 134 169 227 288 339 395
#     4  12  27  45  66 100 142 179 224 287 349 407
#     4  11  23  42  73  99 135 173 238 286 334 401
#     4  12  24  43  71  99 135 186 226 277 335 418
#     4  11  19  39  73 104 123 165 238 294 326 388
#     4  12  23  41  72 101 130 180 232 286 340 399
#     4  12  25  42  68 102 136 179 234 273 334 417
#     4  11  28  45  65 103 137 183 223 287 351 401
#
# _framework density 20.115489
#
# number of rings (size 3 to 8) (size 9 to 14) (size 15 to 20)
#    0.000    0.500    6.250    2.250    1.750    3.000 
#    4.500    0.000    0.000    0.000    0.000    0.000 
#    0.000    0.000    0.000    0.000    0.000    0.000 
#
# Total GULP energy -89533.293316 kJ/mol
# GULP energy per Si atom -5595.830832 kJ/mol
# Density = 2.006971 g / cm^3
# Si number density = 20.115489 Si / 1000 Ang^3
#
#
#
# Elastic Constant Matrix: (Units=GPa)
#
#
# Indices 1 2 3 4 5 6 
#
# 1 79.2374 -19.4547 15.0155 0.0004 18.3210 -0.0003
# 2 -19.4547 66.3937 -4.4026 -0.0028 1.2449 -0.0032
# 3 15.0155 -4.4026 92.2168 -0.0101 17.9719 -0.0073
# 4 0.0004 -0.0028 -0.0101 21.3570 -0.0048 -0.8129
# 5 18.3210 1.2449 17.9719 -0.0048 28.6635 -0.0019
# 6 -0.0003 -0.0032 -0.0073 -0.8129 -0.0019 12.2852
#
#
#
# Elastic Compliance Matrix: (Units=1/GPa)
#
#
# Indices 1 2 3 4 5 6 
#
# 1 0.016314 0.004949 -0.000394 -0.000002 -0.010395 0.000000
# 2 0.004949 0.016651 0.000850 0.000002 -0.004420 0.000004
# 3 -0.000394 0.000850 0.012425 0.000005 -0.007576 0.000007
# 4 -0.000002 0.000002 0.000005 0.046941 0.000007 0.003106
# 5 -0.010395 -0.004420 -0.007576 0.000007 0.046474 0.000002
# 6 0.000000 0.000004 0.000007 0.003106 0.000002 0.081605
#
#
# Mechanical properties :
#
#
# Convention : Reuss Voigt Hill
#
# Bulk Modulus (GPa) = 17.79347 24.46270 21.12808
# Shear Modulus (GPa) = 21.89790 28.90710 25.40250
#
# Velocity S-wave (km/s) = 3.30299 3.79497 3.55749
# Velocity P-wave (km/s) = 4.83851 5.60267 5.23455
#
# Compressibility (1/GPa) = 0.05620041
#
# Stress axis : x y z
#
# Youngs Moduli (GPa) = 61.29847 60.05615 80.48179
#
# Poissons Ratio (x) = -0.29722 0.03172
# Poissons Ratio (y) = -0.30337 -0.06845
# Poissons Ratio (z) = 0.02416 -0.05108
#
# Static dielectric constant tensor:
#      x y z
#    x 1.712760 0.000000 -0.007420 
#    y 0.000000 1.679790 0.000000 
#    z -0.007420 0.000000 1.721810 
# 
# From -- ./inp_files/17032.got.cif
#   From: 2010.05.17/outbox.cif.g08.bks.cpg/sg9_9_cif.got.tgz:17032.got - 2010.06.03 20:04:27.
