data_PCOD9139682
_publ_section_title
;
Structure prediction by ZEFSAII (Michael W. Deem and Ramdas Pophale) SiO2 
 PCOD9139682
Probable space group: C C
;
_chemical_formula_sum "Si O2"
_cell_formula_units_Z 28
_cell_length_a 8.610117
_cell_length_b 11.236203
_cell_length_c 23.519940
_cell_angle_alpha 90.000000
_cell_angle_beta 145.020433
_cell_angle_gamma 90.000000
_cell_volume 1304.472313
_symmetry_space_group_name_H-M "C C"
_symmetry_group_IT_number 9
_symmetry_cell_setting 'monoclinic'
loop_
_space_group_symop_operation_xyz
x,y,z
x,-y,1/2+z
1/2+x,1/2+y,z
1/2+x,1/2-y,1/2+z
loop_
_atom_site_type_symbol
_atom_site_label
_atom_site_fract_x
_atom_site_fract_y
_atom_site_fract_z
Si Si1 0.183910 0.784459 0.588000
Si Si2 0.046085 0.117513 0.625319
Si Si3 0.635540 0.318632 0.932582
Si Si4 0.453478 0.662427 0.253412
Si Si5 0.910111 0.550603 0.062427
Si Si6 0.981592 0.251203 0.497770
Si Si7 0.103885 0.151954 0.182028
O O1 0.307809 0.671845 0.592546
O O2 0.293025 0.896742 0.585774
O O3 0.859567 0.781539 0.486794
O O4 0.258076 0.784218 0.676734
O O5 0.296088 0.210230 0.708262
O O6 0.966267 0.138370 0.535417
O O7 0.102239 0.984868 0.661561
O O8 0.537080 0.362834 0.842392
O O9 0.796733 0.423851 0.012673
O O10 0.415676 0.274830 0.912635
O O11 0.677841 0.664848 0.270707
O O12 0.232517 0.564184 0.167575
O O13 0.839080 0.642747 0.989853
O O14 0.297847 0.293807 0.589534
#
# Coordination Sequence:
#
# PCOD9139682 Si02
#       7
#     4   4   4   4   4   4   4
#     4   9  18  32  55  76  94 135 179 206 259 313
#     4   9  17  35  53  71 103 134 168 218 258 303
#     4  11  19  35  55  76 109 139 174 222 254 306
#     4   9  21  34  51  81 107 138 179 211 262 314
#     4   9  19  37  53  75 107 138 174 216 264 312
#     4   8  18  31  51  76  98 134 174 209 263 309
#     4   9  16  32  52  71  98 134 168 208 260 305
#
# _framework density 21.464617000000001
#
# number of rings (size 3 to 8) (size 9 to 14) (size 15 to 20)
#    0.000    3.429    0.000    2.571    0.000    1.143 
#    0.000   15.714    0.000    0.000    0.000    0.000 
#    0.000    0.000    0.000    0.000    0.000    0.000 
#
# Total GULP energy -77972.355759 kJ/mol
# GULP energy per Si atom -5569.453983 kJ/mol
# Density = 2.141576 g / cm^3
# Si number density = 21.464617 Si / 1000 Ang^3
#
#
#
# Elastic Constant Matrix: (Units=GPa)
#
#
# Indices 1 2 3 4 5 6 
#
# 1 123.8496 15.7045 31.5852 0.0000 -48.4631 0.0000
# 2 15.7045 47.8486 9.8037 0.0000 -10.8953 0.0000
# 3 31.5852 9.8037 61.7758 0.0000 -26.2897 0.0000
# 4 0.0000 0.0000 0.0000 9.7132 0.0000 -4.6988
# 5 -48.4631 -10.8953 -26.2897 0.0000 33.8431 0.0000
# 6 0.0000 0.0000 0.0000 -4.6988 0.0000 24.9035
#
#
#
# Elastic Compliance Matrix: (Units=1/GPa)
#
#
# Indices 1 2 3 4 5 6 
#
# 1 0.018671 -0.000126 0.002741 0.000000 0.028825 0.000000
# 2 -0.000126 0.022575 -0.000750 0.000000 0.006505 0.000000
# 3 0.002741 -0.000750 0.024608 0.000000 0.022799 0.000000
# 4 0.000000 0.000000 0.000000 0.113293 0.000000 0.021376
# 5 0.028825 0.006505 0.022799 0.000000 0.090630 0.000000
# 6 0.000000 0.000000 0.000000 0.021376 0.000000 0.044188
#
#
# Mechanical properties :
#
#
# Convention : Reuss Voigt Hill
#
# Bulk Modulus (GPa) = 14.37128 38.62898 26.50013
# Shear Modulus (GPa) = 14.99567 25.45066 20.22316
#
# Velocity S-wave (km/s) = 2.64601 3.44714 3.07280
# Velocity P-wave (km/s) = 4.00563 5.82060 4.99622
#
# Compressibility (1/GPa) = 0.06958323
#
# Stress axis : x y z
#
# Youngs Moduli (GPa) = 53.56017 44.29590 40.63768
#
# Poissons Ratio (x) = 0.00558 -0.11138
# Poissons Ratio (y) = 0.00675 0.03048
# Poissons Ratio (z) = -0.14680 0.03322
#
# Static dielectric constant tensor:
#      x y z
#    x 1.849610 0.000000 -0.032980 
#    y 0.000000 1.768490 0.000000 
#    z -0.032980 0.000000 1.864290 
# 
# From -- ./inp_files/22559.got.cif
#   From: 2010.05.17/outbox.cif.g08.bks.cpg/sg9_12_cif.got.tgz:22559.got - 2010.06.03 20:04:27.
