data_PCOD9139892
_publ_section_title
;
Structure prediction by ZEFSAII (Michael W. Deem and Ramdas Pophale) SiO2 
 PCOD9139892
Probable space group: C C
;
_chemical_formula_sum "Si O2"
_cell_formula_units_Z 32
_cell_length_a 11.996046
_cell_length_b 11.286203
_cell_length_c 9.444761
_cell_angle_alpha 90.000000
_cell_angle_beta 98.663146
_cell_angle_gamma 90.000000
_cell_volume 1264.135404
_symmetry_space_group_name_H-M "C C"
_symmetry_group_IT_number 9
_symmetry_cell_setting 'monoclinic'
loop_
_space_group_symop_operation_xyz
x,y,z
x,-y,1/2+z
1/2+x,1/2+y,z
1/2+x,1/2-y,1/2+z
loop_
_atom_site_type_symbol
_atom_site_label
_atom_site_fract_x
_atom_site_fract_y
_atom_site_fract_z
Si Si1 0.819000 0.570125 0.237280
Si Si2 0.756825 0.394659 0.434311
Si Si3 0.070763 0.178469 0.220230
Si Si4 0.533547 0.433325 0.284683
Si Si5 0.906285 0.237114 0.963990
Si Si6 0.727670 0.906858 0.611901
Si Si7 0.038382 0.237218 0.535762
Si Si8 0.284829 0.635891 0.443160
O O1 0.813751 0.439065 0.300478
O O2 0.696347 0.635569 0.209201
O O3 0.886946 0.651386 0.358308
O O4 0.841211 0.569923 0.075576
O O5 0.638230 0.464695 0.409248
O O6 0.718571 0.259607 0.433420
O O7 0.070416 0.227752 0.377408
O O8 0.998361 0.056421 0.209513
O O9 0.007461 0.257669 0.094057
O O10 0.443170 0.366731 0.362036
O O11 0.580598 0.351907 0.167063
O O12 0.799193 0.190547 0.033713
O O13 0.597984 0.860827 0.589659
O O14 0.771132 0.909148 0.781086
O O15 0.746277 0.033875 0.541793
O O16 0.908323 0.189980 0.505195
#
# Coordination Sequence:
#
# PCOD9139892 Si02
#       8
#     4   4   4   4   4   4   4   4
#     4  11  26  43  74 107 151 197 261 331 400 491
#     4  11  26  48  73 109 156 204 264 334 408 488
#     4  11  22  39  70 111 146 197 262 320 400 482
#     4  11  23  41  73 108 151 204 263 330 409 492
#     4  12  24  44  72 111 150 200 265 333 401 487
#     4  12  28  48  78 119 160 215 280 338 409 506
#     4  12  25  46  75 112 154 207 273 337 412 488
#     4  12  28  51  77 113 168 214 270 343 415 482
#
# _framework density 25.313744
#
# number of rings (size 3 to 8) (size 9 to 14) (size 15 to 20)
#    0.000    0.500    5.000    3.000   10.500    0.000 
#    2.250    0.000    0.000    0.000    0.000    0.000 
#    0.000    0.000    0.000    0.000    0.000    0.000 
#
# Total GULP energy -89434.348057 kJ/mol
# GULP energy per Si atom -5589.646754 kJ/mol
# Density = 2.525613 g / cm^3
# Si number density = 25.313744 Si / 1000 Ang^3
#
#
#
# Elastic Constant Matrix: (Units=GPa)
#
#
# Indices 1 2 3 4 5 6 
#
# 1 74.3519 21.7020 38.3500 0.0000 23.1620 0.0000
# 2 21.7020 107.6885 70.2106 0.0000 8.6220 0.0000
# 3 38.3500 70.2106 196.7650 0.0000 7.4956 0.0000
# 4 0.0000 0.0000 0.0000 47.1371 0.0000 0.9556
# 5 23.1620 8.6220 7.4956 0.0000 27.9745 0.0000
# 6 0.0000 0.0000 0.0000 0.9556 0.0000 29.9734
#
#
#
# Elastic Compliance Matrix: (Units=1/GPa)
#
#
# Indices 1 2 3 4 5 6 
#
# 1 0.020108 -0.000830 -0.003030 0.000000 -0.015582 0.000000
# 2 -0.000830 0.012326 -0.004160 0.000000 -0.001997 0.000000
# 3 -0.003030 -0.004160 0.007085 0.000000 0.001892 0.000000
# 4 0.000000 0.000000 0.000000 0.021228 0.000000 -0.000677
# 5 -0.015582 -0.001997 0.001892 0.000000 0.048757 0.000000
# 6 0.000000 0.000000 0.000000 -0.000677 0.000000 0.033385
#
#
# Mechanical properties :
#
#
# Convention : Reuss Voigt Hill
#
# Bulk Modulus (GPa) = 42.58938 71.03671 56.81305
# Shear Modulus (GPa) = 29.98428 37.58651 33.78540
#
# Velocity S-wave (km/s) = 3.44540 3.85752 3.65727
# Velocity P-wave (km/s) = 5.71741 6.92561 6.35031
#
# Compressibility (1/GPa) = 0.02348003
#
# Stress axis : x y z
#
# Youngs Moduli (GPa) = 49.73071 81.13225 141.14157
#
# Poissons Ratio (x) = 0.06731 0.42760
# Poissons Ratio (y) = 0.04126 0.58719
# Poissons Ratio (z) = 0.15066 0.33753
#
# Static dielectric constant tensor:
#      x y z
#    x 2.094860 0.000000 0.034940 
#    y 0.000000 1.991230 0.000000 
#    z 0.034940 0.000000 2.073550 
# 
# From -- ./inp_files/9289.got.cif
#   From: 2010.05.17/outbox.cif.g08.bks.cpg/sg9_5_cif.got.tgz:9289.got - 2010.06.03 20:04:27.
