data_PCOD9139140
_publ_section_title
;
Structure prediction by ZEFSAII (Michael W. Deem and Ramdas Pophale) SiO2 
 PCOD9139140
Probable space group: C C
;
_chemical_formula_sum "Si O2"
_cell_formula_units_Z 28
_cell_length_a 5.230835
_cell_length_b 26.611362
_cell_length_c 7.990752
_cell_angle_alpha 90.000000
_cell_angle_beta 84.577922
_cell_angle_gamma 90.000000
_cell_volume 1107.332943
_symmetry_space_group_name_H-M "C C"
_symmetry_group_IT_number 9
_symmetry_cell_setting 'monoclinic'
loop_
_space_group_symop_operation_xyz
x,y,z
x,-y,1/2+z
1/2+x,1/2+y,z
1/2+x,1/2-y,1/2+z
loop_
_atom_site_type_symbol
_atom_site_label
_atom_site_fract_x
_atom_site_fract_y
_atom_site_fract_z
Si Si1 0.226070 0.312005 0.840860
Si Si2 0.899828 0.552222 0.152250
Si Si3 0.187509 0.840869 0.021428
Si Si4 0.532312 0.632875 0.072986
Si Si5 0.206495 0.602102 0.822148
Si Si6 0.468304 0.944374 0.028617
Si Si7 0.853037 0.302030 0.344558
O O1 0.411074 0.341924 0.955118
O O2 0.281845 0.340858 0.664757
O O3 0.362895 0.257744 0.844914
O O4 0.927352 0.315000 0.906205
O O5 0.659535 0.590241 0.178073
O O6 0.035798 0.551265 0.326395
O O7 0.053558 0.574453 0.983351
O O8 0.839984 0.495637 0.100847
O O9 0.282124 0.896911 0.047748
O O10 0.175261 0.810675 0.193868
O O11 0.721546 0.678798 0.022334
O O12 0.478244 0.608169 0.896271
O O13 0.180621 0.569767 0.655856
O O14 0.085700 0.658282 0.804878
#
# Coordination Sequence:
#
# PCOD9139140 Si02
#       7
#     4   4   4   4   4   4   4
#     4  12  26  46  76 107 151 196 250 305 375 444
#     4  11  22  47  70 104 147 191 245 313 376 450
#     4  11  27  47  70 110 149 191 250 311 368 449
#     4  11  25  47  72 107 148 191 254 307 372 449
#     4  10  24  45  68 106 144 190 247 309 365 453
#     4  11  22  47  71 101 148 188 247 304 382 438
#     4  10  26  43  73 103 149 195 245 305 370 445
#
# _framework density 25.285983999999999
#
# number of rings (size 3 to 8) (size 9 to 14) (size 15 to 20)
#    0.000    1.143    2.857    1.714   10.000    0.000 
#    5.143    0.000    0.000    0.000    0.000    0.000 
#    0.000    0.000    0.000    0.000    0.000    0.000 
#
# Total GULP energy -78234.169330 kJ/mol
# GULP energy per Si atom -5588.154952 kJ/mol
# Density = 2.522843 g / cm^3
# Si number density = 25.285984 Si / 1000 Ang^3
#
#
#
# Elastic Constant Matrix: (Units=GPa)
#
#
# Indices 1 2 3 4 5 6 
#
# 1 58.1935 -8.0058 41.5966 0.0000 -0.5391 0.0000
# 2 -8.0058 153.2892 38.5888 0.0000 -4.7703 0.0000
# 3 41.5966 38.5888 149.2298 0.0000 22.7221 0.0000
# 4 0.0000 0.0000 0.0000 31.6167 0.0000 6.4633
# 5 -0.5391 -4.7703 22.7221 0.0000 42.7135 0.0000
# 6 0.0000 0.0000 0.0000 6.4633 0.0000 10.3276
#
#
#
# Elastic Compliance Matrix: (Units=1/GPa)
#
#
# Indices 1 2 3 4 5 6 
#
# 1 0.023604 0.003467 -0.008248 0.000000 0.005073 0.000000
# 2 0.003467 0.007631 -0.003347 0.000000 0.002676 0.000000
# 3 -0.008248 -0.003347 0.010814 0.000000 -0.006231 0.000000
# 4 0.000000 0.000000 0.000000 0.036269 0.000000 -0.022698
# 5 0.005073 0.002676 -0.006231 0.000000 0.027089 0.000000
# 6 0.000000 0.000000 0.000000 -0.022698 0.000000 0.111033
#
#
# Mechanical properties :
#
#
# Convention : Reuss Voigt Hill
#
# Bulk Modulus (GPa) = 38.77146 56.11909 47.44528
# Shear Modulus (GPa) = 20.72160 36.16709 28.44434
#
# Velocity S-wave (km/s) = 2.86578 3.78606 3.35760
# Velocity P-wave (km/s) = 5.12998 6.43073 5.81683
#
# Compressibility (1/GPa) = 0.02579216
#
# Stress axis : x y z
#
# Youngs Moduli (GPa) = 42.36577 131.05168 92.46855
#
# Poissons Ratio (x) = -0.45436 0.76272
# Poissons Ratio (y) = -0.14688 0.30950
# Poissons Ratio (z) = 0.34945 0.43864
#
# Static dielectric constant tensor:
#      x y z
#    x 2.030040 0.000000 -0.011840 
#    y 0.000000 1.961140 0.000000 
#    z -0.011840 0.000000 2.091570 
# 
# From -- ./inp_files/4080.got.cif
#   From: 2010.05.17/outbox.cif.g08.bks.cpg/sg9_3_cif.got.tgz:4080.got - 2010.06.03 20:04:27.
