data_PCOD9139778
_publ_section_title
;
Structure prediction by ZEFSAII (Michael W. Deem and Ramdas Pophale) SiO2 
 PCOD9139778
Probable space group: C C
;
_chemical_formula_sum "Si O2"
_cell_formula_units_Z 28
_cell_length_a 21.397673
_cell_length_b 11.406281
_cell_length_c 20.375033
_cell_angle_alpha 90.000000
_cell_angle_beta 13.831624
_cell_angle_gamma 90.000000
_cell_volume 1188.866209
_symmetry_space_group_name_H-M "C C"
_symmetry_group_IT_number 9
_symmetry_cell_setting 'monoclinic'
loop_
_space_group_symop_operation_xyz
x,y,z
x,-y,1/2+z
1/2+x,1/2+y,z
1/2+x,1/2-y,1/2+z
loop_
_atom_site_type_symbol
_atom_site_label
_atom_site_fract_x
_atom_site_fract_y
_atom_site_fract_z
Si Si1 0.742190 0.294555 0.856600
Si Si2 0.444700 0.185420 0.853724
Si Si3 0.728169 0.129245 0.995801
Si Si4 0.224886 0.076503 0.580876
Si Si5 0.639747 0.564110 0.940394
Si Si6 0.034669 0.825899 0.412739
Si Si7 0.114137 0.386602 0.041299
O O1 0.778316 0.231011 0.891073
O O2 0.032150 0.283668 0.532722
O O3 0.646737 0.427164 0.952353
O O4 0.725700 0.219579 0.596344
O O5 0.509406 0.186195 0.709733
O O6 0.327565 0.056622 0.984811
O O7 0.485620 0.149888 0.293452
O O8 0.620309 0.019393 0.064017
O O9 0.989909 0.087410 0.767104
O O10 0.109210 0.120945 0.766766
O O11 0.406134 0.627286 0.217433
O O12 0.589074 0.583993 0.915940
O O13 0.912042 0.615539 0.687844
O O14 0.738251 0.780808 0.716087
#
# Coordination Sequence:
#
# PCOD9139778 Si02
#       7
#     4   4   4   4   4   4   4
#     4  12  22  37  64 104 141 170 218 291 379 417
#     4  11  23  41  67 102 140 176 227 291 360 432
#     4  11  21  39  68 105 146 174 220 305 376 424
#     4  11  25  45  68 103 140 187 242 296 351 427
#     4  12  24  44  66  99 146 180 236 293 340 437
#     4  12  29  51  70  97 137 200 255 284 348 439
#     4  11  22  39  65 102 138 183 222 282 364 424
#
# _framework density 23.551852
#
# number of rings (size 3 to 8) (size 9 to 14) (size 15 to 20)
#    0.000    0.571    2.857    6.857    0.000    6.857 
#    0.000    1.429    0.000    0.000    0.000    0.000 
#    0.000    0.000    0.000    0.000    0.000    0.000 
#
# Total GULP energy -78345.599602 kJ/mol
# GULP energy per Si atom -5596.114257 kJ/mol
# Density = 2.349825 g / cm^3
# Si number density = 23.551852 Si / 1000 Ang^3
#
#
#
# Elastic Constant Matrix: (Units=GPa)
#
#
# Indices 1 2 3 4 5 6 
#
# 1 79.4815 22.3774 4.7917 0.0246 1.1017 -0.0002
# 2 22.3774 108.1458 14.2886 0.0154 3.3834 0.0013
# 3 4.7917 14.2886 125.8595 0.0220 -14.6307 0.0116
# 4 0.0246 0.0154 0.0220 32.2388 -0.0032 -0.0280
# 5 1.1017 3.3834 -14.6307 -0.0032 28.0107 0.0100
# 6 -0.0002 0.0013 0.0116 -0.0280 0.0100 28.4769
#
#
#
# Elastic Compliance Matrix: (Units=1/GPa)
#
#
# Indices 1 2 3 4 5 6 
#
# 1 0.013367 -0.002725 -0.000237 -0.000009 -0.000320 0.000000
# 2 -0.002725 0.010029 -0.001238 -0.000002 -0.001751 0.000001
# 3 -0.000237 -0.001238 0.008638 -0.000005 0.004671 -0.000005
# 4 -0.000009 -0.000002 -0.000005 0.031019 0.000002 0.000031
# 5 -0.000320 -0.001751 0.004671 0.000002 0.038364 -0.000015
# 6 0.000000 0.000001 -0.000005 0.000031 -0.000015 0.035116
#
#
# Mechanical properties :
#
#
# Convention : Reuss Voigt Hill
#
# Bulk Modulus (GPa) = 42.31101 44.04469 43.17785
# Shear Modulus (GPa) = 32.72007 35.88054 34.30030
#
# Velocity S-wave (km/s) = 3.73135 3.90740 3.82039
# Velocity P-wave (km/s) = 6.04714 6.25290 6.15088
#
# Compressibility (1/GPa) = 0.02363451
#
# Stress axis : x y z
#
# Youngs Moduli (GPa) = 74.80908 99.71128 115.76845
#
# Poissons Ratio (x) = 0.27168 0.02742
# Poissons Ratio (y) = 0.20383 0.14337
# Poissons Ratio (z) = 0.01772 0.12348
#
# Static dielectric constant tensor:
#      x y z
#    x 1.846200 -0.000010 0.012210 
#    y -0.000010 1.952710 0.000050 
#    z 0.012210 0.000050 2.001210 
# 
# From -- ./inp_files/36085.got.cif
#   From: 2010.05.17/outbox.cif.g08.bks.cpg/sg9_19_cif.got.tgz:36085.got - 2010.06.03 20:04:27.
