data_PCOD9139824
_publ_section_title
;
Structure prediction by ZEFSAII (Michael W. Deem and Ramdas Pophale) SiO2 
 PCOD9139824
Probable space group: C C
;
_chemical_formula_sum "Si O2"
_cell_formula_units_Z 20
_cell_length_a 6.917597
_cell_length_b 18.173327
_cell_length_c 7.414615
_cell_angle_alpha 90.000000
_cell_angle_beta 52.477700
_cell_angle_gamma 90.000000
_cell_volume 739.290634
_symmetry_space_group_name_H-M "C C"
_symmetry_group_IT_number 9
_symmetry_cell_setting 'monoclinic'
loop_
_space_group_symop_operation_xyz
x,y,z
x,-y,1/2+z
1/2+x,1/2+y,z
1/2+x,1/2-y,1/2+z
loop_
_atom_site_type_symbol
_atom_site_label
_atom_site_fract_x
_atom_site_fract_y
_atom_site_fract_z
Si Si1 0.723360 0.636586 0.201250
Si Si2 0.525052 0.076345 0.761040
Si Si3 0.555875 0.916943 0.820801
Si Si4 0.739057 0.759489 0.722028
Si Si5 0.879343 0.806379 0.143897
O O1 0.834512 0.591372 0.305254
O O2 0.807799 0.722052 0.157903
O O3 0.449598 0.653458 0.417125
O O4 0.760881 0.588429 0.003488
O O5 0.491654 0.085166 0.568304
O O6 0.657764 0.139031 0.809718
O O7 0.650566 0.998893 0.729656
O O8 0.712621 0.845038 0.688683
O O9 0.601830 0.705120 0.657002
O O10 0.033752 0.746603 0.508366
#
# Coordination Sequence:
#
# PCOD9139824 Si02
#       5
#     4   4   4   4   4
#     4  11  22  48  70 100 140 189 243 313 368 448
#     4  12  25  46  68 103 150 190 249 306 382 443
#     4  11  25  46  71 104 146 193 245 310 379 443
#     4  11  23  47  80 107 147 201 250 306 378 444
#     4  11  21  43  75  98 141 193 243 309 367 444
#
# _framework density 27.052959000000001
#
# number of rings (size 3 to 8) (size 9 to 14) (size 15 to 20)
#    0.000    0.800    8.000    1.200    0.000    1.600 
#   10.800    0.000    0.000    0.000    0.000    0.000 
#    0.000    0.000    0.000    0.000    0.000    0.000 
#
# Total GULP energy -55688.626594 kJ/mol
# GULP energy per Si atom -5568.862659 kJ/mol
# Density = 2.699139 g / cm^3
# Si number density = 27.052959 Si / 1000 Ang^3
#
#
#
# Elastic Constant Matrix: (Units=GPa)
#
#
# Indices 1 2 3 4 5 6 
#
# 1 123.4473 27.5155 51.0423 0.0000 25.0337 0.0000
# 2 27.5155 180.3589 22.9171 0.0000 9.9110 0.0000
# 3 51.0423 22.9171 131.4496 0.0000 36.1161 0.0000
# 4 0.0000 0.0000 0.0000 69.6264 0.0000 204.8476
# 5 25.0337 9.9110 36.1161 0.0000 42.8733 0.0000
# 6 0.0000 0.0000 0.0000 204.8476 0.0000 1611.8375
#
#
#
# Elastic Compliance Matrix: (Units=1/GPa)
#
#
# Indices 1 2 3 4 5 6 
#
# 1 0.010181 -0.001007 -0.002873 0.000000 -0.003291 0.000000
# 2 -0.001007 0.005783 -0.000535 0.000000 -0.000298 0.000000
# 3 -0.002873 -0.000535 0.010828 0.000000 -0.007320 0.000000
# 4 0.000000 0.000000 0.000000 0.022940 0.000000 -0.002915
# 5 -0.003291 -0.000298 -0.007320 0.000000 0.031481 0.000000
# 6 0.000000 0.000000 0.000000 -0.002915 0.000000 0.000991
#
#
# Mechanical properties :
#
#
# Convention : Reuss Voigt Hill
#
# Bulk Modulus (GPa) = 55.68167 70.91173 63.29670
# Shear Modulus (GPa) = 51.53563 367.11949 209.32756
#
# Velocity S-wave (km/s) = 4.36935 11.66184 8.80596
# Velocity P-wave (km/s) = 6.78838 14.40835 11.26239
#
# Compressibility (1/GPa) = 0.01795923
#
# Stress axis : x y z
#
# Youngs Moduli (GPa) = 98.22647 172.93468 92.35678
#
# Poissons Ratio (x) = 0.17418 0.26537
# Poissons Ratio (y) = 0.09893 0.04943
# Poissons Ratio (z) = 0.28223 0.09256
#
# Static dielectric constant tensor:
#      x y z
#    x 2.143750 0.000000 -0.076210 
#    y 0.000000 -2.655310 0.000000 
#    z -0.076210 0.000000 2.429710 
# 
# From -- ./inp_files/5056.got.cif
#   From: 2010.05.17/outbox.cif.g08.bks.cpg/sg9_3_cif.got.tgz:5056.got - 2010.06.03 20:04:27.
