data_PCOD9139331
_publ_section_title
;
Structure prediction by ZEFSAII (Michael W. Deem and Ramdas Pophale) SiO2 
 PCOD9139331
Probable space group: C C
;
_chemical_formula_sum "Si O2"
_cell_formula_units_Z 32
_cell_length_a 12.495089
_cell_length_b 6.827320
_cell_length_c 15.786866
_cell_angle_alpha 90.000000
_cell_angle_beta 74.227822
_cell_angle_gamma 90.000000
_cell_volume 1296.040668
_symmetry_space_group_name_H-M "C C"
_symmetry_group_IT_number 9
_symmetry_cell_setting 'monoclinic'
loop_
_space_group_symop_operation_xyz
x,y,z
x,-y,1/2+z
1/2+x,1/2+y,z
1/2+x,1/2-y,1/2+z
loop_
_atom_site_type_symbol
_atom_site_label
_atom_site_fract_x
_atom_site_fract_y
_atom_site_fract_z
Si Si1 0.886930 0.645672 0.252630
Si Si2 0.813596 0.913090 0.753318
Si Si3 0.007513 0.340325 0.564131
Si Si4 0.131163 0.019313 0.328143
Si Si5 0.800730 0.295273 0.527204
Si Si6 0.457240 0.849507 0.341094
Si Si7 0.689402 0.339480 0.144131
Si Si8 0.133617 0.347930 0.938551
O O1 0.945705 0.561773 0.156607
O O2 0.762869 0.568357 0.300071
O O3 0.970692 0.572278 0.307772
O O4 0.866978 0.873384 0.240463
O O5 0.905206 0.767701 0.772298
O O6 0.762527 0.827072 0.676922
O O7 0.716172 0.921476 0.846311
O O8 0.908488 0.202217 0.549454
O O9 0.039487 0.497669 0.485204
O O10 0.113603 0.237984 0.583428
O O11 0.117388 0.925140 0.237868
O O12 0.058949 0.215456 0.347980
O O13 0.101448 0.866721 0.409330
O O14 0.856807 0.360161 0.428131
O O15 0.756818 0.477052 0.591111
O O16 0.699190 0.169410 0.514340
#
# Coordination Sequence:
#
# PCOD9139331 Si02
#       8
#     4   4   4   4   4   4   4   4
#     4  12  25  47  77 109 147 199 260 309 378 476
#     4  10  24  50  74 107 154 202 256 310 389 460
#     4  12  28  43  74 113 143 203 252 309 395 438
#     4  11  24  52  75 108 156 200 255 319 389 460
#     4  11  25  48  68 113 149 191 258 311 376 452
#     4  11  25  46  80 107 147 209 245 314 391 448
#     4  11  25  48  76 108 159 201 250 327 381 460
#     4  10  26  50  74 109 159 201 248 329 385 458
#
# _framework density 24.690584999999999
#
# number of rings (size 3 to 8) (size 9 to 14) (size 15 to 20)
#    0.000    1.000    5.000    0.750   10.500    2.000 
#    4.500    0.000    0.000    0.000    0.000    0.000 
#    0.000    0.000    0.000    0.000    0.000    0.000 
#
# Total GULP energy -89338.511944 kJ/mol
# GULP energy per Si atom -5583.656997 kJ/mol
# Density = 2.463439 g / cm^3
# Si number density = 24.690585 Si / 1000 Ang^3
#
#
#
# Elastic Constant Matrix: (Units=GPa)
#
#
# Indices 1 2 3 4 5 6 
#
# 1 113.7006 54.7940 8.6496 0.0000 10.1587 0.0000
# 2 54.7940 110.8484 36.8429 0.0000 -7.8867 0.0000
# 3 8.6496 36.8429 75.8525 0.0000 -4.9306 0.0000
# 4 0.0000 0.0000 0.0000 44.8972 0.0000 2.5468
# 5 10.1587 -7.8867 -4.9306 0.0000 45.3055 0.0000
# 6 0.0000 0.0000 0.0000 2.5468 0.0000 50.7261
#
#
#
# Elastic Compliance Matrix: (Units=1/GPa)
#
#
# Indices 1 2 3 4 5 6 
#
# 1 0.012350 -0.006946 0.001719 0.000000 -0.003791 0.000000
# 2 -0.006946 0.014743 -0.006144 0.000000 0.003455 0.000000
# 3 0.001719 -0.006144 0.015990 0.000000 0.000285 0.000000
# 4 0.000000 0.000000 0.000000 0.022337 0.000000 -0.001121
# 5 -0.003791 0.003455 0.000285 0.000000 0.023555 0.000000
# 6 0.000000 0.000000 0.000000 -0.001121 0.000000 0.019770
#
#
# Mechanical properties :
#
#
# Convention : Reuss Voigt Hill
#
# Bulk Modulus (GPa) = 49.16144 55.66382 52.41263
# Shear Modulus (GPa) = 36.16157 41.52676 38.84416
#
# Velocity S-wave (km/s) = 3.83115 4.10553 3.97071
# Velocity P-wave (km/s) = 6.28685 6.71322 6.50353
#
# Compressibility (1/GPa) = 0.02034114
#
# Stress axis : x y z
#
# Youngs Moduli (GPa) = 80.96882 67.82930 62.53775
#
# Poissons Ratio (x) = 0.47115 -0.10751
# Poissons Ratio (y) = 0.56242 0.38424
# Poissons Ratio (z) = -0.13919 0.41676
#
# Static dielectric constant tensor:
#      x y z
#    x 2.034010 0.000000 0.104350 
#    y 0.000000 1.982690 0.000000 
#    z 0.104350 0.000000 1.994170 
# 
# From -- ./inp_files/29840.got.cif
#   From: 2010.05.17/outbox.cif.g08.bks.cpg/sg9_15_cif.got.tgz:29840.got - 2010.06.03 20:04:27.
