data_PCOD9139228
_publ_section_title
;
Structure prediction by ZEFSAII (Michael W. Deem and Ramdas Pophale) SiO2 
 PCOD9139228
Probable space group: C C
;
_chemical_formula_sum "Si O2"
_cell_formula_units_Z 32
_cell_length_a 15.620744
_cell_length_b 8.757661
_cell_length_c 21.792735
_cell_angle_alpha 90.000000
_cell_angle_beta 154.985180
_cell_angle_gamma 90.000000
_cell_volume 1260.638776
_symmetry_space_group_name_H-M "C C"
_symmetry_group_IT_number 9
_symmetry_cell_setting 'monoclinic'
loop_
_space_group_symop_operation_xyz
x,y,z
x,-y,1/2+z
1/2+x,1/2+y,z
1/2+x,1/2-y,1/2+z
loop_
_atom_site_type_symbol
_atom_site_label
_atom_site_fract_x
_atom_site_fract_y
_atom_site_fract_z
Si Si1 0.182190 0.919386 0.495140
Si Si2 0.264304 0.831329 0.143201
Si Si3 0.193934 0.340685 0.371854
Si Si4 0.967438 0.580968 0.508586
Si Si5 0.301317 0.605706 0.531790
Si Si6 0.630665 0.064212 0.233382
Si Si7 0.824804 0.001554 0.178469
Si Si8 0.238931 0.867168 0.269787
O O1 0.148331 0.742160 0.451570
O O2 0.423412 0.917823 0.637404
O O3 0.023096 0.010426 0.349236
O O4 0.170593 0.018084 0.550326
O O5 0.464075 0.792130 0.231885
O O6 0.185935 0.655345 0.088253
O O7 0.300907 0.865947 0.238916
O O8 0.353869 0.205685 0.475984
O O9 0.208892 0.465687 0.434987
O O10 0.230167 0.419013 0.329708
O O11 0.814646 0.508197 0.359748
O O12 0.058084 0.466491 0.617901
O O13 0.170388 0.627608 0.604109
O O14 0.387847 0.547758 0.652262
O O15 0.493539 0.644488 0.614154
O O16 0.782542 0.206138 0.332055
#
# Coordination Sequence:
#
# PCOD9139228 Si02
#       8
#     4   4   4   4   4   4   4   4
#     4  10  26  47  77 104 150 196 250 306 382 441
#     4  11  25  48  77 111 146 200 252 316 375 450
#     4  11  27  47  76 106 153 198 254 314 380 445
#     4  12  27  46  73 110 153 194 250 307 384 448
#     4  11  27  48  74 106 151 198 253 315 377 449
#     4  10  24  46  73 108 142 193 248 313 372 448
#     4  12  27  46  74 110 154 194 253 309 376 455
#     4  11  25  46  76 107 149 195 250 310 378 448
#
# _framework density 25.383956999999999
#
# number of rings (size 3 to 8) (size 9 to 14) (size 15 to 20)
#    0.000    1.000    1.250    3.000   17.500    3.000 
#    0.000    0.000    0.000    0.000    0.000    0.000 
#    0.000    0.000    0.000    0.000    0.000    0.000 
#
# Total GULP energy -89293.472517 kJ/mol
# GULP energy per Si atom -5580.842032 kJ/mol
# Density = 2.532618 g / cm^3
# Si number density = 25.383957 Si / 1000 Ang^3
#
#
#
# Elastic Constant Matrix: (Units=GPa)
#
#
# Indices 1 2 3 4 5 6 
#
# 1 128.7481 35.9492 27.2737 0.0005 -7.1508 0.0001
# 2 35.9492 101.4253 28.8455 0.0011 1.7231 0.0006
# 3 27.2737 28.8455 57.7917 -0.0022 -8.1784 0.0008
# 4 0.0005 0.0011 -0.0022 35.1482 -0.0002 -2.2494
# 5 -7.1508 1.7231 -8.1784 -0.0002 42.6848 0.0001
# 6 0.0001 0.0006 0.0008 -2.2494 0.0001 42.9294
#
#
#
# Elastic Compliance Matrix: (Units=1/GPa)
#
#
# Indices 1 2 3 4 5 6 
#
# 1 0.009125 -0.002413 -0.002952 0.000000 0.001060 0.000000
# 2 -0.002413 0.012237 -0.005238 -0.000001 -0.001902 0.000000
# 3 -0.002952 -0.005238 0.021864 0.000002 0.003906 0.000000
# 4 0.000000 -0.000001 0.000002 0.028547 0.000000 0.001496
# 5 0.001060 -0.001902 0.003906 0.000000 0.024430 0.000000
# 6 0.000000 0.000000 0.000000 0.001496 0.000000 0.023372
#
#
# Mechanical properties :
#
#
# Convention : Reuss Voigt Hill
#
# Bulk Modulus (GPa) = 45.41370 52.45577 48.93473
# Shear Modulus (GPa) = 33.75616 37.21225 35.48420
#
# Velocity S-wave (km/s) = 3.65063 3.83296 3.74290
# Velocity P-wave (km/s) = 5.97486 6.34811 6.16432
#
# Compressibility (1/GPa) = 0.02201979
#
# Stress axis : x y z
#
# Youngs Moduli (GPa) = 109.58852 81.72135 45.73733
#
# Poissons Ratio (x) = 0.19717 0.13502
# Poissons Ratio (y) = 0.26441 0.23958
# Poissons Ratio (z) = 0.32351 0.42807
#
# Static dielectric constant tensor:
#      x y z
#    x 2.005000 0.000000 0.038880 
#    y 0.000000 2.268690 0.000000 
#    z 0.038880 0.000000 2.016590 
# 
# From -- ./inp_files/33736.got.cif
#   From: 2010.05.17/outbox.cif.g08.bks.cpg/sg9_17_cif.got.tgz:33736.got - 2010.06.03 20:04:27.
