data_PCOD9139633
_publ_section_title
;
Structure prediction by ZEFSAII (Michael W. Deem and Ramdas Pophale) SiO2 
 PCOD9139633
Probable space group: C C
;
_chemical_formula_sum "Si O2"
_cell_formula_units_Z 20
_cell_length_a 7.182056
_cell_length_b 7.307681
_cell_length_c 18.248549
_cell_angle_alpha 90.000000
_cell_angle_beta 128.554115
_cell_angle_gamma 90.000000
_cell_volume 748.987352
_symmetry_space_group_name_H-M "C C"
_symmetry_group_IT_number 9
_symmetry_cell_setting 'monoclinic'
loop_
_space_group_symop_operation_xyz
x,y,z
x,-y,1/2+z
1/2+x,1/2+y,z
1/2+x,1/2-y,1/2+z
loop_
_atom_site_type_symbol
_atom_site_label
_atom_site_fract_x
_atom_site_fract_y
_atom_site_fract_z
Si Si1 0.376160 0.553778 0.680440
Si Si2 0.122045 0.538359 0.475028
Si Si3 0.365189 0.662781 0.837590
Si Si4 0.090566 0.888531 0.994542
Si Si5 0.837618 0.374565 0.198971
O O1 0.176573 0.603771 0.571390
O O2 0.327896 0.346345 0.693371
O O3 0.609461 0.819752 0.473080
O O4 0.624901 0.560631 0.698031
O O5 0.349572 0.594373 0.482748
O O6 0.902338 0.645658 0.387069
O O7 0.103874 0.418299 0.288642
O O8 0.385368 0.674934 0.755163
O O9 0.560826 0.528800 0.920989
O O10 0.292370 0.936008 0.103866
#
# Coordination Sequence:
#
# PCOD9139633 Si02
#       5
#     4   4   4   4   4
#     4  10  26  50  76 114 164 212 269 338 406 481
#     4  10  26  50  76 114 164 212 269 338 406 481
#     4  12  28  44  84 112 160 212 284 316 420 482
#     4  10  26  50  76 114 164 212 269 338 406 481
#     4  10  26  50  76 114 164 212 269 338 406 481
#
# _framework density 26.702722000000001
#
# number of rings (size 3 to 8) (size 9 to 14) (size 15 to 20)
#    0.000    1.600    0.000    0.000   11.200    9.600 
#    0.000    0.000    0.000    0.000    0.000    0.000 
#    0.000    0.000    0.000    0.000    0.000    0.000 
#
# Total GULP energy -56195.389823 kJ/mol
# GULP energy per Si atom -5619.538982 kJ/mol
# Density = 2.664195 g / cm^3
# Si number density = 26.702722 Si / 1000 Ang^3
#
#
#
# Elastic Constant Matrix: (Units=GPa)
#
#
# Indices 1 2 3 4 5 6 
#
# 1 84.4942 9.5138 21.6723 0.0000 -17.0234 0.0000
# 2 9.5138 112.9831 49.3754 0.0000 -9.8143 0.0000
# 3 21.6723 49.3754 202.3226 0.0000 -25.7345 0.0000
# 4 0.0000 0.0000 0.0000 -16.9730 0.0000 -25.6394
# 5 -17.0234 -9.8143 -25.7345 0.0000 41.0314 0.0000
# 6 0.0000 0.0000 0.0000 -25.6394 0.0000 21.2344
#
#
#
# Elastic Compliance Matrix: (Units=1/GPa)
#
#
# Indices 1 2 3 4 5 6 
#
# 1 0.013038 -0.000374 -0.000683 0.000000 0.004891 0.000000
# 2 -0.000374 0.009951 -0.002288 0.000000 0.000790 0.000000
# 3 -0.000683 -0.002288 0.005943 0.000000 0.002896 0.000000
# 4 0.000000 0.000000 0.000000 -0.020863 0.000000 -0.025191
# 5 0.004891 0.000790 0.002896 0.000000 0.028406 0.000000
# 6 0.000000 0.000000 0.000000 -0.025191 0.000000 0.016676
#
#
# Mechanical properties :
#
#
# Convention : Reuss Voigt Hill
#
# Bulk Modulus (GPa) = 44.96289 62.32477 53.64383
# Shear Modulus (GPa) = 74.34365 30.34111 52.34238
#
# Velocity S-wave (km/s) = 5.28220 3.37450 4.43221
# Velocity P-wave (km/s) = 7.35371 6.21079 6.80628
#
# Compressibility (1/GPa) = 0.02224056
#
# Stress axis : x y z
#
# Youngs Moduli (GPa) = 76.69906 100.49385 168.27871
#
# Poissons Ratio (x) = 0.03763 0.11494
# Poissons Ratio (y) = 0.02872 0.38500
# Poissons Ratio (z) = 0.05239 0.22992
#
# Static dielectric constant tensor:
#      x y z
#    x 2.082840 0.000000 -0.002150 
#    y 0.000000 2.036490 0.000000 
#    z -0.002150 0.000000 2.088620 
# 
# From -- ./inp_files/14151.got.cif
#   From: 2010.05.17/outbox.cif.g08.bks.cpg/sg9_8_cif.got.tgz:14151.got - 2010.06.03 20:04:27.
