data_PCOD9139589
_publ_section_title
;
Structure prediction by ZEFSAII (Michael W. Deem and Ramdas Pophale) SiO2 
 PCOD9139589
Probable space group: C C
;
_chemical_formula_sum "Si O2"
_cell_formula_units_Z 32
_cell_length_a 18.766493
_cell_length_b 4.872388
_cell_length_c 15.028284
_cell_angle_alpha 90.000000
_cell_angle_beta 110.525296
_cell_angle_gamma 90.000000
_cell_volume 1286.916202
_symmetry_space_group_name_H-M "C C"
_symmetry_group_IT_number 9
_symmetry_cell_setting 'monoclinic'
loop_
_space_group_symop_operation_xyz
x,y,z
x,-y,1/2+z
1/2+x,1/2+y,z
1/2+x,1/2-y,1/2+z
loop_
_atom_site_type_symbol
_atom_site_label
_atom_site_fract_x
_atom_site_fract_y
_atom_site_fract_z
Si Si1 0.264900 0.987254 0.002360
Si Si2 0.916452 0.767145 0.592789
Si Si3 0.081539 0.317943 0.132852
Si Si4 0.692046 0.892442 0.320874
Si Si5 0.342723 0.411038 0.897802
Si Si6 0.624101 0.689645 0.547798
Si Si7 0.063581 0.397480 0.867592
Si Si8 0.961801 0.883384 0.796276
O O1 0.340940 0.897279 0.086632
O O2 0.196487 0.987093 0.044190
O O3 0.226980 0.766776 0.920110
O O4 0.299106 0.209217 0.947943
O O5 0.993775 0.600474 0.607254
O O6 0.889913 0.899409 0.487295
O O7 0.932645 0.963806 0.684643
O O8 0.131671 0.217835 0.238480
O O9 0.131948 0.583605 0.128677
O O10 0.074574 0.056354 0.065620
O O11 0.639015 0.127943 0.341084
O O12 0.771361 0.969394 0.310440
O O13 0.401426 0.322217 0.847663
O O14 0.588389 0.906829 0.461101
O O15 0.021860 0.108855 0.857686
O O16 0.002546 0.595584 0.796083
#
# Coordination Sequence:
#
# PCOD9139589 Si02
#       8
#     4   4   4   4   4   4   4   4
#     4  10  27  48  72 105 154 203 246 321 391 459
#     4  11  27  48  71 115 150 203 257 325 381 471
#     4  12  27  46  77 112 144 198 262 319 381 466
#     4  10  26  45  72 104 148 195 250 318 382 453
#     4  11  27  47  76 105 160 200 254 320 399 459
#     4  11  27  46  78 106 151 196 257 315 391 459
#     4  11  25  49  71 109 147 197 251 316 380 457
#     4  12  28  45  79 110 152 204 257 314 393 466
#
# _framework density 24.865642000000001
#
# number of rings (size 3 to 8) (size 9 to 14) (size 15 to 20)
#    0.000    1.000    1.250    2.250   22.750    0.000 
#    0.000    0.000    0.000    0.000    0.000    0.000 
#    0.000    0.000    0.000    0.000    0.000    0.000 
#
# Total GULP energy -89115.405100 kJ/mol
# GULP energy per Si atom -5569.712819 kJ/mol
# Density = 2.480905 g / cm^3
# Si number density = 24.865642 Si / 1000 Ang^3
#
#
#
# Elastic Constant Matrix: (Units=GPa)
#
#
# Indices 1 2 3 4 5 6 
#
# 1 134.7991 21.1700 36.7728 0.0000 12.9982 0.0000
# 2 21.1700 87.6680 4.8670 0.0000 -1.1652 0.0000
# 3 36.7728 4.8670 96.6811 0.0000 19.0273 0.0000
# 4 0.0000 0.0000 0.0000 32.4884 0.0000 -0.1544
# 5 12.9982 -1.1652 19.0273 0.0000 35.6793 0.0000
# 6 0.0000 0.0000 0.0000 -0.1544 0.0000 32.7087
#
#
#
# Elastic Compliance Matrix: (Units=1/GPa)
#
#
# Indices 1 2 3 4 5 6 
#
# 1 0.008671 -0.001957 -0.002866 0.000000 -0.001694 0.000000
# 2 -0.001957 0.011899 -0.000080 0.000000 0.001144 0.000000
# 3 -0.002866 -0.000080 0.012550 0.000000 -0.005651 0.000000
# 4 0.000000 0.000000 0.000000 0.030781 0.000000 0.000145
# 5 -0.001694 0.001144 -0.005651 0.000000 0.031696 0.000000
# 6 0.000000 0.000000 0.000000 0.000145 0.000000 0.030574
#
#
# Mechanical properties :
#
#
# Convention : Reuss Voigt Hill
#
# Bulk Modulus (GPa) = 42.89372 49.41866 46.15619
# Shear Modulus (GPa) = 34.78333 37.26450 36.02391
#
# Velocity S-wave (km/s) = 3.74418 3.87542 3.81036
# Velocity P-wave (km/s) = 5.99829 6.32001 6.16125
#
# Compressibility (1/GPa) = 0.02331344
#
# Stress axis : x y z
#
# Youngs Moduli (GPa) = 115.32591 84.04099 79.68416
#
# Poissons Ratio (x) = 0.16449 0.22838
# Poissons Ratio (y) = 0.22573 0.00635
# Poissons Ratio (z) = 0.33053 0.00670
#
# Static dielectric constant tensor:
#      x y z
#    x 2.026520 0.000000 -0.049270 
#    y 0.000000 2.018340 0.000000 
#    z -0.049270 0.000000 2.223580 
# 
# From -- ./inp_files/26484.got.cif
#   From: 2010.05.17/outbox.cif.g08.bks.cpg/sg9_14_cif.got.tgz:26484.got - 2010.06.03 20:04:27.
