data_PCOD9139705
_publ_section_title
;
Structure prediction by ZEFSAII (Michael W. Deem and Ramdas Pophale) SiO2 
 PCOD9139705
Probable space group: C C
;
_chemical_formula_sum "Si O2"
_cell_formula_units_Z 24
_cell_length_a 13.453893
_cell_length_b 16.155901
_cell_length_c 13.195456
_cell_angle_alpha 90.000000
_cell_angle_beta 158.532182
_cell_angle_gamma 90.000000
_cell_volume 1049.685533
_symmetry_space_group_name_H-M "C C"
_symmetry_group_IT_number 9
_symmetry_cell_setting 'monoclinic'
loop_
_space_group_symop_operation_xyz
x,y,z
x,-y,1/2+z
1/2+x,1/2+y,z
1/2+x,1/2-y,1/2+z
loop_
_atom_site_type_symbol
_atom_site_label
_atom_site_fract_x
_atom_site_fract_y
_atom_site_fract_z
Si Si1 0.236150 0.297980 0.490210
Si Si2 0.800956 0.569853 0.078945
Si Si3 0.729261 0.041381 0.869828
Si Si4 0.094208 0.646143 0.071382
Si Si5 0.537053 0.629676 0.644808
Si Si6 0.238510 0.543749 0.654976
O O1 0.453249 0.227932 0.672983
O O2 0.321417 0.387687 0.533122
O O3 0.189226 0.302277 0.565839
O O4 0.956043 0.501997 0.154666
O O5 0.041681 0.587776 0.387262
O O6 0.676571 0.640774 0.887214
O O7 0.542780 0.541506 0.899850
O O8 0.708129 0.080475 0.738385
O O9 0.943271 0.966485 0.063818
O O10 0.268174 0.667886 0.337740
O O11 0.150609 0.551162 0.091497
O O12 0.777489 0.646539 0.794896
#
# Coordination Sequence:
#
# PCOD9139705 Si02
#       6
#     4   4   4   4   4   4
#     4  12  28  42  62  91 139 187 210 248 312 403
#     4  12  20  35  57  94 124 154 196 262 344 371
#     4  11  25  38  60  93 132 167 217 256 327 389
#     4  11  21  38  60  90 122 169 215 254 323 376
#     4  11  20  36  64  90 125 159 199 285 328 369
#     4  11  22  33  61  88 128 160 201 275 324 378
#
# _framework density 22.863990000000001
#
# number of rings (size 3 to 8) (size 9 to 14) (size 15 to 20)
#    0.000    0.667    6.667    3.000    4.667    0.000 
#    0.000    0.000    0.000    0.000    0.000   23.333 
#    0.000    0.000    0.000    0.000    0.000    0.000 
#
# Total GULP energy -66996.749060 kJ/mol
# GULP energy per Si atom -5583.062422 kJ/mol
# Density = 2.281195 g / cm^3
# Si number density = 22.863990 Si / 1000 Ang^3
#
#
#
# Elastic Constant Matrix: (Units=GPa)
#
#
# Indices 1 2 3 4 5 6 
#
# 1 125.0115 19.3354 40.3401 0.0002 -15.2577 0.0002
# 2 19.3354 49.5550 5.9056 -0.0003 13.5467 0.0000
# 3 40.3401 5.9056 130.9746 0.0014 -0.4236 0.0006
# 4 0.0002 -0.0003 0.0014 18.8501 0.0004 -4.2952
# 5 -15.2577 13.5467 -0.4236 0.0004 32.4726 0.0000
# 6 0.0002 0.0000 0.0006 -4.2952 0.0000 28.3258
#
#
#
# Elastic Compliance Matrix: (Units=1/GPa)
#
#
# Indices 1 2 3 4 5 6 
#
# 1 0.010809 -0.005907 -0.003039 0.000000 0.007503 0.000000
# 2 -0.005907 0.026152 0.000596 0.000001 -0.013678 0.000000
# 3 -0.003039 0.000596 0.008539 -0.000001 -0.001565 0.000000
# 4 0.000000 0.000001 -0.000001 0.054949 -0.000001 0.008332
# 5 0.007503 -0.013678 -0.001565 -0.000001 0.040006 0.000000
# 6 0.000000 0.000000 0.000000 0.008332 0.000000 0.036567
#
#
# Mechanical properties :
#
#
# Convention : Reuss Voigt Hill
#
# Bulk Modulus (GPa) = 34.72025 48.52257 41.62141
# Shear Modulus (GPa) = 24.59159 31.92702 28.25930
#
# Velocity S-wave (km/s) = 3.28313 3.74088 3.51946
# Velocity P-wave (km/s) = 5.43971 6.31880 5.89567
#
# Compressibility (1/GPa) = 0.02880164
#
# Stress axis : x y z
#
# Youngs Moduli (GPa) = 92.51440 38.23768 117.10927
#
# Poissons Ratio (x) = 0.22585 0.35585
# Poissons Ratio (y) = 0.54644 -0.06977
# Poissons Ratio (z) = 0.28112 -0.02278
#
# Static dielectric constant tensor:
#      x y z
#    x 1.894590 0.000000 -0.072500 
#    y 0.000000 1.868090 0.000000 
#    z -0.072500 0.000000 1.878970 
# 
# From -- ./inp_files/26077.got.cif
#   From: 2010.05.17/outbox.cif.g08.bks.cpg/sg9_14_cif.got.tgz:26077.got - 2010.06.03 20:04:27.
