data_PCOD9139780
_publ_section_title
;
Structure prediction by ZEFSAII (Michael W. Deem and Ramdas Pophale) SiO2 
 PCOD9139780
Probable space group: C C
;
_chemical_formula_sum "Si O2"
_cell_formula_units_Z 32
_cell_length_a 21.823118
_cell_length_b 9.659856
_cell_length_c 9.065539
_cell_angle_alpha 90.000000
_cell_angle_beta 134.955036
_cell_angle_gamma 90.000000
_cell_volume 1352.404602
_symmetry_space_group_name_H-M "C C"
_symmetry_group_IT_number 9
_symmetry_cell_setting 'monoclinic'
loop_
_space_group_symop_operation_xyz
x,y,z
x,-y,1/2+z
1/2+x,1/2+y,z
1/2+x,1/2-y,1/2+z
loop_
_atom_site_type_symbol
_atom_site_label
_atom_site_fract_x
_atom_site_fract_y
_atom_site_fract_z
Si Si1 0.698490 0.148825 0.775580
Si Si2 0.479196 0.765580 0.605297
Si Si3 0.953722 0.699383 0.728409
Si Si4 0.779114 0.583745 0.284229
Si Si5 0.603904 0.984497 0.376392
Si Si6 0.309312 0.833293 0.505972
Si Si7 0.958737 0.026844 0.046417
Si Si8 0.338958 0.541303 0.580061
O O1 0.711893 0.301429 0.731825
O O2 0.628028 0.114887 0.780608
O O3 0.679733 0.042517 0.609713
O O4 0.785682 0.098355 0.005549
O O5 0.437450 0.773177 0.372131
O O6 0.406630 0.808068 0.604791
O O7 0.517405 0.607955 0.671835
O O8 0.554373 0.877485 0.741627
O O9 0.870595 0.627692 0.513985
O O10 0.035523 0.599855 0.856552
O O11 0.976039 0.836710 0.670498
O O12 0.759758 0.428234 0.304450
O O13 0.798369 0.591104 0.143562
O O14 0.280488 0.676905 0.494237
O O15 0.870335 0.967882 0.966213
O O16 0.925736 0.057155 0.826019
#
# Coordination Sequence:
#
# PCOD9139780 Si02
#       8
#     4   4   4   4   4   4   4   4
#     4  12  26  47  71 101 148 194 239 296 375 448
#     4  11  24  43  68 107 143 189 241 302 362 431
#     4  12  23  44  68 108 139 189 246 299 359 438
#     4  12  24  43  71 106 140 184 248 306 357 426
#     4  12  27  44  71 104 147 197 238 295 378 448
#     4  11  24  39  72 105 139 175 243 307 354 411
#     4  11  21  39  74 100 138 174 247 305 355 412
#     4  11  21  41  65 105 134 182 232 298 360 426
#
# _framework density 23.661556999999998
#
# number of rings (size 3 to 8) (size 9 to 14) (size 15 to 20)
#    0.000    0.500    6.250    2.250    1.750    3.000 
#    0.000    3.750    0.000    0.000    0.000    0.000 
#    0.000    0.000    0.000    0.000    0.000    0.000 
#
# Total GULP energy -89294.672857 kJ/mol
# GULP energy per Si atom -5580.917054 kJ/mol
# Density = 2.360770 g / cm^3
# Si number density = 23.661557 Si / 1000 Ang^3
#
#
#
# Elastic Constant Matrix: (Units=GPa)
#
#
# Indices 1 2 3 4 5 6 
#
# 1 73.1183 9.6987 21.1117 0.0000 -21.6233 0.0000
# 2 9.6987 128.1973 20.8298 0.0000 2.2316 0.0000
# 3 21.1117 20.8298 79.6826 0.0000 -18.8050 0.0000
# 4 0.0000 0.0000 0.0000 38.2166 0.0000 -0.0179
# 5 -21.6233 2.2316 -18.8050 0.0000 30.5839 0.0000
# 6 0.0000 0.0000 0.0000 -0.0179 0.0000 36.2252
#
#
#
# Elastic Compliance Matrix: (Units=1/GPa)
#
#
# Indices 1 2 3 4 5 6 
#
# 1 0.017761 -0.001283 -0.001620 0.000000 0.011655 0.000000
# 2 -0.001283 0.008371 -0.002581 0.000000 -0.003105 0.000000
# 3 -0.001620 -0.002581 0.015707 0.000000 0.008701 0.000000
# 4 0.000000 0.000000 0.000000 0.026167 0.000000 0.000013
# 5 0.011655 -0.003105 0.008701 0.000000 0.046514 0.000000
# 6 0.000000 0.000000 0.000000 0.000013 0.000000 0.027605
#
#
# Mechanical properties :
#
#
# Convention : Reuss Voigt Hill
#
# Bulk Modulus (GPa) = 32.39296 42.69764 37.54530
# Shear Modulus (GPa) = 30.60291 36.29571 33.44931
#
# Velocity S-wave (km/s) = 3.60023 3.92082 3.76394
# Velocity P-wave (km/s) = 5.56795 6.21139 5.89845
#
# Compressibility (1/GPa) = 0.03087091
#
# Stress axis : x y z
#
# Youngs Moduli (GPa) = 56.30268 119.46007 63.66584
#
# Poissons Ratio (x) = 0.15332 0.10312
# Poissons Ratio (y) = 0.07226 0.16432
# Poissons Ratio (z) = 0.09119 0.30833
#
# Static dielectric constant tensor:
#      x y z
#    x 1.935450 0.000000 0.020860 
#    y 0.000000 2.029910 0.000000 
#    z 0.020860 0.000000 1.875310 
# 
# From -- ./inp_files/12448.got.cif
#   From: 2010.05.17/outbox.cif.g08.bks.cpg/sg9_7_cif.got.tgz:12448.got - 2010.06.03 20:04:27.
