data_PCOD9139412
_publ_section_title
;
Structure prediction by ZEFSAII (Michael W. Deem and Ramdas Pophale) SiO2 
 PCOD9139412
Probable space group: C C
;
_chemical_formula_sum "Si O2"
_cell_formula_units_Z 32
_cell_length_a 6.712786
_cell_length_b 23.413200
_cell_length_c 8.065221
_cell_angle_alpha 90.000000
_cell_angle_beta 88.935887
_cell_angle_gamma 90.000000
_cell_volume 1267.374442
_symmetry_space_group_name_H-M "C C"
_symmetry_group_IT_number 9
_symmetry_cell_setting 'monoclinic'
loop_
_space_group_symop_operation_xyz
x,y,z
x,-y,1/2+z
1/2+x,1/2+y,z
1/2+x,1/2-y,1/2+z
loop_
_atom_site_type_symbol
_atom_site_label
_atom_site_fract_x
_atom_site_fract_y
_atom_site_fract_z
Si Si1 0.772720 0.357699 0.276110
Si Si2 0.230997 0.324173 0.590019
Si Si3 0.952895 0.532031 0.622785
Si Si4 0.923180 0.910162 0.394481
Si Si5 0.003008 0.977414 0.051371
Si Si6 0.490753 0.283680 0.054174
Si Si7 0.562674 0.755554 0.198011
Si Si8 0.708620 0.065471 0.308809
O O1 0.628284 0.376401 0.426236
O O2 0.604887 0.334705 0.146590
O O3 0.888494 0.415974 0.240302
O O4 0.923265 0.306028 0.270917
O O5 0.251476 0.364254 0.427401
O O6 0.058150 0.278730 0.618188
O O7 0.423450 0.282914 0.583785
O O8 0.214853 0.371755 0.731870
O O9 0.427963 0.552636 0.384346
O O10 0.082730 0.561938 0.480643
O O11 0.739452 0.512900 0.552994
O O12 0.906262 0.959926 0.530845
O O13 0.939396 0.942451 0.217442
O O14 0.577607 0.018291 0.207484
O O15 0.254806 0.280970 0.100298
O O16 0.577223 0.282858 0.865100
#
# Coordination Sequence:
#
# PCOD9139412 Si02
#       8
#     4   4   4   4   4   4   4   4
#     4  10  25  44  72 105 146 196 258 313 386 460
#     4  11  27  44  72 111 152 196 265 319 389 469
#     4  11  26  45  71 107 152 198 261 315 389 468
#     4  11  22  46  73 107 151 203 252 321 390 468
#     4  11  25  45  75 107 155 200 259 315 397 472
#     4  11  26  46  74 107 151 205 259 324 396 467
#     4  11  26  46  76 109 151 203 262 323 396 470
#     4  12  27  44  71 111 150 205 256 320 389 472
#
# _framework density 25.249051000000001
#
# number of rings (size 3 to 8) (size 9 to 14) (size 15 to 20)
#    0.000    1.000    0.000    5.250    7.000    8.000 
#    0.000    0.000    0.000    0.000    0.000    0.000 
#    0.000    0.000    0.000    0.000    0.000    0.000 
#
# Total GULP energy -89307.634050 kJ/mol
# GULP energy per Si atom -5581.727128 kJ/mol
# Density = 2.519158 g / cm^3
# Si number density = 25.249051 Si / 1000 Ang^3
#
#
#
# Elastic Constant Matrix: (Units=GPa)
#
#
# Indices 1 2 3 4 5 6 
#
# 1 134.9506 38.5734 29.8679 0.0000 4.8032 0.0000
# 2 38.5734 129.3217 12.7962 0.0000 8.7160 0.0000
# 3 29.8679 12.7962 68.0236 0.0000 -3.2010 0.0000
# 4 0.0000 0.0000 0.0000 42.0175 0.0000 -20.4962
# 5 4.8032 8.7160 -3.2010 0.0000 27.0229 0.0000
# 6 0.0000 0.0000 0.0000 -20.4962 0.0000 40.6864
#
#
#
# Elastic Compliance Matrix: (Units=1/GPa)
#
#
# Indices 1 2 3 4 5 6 
#
# 1 0.008871 -0.002209 -0.003540 0.000000 -0.001283 0.000000
# 2 -0.002209 0.008635 -0.000771 0.000000 -0.002484 0.000000
# 3 -0.003540 -0.000771 0.016534 0.000000 0.002836 0.000000
# 4 0.000000 0.000000 0.000000 0.031553 0.000000 0.015895
# 5 -0.001283 -0.002484 0.002836 0.000000 0.038371 0.000000
# 6 0.000000 0.000000 0.000000 0.015895 0.000000 0.032586
#
#
# Mechanical properties :
#
#
# Convention : Reuss Voigt Hill
#
# Bulk Modulus (GPa) = 47.62105 54.97455 51.29780
# Shear Modulus (GPa) = 31.93055 38.68258 35.30657
#
# Velocity S-wave (km/s) = 3.56001 3.91838 3.74349
# Velocity P-wave (km/s) = 5.98329 6.50321 6.24866
#
# Compressibility (1/GPa) = 0.02099912
#
# Stress axis : x y z
#
# Youngs Moduli (GPa) = 112.73085 115.80349 60.48291
#
# Poissons Ratio (x) = 0.25583 0.21410
# Poissons Ratio (y) = 0.24904 0.04665
# Poissons Ratio (z) = 0.39904 0.08932
#
# Static dielectric constant tensor:
#      x y z
#    x 2.077710 0.000000 0.061110 
#    y 0.000000 1.973540 0.000000 
#    z 0.061110 0.000000 2.052620 
# 
# From -- ./inp_files/13480.got.cif
#   From: 2010.05.17/outbox.cif.g08.bks.cpg/sg9_7_cif.got.tgz:13480.got - 2010.06.03 20:04:27.
