data_PCOD9139982
_publ_section_title
;
Structure prediction by ZEFSAII (Michael W. Deem and Ramdas Pophale) SiO2 
 PCOD9139982
Probable space group: C C
;
_chemical_formula_sum "Si O2"
_cell_formula_units_Z 28
_cell_length_a 25.710593
_cell_length_b 9.016752
_cell_length_c 10.511667
_cell_angle_alpha 90.000000
_cell_angle_beta 153.679265
_cell_angle_gamma 90.000000
_cell_volume 1080.501034
_symmetry_space_group_name_H-M "C C"
_symmetry_group_IT_number 9
_symmetry_cell_setting 'monoclinic'
loop_
_space_group_symop_operation_xyz
x,y,z
x,-y,1/2+z
1/2+x,1/2+y,z
1/2+x,1/2-y,1/2+z
loop_
_atom_site_type_symbol
_atom_site_label
_atom_site_fract_x
_atom_site_fract_y
_atom_site_fract_z
Si Si1 0.356060 0.361928 0.260120
Si Si2 0.415418 0.230990 0.667010
Si Si3 0.079396 0.289757 0.899766
Si Si4 0.906679 0.395242 0.691848
Si Si5 0.738383 0.309785 0.983053
Si Si6 0.577478 0.570992 0.664281
Si Si7 0.641674 0.049694 0.870036
O O1 0.371914 0.310435 0.442475
O O2 0.338874 0.219313 0.132639
O O3 0.471157 0.452667 0.461724
O O4 0.240941 0.463839 0.007827
O O5 0.361715 0.237336 0.694110
O O6 0.537014 0.319098 0.961545
O O7 0.382657 0.056387 0.578228
O O8 0.116088 0.453418 0.936898
O O9 0.948172 0.297677 0.663367
O O10 0.095828 0.175423 0.824487
O O11 0.157324 0.241850 0.187777
O O12 0.019621 0.437310 0.027852
O O13 0.696424 0.476819 0.906841
O O14 0.694433 0.212544 0.004797
#
# Coordination Sequence:
#
# PCOD9139982 Si02
#       7
#     4   4   4   4   4   4   4
#     4  12  25  44  71 105 138 183 242 285 351 431
#     4  12  26  43  72 103 140 187 235 290 355 420
#     4  11  23  47  67  97 141 174 231 290 344 414
#     4  11  26  46  71 101 139 188 234 294 354 419
#     4  11  25  45  67 104 140 179 232 288 352 419
#     4  12  25  45  70 104 141 183 231 297 351 422
#     4  11  22  44  70  96 139 182 225 288 351 413
#
# _framework density 25.913902
#
# number of rings (size 3 to 8) (size 9 to 14) (size 15 to 20)
#    0.000    0.571    7.143    1.714    2.000    0.000 
#    0.000    0.000    0.000    0.000    0.000    0.000 
#    0.000    0.000    0.000    0.000    0.000    0.000 
#
# Total GULP energy -78182.420250 kJ/mol
# GULP energy per Si atom -5584.458589 kJ/mol
# Density = 2.585492 g / cm^3
# Si number density = 25.913902 Si / 1000 Ang^3
#
#
#
# Elastic Constant Matrix: (Units=GPa)
#
#
# Indices 1 2 3 4 5 6 
#
# 1 79.9271 20.5747 -3.9429 0.0000 -11.4512 0.0000
# 2 20.5747 83.1852 23.7854 0.0000 -4.9924 0.0000
# 3 -3.9429 23.7854 28.6984 0.0000 -2.1754 0.0000
# 4 0.0000 0.0000 0.0000 42.3545 0.0000 12.2707
# 5 -11.4512 -4.9924 -2.1754 0.0000 33.1038 0.0000
# 6 0.0000 0.0000 0.0000 12.2707 0.0000 39.1572
#
#
#
# Elastic Compliance Matrix: (Units=1/GPa)
#
#
# Indices 1 2 3 4 5 6 
#
# 1 0.014918 -0.005363 0.006858 0.000000 0.004802 0.000000
# 2 -0.005363 0.017760 -0.015471 0.000000 -0.000193 0.000000
# 3 0.006858 -0.015471 0.048856 0.000000 0.003250 0.000000
# 4 0.000000 0.000000 0.000000 0.025968 0.000000 -0.008138
# 5 0.004802 -0.000193 0.003250 0.000000 0.032054 0.000000
# 6 0.000000 0.000000 0.000000 -0.008138 0.000000 0.028088
#
#
# Mechanical properties :
#
#
# Convention : Reuss Voigt Hill
#
# Bulk Modulus (GPa) = 18.66240 30.29390 24.47815
# Shear Modulus (GPa) = 23.42409 33.01599 28.22004
#
# Velocity S-wave (km/s) = 3.00979 3.57328 3.30357
# Velocity P-wave (km/s) = 4.39269 5.36097 4.90080
#
# Compressibility (1/GPa) = 0.05358368
#
# Stress axis : x y z
#
# Youngs Moduli (GPa) = 67.03214 56.30697 20.46825
#
# Poissons Ratio (x) = 0.30195 -0.14038
# Poissons Ratio (y) = 0.35947 0.31666
# Poissons Ratio (z) = -0.45972 0.87112
#
# Static dielectric constant tensor:
#      x y z
#    x 2.105560 0.000000 0.173570 
#    y 0.000000 2.098070 0.000000 
#    z 0.173570 0.000000 2.182730 
# 
# From -- ./inp_files/21139.got.cif
#   From: 2010.05.17/outbox.cif.g08.bks.cpg/sg9_11_cif.got.tgz:21139.got - 2010.06.03 20:04:27.
