data_PCOD9139079
_publ_section_title
;
Structure prediction by ZEFSAII (Michael W. Deem and Ramdas Pophale) SiO2 
 PCOD9139079
Probable space group: C C
;
_chemical_formula_sum "Si O2"
_cell_formula_units_Z 28
_cell_length_a 15.454392
_cell_length_b 8.798814
_cell_length_c 14.485389
_cell_angle_alpha 90.000000
_cell_angle_beta 141.878263
_cell_angle_gamma 90.000000
_cell_volume 1215.980716
_symmetry_space_group_name_H-M "C C"
_symmetry_group_IT_number 9
_symmetry_cell_setting 'monoclinic'
loop_
_space_group_symop_operation_xyz
x,y,z
x,-y,1/2+z
1/2+x,1/2+y,z
1/2+x,1/2-y,1/2+z
loop_
_atom_site_type_symbol
_atom_site_label
_atom_site_fract_x
_atom_site_fract_y
_atom_site_fract_z
Si Si1 0.287850 0.657725 0.228900
Si Si2 0.934124 0.569095 0.460530
Si Si3 0.548642 0.855956 0.404524
Si Si4 0.649839 0.422863 0.225576
Si Si5 0.458203 0.410091 0.436621
Si Si6 0.477851 0.071377 0.195755
Si Si7 0.158419 0.837628 0.432540
O O1 0.441646 0.726742 0.344944
O O2 0.207840 0.759457 0.238641
O O3 0.314009 0.482428 0.277250
O O4 0.205306 0.685194 0.064082
O O5 0.772525 0.537376 0.300514
O O6 0.950675 0.748174 0.479896
O O7 0.970855 0.468949 0.581530
O O8 0.018765 0.498878 0.446809
O O9 0.507459 0.911536 0.269770
O O10 0.632377 0.439984 0.320006
O O11 0.512262 0.468301 0.056252
O O12 0.567032 0.387962 0.443221
O O13 0.598012 0.179525 0.339895
O O14 0.325613 0.147298 0.091500
#
# Coordination Sequence:
#
# PCOD9139079 Si02
#       7
#     4   4   4   4   4   4   4
#     4  11  24  43  73  99 143 192 229 288 362 415
#     4  10  24  44  69 101 137 180 235 296 344 415
#     4  11  23  45  69  99 139 184 236 289 347 424
#     4  10  24  48  67 101 146 184 234 290 348 430
#     4  12  25  43  75 106 140 185 239 295 350 419
#     4  11  25  45  72 102 146 183 238 292 352 426
#     4  11  25  44  73 102 139 194 231 290 355 423
#
# _framework density 23.026679999999999
#
# number of rings (size 3 to 8) (size 9 to 14) (size 15 to 20)
#    0.000    1.143    2.857    2.571    8.000    1.143 
#    2.571    0.000    0.000    0.000    0.000    0.000 
#    0.000    0.000    0.000    0.000    0.000    0.000 
#
# Total GULP energy -78197.812712 kJ/mol
# GULP energy per Si atom -5585.558051 kJ/mol
# Density = 2.297427 g / cm^3
# Si number density = 23.026680 Si / 1000 Ang^3
#
#
#
# Elastic Constant Matrix: (Units=GPa)
#
#
# Indices 1 2 3 4 5 6 
#
# 1 43.0408 5.6503 14.7857 0.0000 -3.0467 0.0000
# 2 5.6503 77.4515 12.3949 0.0000 16.7694 0.0000
# 3 14.7857 12.3949 110.3852 0.0000 2.5166 0.0000
# 4 0.0000 0.0000 0.0000 37.8315 0.0000 -7.9294
# 5 -3.0467 16.7694 2.5166 0.0000 24.5856 0.0000
# 6 0.0000 0.0000 0.0000 -7.9294 0.0000 16.6240
#
#
#
# Elastic Compliance Matrix: (Units=1/GPa)
#
#
# Indices 1 2 3 4 5 6 
#
# 1 0.025007 -0.002411 -0.003194 0.000000 0.005070 0.000000
# 2 -0.002411 0.015622 -0.001184 0.000000 -0.010833 0.000000
# 3 -0.003194 -0.001184 0.009633 0.000000 -0.000574 0.000000
# 4 0.000000 0.000000 0.000000 0.029369 0.000000 0.014009
# 5 0.005070 -0.010833 -0.000574 0.000000 0.048750 0.000000
# 6 0.000000 0.000000 0.000000 0.014009 0.000000 0.066836
#
#
# Mechanical properties :
#
#
# Convention : Reuss Voigt Hill
#
# Bulk Modulus (GPa) = 27.26070 32.94879 30.10475
# Shear Modulus (GPa) = 22.62196 29.01133 25.81664
#
# Velocity S-wave (km/s) = 3.13776 3.55336 3.35201
# Velocity P-wave (km/s) = 4.99919 5.58347 5.29939
#
# Compressibility (1/GPa) = 0.03668284
#
# Stress axis : x y z
#
# Youngs Moduli (GPa) = 39.98956 64.01114 103.80835
#
# Poissons Ratio (x) = 0.15432 0.33161
# Poissons Ratio (y) = 0.09641 0.12294
# Poissons Ratio (z) = 0.12774 0.07581
#
# Static dielectric constant tensor:
#      x y z
#    x 1.855910 0.000000 0.019630 
#    y 0.000000 1.900630 0.000000 
#    z 0.019630 0.000000 1.894860 
# 
# From -- ./inp_files/11306.got.cif
#   From: 2010.05.17/outbox.cif.g08.bks.cpg/sg9_6_cif.got.tgz:11306.got - 2010.06.03 20:04:27.
