data_PCOD9139878
_publ_section_title
;
Structure prediction by ZEFSAII (Michael W. Deem and Ramdas Pophale) SiO2 
 PCOD9139878
Probable space group: C C
;
_chemical_formula_sum "Si O2"
_cell_formula_units_Z 32
_cell_length_a 7.766138
_cell_length_b 30.634591
_cell_length_c 5.775762
_cell_angle_alpha 90.000000
_cell_angle_beta 88.888379
_cell_angle_gamma 90.000000
_cell_volume 1373.867140
_symmetry_space_group_name_H-M "C C"
_symmetry_group_IT_number 9
_symmetry_cell_setting 'monoclinic'
loop_
_space_group_symop_operation_xyz
x,y,z
x,-y,1/2+z
1/2+x,1/2+y,z
1/2+x,1/2-y,1/2+z
loop_
_atom_site_type_symbol
_atom_site_label
_atom_site_fract_x
_atom_site_fract_y
_atom_site_fract_z
Si Si1 0.746000 0.253934 0.810130
Si Si2 0.554569 0.381346 0.522802
Si Si3 0.894458 0.745283 0.884209
Si Si4 0.538347 0.516763 0.095239
Si Si5 0.449297 0.016822 0.147263
Si Si6 0.246552 0.164780 0.652402
Si Si7 0.918657 0.383163 0.775649
Si Si8 0.240927 0.323086 0.668789
O O1 0.918624 0.255338 0.658216
O O2 0.552716 0.252937 0.709574
O O3 0.727352 0.298403 0.955502
O O4 0.741744 0.209125 0.949735
O O5 0.516032 0.432543 0.530918
O O6 0.587449 0.361035 0.266804
O O7 0.737151 0.376558 0.649076
O O8 0.403258 0.355061 0.648558
O O9 0.816857 0.698051 0.842541
O O10 0.773920 0.787455 0.866416
O O11 0.472529 0.507876 0.362075
O O12 0.743830 0.507040 0.120864
O O13 0.469007 0.067330 0.218571
O O14 0.515320 0.991896 0.380336
O O15 0.375190 0.128665 0.544163
O O16 0.070369 0.351267 0.695592
#
# Coordination Sequence:
#
# PCOD9139878 Si02
#       8
#     4   4   4   4   4   4   4   4
#     4  11  22  39  59  86 128 166 212 264 324 388
#     4  11  24  40  66  93 129 166 221 273 330 403
#     4  11  22  39  59  86 128 166 212 264 324 388
#     4   9  20  39  66  98 133 178 223 278 348 412
#     4   9  20  39  66  98 133 178 223 278 348 412
#     4  11  22  36  60  90 120 168 210 264 324 385
#     4  11  24  40  66  93 129 166 221 273 330 403
#     4  11  24  42  62  96 126 172 220 268 332 395
#
# _framework density 23.291917999999999
#
# number of rings (size 3 to 8) (size 9 to 14) (size 15 to 20)
#    0.000    1.500    0.000    5.250    8.750    4.000 
#    0.000    1.250    0.000    0.000    0.000    0.000 
#    0.000    0.000    0.000    0.000    0.000    0.000 
#
# Total GULP energy -89165.321007 kJ/mol
# GULP energy per Si atom -5572.832563 kJ/mol
# Density = 2.323890 g / cm^3
# Si number density = 23.291918 Si / 1000 Ang^3
#
#
#
# Elastic Constant Matrix: (Units=GPa)
#
#
# Indices 1 2 3 4 5 6 
#
# 1 76.1863 50.5887 25.1656 0.0000 -14.3790 0.0000
# 2 50.5887 111.7940 43.4114 0.0000 -5.1459 0.0000
# 3 25.1656 43.4114 109.7434 0.0000 -21.9933 0.0000
# 4 0.0000 0.0000 0.0000 15.5882 0.0000 -0.7944
# 5 -14.3790 -5.1459 -21.9933 0.0000 17.3106 0.0000
# 6 0.0000 0.0000 0.0000 -0.7944 0.0000 19.7428
#
#
#
# Elastic Compliance Matrix: (Units=1/GPa)
#
#
# Indices 1 2 3 4 5 6 
#
# 1 0.022869 -0.010552 0.002828 0.000000 0.019453 0.000000
# 2 -0.010552 0.015547 -0.006119 0.000000 -0.011917 0.000000
# 3 0.002828 -0.006119 0.014744 0.000000 0.019263 0.000000
# 4 0.000000 0.000000 0.000000 0.064283 0.000000 0.002586
# 5 0.019453 -0.011917 0.019263 0.000000 0.094858 0.000000
# 6 0.000000 0.000000 0.000000 0.002586 0.000000 0.050756
#
#
# Mechanical properties :
#
#
# Convention : Reuss Voigt Hill
#
# Bulk Modulus (GPa) = 39.25119 59.56169 49.40644
# Shear Modulus (GPa) = 16.70934 22.43219 19.57076
#
# Velocity S-wave (km/s) = 2.68132 3.10673 2.90183
# Velocity P-wave (km/s) = 5.14532 6.20455 5.69960
#
# Compressibility (1/GPa) = 0.02547694
#
# Stress axis : x y z
#
# Youngs Moduli (GPa) = 43.72672 64.32022 67.82206
#
# Poissons Ratio (x) = 0.67868 -0.19181
# Poissons Ratio (y) = 0.46138 0.41498
# Poissons Ratio (z) = -0.12366 0.39355
#
# Static dielectric constant tensor:
#      x y z
#    x 1.949460 0.000000 0.080080 
#    y 0.000000 1.825970 0.000000 
#    z 0.080080 0.000000 2.036220 
# 
# From -- ./inp_files/1400.got.cif
#   From: 2010.05.17/outbox.cif.g08.bks.cpg/sg9_1_cif.got.tgz:1400.got - 2010.06.03 20:04:27.
