data_PCOD9139375
_publ_section_title
;
Structure prediction by ZEFSAII (Michael W. Deem and Ramdas Pophale) SiO2 
 PCOD9139375
Probable space group: C C
;
_chemical_formula_sum "Si O2"
_cell_formula_units_Z 24
_cell_length_a 4.751343
_cell_length_b 14.110635
_cell_length_c 13.742809
_cell_angle_alpha 90.000000
_cell_angle_beta 97.140027
_cell_angle_gamma 90.000000
_cell_volume 914.234326
_symmetry_space_group_name_H-M "C C"
_symmetry_group_IT_number 9
_symmetry_cell_setting 'monoclinic'
loop_
_space_group_symop_operation_xyz
x,y,z
x,-y,1/2+z
1/2+x,1/2+y,z
1/2+x,1/2-y,1/2+z
loop_
_atom_site_type_symbol
_atom_site_label
_atom_site_fract_x
_atom_site_fract_y
_atom_site_fract_z
Si Si1 0.563630 0.582096 0.728140
Si Si2 0.592590 0.494537 0.938691
Si Si3 0.643182 0.660134 0.077355
Si Si4 0.236583 0.694814 0.410438
Si Si5 0.189301 0.759738 0.778349
Si Si6 0.023377 0.490221 0.112792
O O1 0.622568 0.529449 0.830927
O O2 0.385967 0.675146 0.746202
O O3 0.850127 0.578978 0.678677
O O4 0.346610 0.523096 0.651776
O O5 0.396909 0.403426 0.931558
O O6 0.485912 0.586129 0.997513
O O7 0.888980 0.468268 0.002575
O O8 0.538890 0.694268 0.177790
O O9 0.920152 0.598597 0.119927
O O10 0.704176 0.749189 0.010415
O O11 0.445778 0.756837 0.348513
O O12 0.933888 0.681394 0.345261
#
# Coordination Sequence:
#
# PCOD9139375 Si02
#       6
#     4   4   4   4   4   4
#     4  12  23  46  72 106 149 195 250 314 385 450
#     4  10  25  47  73 108 151 200 257 314 391 457
#     4  10  25  50  71 116 146 202 264 310 390 466
#     4  12  26  49  74 111 153 203 253 324 391 456
#     4  12  26  46  76 111 153 197 260 323 380 472
#     4  10  25  42  70 104 142 197 242 317 369 459
#
# _framework density 26.251479
#
# number of rings (size 3 to 8) (size 9 to 14) (size 15 to 20)
#    1.000    0.000    1.667    4.000    0.000    8.000 
#    0.000    0.000    0.000    0.000    0.000    0.000 
#    0.000    0.000    0.000    0.000    0.000    0.000 
#
# Total GULP energy -67189.182674 kJ/mol
# GULP energy per Si atom -5599.098556 kJ/mol
# Density = 2.619173 g / cm^3
# Si number density = 26.251479 Si / 1000 Ang^3
#
#
#
# Elastic Constant Matrix: (Units=GPa)
#
#
# Indices 1 2 3 4 5 6 
#
# 1 116.6829 13.7825 41.9888 0.0000 7.7923 0.0000
# 2 13.7825 95.7435 23.7320 0.0000 7.5472 0.0000
# 3 41.9888 23.7320 166.2059 0.0000 14.1701 0.0000
# 4 0.0000 0.0000 0.0000 52.4209 0.0000 0.0514
# 5 7.7923 7.5472 14.1701 0.0000 24.3501 0.0000
# 6 0.0000 0.0000 0.0000 0.0514 0.0000 35.9974
#
#
#
# Elastic Compliance Matrix: (Units=1/GPa)
#
#
# Indices 1 2 3 4 5 6 
#
# 1 0.009542 -0.000711 -0.002175 0.000000 -0.001567 0.000000
# 2 -0.000711 0.011038 -0.001183 0.000000 -0.002505 0.000000
# 3 -0.002175 -0.001183 0.006991 0.000000 -0.003006 0.000000
# 4 0.000000 0.000000 0.000000 0.019076 0.000000 -0.000027
# 5 -0.001567 -0.002505 -0.003006 0.000000 0.044095 0.000000
# 6 0.000000 0.000000 0.000000 -0.000027 0.000000 0.027780
#
#
# Mechanical properties :
#
#
# Convention : Reuss Voigt Hill
#
# Bulk Modulus (GPa) = 51.46024 59.73765 55.59895
# Shear Modulus (GPa) = 37.55525 42.49561 40.02543
#
# Velocity S-wave (km/s) = 3.78642 4.02778 3.90897
# Velocity P-wave (km/s) = 6.22586 6.66604 6.44971
#
# Compressibility (1/GPa) = 0.01943248
#
# Stress axis : x y z
#
# Youngs Moduli (GPa) = 104.80323 90.59962 143.03357
#
# Poissons Ratio (x) = 0.06440 0.31116
# Poissons Ratio (y) = 0.07449 0.16919
# Poissons Ratio (z) = 0.22799 0.10717
#
# Static dielectric constant tensor:
#      x y z
#    x 2.042980 0.000000 -0.059400 
#    y 0.000000 2.342920 0.000000 
#    z -0.059400 0.000000 2.020240 
# 
# From -- ./inp_files/21705.got.cif
#   From: 2010.05.17/outbox.cif.g08.bks.cpg/sg9_11_cif.got.tgz:21705.got - 2010.06.03 20:04:27.
