data_PCOD9139220
_publ_section_title
;
Structure prediction by ZEFSAII (Michael W. Deem and Ramdas Pophale) SiO2 
 PCOD9139220
Probable space group: C C
;
_chemical_formula_sum "Si O2"
_cell_formula_units_Z 32
_cell_length_a 7.516125
_cell_length_b 14.324622
_cell_length_c 11.847969
_cell_angle_alpha 90.000000
_cell_angle_beta 67.646833
_cell_angle_gamma 90.000000
_cell_volume 1179.765684
_symmetry_space_group_name_H-M "C C"
_symmetry_group_IT_number 9
_symmetry_cell_setting 'monoclinic'
loop_
_space_group_symop_operation_xyz
x,y,z
x,-y,1/2+z
1/2+x,1/2+y,z
1/2+x,1/2-y,1/2+z
loop_
_atom_site_type_symbol
_atom_site_label
_atom_site_fract_x
_atom_site_fract_y
_atom_site_fract_z
Si Si1 0.396920 0.201592 0.670350
Si Si2 0.337238 0.060302 0.064063
Si Si3 0.962774 0.099107 0.485786
Si Si4 0.046242 0.317731 0.694753
Si Si5 0.291078 0.239048 0.948399
Si Si6 0.678757 0.532815 0.795015
Si Si7 0.132677 0.457365 0.881776
Si Si8 0.350285 0.367145 0.265835
O O1 0.227823 0.247772 0.635356
O O2 0.351384 0.249324 0.803330
O O3 0.596531 0.220866 0.557093
O O4 0.364460 0.094722 0.720487
O O5 0.490284 0.115104 0.106127
O O6 0.166021 0.036639 0.190506
O O7 0.274028 0.130921 0.982702
O O8 0.434547 0.967368 0.995130
O O9 0.967727 0.209950 0.467579
O O10 0.799394 0.070266 0.431405
O O11 0.907777 0.091833 0.629032
O O12 0.139956 0.035558 0.407279
O O13 0.097866 0.387554 0.786125
O O14 0.867411 0.244945 0.755241
O O15 0.507756 0.606946 0.823117
O O16 0.173846 0.565492 0.837608
#
# Coordination Sequence:
#
# PCOD9139220 Si02
#       8
#     4   4   4   4   4   4   4   4
#     4  11  27  49  76 109 151 210 256 319 402 469
#     4  12  27  44  71 113 142 199 253 322 391 472
#     4  11  22  47  72 104 147 196 245 326 379 468
#     4  11  25  49  72 110 150 202 256 325 389 475
#     4  12  26  46  76 109 155 199 257 320 398 469
#     4  10  26  45  72 108 145 194 256 317 392 470
#     4  11  25  44  75 105 153 195 256 319 396 466
#     4  10  24  46  72 108 147 197 253 316 391 469
#
# _framework density 27.124030000000001
#
# number of rings (size 3 to 8) (size 9 to 14) (size 15 to 20)
#    0.000    1.000    2.500    2.250    7.000    4.000 
#    4.500    0.000    0.000    0.000    0.000    0.000 
#    0.000    0.000    0.000    0.000    0.000    0.000 
#
# Total GULP energy -89338.315375 kJ/mol
# GULP energy per Si atom -5583.644711 kJ/mol
# Density = 2.706229 g / cm^3
# Si number density = 27.124030 Si / 1000 Ang^3
#
#
#
# Elastic Constant Matrix: (Units=GPa)
#
#
# Indices 1 2 3 4 5 6 
#
# 1 105.9818 30.3197 45.9590 0.0000 11.6194 0.0000
# 2 30.3197 128.8477 24.1643 0.0000 -8.2283 0.0000
# 3 45.9590 24.1643 121.6478 0.0000 -12.4441 0.0000
# 4 0.0000 0.0000 0.0000 46.3855 0.0000 1.4463
# 5 11.6194 -8.2283 -12.4441 0.0000 44.4541 0.0000
# 6 0.0000 0.0000 0.0000 1.4463 0.0000 46.8232
#
#
#
# Elastic Compliance Matrix: (Units=1/GPa)
#
#
# Indices 1 2 3 4 5 6 
#
# 1 0.012817 -0.002429 -0.004888 0.000000 -0.005168 0.000000
# 2 -0.002429 0.008572 -0.000574 0.000000 0.002061 0.000000
# 3 -0.004888 -0.000574 0.010605 0.000000 0.004140 0.000000
# 4 0.000000 0.000000 0.000000 0.021579 0.000000 -0.000667
# 5 -0.005168 0.002061 0.004140 0.000000 0.025386 0.000000
# 6 0.000000 0.000000 0.000000 -0.000667 0.000000 0.021378
#
#
# Mechanical properties :
#
#
# Convention : Reuss Voigt Hill
#
# Bulk Modulus (GPa) = 61.68959 61.92928 61.80944
# Shear Modulus (GPa) = 41.14403 44.60153 42.87278
#
# Velocity S-wave (km/s) = 3.89895 4.05946 3.98001
# Velocity P-wave (km/s) = 6.56216 6.69730 6.63007
#
# Compressibility (1/GPa) = 0.01621019
#
# Stress axis : x y z
#
# Youngs Moduli (GPa) = 78.02097 116.65843 94.29602
#
# Poissons Ratio (x) = 0.28340 0.46096
# Poissons Ratio (y) = 0.18954 0.05414
# Poissons Ratio (z) = 0.38140 0.06698
#
# Static dielectric constant tensor:
#      x y z
#    x 2.219570 0.000000 0.050200 
#    y 0.000000 2.183230 0.000000 
#    z 0.050200 0.000000 2.148490 
# 
# From -- ./inp_files/14705.got.cif
#   From: 2010.05.17/outbox.cif.g08.bks.cpg/sg9_8_cif.got.tgz:14705.got - 2010.06.03 20:04:27.
