data_PCOD9139392
_publ_section_title
;
Structure prediction by ZEFSAII (Michael W. Deem and Ramdas Pophale) SiO2 
 PCOD9139392
Probable space group: C C
;
_chemical_formula_sum "Si O2"
_cell_formula_units_Z 32
_cell_length_a 9.828053
_cell_length_b 15.729347
_cell_length_c 9.462888
_cell_angle_alpha 90.000000
_cell_angle_beta 85.840388
_cell_angle_gamma 90.000000
_cell_volume 1459.003653
_symmetry_space_group_name_H-M "C C"
_symmetry_group_IT_number 9
_symmetry_cell_setting 'monoclinic'
loop_
_space_group_symop_operation_xyz
x,y,z
x,-y,1/2+z
1/2+x,1/2+y,z
1/2+x,1/2-y,1/2+z
loop_
_atom_site_type_symbol
_atom_site_label
_atom_site_fract_x
_atom_site_fract_y
_atom_site_fract_z
Si Si1 0.983430 0.043252 0.132550
Si Si2 0.687656 0.943983 0.630697
Si Si3 0.798192 0.322775 0.044389
Si Si4 0.260630 0.076176 0.256328
Si Si5 0.457515 0.167649 0.041640
Si Si6 0.501012 0.350154 0.117020
Si Si7 0.972428 0.579088 0.737013
Si Si8 0.365339 0.360135 0.421128
O O1 0.985670 0.947471 0.072427
O O2 0.830898 0.062714 0.203778
O O3 0.104993 0.055043 0.231936
O O4 0.995543 0.107271 0.999841
O O5 0.575216 0.868884 0.639753
O O6 0.753765 0.932295 0.468659
O O7 0.606838 0.028808 0.675249
O O8 0.779752 0.380085 0.906152
O O9 0.812940 0.226721 0.992488
O O10 0.659781 0.336225 0.142792
O O11 0.926963 0.352170 0.125005
O O12 0.320167 0.137603 0.129503
O O13 0.352940 0.991845 0.246227
O O14 0.466961 0.268949 0.023295
O O15 0.477502 0.121044 0.890802
O O16 0.403254 0.345111 0.259169
#
# Coordination Sequence:
#
# PCOD9139392 Si02
#       8
#     4   4   4   4   4   4   4   4
#     4  10  25  43  74 101 144 192 237 305 374 444
#     4   9  23  46  68  99 149 193 237 305 366 442
#     4  12  25  46  74 104 149 193 249 315 361 448
#     4  11  23  45  76 107 141 193 241 306 375 437
#     4  11  24  46  74 103 146 196 247 303 368 449
#     4  12  24  44  72 104 146 194 242 313 371 434
#     4  11  25  44  74 110 139 198 253 293 366 455
#     4  10  25  48  66 104 150 193 240 308 377 439
#
# _framework density 21.932776
#
# number of rings (size 3 to 8) (size 9 to 14) (size 15 to 20)
#    0.750    0.500    3.750    1.500    5.250    1.000 
#    2.250    0.000    0.000    0.000    0.000    0.000 
#    0.000    0.000    0.000    0.000    0.000    0.000 
#
# Total GULP energy -89257.261093 kJ/mol
# GULP energy per Si atom -5578.578818 kJ/mol
# Density = 2.188286 g / cm^3
# Si number density = 21.932776 Si / 1000 Ang^3
#
#
#
# Elastic Constant Matrix: (Units=GPa)
#
#
# Indices 1 2 3 4 5 6 
#
# 1 124.2522 20.4622 40.1303 0.0000 3.0379 0.0000
# 2 20.4622 74.4291 26.3939 0.0000 -4.2111 0.0000
# 3 40.1303 26.3939 72.4785 0.0000 -4.2867 0.0000
# 4 0.0000 0.0000 0.0000 29.4424 0.0000 -5.3707
# 5 3.0379 -4.2111 -4.2867 0.0000 30.9499 0.0000
# 6 0.0000 0.0000 0.0000 -5.3707 0.0000 27.0742
#
#
#
# Elastic Compliance Matrix: (Units=1/GPa)
#
#
# Indices 1 2 3 4 5 6 
#
# 1 0.009954 -0.000973 -0.005266 0.000000 -0.001839 0.000000
# 2 -0.000973 0.015578 -0.005044 0.000000 0.001516 0.000000
# 3 -0.005266 -0.005044 0.018693 0.000000 0.002420 0.000000
# 4 0.000000 0.000000 0.000000 0.035240 0.000000 0.006990
# 5 -0.001839 0.001516 0.002420 0.000000 0.033032 0.000000
# 6 0.000000 0.000000 0.000000 0.006990 0.000000 0.038322
#
#
# Mechanical properties :
#
#
# Convention : Reuss Voigt Hill
#
# Bulk Modulus (GPa) = 46.17216 49.45916 47.81566
# Shear Modulus (GPa) = 27.68475 29.77152 28.72814
#
# Velocity S-wave (km/s) = 3.55668 3.68829 3.62308
# Velocity P-wave (km/s) = 6.16149 6.38257 6.27301
#
# Compressibility (1/GPa) = 0.02165807
#
# Stress axis : x y z
#
# Youngs Moduli (GPa) = 100.46123 64.19404 53.49653
#
# Poissons Ratio (x) = 0.06248 0.28170
# Poissons Ratio (y) = 0.09778 0.26985
# Poissons Ratio (z) = 0.52900 0.32381
#
# Static dielectric constant tensor:
#      x y z
#    x 1.847560 0.000000 0.011830 
#    y 0.000000 1.801100 0.000000 
#    z 0.011830 0.000000 1.812510 
# 
# From -- ./inp_files/7949.got.cif
#   From: 2010.05.17/outbox.cif.g08.bks.cpg/sg9_4_cif.got.tgz:7949.got - 2010.06.03 20:04:27.
