data_PCOD9139357
_publ_section_title
;
Structure prediction by ZEFSAII (Michael W. Deem and Ramdas Pophale) SiO2 
 PCOD9139357
Probable space group: C C
;
_chemical_formula_sum "Si O2"
_cell_formula_units_Z 32
_cell_length_a 9.649570
_cell_length_b 19.623024
_cell_length_c 14.972622
_cell_angle_alpha 90.000000
_cell_angle_beta 150.233204
_cell_angle_gamma 90.000000
_cell_volume 1407.555843
_symmetry_space_group_name_H-M "C C"
_symmetry_group_IT_number 9
_symmetry_cell_setting 'monoclinic'
loop_
_space_group_symop_operation_xyz
x,y,z
x,-y,1/2+z
1/2+x,1/2+y,z
1/2+x,1/2-y,1/2+z
loop_
_atom_site_type_symbol
_atom_site_label
_atom_site_fract_x
_atom_site_fract_y
_atom_site_fract_z
Si Si1 0.363840 0.091950 0.923510
Si Si2 0.694904 0.149220 0.854704
Si Si3 0.843955 0.874641 0.245160
Si Si4 0.607568 0.809707 0.704857
Si Si5 0.232938 0.783612 0.655858
Si Si6 0.905443 0.419194 0.860374
Si Si7 0.297466 0.470736 0.549799
Si Si8 0.137276 0.832767 0.124678
O O1 0.212102 0.112856 0.744699
O O2 0.099534 0.084438 0.842827
O O3 0.535262 0.148470 0.075904
O O4 0.622242 0.042580 0.042718
O O5 0.798434 0.112782 0.823396
O O6 0.374370 0.168418 0.681212
O O7 0.733094 0.095048 0.954057
O O8 0.898516 0.213952 0.978702
O O9 0.850912 0.792005 0.236453
O O10 0.568511 0.897409 0.039420
O O11 0.336525 0.804747 0.615975
O O12 0.665449 0.735140 0.699329
O O13 0.849207 0.834729 0.908187
O O14 0.329988 0.847068 0.771606
O O15 0.633605 0.465306 0.733664
O O16 0.127122 0.462072 0.923756
#
# Coordination Sequence:
#
# PCOD9139357 Si02
#       8
#     4   4   4   4   4   4   4   4
#     4  11  23  42  69  96 142 185 243 300 354 445
#     4  10  25  41  63  99 143 178 234 299 353 433
#     4  12  22  41  71 107 141 182 236 298 369 436
#     4  12  22  39  63 101 141 191 242 291 371 435
#     4  11  23  42  68 106 138 185 237 299 374 432
#     4  11  25  45  78  97 145 192 240 304 359 434
#     4  10  25  51  68 101 137 193 245 290 367 427
#     4  11  23  37  60  95 143 188 231 301 363 426
#
# _framework density 22.734445000000001
#
# number of rings (size 3 to 8) (size 9 to 14) (size 15 to 20)
#    0.000    1.000    3.750    2.250    3.500    2.000 
#    2.250    1.250    0.000    0.000    0.000    0.000 
#    0.000    0.000    0.000    0.000    0.000    0.000 
#
# Total GULP energy -89172.973379 kJ/mol
# GULP energy per Si atom -5573.310836 kJ/mol
# Density = 2.268270 g / cm^3
# Si number density = 22.734445 Si / 1000 Ang^3
#
#
#
# Elastic Constant Matrix: (Units=GPa)
#
#
# Indices 1 2 3 4 5 6 
#
# 1 108.7232 22.0666 35.2921 -0.0125 36.8099 0.0024
# 2 22.0666 87.4075 29.3291 0.0017 14.7011 0.0022
# 3 35.2921 29.3291 135.3063 0.0661 29.1073 0.0393
# 4 -0.0125 0.0017 0.0661 19.2782 0.0126 9.9707
# 5 36.8099 14.7011 29.1073 0.0126 33.3108 0.0097
# 6 0.0024 0.0022 0.0393 9.9707 0.0097 25.0662
#
#
#
# Elastic Compliance Matrix: (Units=1/GPa)
#
#
# Indices 1 2 3 4 5 6 
#
# 1 0.014795 -0.001009 -0.000270 0.000023 -0.015668 -0.000004
# 2 -0.001009 0.012816 -0.001894 0.000006 -0.002886 0.000001
# 3 -0.000270 -0.001894 0.009393 -0.000027 -0.007074 -0.000001
# 4 0.000023 0.000006 -0.000027 0.065308 -0.000021 -0.025978
# 5 -0.015668 -0.002886 -0.007074 -0.000021 0.054789 0.000000
# 6 -0.000004 0.000001 -0.000001 -0.025978 0.000000 0.050228
#
#
# Mechanical properties :
#
#
# Convention : Reuss Voigt Hill
#
# Bulk Modulus (GPa) = 32.61774 56.09029 44.35401
# Shear Modulus (GPa) = 22.33200 31.84764 27.08982
#
# Velocity S-wave (km/s) = 3.13756 3.74686 3.45567
# Velocity P-wave (km/s) = 5.24444 6.59121 5.95602
#
# Compressibility (1/GPa) = 0.03065816
#
# Stress axis : x y z
#
# Youngs Moduli (GPa) = 67.59235 78.02518 106.45860
#
# Poissons Ratio (x) = 0.07876 0.02871
# Poissons Ratio (y) = 0.06823 0.20163
# Poissons Ratio (z) = 0.01823 0.14778
#
# Static dielectric constant tensor:
#      x y z
#    x 1.841370 0.000070 0.016990 
#    y 0.000070 2.005930 -0.000040 
#    z 0.016990 -0.000040 1.936500 
# 
# From -- ./inp_files/10153.got.cif
#   From: 2010.05.17/outbox.cif.g08.bks.cpg/sg9_6_cif.got.tgz:10153.got - 2010.06.03 20:04:27.
