data_PCOD9139416
_publ_section_title
;
Structure prediction by ZEFSAII (Michael W. Deem and Ramdas Pophale) SiO2 
 PCOD9139416
Probable space group: C C
;
_chemical_formula_sum "Si O2"
_cell_formula_units_Z 32
_cell_length_a 6.721794
_cell_length_b 25.082641
_cell_length_c 9.376792
_cell_angle_alpha 90.000000
_cell_angle_beta 65.277511
_cell_angle_gamma 90.000000
_cell_volume 1436.028764
_symmetry_space_group_name_H-M "C C"
_symmetry_group_IT_number 9
_symmetry_cell_setting 'monoclinic'
loop_
_space_group_symop_operation_xyz
x,y,z
x,-y,1/2+z
1/2+x,1/2+y,z
1/2+x,1/2-y,1/2+z
loop_
_atom_site_type_symbol
_atom_site_label
_atom_site_fract_x
_atom_site_fract_y
_atom_site_fract_z
Si Si1 0.147080 0.207803 0.246470
Si Si2 0.326694 0.624273 0.714101
Si Si3 0.912003 0.993661 0.278613
Si Si4 0.288706 0.833827 0.006085
Si Si5 0.703287 0.474794 0.448624
Si Si6 0.534433 0.933120 0.786342
Si Si7 0.940580 0.380773 0.515867
Si Si8 0.710481 0.198225 0.517694
O O1 0.218823 0.200290 0.389011
O O2 0.254909 0.157991 0.132626
O O3 0.235689 0.258702 0.135859
O O4 0.883409 0.207400 0.339159
O O5 0.320913 0.561064 0.739852
O O6 0.574019 0.646083 0.654514
O O7 0.262226 0.641391 0.574194
O O8 0.144062 0.647236 0.876027
O O9 0.987493 0.979566 0.415474
O O10 0.751656 0.043343 0.296709
O O11 0.131019 0.007060 0.126686
O O12 0.420971 0.885415 0.908365
O O13 0.461372 0.800727 0.044143
O O14 0.820819 0.418563 0.436351
O O15 0.872748 0.516965 0.337858
O O16 0.543157 0.912473 0.620476
#
# Coordination Sequence:
#
# PCOD9139416 Si02
#       8
#     4   4   4   4   4   4   4   4
#     4  10  25  50  70 104 136 174 237 293 357 431
#     4  11  24  42  67 102 141 179 237 283 345 426
#     4  12  26  39  67 102 144 190 237 290 350 416
#     4  10  25  44  73 104 136 186 231 291 357 419
#     4  12  25  41  65 101 141 191 237 290 347 418
#     4  11  24  44  65  98 144 188 236 287 346 417
#     4  11  24  47  70 102 145 188 237 295 354 421
#     4  11  25  47  75 101 135 180 228 301 358 424
#
# _framework density 22.283678999999999
#
# number of rings (size 3 to 8) (size 9 to 14) (size 15 to 20)
#    0.000    1.000    3.750    1.500    5.250    2.000 
#    2.250    0.000    0.000    0.000    0.000    0.000 
#    0.000    0.000    0.000    0.000    0.000    0.000 
#
# Total GULP energy -89411.239348 kJ/mol
# GULP energy per Si atom -5588.202459 kJ/mol
# Density = 2.223296 g / cm^3
# Si number density = 22.283679 Si / 1000 Ang^3
#
#
#
# Elastic Constant Matrix: (Units=GPa)
#
#
# Indices 1 2 3 4 5 6 
#
# 1 94.1140 23.3414 46.8919 0.0000 -1.5886 0.0000
# 2 23.3414 69.4818 35.4783 0.0000 9.0378 0.0000
# 3 46.8919 35.4783 106.5338 0.0000 -27.3887 0.0000
# 4 0.0000 0.0000 0.0000 33.9114 0.0000 -7.8256
# 5 -1.5886 9.0378 -27.3887 0.0000 38.7305 0.0000
# 6 0.0000 0.0000 0.0000 -7.8256 0.0000 22.7275
#
#
#
# Elastic Compliance Matrix: (Units=1/GPa)
#
#
# Indices 1 2 3 4 5 6 
#
# 1 0.014295 -0.000523 -0.007255 0.000000 -0.004422 0.000000
# 2 -0.000523 0.021178 -0.009898 0.000000 -0.011963 0.000000
# 3 -0.007255 -0.009898 0.020037 0.000000 0.016181 0.000000
# 4 0.000000 0.000000 0.000000 0.032034 0.000000 0.011030
# 5 -0.004422 -0.011963 0.016181 0.000000 0.039872 0.000000
# 6 0.000000 0.000000 0.000000 0.011030 0.000000 0.047797
#
#
# Mechanical properties :
#
#
# Convention : Reuss Voigt Hill
#
# Bulk Modulus (GPa) = 49.60851 53.50586 51.55719
# Shear Modulus (GPa) = 23.01126 30.03508 26.52317
#
# Velocity S-wave (km/s) = 3.21697 3.67529 3.45374
# Velocity P-wave (km/s) = 6.00909 6.48643 6.25231
#
# Compressibility (1/GPa) = 0.02015783
#
# Stress axis : x y z
#
# Youngs Moduli (GPa) = 69.95374 47.21839 49.90878
#
# Poissons Ratio (x) = 0.02467 0.36209
# Poissons Ratio (y) = 0.03655 0.49402
# Poissons Ratio (z) = 0.50752 0.46739
#
# Static dielectric constant tensor:
#      x y z
#    x 1.872810 0.000000 -0.012740 
#    y 0.000000 1.816480 0.000000 
#    z -0.012740 0.000000 1.803910 
# 
# From -- ./inp_files/4327.got.cif
#   From: 2010.05.17/outbox.cif.g08.bks.cpg/sg9_3_cif.got.tgz:4327.got - 2010.06.03 20:04:27.
