data_PCOD9139921
_publ_section_title
;
Structure prediction by ZEFSAII (Michael W. Deem and Ramdas Pophale) SiO2 
 PCOD9139921
Probable space group: C C
;
_chemical_formula_sum "Si O2"
_cell_formula_units_Z 32
_cell_length_a 19.042738
_cell_length_b 12.962872
_cell_length_c 10.861207
_cell_angle_alpha 90.000000
_cell_angle_beta 28.999432
_cell_angle_gamma 90.000000
_cell_volume 1299.786966
_symmetry_space_group_name_H-M "C C"
_symmetry_group_IT_number 9
_symmetry_cell_setting 'monoclinic'
loop_
_space_group_symop_operation_xyz
x,y,z
x,-y,1/2+z
1/2+x,1/2+y,z
1/2+x,1/2-y,1/2+z
loop_
_atom_site_type_symbol
_atom_site_label
_atom_site_fract_x
_atom_site_fract_y
_atom_site_fract_z
Si Si1 0.844740 0.694561 0.946990
Si Si2 0.405956 0.663017 0.133217
Si Si3 0.249671 0.716742 0.959651
Si Si4 0.612510 0.941316 0.834144
Si Si5 0.083919 0.964414 0.872623
Si Si6 0.002803 0.176776 0.712914
Si Si7 0.324597 0.400820 0.113693
Si Si8 0.084241 0.424777 0.153064
O O1 0.891453 0.735891 0.740434
O O2 0.985373 0.676089 0.817240
O O3 0.736089 0.596885 0.122096
O O4 0.782929 0.799369 0.101480
O O5 0.254022 0.602773 0.388949
O O6 0.544125 0.586437 0.943638
O O7 0.415714 0.683555 0.973583
O O8 0.158551 0.670457 0.213056
O O9 0.162559 0.799185 0.016469
O O10 0.407599 0.748047 0.766150
O O11 0.257171 0.621276 0.851769
O O12 0.758320 0.005815 0.639650
O O13 0.540945 0.998699 0.828372
O O14 0.539494 0.951608 0.079873
O O15 0.021397 0.921405 0.097365
O O16 0.988433 0.926108 0.901547
#
# Coordination Sequence:
#
# PCOD9139921 Si02
#       8
#     4   4   4   4   4   4   4   4
#     4  12  27  47  73 115 150 193 254 326 385 463
#     4  12  25  45  77 107 151 200 254 322 389 475
#     4  11  22  42  71 100 143 189 255 311 380 467
#     4  12  22  45  72 100 137 202 245 299 378 476
#     4  11  25  49  74 108 149 201 257 316 393 473
#     4  11  24  45  70 109 147 200 255 317 401 464
#     4  11  22  41  71 100 140 194 249 299 380 469
#     4  12  25  46  74 109 147 195 257 308 396 471
#
# _framework density 24.619418
#
# number of rings (size 3 to 8) (size 9 to 14) (size 15 to 20)
#    0.000    0.500    6.250    2.250    1.750    0.000 
#    4.500    0.000    0.000    0.000    0.000    0.000 
#    0.000    0.000    0.000    0.000    0.000    0.000 
#
# Total GULP energy -89165.852403 kJ/mol
# GULP energy per Si atom -5572.865775 kJ/mol
# Density = 2.456338 g / cm^3
# Si number density = 24.619418 Si / 1000 Ang^3
#
#
#
# Elastic Constant Matrix: (Units=GPa)
#
#
# Indices 1 2 3 4 5 6 
#
# 1 146.7306 31.8967 23.2488 0.0000 14.6504 0.0000
# 2 31.8967 56.2935 11.8715 0.0000 -9.7215 0.0000
# 3 23.2488 11.8715 76.8369 0.0000 10.0724 0.0000
# 4 0.0000 0.0000 0.0000 23.8752 0.0000 -3.0520
# 5 14.6504 -9.7215 10.0724 0.0000 35.6633 0.0000
# 6 0.0000 0.0000 0.0000 -3.0520 0.0000 50.8208
#
#
#
# Elastic Compliance Matrix: (Units=1/GPa)
#
#
# Indices 1 2 3 4 5 6 
#
# 1 0.008661 -0.005480 -0.001154 0.000000 -0.004726 0.000000
# 2 -0.005480 0.023170 -0.003162 0.000000 0.009460 0.000000
# 3 -0.001154 -0.003162 0.014438 0.000000 -0.004465 0.000000
# 4 0.000000 0.000000 0.000000 0.042208 0.000000 0.002535
# 5 -0.004726 0.009460 -0.004465 0.000000 0.033821 0.000000
# 6 0.000000 0.000000 0.000000 0.002535 0.000000 0.019829
#
#
# Mechanical properties :
#
#
# Convention : Reuss Voigt Hill
#
# Bulk Modulus (GPa) = 37.48709 45.98833 41.73771
# Shear Modulus (GPa) = 29.30618 36.26146 32.78382
#
# Velocity S-wave (km/s) = 3.45391 3.84198 3.65310
# Velocity P-wave (km/s) = 5.58263 6.19688 5.89775
#
# Compressibility (1/GPa) = 0.02667585
#
# Stress axis : x y z
#
# Youngs Moduli (GPa) = 115.45603 43.15978 69.26306
#
# Poissons Ratio (x) = 0.23653 0.07996
# Poissons Ratio (y) = 0.63273 0.21899
# Poissons Ratio (z) = 0.13329 0.13646
#
# Static dielectric constant tensor:
#      x y z
#    x 1.932440 0.000000 0.026680 
#    y 0.000000 2.023630 0.000000 
#    z 0.026680 0.000000 2.124250 
# 
# From -- ./inp_files/19414.got.cif
#   From: 2010.05.17/outbox.cif.g08.bks.cpg/sg9_10_cif.got.tgz:19414.got - 2010.06.03 20:04:27.
