data_PCOD9139576
_publ_section_title
;
Structure prediction by ZEFSAII (Michael W. Deem and Ramdas Pophale) SiO2 
 PCOD9139576
Probable space group: C C
;
_chemical_formula_sum "Si O2"
_cell_formula_units_Z 24
_cell_length_a 19.793152
_cell_length_b 5.364015
_cell_length_c 22.815557
_cell_angle_alpha 90.000000
_cell_angle_beta 156.081885
_cell_angle_gamma 90.000000
_cell_volume 982.092892
_symmetry_space_group_name_H-M "C C"
_symmetry_group_IT_number 9
_symmetry_cell_setting 'monoclinic'
loop_
_space_group_symop_operation_xyz
x,y,z
x,-y,1/2+z
1/2+x,1/2+y,z
1/2+x,1/2-y,1/2+z
loop_
_atom_site_type_symbol
_atom_site_label
_atom_site_fract_x
_atom_site_fract_y
_atom_site_fract_z
Si Si1 0.059690 0.301108 0.069420
Si Si2 0.825872 0.580061 0.204300
Si Si3 0.466041 0.539674 0.731933
Si Si4 0.034121 0.959080 0.150636
Si Si5 0.618673 0.758284 0.456941
Si Si6 0.863497 0.808265 0.913129
O O1 0.233839 0.272945 0.173731
O O2 0.070287 0.221334 0.146646
O O3 0.977707 0.565824 0.993732
O O4 0.943164 0.067919 0.955307
O O5 0.946594 0.702889 0.251593
O O6 0.945360 0.394064 0.334588
O O7 0.682364 0.441018 0.054344
O O8 0.526915 0.535790 0.714023
O O9 0.580125 0.369930 0.864100
O O10 0.275794 0.441184 0.578698
O O11 0.183297 0.775300 0.250064
O O12 0.868690 0.855178 0.988094
#
# Coordination Sequence:
#
# PCOD9139576 Si02
#       6
#     4   4   4   4   4   4
#     4  10  27  44  74 102 149 181 243 283 367 418
#     4  11  25  44  72 102 143 185 240 296 359 430
#     4  11  25  46  69 105 140 188 237 298 357 432
#     4  10  27  43  73 101 147 183 242 292 360 423
#     4  10  26  43  71 102 139 187 233 295 361 429
#     4  10  26  46  71 106 136 192 231 300 348 432
#
# _framework density 24.437608000000001
#
# number of rings (size 3 to 8) (size 9 to 14) (size 15 to 20)
#    1.000    0.667    0.000    1.000   16.333    2.667 
#    0.000    0.000    0.000    0.000    0.000    0.000 
#    0.000    0.000    0.000    0.000    0.000    0.000 
#
# Total GULP energy -67074.753758 kJ/mol
# GULP energy per Si atom -5589.562813 kJ/mol
# Density = 2.438199 g / cm^3
# Si number density = 24.437608 Si / 1000 Ang^3
#
#
#
# Elastic Constant Matrix: (Units=GPa)
#
#
# Indices 1 2 3 4 5 6 
#
# 1 117.3643 20.9129 14.6238 -0.0001 -15.3458 -0.0001
# 2 20.9129 97.2830 31.5896 -0.0001 -15.0723 0.0012
# 3 14.6238 31.5896 101.5111 0.0009 -29.2479 0.0004
# 4 -0.0001 -0.0001 0.0009 32.7741 0.0002 -1.9264
# 5 -15.3458 -15.0723 -29.2479 0.0002 22.3775 0.0001
# 6 -0.0001 0.0012 0.0004 -1.9264 0.0001 22.5965
#
#
#
# Elastic Compliance Matrix: (Units=1/GPa)
#
#
# Indices 1 2 3 4 5 6 
#
# 1 0.009543 -0.001304 0.001064 0.000000 0.007057 0.000000
# 2 -0.001304 0.011957 -0.002358 0.000000 0.004077 -0.000001
# 3 0.001064 -0.002358 0.016336 -0.000001 0.020493 0.000000
# 4 0.000000 0.000000 -0.000001 0.030666 -0.000001 0.002614
# 5 0.007057 0.004077 0.020493 -0.000001 0.079059 -0.000001
# 6 0.000000 -0.000001 0.000000 0.002614 -0.000001 0.044478
#
#
# Mechanical properties :
#
#
# Convention : Reuss Voigt Hill
#
# Bulk Modulus (GPa) = 30.63647 50.04567 40.34107
# Shear Modulus (GPa) = 24.02524 32.15175 28.08850
#
# Velocity S-wave (km/s) = 3.13889 3.63115 3.39395
# Velocity P-wave (km/s) = 5.06958 6.17282 5.64820
#
# Compressibility (1/GPa) = 0.03264084
#
# Stress axis : x y z
#
# Youngs Moduli (GPa) = 104.78975 83.63280 61.21283
#
# Poissons Ratio (x) = 0.10903 -0.06515
# Poissons Ratio (y) = 0.13661 0.14437
# Poissons Ratio (z) = -0.11153 0.19724
#
# Static dielectric constant tensor:
#      x y z
#    x 1.920080 0.000000 -0.017850 
#    y 0.000000 1.994180 0.000000 
#    z -0.017850 0.000000 1.914570 
# 
# From -- ./inp_files/11126.got.cif
#   From: 2010.05.17/outbox.cif.g08.bks.cpg/sg9_6_cif.got.tgz:11126.got - 2010.06.03 20:04:27.
