data_PCOD9139394
_publ_section_title
;
Structure prediction by ZEFSAII (Michael W. Deem and Ramdas Pophale) SiO2 
 PCOD9139394
Probable space group: C C
;
_chemical_formula_sum "Si O2"
_cell_formula_units_Z 28
_cell_length_a 5.064174
_cell_length_b 25.914313
_cell_length_c 8.356195
_cell_angle_alpha 90.000000
_cell_angle_beta 84.295572
_cell_angle_gamma 90.000000
_cell_volume 1091.191235
_symmetry_space_group_name_H-M "C C"
_symmetry_group_IT_number 9
_symmetry_cell_setting 'monoclinic'
loop_
_space_group_symop_operation_xyz
x,y,z
x,-y,1/2+z
1/2+x,1/2+y,z
1/2+x,1/2-y,1/2+z
loop_
_atom_site_type_symbol
_atom_site_label
_atom_site_fract_x
_atom_site_fract_y
_atom_site_fract_z
Si Si1 0.643900 0.995195 0.161980
Si Si2 0.808511 0.744422 0.764835
Si Si3 0.270101 0.392008 0.645147
Si Si4 0.395286 0.063517 0.391702
Si Si5 0.788839 0.360639 0.459347
Si Si6 0.340748 0.709166 0.581345
Si Si7 0.996596 0.903951 0.182493
O O1 0.793872 0.948995 0.240668
O O2 0.818566 0.046436 0.132610
O O3 0.376768 0.021753 0.250027
O O4 0.575610 0.969151 0.000331
O O5 0.781248 0.695845 0.885493
O O6 0.552831 0.744614 0.665539
O O7 0.052769 0.730850 0.637779
O O8 0.872688 0.789251 0.887718
O O9 0.554263 0.366374 0.604470
O O10 0.076490 0.390089 0.811941
O O11 0.073098 0.373330 0.516715
O O12 0.147190 0.080772 0.509126
O O13 0.704804 0.396510 0.314321
O O14 0.368392 0.651714 0.652533
#
# Coordination Sequence:
#
# PCOD9139394 Si02
#       7
#     4   4   4   4   4   4   4
#     4  10  25  44  65 105 144 193 241 299 359 431
#     4  11  25  49  79 112 145 201 241 318 378 459
#     4  10  26  44  69 105 141 192 243 298 354 435
#     4  10  26  40  70  97 145 192 243 291 361 417
#     4  11  24  47  74 101 144 189 244 300 374 428
#     4  11  26  50  78 112 151 193 253 307 391 438
#     4  11  26  44  75 102 148 196 243 307 365 444
#
# _framework density 25.660031
#
# number of rings (size 3 to 8) (size 9 to 14) (size 15 to 20)
#    0.857    0.571    0.000    3.429   12.000    2.286 
#    2.571    0.000    0.000    0.000    0.000    0.000 
#    0.000    0.000    0.000    0.000    0.000    0.000 
#
# Total GULP energy -78315.728018 kJ/mol
# GULP energy per Si atom -5593.980573 kJ/mol
# Density = 2.560163 g / cm^3
# Si number density = 25.660031 Si / 1000 Ang^3
#
#
#
# Elastic Constant Matrix: (Units=GPa)
#
#
# Indices 1 2 3 4 5 6 
#
# 1 88.5636 24.0946 -2.9346 0.0000 -5.8845 0.0000
# 2 24.0946 77.1828 22.6491 0.0000 6.4798 0.0000
# 3 -2.9346 22.6491 97.6968 0.0000 -26.6538 0.0000
# 4 0.0000 0.0000 0.0000 18.3239 0.0000 12.8139
# 5 -5.8845 6.4798 -26.6538 0.0000 39.0109 0.0000
# 6 0.0000 0.0000 0.0000 12.8139 0.0000 9.2047
#
#
#
# Elastic Compliance Matrix: (Units=1/GPa)
#
#
# Indices 1 2 3 4 5 6 
#
# 1 0.013191 -0.005412 0.002998 0.000000 0.004937 0.000000
# 2 -0.005412 0.017172 -0.006323 0.000000 -0.007989 0.000000
# 3 0.002998 -0.006323 0.014997 0.000000 0.011749 0.000000
# 4 0.000000 0.000000 0.000000 2.059506 0.000000 -2.867055
# 5 0.004937 -0.007989 0.011749 0.000000 0.035733 0.000000
# 6 0.000000 0.000000 0.000000 -2.867055 0.000000 4.099892
#
#
# Mechanical properties :
#
#
# Convention : Reuss Voigt Hill
#
# Bulk Modulus (GPa) = 35.86102 39.00681 37.43391
# Shear Modulus (GPa) = 0.79780 27.95017 14.37399
#
# Velocity S-wave (km/s) = 0.55820 3.30396 2.36936
# Velocity P-wave (km/s) = 3.79753 5.45795 4.70162
#
# Compressibility (1/GPa) = 0.02788543
#
# Stress axis : x y z
#
# Youngs Moduli (GPa) = 75.80868 58.23438 66.67959
#
# Poissons Ratio (x) = 0.31517 -0.19990
# Poissons Ratio (y) = 0.41029 0.42162
# Poissons Ratio (z) = -0.22726 0.36822
#
# Static dielectric constant tensor:
#      x y z
#    x 1.967480 0.000000 0.002820 
#    y 0.000000 2.048930 0.000000 
#    z 0.002820 0.000000 2.090490 
# 
# From -- ./inp_files/4294.got.cif
#   From: 2010.05.17/outbox.cif.g08.bks.cpg/sg9_3_cif.got.tgz:4294.got - 2010.06.03 20:04:27.
