data_PCOD9139367
_publ_section_title
;
Structure prediction by ZEFSAII (Michael W. Deem and Ramdas Pophale) SiO2 
 PCOD9139367
Probable space group: C C
;
_chemical_formula_sum "Si O2"
_cell_formula_units_Z 32
_cell_length_a 29.037243
_cell_length_b 5.311707
_cell_length_c 8.937434
_cell_angle_alpha 90.000000
_cell_angle_beta 73.879740
_cell_angle_gamma 90.000000
_cell_volume 1324.285289
_symmetry_space_group_name_H-M "C C"
_symmetry_group_IT_number 9
_symmetry_cell_setting 'monoclinic'
loop_
_space_group_symop_operation_xyz
x,y,z
x,-y,1/2+z
1/2+x,1/2+y,z
1/2+x,1/2-y,1/2+z
loop_
_atom_site_type_symbol
_atom_site_label
_atom_site_fract_x
_atom_site_fract_y
_atom_site_fract_z
Si Si1 0.145950 0.202017 0.213230
Si Si2 0.024480 0.785021 0.052101
Si Si3 0.971201 0.527067 0.854209
Si Si4 0.841134 0.852433 0.657851
Si Si5 0.443520 0.664601 0.121793
Si Si6 0.310574 0.836711 0.854771
Si Si7 0.614319 0.212333 0.175654
Si Si8 0.200300 0.079285 0.445685
O O1 0.115551 0.450508 0.255462
O O2 0.189304 0.155781 0.286787
O O3 0.110315 0.965996 0.273839
O O4 0.169530 0.164608 0.027137
O O5 0.076036 0.752419 0.079723
O O6 0.990318 0.658477 0.210000
O O7 0.996640 0.048076 0.052269
O O8 0.015179 0.640370 0.906978
O O9 0.943478 0.742378 0.791556
O O10 0.940104 0.387511 0.004590
O O11 0.894223 0.974318 0.634828
O O12 0.834911 0.591562 0.761794
O O13 0.831178 0.765393 0.495552
O O14 0.809569 0.089533 0.746098
O O15 0.255590 0.922461 0.930087
O O16 0.669400 0.222989 0.069184
#
# Coordination Sequence:
#
# PCOD9139367 Si02
#       8
#     4   4   4   4   4   4   4   4
#     4  10  25  41  70  99 141 188 229 291 350 424
#     4  11  25  42  70 101 140 186 237 299 353 439
#     4  10  25  41  71  95 140 180 240 289 370 419
#     4  12  29  47  79 108 152 194 253 308 379 448
#     4  11  25  46  69 101 140 186 238 301 365 431
#     4  12  28  48  77 114 149 197 253 308 377 445
#     4  10  27  41  72 101 144 183 243 281 369 418
#     4  10  26  44  76  99 152 180 245 291 363 422
#
# _framework density 24.163978
#
# number of rings (size 3 to 8) (size 9 to 14) (size 15 to 20)
#    0.750    0.500    0.000    3.000   17.500    1.000 
#    0.000    0.000    0.000    0.000    0.000    0.000 
#    0.000    0.000    0.000    0.000    0.000    0.000 
#
# Total GULP energy -89205.630685 kJ/mol
# GULP energy per Si atom -5575.351918 kJ/mol
# Density = 2.410898 g / cm^3
# Si number density = 24.163978 Si / 1000 Ang^3
#
#
#
# Elastic Constant Matrix: (Units=GPa)
#
#
# Indices 1 2 3 4 5 6 
#
# 1 89.5881 2.9007 5.5216 0.0000 11.9212 0.0000
# 2 2.9007 119.2694 6.2146 0.0000 3.7390 0.0000
# 3 5.5216 6.2146 71.4671 0.0000 14.2441 0.0000
# 4 0.0000 0.0000 0.0000 10.5546 0.0000 10.0293
# 5 11.9212 3.7390 14.2441 0.0000 36.5894 0.0000
# 6 0.0000 0.0000 0.0000 10.0293 0.0000 16.4914
#
#
#
# Elastic Compliance Matrix: (Units=1/GPa)
#
#
# Indices 1 2 3 4 5 6 
#
# 1 0.011673 -0.000159 -0.000144 0.000000 -0.003731 0.000000
# 2 -0.000159 0.008438 -0.000607 0.000000 -0.000574 0.000000
# 3 -0.000144 -0.000607 0.015215 0.000000 -0.005814 0.000000
# 4 0.000000 0.000000 0.000000 0.224452 0.000000 -0.136501
# 5 -0.003731 -0.000574 -0.005814 0.000000 0.030868 0.000000
# 6 0.000000 0.000000 0.000000 -0.136501 0.000000 0.143651
#
#
# Mechanical properties :
#
#
# Convention : Reuss Voigt Hill
#
# Bulk Modulus (GPa) = 29.84711 34.39980 32.12345
# Shear Modulus (GPa) = 11.17854 30.43960 20.80907
#
# Velocity S-wave (km/s) = 2.15317 3.55309 2.93774
# Velocity P-wave (km/s) = 4.30816 5.57669 4.98296
#
# Compressibility (1/GPa) = 0.03350408
#
# Stress axis : x y z
#
# Youngs Moduli (GPa) = 85.67011 118.51316 65.72365
#
# Poissons Ratio (x) = 0.01889 0.00949
# Poissons Ratio (y) = 0.01366 0.03990
# Poissons Ratio (z) = 0.01237 0.07194
#
# Static dielectric constant tensor:
#      x y z
#    x 1.933200 0.000000 -0.040630 
#    y 0.000000 2.119130 0.000000 
#    z -0.040630 0.000000 1.956300 
# 
# From -- ./inp_files/12633.got.cif
#   From: 2010.05.17/outbox.cif.g08.bks.cpg/sg9_7_cif.got.tgz:12633.got - 2010.06.03 20:04:27.
