data_PCOD9139961
_publ_section_title
;
Structure prediction by ZEFSAII (Michael W. Deem and Ramdas Pophale) SiO2 
 PCOD9139961
Probable space group: C C
;
_chemical_formula_sum "Si O2"
_cell_formula_units_Z 32
_cell_length_a 20.169117
_cell_length_b 15.023406
_cell_length_c 7.938181
_cell_angle_alpha 90.000000
_cell_angle_beta 34.843879
_cell_angle_gamma 90.000000
_cell_volume 1374.271808
_symmetry_space_group_name_H-M "C C"
_symmetry_group_IT_number 9
_symmetry_cell_setting 'monoclinic'
loop_
_space_group_symop_operation_xyz
x,y,z
x,-y,1/2+z
1/2+x,1/2+y,z
1/2+x,1/2-y,1/2+z
loop_
_atom_site_type_symbol
_atom_site_label
_atom_site_fract_x
_atom_site_fract_y
_atom_site_fract_z
Si Si1 0.727960 0.033626 0.414430
Si Si2 0.223610 0.794465 0.306162
Si Si3 0.542738 0.139724 0.662729
Si Si4 0.977526 0.909823 0.366269
Si Si5 0.474971 0.787633 0.945281
Si Si6 0.037524 0.100709 0.379659
Si Si7 0.697118 0.859835 0.324302
Si Si8 0.848895 0.256633 0.704053
O O1 0.608636 0.049550 0.561960
O O2 0.721157 0.083030 0.607728
O O3 0.732306 0.926934 0.403869
O O4 0.843221 0.074968 0.088410
O O5 0.141515 0.710057 0.515373
O O6 0.143262 0.874967 0.535924
O O7 0.344762 0.798704 0.151607
O O8 0.259074 0.779901 0.038186
O O9 0.507690 0.160536 0.545790
O O10 0.427982 0.157725 0.007349
O O11 0.988737 0.818568 0.445331
O O12 0.000321 0.000135 0.417739
O O13 0.059050 0.898458 0.034384
O O14 0.567308 0.823239 0.615010
O O15 0.939102 0.176740 0.558700
O O16 0.781390 0.776126 0.178403
#
# Coordination Sequence:
#
# PCOD9139961 Si02
#       8
#     4   4   4   4   4   4   4   4
#     4  12  24  45  70 106 148 182 253 310 355 435
#     4  11  24  47  68 103 152 182 240 301 362 446
#     4  11  24  42  74 103 137 188 241 302 368 425
#     4  12  25  44  73 108 143 187 243 302 363 433
#     4  12  25  45  73 103 146 196 242 295 374 440
#     4  11  26  43  72 109 145 187 242 304 364 427
#     4  12  26  41  73 107 143 193 241 307 368 433
#     4  11  22  43  71 105 140 187 238 297 366 427
#
# _framework density 23.285056999999998
#
# number of rings (size 3 to 8) (size 9 to 14) (size 15 to 20)
#    0.000    0.500    5.000    3.000    5.250    0.000 
#    0.000    5.000    0.000    0.000    0.000    0.000 
#    0.000    0.000    0.000    0.000    0.000    0.000 
#
# Total GULP energy -89489.731909 kJ/mol
# GULP energy per Si atom -5593.108244 kJ/mol
# Density = 2.323206 g / cm^3
# Si number density = 23.285057 Si / 1000 Ang^3
#
#
#
# Elastic Constant Matrix: (Units=GPa)
#
#
# Indices 1 2 3 4 5 6 
#
# 1 75.0005 -1.3603 13.8467 0.0000 1.7446 0.0000
# 2 -1.3603 53.7190 29.8201 0.0000 7.3354 0.0000
# 3 13.8467 29.8201 129.2155 0.0000 4.8490 0.0000
# 4 0.0000 0.0000 0.0000 37.3153 0.0000 -3.0511
# 5 1.7446 7.3354 4.8490 0.0000 33.2890 0.0000
# 6 0.0000 0.0000 0.0000 -3.0511 0.0000 36.6457
#
#
#
# Elastic Compliance Matrix: (Units=1/GPa)
#
#
# Indices 1 2 3 4 5 6 
#
# 1 0.013704 0.001436 -0.001771 0.000000 -0.000777 0.000000
# 2 0.001436 0.022047 -0.005084 0.000000 -0.004193 0.000000
# 3 -0.001771 -0.005084 0.009106 0.000000 -0.000113 0.000000
# 4 0.000000 0.000000 0.000000 0.026982 0.000000 0.002247
# 5 -0.000777 -0.004193 -0.000113 0.000000 0.031021 0.000000
# 6 0.000000 0.000000 0.000000 0.002247 0.000000 0.027475
#
#
# Mechanical properties :
#
#
# Convention : Reuss Voigt Hill
#
# Bulk Modulus (GPa) = 29.39530 38.06089 33.72809
# Shear Modulus (GPa) = 32.78383 35.82524 34.30454
#
# Velocity S-wave (km/s) = 3.75632 3.92669 3.84245
# Velocity P-wave (km/s) = 5.60934 6.07780 5.84826
#
# Compressibility (1/GPa) = 0.03401905
#
# Stress axis : x y z
#
# Youngs Moduli (GPa) = 72.96983 45.35822 109.81288
#
# Poissons Ratio (x) = -0.06514 0.19446
# Poissons Ratio (y) = -0.10479 0.55834
# Poissons Ratio (z) = 0.12922 0.23062
#
# Static dielectric constant tensor:
#      x y z
#    x 1.919670 0.000000 0.019190 
#    y 0.000000 1.866780 0.000000 
#    z 0.019190 0.000000 1.897500 
# 
# From -- ./inp_files/11771.got.cif
#   From: 2010.05.17/outbox.cif.g08.bks.cpg/sg9_6_cif.got.tgz:11771.got - 2010.06.03 20:04:27.
