data_PCOD9139156
_publ_section_title
;
Structure prediction by ZEFSAII (Michael W. Deem and Ramdas Pophale) SiO2 
 PCOD9139156
Probable space group: C C
;
_chemical_formula_sum "Si O2"
_cell_formula_units_Z 24
_cell_length_a 21.903690
_cell_length_b 9.132215
_cell_length_c 9.964032
_cell_angle_alpha 90.000000
_cell_angle_beta 30.542598
_cell_angle_gamma 90.000000
_cell_volume 1012.849897
_symmetry_space_group_name_H-M "C C"
_symmetry_group_IT_number 9
_symmetry_cell_setting 'monoclinic'
loop_
_space_group_symop_operation_xyz
x,y,z
x,-y,1/2+z
1/2+x,1/2+y,z
1/2+x,1/2-y,1/2+z
loop_
_atom_site_type_symbol
_atom_site_label
_atom_site_fract_x
_atom_site_fract_y
_atom_site_fract_z
Si Si1 0.887850 0.665999 0.790000
Si Si2 0.333484 0.476285 0.846741
Si Si3 0.534147 0.603280 0.628266
Si Si4 0.677960 0.478174 0.106873
Si Si5 0.563274 0.895307 0.436005
Si Si6 0.356708 0.756429 0.656652
O O1 0.994167 0.547733 0.591634
O O2 0.909811 0.826769 0.690966
O O3 0.782200 0.599778 0.898303
O O4 0.846828 0.691443 0.022122
O O5 0.398672 0.570230 0.839872
O O6 0.337604 0.584808 0.713319
O O7 0.198634 0.428819 0.137247
O O8 0.614768 0.521420 0.363489
O O9 0.580646 0.531956 0.675357
O O10 0.557843 0.777867 0.568516
O O11 0.756109 0.331315 0.941757
O O12 0.485849 0.810309 0.468136
#
# Coordination Sequence:
#
# PCOD9139156 Si02
#       6
#     4   4   4   4   4   4
#     4  11  24  48  75 107 149 202 247 318 372 448
#     4  11  25  44  71 109 143 194 251 309 368 449
#     4  11  25  46  74 109 153 195 255 308 376 450
#     4  11  22  49  74 105 154 198 244 316 370 446
#     4  10  24  48  71 107 148 198 246 307 383 454
#     4  10  24  45  71 107 151 191 251 312 377 447
#
# _framework density 23.695516000000001
#
# number of rings (size 3 to 8) (size 9 to 14) (size 15 to 20)
#    0.000    1.333    3.333    0.000    7.000    2.667 
#    6.000    0.000    0.000    0.000    0.000    0.000 
#    0.000    0.000    0.000    0.000    0.000    0.000 
#
# Total GULP energy -67113.447522 kJ/mol
# GULP energy per Si atom -5592.787294 kJ/mol
# Density = 2.364158 g / cm^3
# Si number density = 23.695516 Si / 1000 Ang^3
#
#
#
# Elastic Constant Matrix: (Units=GPa)
#
#
# Indices 1 2 3 4 5 6 
#
# 1 89.2374 32.1713 29.1319 0.0000 -10.3369 0.0000
# 2 32.1713 189.2117 62.9039 0.0000 7.8165 0.0000
# 3 29.1319 62.9039 104.8913 0.0000 -15.1858 0.0000
# 4 0.0000 0.0000 0.0000 31.3100 0.0000 5.2000
# 5 -10.3369 7.8165 -15.1858 0.0000 30.3673 0.0000
# 6 0.0000 0.0000 0.0000 5.2000 0.0000 28.1008
#
#
#
# Elastic Compliance Matrix: (Units=1/GPa)
#
#
# Indices 1 2 3 4 5 6 
#
# 1 0.012915 -0.001679 -0.002028 0.000000 0.003815 0.000000
# 2 -0.001679 0.007295 -0.004595 0.000000 -0.004747 0.000000
# 3 -0.002028 -0.004595 0.013933 0.000000 0.007460 0.000000
# 4 0.000000 0.000000 0.000000 0.032951 0.000000 -0.006098
# 5 0.003815 -0.004747 0.007460 0.000000 0.039181 0.000000
# 6 0.000000 0.000000 0.000000 -0.006098 0.000000 0.036714
#
#
# Mechanical properties :
#
#
# Convention : Reuss Voigt Hill
#
# Bulk Modulus (GPa) = 57.02012 70.19495 63.60753
# Shear Modulus (GPa) = 30.22237 35.23119 32.72678
#
# Velocity S-wave (km/s) = 3.57521 3.86013 3.72040
# Velocity P-wave (km/s) = 6.41551 7.03956 6.73477
#
# Compressibility (1/GPa) = 0.01753767
#
# Stress axis : x y z
#
# Youngs Moduli (GPa) = 77.42735 137.08924 71.77345
#
# Poissons Ratio (x) = 0.23024 0.14552
# Poissons Ratio (y) = 0.13004 0.32983
# Poissons Ratio (z) = 0.15699 0.62998
#
# Static dielectric constant tensor:
#      x y z
#    x 1.909490 0.000000 -0.010450 
#    y 0.000000 1.931570 0.000000 
#    z -0.010450 0.000000 1.919190 
# 
# From -- ./inp_files/11282.got.cif
#   From: 2010.05.17/outbox.cif.g08.bks.cpg/sg9_6_cif.got.tgz:11282.got - 2010.06.03 20:04:27.
