data_PCOD9139341
_publ_section_title
;
Structure prediction by ZEFSAII (Michael W. Deem and Ramdas Pophale) SiO2 
 PCOD9139341
Probable space group: C C
;
_chemical_formula_sum "Si O2"
_cell_formula_units_Z 28
_cell_length_a 5.075610
_cell_length_b 30.710869
_cell_length_c 7.081985
_cell_angle_alpha 90.000000
_cell_angle_beta 72.236181
_cell_angle_gamma 90.000000
_cell_volume 1051.282125
_symmetry_space_group_name_H-M "C C"
_symmetry_group_IT_number 9
_symmetry_cell_setting 'monoclinic'
loop_
_space_group_symop_operation_xyz
x,y,z
x,-y,1/2+z
1/2+x,1/2+y,z
1/2+x,1/2-y,1/2+z
loop_
_atom_site_type_symbol
_atom_site_label
_atom_site_fract_x
_atom_site_fract_y
_atom_site_fract_z
Si Si1 0.487180 0.820790 0.167670
Si Si2 0.987398 0.043365 0.406570
Si Si3 0.700945 0.265611 0.547574
Si Si4 0.317308 0.601461 0.776516
Si Si5 0.120098 0.538408 0.131797
Si Si6 0.762785 0.671164 0.337106
Si Si7 0.364599 0.655943 0.112437
O O1 0.692048 0.785596 0.023251
O O2 0.393549 0.792229 0.364504
O O3 0.627323 0.864229 0.207060
O O4 0.037514 0.852955 0.762058
O O5 0.999076 0.076521 0.581497
O O6 0.801462 0.057568 0.266570
O O7 0.300881 0.031867 0.269068
O O8 0.800864 0.003803 0.531671
O O9 0.778071 0.280844 0.741169
O O10 0.416396 0.292145 0.568389
O O11 0.752965 0.672712 0.561845
O O12 0.465515 0.628393 0.912526
O O13 0.133634 0.567822 0.940051
O O14 0.047517 0.648057 0.220195
#
# Coordination Sequence:
#
# PCOD9139341 Si02
#       7
#     4   4   4   4   4   4   4
#     4  12  26  51  80 118 160 235 297 366 437 513
#     4  12  29  55  96 132 182 232 285 358 460 532
#     4  10  26  46  78 105 168 211 295 355 444 490
#     4  12  29  52  89 128 180 227 302 366 441 531
#     4  12  29  56  91 135 180 229 291 359 451 550
#     4  10  25  48  75 106 157 216 280 354 428 497
#     4  10  24  52  73 112 159 212 280 352 419 503
#
# _framework density 26.634146999999999
#
# number of rings (size 3 to 8) (size 9 to 14) (size 15 to 20)
#    0.857    0.000    2.857    1.714    4.000    6.857 
#    2.571    0.000    0.000    0.000    0.000    0.000 
#    0.000    0.000    0.000    0.000    0.000    0.000 
#
# Total GULP energy -78392.078621 kJ/mol
# GULP energy per Si atom -5599.434187 kJ/mol
# Density = 2.657353 g / cm^3
# Si number density = 26.634147 Si / 1000 Ang^3
#
#
#
# Elastic Constant Matrix: (Units=GPa)
#
#
# Indices 1 2 3 4 5 6 
#
# 1 163.7118 56.0867 72.0815 0.0000 3.5199 0.0000
# 2 56.0867 142.0238 70.3498 0.0000 12.2137 0.0000
# 3 72.0815 70.3498 206.7865 0.0000 4.1910 0.0000
# 4 0.0000 0.0000 0.0000 48.5537 0.0000 6.9755
# 5 3.5199 12.2137 4.1910 0.0000 62.4383 0.0000
# 6 0.0000 0.0000 0.0000 6.9755 0.0000 32.4254
#
#
#
# Elastic Compliance Matrix: (Units=1/GPa)
#
#
# Indices 1 2 3 4 5 6 
#
# 1 0.007684 -0.002063 -0.001979 0.000000 0.000103 0.000000
# 2 -0.002063 0.009158 -0.002366 0.000000 -0.001516 0.000000
# 3 -0.001979 -0.002366 0.006327 0.000000 0.000150 0.000000
# 4 0.000000 0.000000 0.000000 0.021253 0.000000 -0.004572
# 5 0.000103 -0.001516 0.000150 0.000000 0.016297 0.000000
# 6 0.000000 0.000000 0.000000 -0.004572 0.000000 0.031824
#
#
# Mechanical properties :
#
#
# Convention : Reuss Voigt Hill
#
# Bulk Modulus (GPa) = 96.57785 101.06201 98.81993
# Shear Modulus (GPa) = 45.95202 49.61710 47.78456
#
# Velocity S-wave (km/s) = 4.15818 4.32083 4.24029
# Velocity P-wave (km/s) = 7.70673 7.93219 7.82027
#
# Compressibility (1/GPa) = 0.01035434
#
# Stress axis : x y z
#
# Youngs Moduli (GPa) = 130.13788 109.19289 158.04249
#
# Poissons Ratio (x) = 0.22530 0.31272
# Poissons Ratio (y) = 0.26852 0.37388
# Poissons Ratio (z) = 0.25750 0.25831
#
# Static dielectric constant tensor:
#      x y z
#    x 2.099730 0.000000 -0.095150 
#    y 0.000000 2.175700 0.000000 
#    z -0.095150 0.000000 2.178860 
# 
# From -- ./inp_files/4288.got.cif
#   From: 2010.05.17/outbox.cif.g08.bks.cpg/sg9_3_cif.got.tgz:4288.got - 2010.06.03 20:04:27.
