data_PCOD9139136
_publ_section_title
;
Structure prediction by ZEFSAII (Michael W. Deem and Ramdas Pophale) SiO2 
 PCOD9139136
Probable space group: C C
;
_chemical_formula_sum "Si O2"
_cell_formula_units_Z 28
_cell_length_a 5.092658
_cell_length_b 30.883702
_cell_length_c 7.671361
_cell_angle_alpha 90.000000
_cell_angle_beta 90.180594
_cell_angle_gamma 90.000000
_cell_volume 1206.546678
_symmetry_space_group_name_H-M "C C"
_symmetry_group_IT_number 9
_symmetry_cell_setting 'monoclinic'
loop_
_space_group_symop_operation_xyz
x,y,z
x,-y,1/2+z
1/2+x,1/2+y,z
1/2+x,1/2-y,1/2+z
loop_
_atom_site_type_symbol
_atom_site_label
_atom_site_fract_x
_atom_site_fract_y
_atom_site_fract_z
Si Si1 0.326390 0.457866 0.212330
Si Si2 0.659331 0.116254 0.116555
Si Si3 0.330084 0.909199 0.310264
Si Si4 0.451771 0.448208 0.820992
Si Si5 0.307788 0.708245 0.061319
Si Si6 0.295102 0.219443 0.286130
Si Si7 0.344448 0.128340 0.443182
O O1 0.297975 0.453404 0.003707
O O2 0.529649 0.421780 0.280690
O O3 0.476416 0.502143 0.261375
O O4 0.037085 0.449152 0.287826
O O5 0.402242 0.109268 0.998946
O O6 0.815555 0.072686 0.151547
O O7 0.801056 0.156841 0.031318
O O8 0.396303 0.877770 0.147363
O O9 0.679731 0.413991 0.876329
O O10 0.095194 0.372333 0.817336
O O11 0.595064 0.719866 0.126930
O O12 0.087762 0.717559 0.208139
O O13 0.248905 0.737999 0.897864
O O14 0.229845 0.175683 0.396898
#
# Coordination Sequence:
#
# PCOD9139136 Si02
#       7
#     4   4   4   4   4   4   4
#     4  11  26  42  67  98 133 182 224 283 332 399
#     4  11  24  43  71  97 140 177 226 280 340 404
#     4  11  26  43  66 104 130 181 232 270 341 396
#     4  11  23  44  66  95 141 173 230 279 340 393
#     4  11  25  45  71 105 134 185 220 284 347 409
#     4  11  24  46  70 102 139 177 227 280 347 407
#     4  10  24  45  67  97 141 179 221 286 335 400
#
# _framework density 23.206724999999999
#
# number of rings (size 3 to 8) (size 9 to 14) (size 15 to 20)
#    0.000    1.143    2.857    1.714    8.000    1.143 
#    5.143    0.000    0.000    0.000    0.000    0.000 
#    0.000    0.000    0.000    0.000    0.000    0.000 
#
# Total GULP energy -78159.224694 kJ/mol
# GULP energy per Si atom -5582.801764 kJ/mol
# Density = 2.315391 g / cm^3
# Si number density = 23.206725 Si / 1000 Ang^3
#
#
#
# Elastic Constant Matrix: (Units=GPa)
#
#
# Indices 1 2 3 4 5 6 
#
# 1 52.1950 -0.1086 2.7020 0.0000 3.8921 0.0000
# 2 -0.1086 49.2897 5.0667 0.0000 -3.3468 0.0000
# 3 2.7020 5.0667 90.6846 0.0000 12.1026 0.0000
# 4 0.0000 0.0000 0.0000 11.0935 0.0000 -24.2211
# 5 3.8921 -3.3468 12.1026 0.0000 38.2418 0.0000
# 6 0.0000 0.0000 0.0000 -24.2211 0.0000 -6.4546
#
#
#
# Elastic Compliance Matrix: (Units=1/GPa)
#
#
# Indices 1 2 3 4 5 6 
#
# 1 0.019315 -0.000051 -0.000323 0.000000 -0.001868 0.000000
# 2 -0.000051 0.020591 -0.001451 0.000000 0.002267 0.000000
# 3 -0.000323 -0.001451 0.011621 0.000000 -0.003772 0.000000
# 4 0.000000 0.000000 0.000000 0.009805 0.000000 -0.036795
# 5 -0.001868 0.002267 -0.003772 0.000000 0.027732 0.000000
# 6 0.000000 0.000000 0.000000 -0.036795 0.000000 -0.016853
#
#
# Mechanical properties :
#
#
# Convention : Reuss Voigt Hill
#
# Bulk Modulus (GPa) = 20.88739 23.05436 21.97088
# Shear Modulus (GPa) = 54.45306 20.87674 37.66490
#
# Velocity S-wave (km/s) = 4.84926 3.00259 4.03304
# Velocity P-wave (km/s) = 6.35404 4.68792 5.58348
#
# Compressibility (1/GPa) = 0.04787578
#
# Stress axis : x y z
#
# Youngs Moduli (GPa) = 51.77361 48.56439 86.04842
#
# Poissons Ratio (x) = 0.00248 0.02782
# Poissons Ratio (y) = 0.00264 0.12489
# Poissons Ratio (z) = 0.01674 0.07049
#
# Static dielectric constant tensor:
#      x y z
#    x 1.885450 0.000000 -0.032990 
#    y 0.000000 2.020470 0.000000 
#    z -0.032990 0.000000 1.846970 
# 
# From -- ./inp_files/4243.got.cif
#   From: 2010.05.17/outbox.cif.g08.bks.cpg/sg9_3_cif.got.tgz:4243.got - 2010.06.03 20:04:27.
