data_PCOD9139922
_publ_section_title
;
Structure prediction by ZEFSAII (Michael W. Deem and Ramdas Pophale) SiO2 
 PCOD9139922
Probable space group: C C
;
_chemical_formula_sum "Si O2"
_cell_formula_units_Z 32
_cell_length_a 6.744154
_cell_length_b 22.314664
_cell_length_c 13.500819
_cell_angle_alpha 90.000000
_cell_angle_beta 40.863551
_cell_angle_gamma 90.000000
_cell_volume 1329.315931
_symmetry_space_group_name_H-M "C C"
_symmetry_group_IT_number 9
_symmetry_cell_setting 'monoclinic'
loop_
_space_group_symop_operation_xyz
x,y,z
x,-y,1/2+z
1/2+x,1/2+y,z
1/2+x,1/2-y,1/2+z
loop_
_atom_site_type_symbol
_atom_site_label
_atom_site_fract_x
_atom_site_fract_y
_atom_site_fract_z
Si Si1 0.816950 0.915429 0.782680
Si Si2 0.208528 0.224779 0.754765
Si Si3 0.618630 0.484714 0.281222
Si Si4 0.224257 0.718492 0.745429
Si Si5 0.183924 0.201567 0.106940
Si Si6 0.702977 0.622683 0.603965
Si Si7 0.670117 0.800201 0.612773
Si Si8 0.715822 0.941298 0.604764
O O1 0.814474 0.950509 0.680350
O O2 0.072376 0.864603 0.682905
O O3 0.489648 0.885812 0.924864
O O4 0.891655 0.961280 0.841224
O O5 0.519646 0.231394 0.715400
O O6 0.303367 0.165325 0.657530
O O7 0.369213 0.288974 0.649468
O O8 0.953890 0.217883 0.934838
O O9 0.618963 0.439183 0.188602
O O10 0.490490 0.451096 0.425395
O O11 0.941943 0.515024 0.179300
O O12 0.393880 0.782376 0.630672
O O13 0.429162 0.657999 0.653028
O O14 0.457718 0.746827 0.752844
O O15 0.940664 0.705488 0.925520
O O16 0.623562 0.871532 0.635654
#
# Coordination Sequence:
#
# PCOD9139922 Si02
#       8
#     4   4   4   4   4   4   4   4
#     4  12  28  50  78 107 150 201 261 314 377 451
#     4  11  22  41  71 100 148 185 235 298 382 446
#     4  12  28  52  74 109 148 201 263 318 370 446
#     4  11  25  39  70 108 149 188 237 298 380 449
#     4  12  24  43  67 114 144 189 245 305 369 462
#     4  11  25  48  70 101 151 198 236 315 378 445
#     4  11  22  43  69 101 143 193 237 296 379 451
#     4  12  28  50  79 106 149 205 258 314 383 446
#
# _framework density 24.072534000000001
#
# number of rings (size 3 to 8) (size 9 to 14) (size 15 to 20)
#    0.000    0.500    3.750    5.250    5.250    0.000 
#    2.250    0.000    0.000    0.000    0.000    0.000 
#    0.000    0.000    0.000    0.000    0.000    0.000 
#
# Total GULP energy -89401.995287 kJ/mol
# GULP energy per Si atom -5587.624705 kJ/mol
# Density = 2.401774 g / cm^3
# Si number density = 24.072534 Si / 1000 Ang^3
#
#
#
# Elastic Constant Matrix: (Units=GPa)
#
#
# Indices 1 2 3 4 5 6 
#
# 1 193.0964 52.3876 50.6501 0.0000 3.6027 0.0000
# 2 52.3876 132.9770 59.9066 0.0000 -2.5340 0.0000
# 3 50.6501 59.9066 130.1230 0.0000 11.3238 0.0000
# 4 0.0000 0.0000 0.0000 29.3975 0.0000 6.3678
# 5 3.6027 -2.5340 11.3238 0.0000 65.4118 0.0000
# 6 0.0000 0.0000 0.0000 6.3678 0.0000 52.3112
#
#
#
# Elastic Compliance Matrix: (Units=1/GPa)
#
#
# Indices 1 2 3 4 5 6 
#
# 1 0.006048 -0.001677 -0.001571 0.000000 -0.000126 0.000000
# 2 -0.001677 0.010038 -0.004072 0.000000 0.001186 0.000000
# 3 -0.001571 -0.004072 0.010333 0.000000 -0.001860 0.000000
# 4 0.000000 0.000000 0.000000 0.034938 0.000000 -0.004253
# 5 -0.000126 0.001186 -0.001860 0.000000 0.015663 0.000000
# 6 0.000000 0.000000 0.000000 -0.004253 0.000000 0.019634
#
#
# Mechanical properties :
#
#
# Convention : Reuss Voigt Hill
#
# Bulk Modulus (GPa) = 84.89702 86.89832 85.89767
# Shear Modulus (GPa) = 43.39539 48.97426 46.18482
#
# Velocity S-wave (km/s) = 4.25042 4.51538 4.38490
# Velocity P-wave (km/s) = 7.70920 7.96001 7.83561
#
# Compressibility (1/GPa) = 0.01177898
#
# Stress axis : x y z
#
# Youngs Moduli (GPa) = 165.33577 99.62378 96.77840
#
# Poissons Ratio (x) = 0.16711 0.15204
# Poissons Ratio (y) = 0.27734 0.39403
# Poissons Ratio (z) = 0.25975 0.40562
#
# Static dielectric constant tensor:
#      x y z
#    x 2.094890 0.000000 0.003250 
#    y 0.000000 1.866160 0.000000 
#    z 0.003250 0.000000 1.778280 
# 
# From -- ./inp_files/23791.got.cif
#   From: 2010.05.17/outbox.cif.g08.bks.cpg/sg9_12_cif.got.tgz:23791.got - 2010.06.03 20:04:27.
