data_PCOD9139532
_publ_section_title
;
Structure prediction by ZEFSAII (Michael W. Deem and Ramdas Pophale) SiO2 
 PCOD9139532
Probable space group: C C
;
_chemical_formula_sum "Si O2"
_cell_formula_units_Z 28
_cell_length_a 9.144013
_cell_length_b 19.769954
_cell_length_c 8.816367
_cell_angle_alpha 90.000000
_cell_angle_beta 48.096281
_cell_angle_gamma 90.000000
_cell_volume 1186.210094
_symmetry_space_group_name_H-M "C C"
_symmetry_group_IT_number 9
_symmetry_cell_setting 'monoclinic'
loop_
_space_group_symop_operation_xyz
x,y,z
x,-y,1/2+z
1/2+x,1/2+y,z
1/2+x,1/2-y,1/2+z
loop_
_atom_site_type_symbol
_atom_site_label
_atom_site_fract_x
_atom_site_fract_y
_atom_site_fract_z
Si Si1 0.468910 0.344422 0.240670
Si Si2 0.403647 0.793811 0.939708
Si Si3 0.049279 0.209610 0.127106
Si Si4 0.456232 0.006601 0.015940
Si Si5 0.665227 0.085343 0.141208
Si Si6 0.341139 0.094399 0.835552
Si Si7 0.258230 0.334710 0.077482
O O1 0.387945 0.269783 0.339213
O O2 0.377507 0.395775 0.427122
O O3 0.386452 0.358805 0.130327
O O4 0.701295 0.334550 0.082740
O O5 0.459290 0.758902 0.061339
O O6 0.569919 0.845345 0.768934
O O7 0.195011 0.156569 0.949881
O O8 0.172517 0.258405 0.153628
O O9 0.544854 0.057004 0.079775
O O10 0.336498 0.949964 0.188919
O O11 0.317177 0.046064 0.996758
O O12 0.627687 0.969646 0.799005
O O13 0.886998 0.170553 0.336292
O O14 0.566627 0.119586 0.691996
#
# Coordination Sequence:
#
# PCOD9139532 Si02
#       7
#     4   4   4   4   4   4   4
#     4  12  26  43  73 110 154 187 243 315 385 452
#     4  12  27  44  74 117 145 193 244 317 398 444
#     4  12  27  44  75 113 149 188 247 314 387 455
#     4  10  25  49  76 102 150 212 251 308 360 450
#     4  11  25  49  74 104 153 197 254 305 374 445
#     4  11  25  50  76 106 153 197 257 310 377 443
#     4  12  25  43  74 110 148 192 242 313 389 449
#
# _framework density 23.604586999999999
#
# number of rings (size 3 to 8) (size 9 to 14) (size 15 to 20)
#    0.000    0.571    4.286    2.571    8.000    1.143 
#    0.000    8.571    0.000    0.000    0.000    0.000 
#    0.000    0.000    0.000    0.000    0.000    0.000 
#
# Total GULP energy -78450.285523 kJ/mol
# GULP energy per Si atom -5603.591823 kJ/mol
# Density = 2.355086 g / cm^3
# Si number density = 23.604587 Si / 1000 Ang^3
#
#
#
# Elastic Constant Matrix: (Units=GPa)
#
#
# Indices 1 2 3 4 5 6 
#
# 1 104.9026 26.8279 60.0138 0.0000 0.9054 0.0000
# 2 26.8279 83.3683 33.7988 0.0000 10.8895 0.0000
# 3 60.0138 33.7988 129.7533 0.0000 7.5975 0.0000
# 4 0.0000 0.0000 0.0000 45.6733 0.0000 7.4600
# 5 0.9054 10.8895 7.5975 0.0000 43.0805 0.0000
# 6 0.0000 0.0000 0.0000 7.4600 0.0000 25.6033
#
#
#
# Elastic Compliance Matrix: (Units=1/GPa)
#
#
# Indices 1 2 3 4 5 6 
#
# 1 0.013317 -0.002151 -0.005673 0.000000 0.001264 0.000000
# 2 -0.002151 0.014102 -0.002498 0.000000 -0.003079 0.000000
# 3 -0.005673 -0.002498 0.011052 0.000000 -0.001198 0.000000
# 4 0.000000 0.000000 0.000000 0.022989 0.000000 -0.006698
# 5 0.001264 -0.003079 -0.001198 0.000000 0.024175 0.000000
# 6 0.000000 0.000000 0.000000 -0.006698 0.000000 0.041009
#
#
# Mechanical properties :
#
#
# Convention : Reuss Voigt Hill
#
# Bulk Modulus (GPa) = 56.09586 62.14502 59.12044
# Shear Modulus (GPa) = 32.63028 36.03030 34.33029
#
# Velocity S-wave (km/s) = 3.72206 3.91117 3.81778
# Velocity P-wave (km/s) = 6.50292 6.83966 6.67342
#
# Compressibility (1/GPa) = 0.01782663
#
# Stress axis : x y z
#
# Youngs Moduli (GPa) = 75.08930 70.91156 90.48133
#
# Poissons Ratio (x) = 0.15250 0.51334
# Poissons Ratio (y) = 0.16149 0.22606
# Poissons Ratio (z) = 0.42602 0.17717
#
# Static dielectric constant tensor:
#      x y z
#    x 1.888580 0.000000 0.020260 
#    y 0.000000 1.877020 0.000000 
#    z 0.020260 0.000000 1.909210 
# 
# From -- ./inp_files/5577.got.cif
#   From: 2010.05.17/outbox.cif.g08.bks.cpg/sg9_3_cif.got.tgz:5577.got - 2010.06.03 20:04:27.
