data_PCOD9139378
_publ_section_title
;
Structure prediction by ZEFSAII (Michael W. Deem and Ramdas Pophale) SiO2 
 PCOD9139378
Probable space group: C C
;
_chemical_formula_sum "Si O2"
_cell_formula_units_Z 32
_cell_length_a 27.006560
_cell_length_b 5.170078
_cell_length_c 9.271854
_cell_angle_alpha 90.000000
_cell_angle_beta 88.029085
_cell_angle_gamma 90.000000
_cell_volume 1293.826226
_symmetry_space_group_name_H-M "C C"
_symmetry_group_IT_number 9
_symmetry_cell_setting 'monoclinic'
loop_
_space_group_symop_operation_xyz
x,y,z
x,-y,1/2+z
1/2+x,1/2+y,z
1/2+x,1/2-y,1/2+z
loop_
_atom_site_type_symbol
_atom_site_label
_atom_site_fract_x
_atom_site_fract_y
_atom_site_fract_z
Si Si1 0.018080 0.383534 0.758910
Si Si2 0.093111 0.001129 0.672757
Si Si3 0.387687 0.469067 0.635134
Si Si4 0.220550 0.743898 0.482149
Si Si5 0.685532 0.740652 0.316457
Si Si6 0.416548 0.827092 0.877511
Si Si7 0.834329 0.724389 0.887837
Si Si8 0.076032 0.506405 0.008744
O O1 0.062803 0.517609 0.843810
O O2 0.023130 0.464525 0.594375
O O3 0.966539 0.469920 0.830443
O O4 0.040140 0.912949 0.249517
O O5 0.134015 0.898769 0.777958
O O6 0.091812 0.778117 0.552811
O O7 0.106612 0.266626 0.583978
O O8 0.418886 0.605074 0.755716
O O9 0.418322 0.262737 0.541418
O O10 0.342709 0.348849 0.730094
O O11 0.367868 0.654081 0.511709
O O12 0.190406 0.518668 0.397499
O O13 0.210998 0.729022 0.655127
O O14 0.278901 0.726010 0.441881
O O15 0.208861 0.027757 0.420187
O O16 0.361647 0.948393 0.866035
#
# Coordination Sequence:
#
# PCOD9139378 Si02
#       8
#     4   4   4   4   4   4   4   4
#     4  10  27  43  72 105 151 194 254 317 380 464
#     4  10  26  46  75 103 150 190 255 310 391 454
#     4  10  25  42  71  99 145 193 250 307 381 453
#     4  12  29  48  83 111 160 196 271 315 418 459
#     4  12  28  52  79 116 151 208 256 336 391 492
#     4  11  25  44  70 107 148 198 257 308 389 455
#     4  11  25  44  72 105 149 194 249 317 381 467
#     4  10  25  43  74 102 146 191 246 312 383 444
#
# _framework density 24.732844
#
# number of rings (size 3 to 8) (size 9 to 14) (size 15 to 20)
#    0.750    0.500    0.000    3.000   15.750    1.000 
#    0.000    0.000    0.000    0.000    0.000    0.000 
#    0.000    0.000    0.000    0.000    0.000    0.000 
#
# Total GULP energy -89235.256085 kJ/mol
# GULP energy per Si atom -5577.203505 kJ/mol
# Density = 2.467655 g / cm^3
# Si number density = 24.732844 Si / 1000 Ang^3
#
#
#
# Elastic Constant Matrix: (Units=GPa)
#
#
# Indices 1 2 3 4 5 6 
#
# 1 68.8323 11.8623 12.8675 0.0000 -9.1916 0.0000
# 2 11.8623 112.7238 29.9794 0.0000 -4.0671 0.0000
# 3 12.8675 29.9794 134.2686 0.0000 -23.9496 0.0000
# 4 0.0000 0.0000 0.0000 38.4799 0.0000 -10.8166
# 5 -9.1916 -4.0671 -23.9496 0.0000 33.8066 0.0000
# 6 0.0000 0.0000 0.0000 -10.8166 0.0000 16.6692
#
#
#
# Elastic Compliance Matrix: (Units=1/GPa)
#
#
# Indices 1 2 3 4 5 6 
#
# 1 0.015343 -0.001345 -0.000521 0.000000 0.003641 0.000000
# 2 -0.001345 0.009554 -0.002134 0.000000 -0.000728 0.000000
# 3 -0.000521 -0.002134 0.009046 0.000000 0.006010 0.000000
# 4 0.000000 0.000000 0.000000 0.031785 0.000000 0.020625
# 5 0.003641 -0.000728 0.006010 0.000000 0.034740 0.000000
# 6 0.000000 0.000000 0.000000 0.020625 0.000000 0.073375
#
#
# Mechanical properties :
#
#
# Convention : Reuss Voigt Hill
#
# Bulk Modulus (GPa) = 38.54415 47.24922 42.89669
# Shear Modulus (GPa) = 26.24788 35.19885 30.72337
#
# Velocity S-wave (km/s) = 3.26123 3.77657 3.52832
# Velocity P-wave (km/s) = 5.45883 6.17754 5.82927
#
# Compressibility (1/GPa) = 0.02594427
#
# Stress axis : x y z
#
# Youngs Moduli (GPa) = 65.17478 104.66719 110.54297
#
# Poissons Ratio (x) = 0.14075 0.05756
# Poissons Ratio (y) = 0.08765 0.23593
# Poissons Ratio (z) = 0.03394 0.22339
#
# Static dielectric constant tensor:
#      x y z
#    x 2.054270 0.000000 -0.052910 
#    y 0.000000 2.103620 0.000000 
#    z -0.052910 0.000000 1.905920 
# 
# From -- ./inp_files/12632.got.cif
#   From: 2010.05.17/outbox.cif.g08.bks.cpg/sg9_7_cif.got.tgz:12632.got - 2010.06.03 20:04:27.
