data_PCOD9139135
_publ_section_title
;
Structure prediction by ZEFSAII (Michael W. Deem and Ramdas Pophale) SiO2 
 PCOD9139135
Probable space group: C C
;
_chemical_formula_sum "Si O2"
_cell_formula_units_Z 24
_cell_length_a 6.785470
_cell_length_b 18.317336
_cell_length_c 12.898021
_cell_angle_alpha 90.000000
_cell_angle_beta 140.346099
_cell_angle_gamma 90.000000
_cell_volume 1023.027069
_symmetry_space_group_name_H-M "C C"
_symmetry_group_IT_number 9
_symmetry_cell_setting 'monoclinic'
loop_
_space_group_symop_operation_xyz
x,y,z
x,-y,1/2+z
1/2+x,1/2+y,z
1/2+x,1/2-y,1/2+z
loop_
_atom_site_type_symbol
_atom_site_label
_atom_site_fract_x
_atom_site_fract_y
_atom_site_fract_z
Si Si1 0.647050 0.000520 0.088700
Si Si2 0.063911 0.907733 0.892319
Si Si3 0.227481 0.144080 0.899879
Si Si4 0.589375 0.590459 0.636166
Si Si5 0.336551 0.711043 0.137688
Si Si6 0.213107 0.649642 0.860486
O O1 0.850047 0.025655 0.267997
O O2 0.436637 0.070878 0.980243
O O3 0.891952 0.977553 0.099318
O O4 0.414325 0.934877 0.019003
O O5 0.994425 0.842789 0.784763
O O6 0.981646 0.890569 0.977363
O O7 0.064338 0.147693 0.721552
O O8 0.993575 0.135660 0.898185
O O9 0.469858 0.209348 0.012877
O O10 0.962547 0.585156 0.774804
O O11 0.505881 0.787130 0.222348
O O12 0.341452 0.679100 0.022723
#
# Coordination Sequence:
#
# PCOD9139135 Si02
#       6
#     4   4   4   4   4   4
#     4  11  24  43  65 104 143 187 239 284 359 422
#     4  11  25  42  70 104 140 190 238 295 357 427
#     4  10  24  45  67 106 140 186 238 295 348 425
#     4  11  24  42  70  99 144 186 233 292 357 416
#     4  10  25  45  71 105 141 184 241 293 364 422
#     4  11  24  47  73 104 146 185 241 297 355 430
#
# _framework density 23.459790999999999
#
# number of rings (size 3 to 8) (size 9 to 14) (size 15 to 20)
#    0.000    1.333    1.667    2.000    2.333    9.333 
#    0.000    0.000    0.000    0.000    0.000    0.000 
#    0.000    0.000    0.000    0.000    0.000    0.000 
#
# Total GULP energy -67053.588794 kJ/mol
# GULP energy per Si atom -5587.799066 kJ/mol
# Density = 2.340640 g / cm^3
# Si number density = 23.459791 Si / 1000 Ang^3
#
#
#
# Elastic Constant Matrix: (Units=GPa)
#
#
# Indices 1 2 3 4 5 6 
#
# 1 210.9897 53.2280 82.4499 0.0001 -5.1431 0.0000
# 2 53.2280 88.0323 48.8619 0.0000 10.6197 0.0000
# 3 82.4499 48.8619 134.8994 0.0001 -19.1652 0.0001
# 4 0.0001 0.0000 0.0001 54.7336 0.0001 6.2108
# 5 -5.1431 10.6197 -19.1652 0.0001 44.7574 0.0001
# 6 0.0000 0.0000 0.0001 6.2108 0.0001 22.9327
#
#
#
# Elastic Compliance Matrix: (Units=1/GPa)
#
#
# Indices 1 2 3 4 5 6 
#
# 1 0.006544 -0.002142 -0.003242 0.000000 -0.000128 0.000000
# 2 -0.002142 0.016575 -0.005631 0.000000 -0.006590 0.000000
# 3 -0.003242 -0.005631 0.012320 0.000000 0.006239 0.000000
# 4 0.000000 0.000000 0.000000 0.018850 0.000000 -0.005105
# 5 -0.000128 -0.006590 0.006239 0.000000 0.026563 0.000000
# 6 0.000000 0.000000 0.000000 -0.005105 0.000000 0.044988
#
#
# Mechanical properties :
#
#
# Convention : Reuss Voigt Hill
#
# Bulk Modulus (GPa) = 74.57173 89.22232 81.89703
# Shear Modulus (GPa) = 32.82168 41.11018 36.96593
#
# Velocity S-wave (km/s) = 3.74446 4.19067 3.97383
# Velocity P-wave (km/s) = 7.10990 7.84412 7.48602
#
# Compressibility (1/GPa) = 0.01340991
#
# Stress axis : x y z
#
# Youngs Moduli (GPa) = 152.82114 60.33288 81.16719
#
# Poissons Ratio (x) = 0.12921 0.26313
# Poissons Ratio (y) = 0.32730 0.45703
# Poissons Ratio (z) = 0.49543 0.33972
#
# Static dielectric constant tensor:
#      x y z
#    x 1.875370 0.000000 -0.006530 
#    y 0.000000 1.967270 0.000000 
#    z -0.006530 0.000000 1.940920 
# 
# From -- ./inp_files/13801.got.cif
#   From: 2010.05.17/outbox.cif.g08.bks.cpg/sg9_7_cif.got.tgz:13801.got - 2010.06.03 20:04:27.
