data_PCOD9139509
_publ_section_title
;
Structure prediction by ZEFSAII (Michael W. Deem and Ramdas Pophale) SiO2 
 PCOD9139509
Probable space group: C C
;
_chemical_formula_sum "Si O2"
_cell_formula_units_Z 28
_cell_length_a 5.700474
_cell_length_b 21.878968
_cell_length_c 11.794673
_cell_angle_alpha 90.000000
_cell_angle_beta 127.155210
_cell_angle_gamma 90.000000
_cell_volume 1172.420186
_symmetry_space_group_name_H-M "C C"
_symmetry_group_IT_number 9
_symmetry_cell_setting 'monoclinic'
loop_
_space_group_symop_operation_xyz
x,y,z
x,-y,1/2+z
1/2+x,1/2+y,z
1/2+x,1/2-y,1/2+z
loop_
_atom_site_type_symbol
_atom_site_label
_atom_site_fract_x
_atom_site_fract_y
_atom_site_fract_z
Si Si1 0.048460 0.381207 0.611980
Si Si2 0.458168 0.562562 0.571072
Si Si3 0.661688 0.789651 0.466287
Si Si4 0.724779 0.184573 0.387644
Si Si5 0.025583 0.518946 0.620751
Si Si6 0.989367 0.889060 0.311045
Si Si7 0.707173 0.764454 0.234912
O O1 0.171187 0.354617 0.530232
O O2 0.165773 0.334942 0.740280
O O3 0.121449 0.449596 0.670954
O O4 0.701366 0.383096 0.479945
O O5 0.359281 0.626163 0.487268
O O6 0.154267 0.531900 0.530753
O O7 0.622022 0.577002 0.739055
O O8 0.682658 0.528477 0.551990
O O9 0.436208 0.742832 0.459557
O O10 0.570513 0.791645 0.309538
O O11 0.977115 0.759091 0.577835
O O12 0.404522 0.207358 0.331396
O O13 0.202336 0.569273 0.745403
O O14 0.898576 0.821011 0.246579
#
# Coordination Sequence:
#
# PCOD9139509 Si02
#       7
#     4   4   4   4   4   4   4
#     4  12  27  47  76 107 153 196 259 312 382 457
#     4  10  26  48  81 101 158 195 258 305 390 436
#     4  12  27  45  74 110 152 195 251 318 386 454
#     4  12  27  47  70 114 146 197 254 320 380 459
#     4  10  27  49  76 112 146 207 250 317 374 460
#     4  10  25  47  75 105 149 200 251 310 379 451
#     4  12  25  45  76 109 152 196 253 316 389 455
#
# _framework density 23.882224999999998
#
# number of rings (size 3 to 8) (size 9 to 14) (size 15 to 20)
#    0.857    0.000    2.857    2.571   10.000    3.429 
#    0.000    0.000    0.000    0.000    0.000    0.000 
#    0.000    0.000    0.000    0.000    0.000    0.000 
#
# Total GULP energy -78132.321589 kJ/mol
# GULP energy per Si atom -5580.880113 kJ/mol
# Density = 2.382787 g / cm^3
# Si number density = 23.882225 Si / 1000 Ang^3
#
#
#
# Elastic Constant Matrix: (Units=GPa)
#
#
# Indices 1 2 3 4 5 6 
#
# 1 107.5543 23.8731 10.1952 0.0000 -7.5721 0.0000
# 2 23.8731 106.0321 11.0233 0.0000 6.3807 0.0000
# 3 10.1952 11.0233 72.3911 0.0000 1.5604 0.0000
# 4 0.0000 0.0000 0.0000 34.4628 0.0000 7.8444
# 5 -7.5721 6.3807 1.5604 0.0000 30.9996 0.0000
# 6 0.0000 0.0000 0.0000 7.8444 0.0000 20.7503
#
#
#
# Elastic Compliance Matrix: (Units=1/GPa)
#
#
# Indices 1 2 3 4 5 6 
#
# 1 0.010138 -0.002346 -0.001136 0.000000 0.003017 0.000000
# 2 -0.002346 0.010239 -0.001172 0.000000 -0.002622 0.000000
# 3 -0.001136 -0.001172 0.014168 0.000000 -0.000749 0.000000
# 4 0.000000 0.000000 0.000000 0.031749 0.000000 -0.012002
# 5 0.003017 -0.002622 -0.000749 0.000000 0.033573 0.000000
# 6 0.000000 0.000000 0.000000 -0.012002 0.000000 0.052729
#
#
# Mechanical properties :
#
#
# Convention : Reuss Voigt Hill
#
# Bulk Modulus (GPa) = 39.62294 41.79565 40.70930
# Shear Modulus (GPa) = 29.35700 33.30159 31.32930
#
# Velocity S-wave (km/s) = 3.50986 3.73823 3.62584
# Velocity P-wave (km/s) = 5.74913 6.01425 5.88318
#
# Compressibility (1/GPa) = 0.02523790
#
# Stress axis : x y z
#
# Youngs Moduli (GPa) = 98.63490 97.66621 70.57947
#
# Poissons Ratio (x) = 0.22914 0.08015
# Poissons Ratio (y) = 0.23141 0.08273
# Poissons Ratio (z) = 0.11201 0.11448
#
# Static dielectric constant tensor:
#      x y z
#    x 2.020730 0.000000 -0.004170 
#    y 0.000000 1.880030 0.000000 
#    z -0.004170 0.000000 1.878970 
# 
# From -- ./inp_files/13797.got.cif
#   From: 2010.05.17/outbox.cif.g08.bks.cpg/sg9_7_cif.got.tgz:13797.got - 2010.06.03 20:04:27.
