data_PCOD9139271
_publ_section_title
;
Structure prediction by ZEFSAII (Michael W. Deem and Ramdas Pophale) SiO2 
 PCOD9139271
Probable space group: C C
;
_chemical_formula_sum "Si O2"
_cell_formula_units_Z 32
_cell_length_a 8.656781
_cell_length_b 12.014822
_cell_length_c 14.252718
_cell_angle_alpha 90.000000
_cell_angle_beta 116.930308
_cell_angle_gamma 90.000000
_cell_volume 1321.664131
_symmetry_space_group_name_H-M "C C"
_symmetry_group_IT_number 9
_symmetry_cell_setting 'monoclinic'
loop_
_space_group_symop_operation_xyz
x,y,z
x,-y,1/2+z
1/2+x,1/2+y,z
1/2+x,1/2-y,1/2+z
loop_
_atom_site_type_symbol
_atom_site_label
_atom_site_fract_x
_atom_site_fract_y
_atom_site_fract_z
Si Si1 0.832410 0.148309 0.117360
Si Si2 0.876483 0.418236 0.932484
Si Si3 0.793492 0.167713 0.319486
Si Si4 0.928760 0.755191 0.292963
Si Si5 0.051002 0.620399 0.879869
Si Si6 0.448041 0.901942 0.156360
Si Si7 0.020310 0.974861 0.395325
Si Si8 0.179183 0.902203 0.623911
O O1 0.765905 0.127170 0.204320
O O2 0.862206 0.280969 0.125378
O O3 0.017532 0.090117 0.150100
O O4 0.707035 0.125888 0.995873
O O5 0.882470 0.301617 0.880233
O O6 0.680018 0.450595 0.903475
O O7 0.944611 0.512189 0.881693
O O8 0.987737 0.426703 0.058869
O O9 0.614589 0.206032 0.314011
O O10 0.927879 0.271070 0.357142
O O11 0.881321 0.063068 0.394579
O O12 0.787691 0.705974 0.182637
O O13 0.948557 0.887154 0.301292
O O14 0.086385 0.608662 0.778260
O O15 0.308145 0.992866 0.152962
O O16 0.097098 0.898114 0.498576
#
# Coordination Sequence:
#
# PCOD9139271 Si02
#       8
#     4   4   4   4   4   4   4   4
#     4  11  26  45  74 110 147 200 251 301 381 445
#     4  11  23  46  76 105 153 194 238 313 373 435
#     4  11  27  46  76 112 147 203 248 307 379 440
#     4  12  26  48  73 110 147 196 253 306 370 449
#     4  11  23  47  76 107 154 194 250 309 372 443
#     4  10  24  47  74 105 151 195 245 313 366 442
#     4  11  26  50  72 107 153 192 251 312 368 444
#     4  11  25  45  71 106 146 196 248 303 371 438
#
# _framework density 24.211901000000001
#
# number of rings (size 3 to 8) (size 9 to 14) (size 15 to 20)
#    0.000    1.000    2.500    3.000    5.250    4.000 
#    2.250    1.250    0.000    0.000    0.000    0.000 
#    0.000    0.000    0.000    0.000    0.000    0.000 
#
# Total GULP energy -89605.033489 kJ/mol
# GULP energy per Si atom -5600.314593 kJ/mol
# Density = 2.415679 g / cm^3
# Si number density = 24.211901 Si / 1000 Ang^3
#
#
#
# Elastic Constant Matrix: (Units=GPa)
#
#
# Indices 1 2 3 4 5 6 
#
# 1 92.9150 16.0749 12.5924 0.0000 4.0030 0.0000
# 2 16.0749 103.9010 27.1094 0.0000 0.9412 0.0000
# 3 12.5924 27.1094 131.8545 0.0000 -2.3968 0.0000
# 4 0.0000 0.0000 0.0000 41.5478 0.0000 0.8721
# 5 4.0030 0.9412 -2.3968 0.0000 34.1699 0.0000
# 6 0.0000 0.0000 0.0000 0.8721 0.0000 31.1633
#
#
#
# Elastic Compliance Matrix: (Units=1/GPa)
#
#
# Indices 1 2 3 4 5 6 
#
# 1 0.011188 -0.001515 -0.000781 0.000000 -0.001324 0.000000
# 2 -0.001515 0.010382 -0.001994 0.000000 -0.000248 0.000000
# 3 -0.000781 -0.001994 0.008082 0.000000 0.000713 0.000000
# 4 0.000000 0.000000 0.000000 0.024083 0.000000 -0.000674
# 5 -0.001324 -0.000248 0.000713 0.000000 0.029478 0.000000
# 6 0.000000 0.000000 0.000000 -0.000674 0.000000 0.032108
#
#
# Mechanical properties :
#
#
# Convention : Reuss Voigt Hill
#
# Bulk Modulus (GPa) = 47.46078 48.91377 48.18728
# Shear Modulus (GPa) = 38.19038 39.56911 38.87975
#
# Velocity S-wave (km/s) = 3.97588 4.04701 4.01161
# Velocity P-wave (km/s) = 6.38135 6.48722 6.43450
#
# Compressibility (1/GPa) = 0.02107003
#
# Stress axis : x y z
#
# Youngs Moduli (GPa) = 89.38537 96.32483 123.73650
#
# Poissons Ratio (x) = 0.14594 0.09664
# Poissons Ratio (y) = 0.13543 0.24676
# Poissons Ratio (z) = 0.06981 0.19210
#
# Static dielectric constant tensor:
#      x y z
#    x 1.926570 0.000000 -0.000030 
#    y 0.000000 1.884400 0.000000 
#    z -0.000030 0.000000 1.972620 
# 
# From -- ./inp_files/22958.got.cif
#   From: 2010.05.17/outbox.cif.g08.bks.cpg/sg9_12_cif.got.tgz:22958.got - 2010.06.03 20:04:27.
