data_PCOD9139517
_publ_section_title
;
Structure prediction by ZEFSAII (Michael W. Deem and Ramdas Pophale) SiO2 
 PCOD9139517
Probable space group: C C
;
_chemical_formula_sum "Si O2"
_cell_formula_units_Z 24
_cell_length_a 10.371132
_cell_length_b 11.315386
_cell_length_c 11.091741
_cell_angle_alpha 90.000000
_cell_angle_beta 139.947954
_cell_angle_gamma 90.000000
_cell_volume 837.591898
_symmetry_space_group_name_H-M "C C"
_symmetry_group_IT_number 9
_symmetry_cell_setting 'monoclinic'
loop_
_space_group_symop_operation_xyz
x,y,z
x,-y,1/2+z
1/2+x,1/2+y,z
1/2+x,1/2-y,1/2+z
loop_
_atom_site_type_symbol
_atom_site_label
_atom_site_fract_x
_atom_site_fract_y
_atom_site_fract_z
Si Si1 0.995820 0.454030 0.109070
Si Si2 0.577122 0.635117 0.348951
Si Si3 0.308115 0.294451 0.199362
Si Si4 0.616375 0.418715 0.599017
Si Si5 0.141286 0.653488 0.078028
Si Si6 0.815081 0.111602 0.437747
O O1 0.107374 0.348574 0.119218
O O2 0.160524 0.502455 0.320024
O O3 0.974422 0.558319 0.993916
O O4 0.786748 0.430278 0.024357
O O5 0.351542 0.587631 0.202000
O O6 0.528304 0.447895 0.049727
O O7 0.587096 0.634607 0.211859
O O8 0.479249 0.357586 0.399197
O O9 0.324228 0.331048 0.072740
O O10 0.320508 0.151431 0.213233
O O11 0.213850 0.698542 0.264267
O O12 0.095388 0.742727 0.937473
#
# Coordination Sequence:
#
# PCOD9139517 Si02
#       6
#     4   4   4   4   4   4
#     4   9  23  46  74 116 151 212 267 327 403 466
#     4  12  23  48  81 111 161 210 268 332 401 484
#     4  11  21  43  71 103 156 197 260 324 391 472
#     4  11  24  41  73 111 144 210 257 323 395 462
#     4  10  25  48  76 121 155 208 271 331 401 485
#     4   9  24  50  69 106 165 195 261 339 381 473
#
# _framework density 28.653573999999999
#
# number of rings (size 3 to 8) (size 9 to 14) (size 15 to 20)
#    1.000    0.667    0.000    4.000    0.000    6.667 
#    9.000    1.667    0.000    0.000    0.000    0.000 
#    0.000    0.000    0.000    0.000    0.000    0.000 
#
# Total GULP energy -66989.406787 kJ/mol
# GULP energy per Si atom -5582.450566 kJ/mol
# Density = 2.858836 g / cm^3
# Si number density = 28.653574 Si / 1000 Ang^3
#
#
#
# Elastic Constant Matrix: (Units=GPa)
#
#
# Indices 1 2 3 4 5 6 
#
# 1 83.7097 26.7607 5.9811 0.0001 2.8416 0.0000
# 2 26.7607 114.7702 5.6052 0.0001 1.4643 0.0000
# 3 5.9811 5.6052 93.5340 0.0003 -4.1694 0.0001
# 4 0.0001 0.0001 0.0003 50.6953 0.0001 -9.6609
# 5 2.8416 1.4643 -4.1694 0.0001 88.3507 0.0000
# 6 0.0000 0.0000 0.0001 -9.6609 0.0000 67.7416
#
#
#
# Elastic Compliance Matrix: (Units=1/GPa)
#
#
# Indices 1 2 3 4 5 6 
#
# 1 0.012961 -0.002984 -0.000668 0.000000 -0.000399 0.000000
# 2 -0.002984 0.009428 -0.000378 0.000000 -0.000078 0.000000
# 3 -0.000668 -0.000378 0.010781 0.000000 0.000536 0.000000
# 4 0.000000 0.000000 0.000000 0.020277 0.000000 0.002892
# 5 -0.000399 -0.000078 0.000536 0.000000 0.011358 0.000000
# 6 0.000000 0.000000 0.000000 0.002892 0.000000 0.015174
#
#
# Mechanical properties :
#
#
# Convention : Reuss Voigt Hill
#
# Bulk Modulus (GPa) = 39.82390 40.96756 40.39573
# Shear Modulus (GPa) = 51.86215 58.26864 55.06539
#
# Velocity S-wave (km/s) = 4.25899 4.51439 4.38855
# Velocity P-wave (km/s) = 6.17365 6.44217 6.30934
#
# Compressibility (1/GPa) = 0.02511055
#
# Stress axis : x y z
#
# Youngs Moduli (GPa) = 77.15219 106.06262 92.75966
#
# Poissons Ratio (x) = 0.31654 0.06194
# Poissons Ratio (y) = 0.23026 0.03503
# Poissons Ratio (z) = 0.05152 0.04006
#
# Static dielectric constant tensor:
#      x y z
#    x 2.284910 0.000000 0.039880 
#    y 0.000000 2.401240 0.000000 
#    z 0.039880 0.000000 2.227540 
# 
# From -- ./inp_files/24936.got.cif
#   From: 2010.05.17/outbox.cif.g08.bks.cpg/sg9_13_cif.got.tgz:24936.got - 2010.06.03 20:04:27.
