data_PCOD9139129
_publ_section_title
;
Structure prediction by ZEFSAII (Michael W. Deem and Ramdas Pophale) SiO2 
 PCOD9139129
Probable space group: C C
;
_chemical_formula_sum "Si O2"
_cell_formula_units_Z 28
_cell_length_a 9.325793
_cell_length_b 13.027275
_cell_length_c 15.122192
_cell_angle_alpha 90.000000
_cell_angle_beta 138.870821
_cell_angle_gamma 90.000000
_cell_volume 1208.428200
_symmetry_space_group_name_H-M "C C"
_symmetry_group_IT_number 9
_symmetry_cell_setting 'monoclinic'
loop_
_space_group_symop_operation_xyz
x,y,z
x,-y,1/2+z
1/2+x,1/2+y,z
1/2+x,1/2-y,1/2+z
loop_
_atom_site_type_symbol
_atom_site_label
_atom_site_fract_x
_atom_site_fract_y
_atom_site_fract_z
Si Si1 0.448340 0.654117 0.291730
Si Si2 0.958300 0.405586 0.046239
Si Si3 0.994192 0.374884 0.617096
Si Si4 0.384250 0.088952 0.250694
Si Si5 0.924506 0.068711 0.093765
Si Si6 0.073497 0.375026 0.304481
Si Si7 0.265141 0.662353 0.525618
O O1 0.700168 0.623699 0.425226
O O2 0.352658 0.611535 0.154624
O O3 0.453877 0.775460 0.283869
O O4 0.251394 0.620163 0.264468
O O5 0.957532 0.529913 0.033658
O O6 0.050977 0.383222 0.188240
O O7 0.122424 0.351172 0.051511
O O8 0.838710 0.403784 0.626706
O O9 0.923433 0.256611 0.574252
O O10 0.569738 0.167082 0.364275
O O11 0.173751 0.101979 0.209577
O O12 0.471499 0.974672 0.302907
O O13 0.891584 0.946209 0.075177
O O14 0.814039 0.121856 0.957866
#
# Coordination Sequence:
#
# PCOD9139129 Si02
#       7
#     4   4   4   4   4   4   4
#     4  12  24  45  73 104 141 187 243 301 367 429
#     4  11  25  47  70 109 144 185 245 306 356 439
#     4  11  27  45  71 108 144 187 244 303 364 436
#     4  10  24  45  66 106 140 182 245 297 358 441
#     4  11  23  44  72 100 145 185 243 299 359 438
#     4  10  25  42  70  96 144 186 233 291 371 424
#     4  11  24  46  74 103 144 196 241 299 369 431
#
# _framework density 23.170594999999999
#
# number of rings (size 3 to 8) (size 9 to 14) (size 15 to 20)
#    0.000    1.143    2.857    1.714    4.000   10.286 
#    0.000    0.000    0.000    0.000    0.000    0.000 
#    0.000    0.000    0.000    0.000    0.000    0.000 
#
# Total GULP energy -78035.088088 kJ/mol
# GULP energy per Si atom -5573.934863 kJ/mol
# Density = 2.311786 g / cm^3
# Si number density = 23.170595 Si / 1000 Ang^3
#
#
#
# Elastic Constant Matrix: (Units=GPa)
#
#
# Indices 1 2 3 4 5 6 
#
# 1 81.1118 -14.8222 24.0514 0.0000 10.3495 0.0000
# 2 -14.8222 98.7623 7.7876 0.0000 18.4228 0.0000
# 3 24.0514 7.7876 92.2984 0.0000 8.1007 0.0000
# 4 0.0000 0.0000 0.0000 9.1404 0.0000 -3.8723
# 5 10.3495 18.4228 8.1007 0.0000 40.3328 0.0000
# 6 0.0000 0.0000 0.0000 -3.8723 0.0000 13.4045
#
#
#
# Elastic Compliance Matrix: (Units=1/GPa)
#
#
# Indices 1 2 3 4 5 6 
#
# 1 0.014609 0.003328 -0.003690 0.000000 -0.004528 0.000000
# 2 0.003328 0.011849 -0.001341 0.000000 -0.005997 0.000000
# 3 -0.003690 -0.001341 0.011984 0.000000 -0.000848 0.000000
# 4 0.000000 0.000000 0.000000 0.124660 0.000000 0.036012
# 5 -0.004528 -0.005997 -0.000848 0.000000 0.028865 0.000000
# 6 0.000000 0.000000 0.000000 0.036012 0.000000 0.085005
#
#
# Mechanical properties :
#
#
# Convention : Reuss Voigt Hill
#
# Bulk Modulus (GPa) = 28.54227 34.02291 31.28259
# Shear Modulus (GPa) = 17.12001 29.58592 23.35296
#
# Velocity S-wave (km/s) = 2.72116 3.57721 3.17814
# Velocity P-wave (km/s) = 4.71360 5.63715 5.19594
#
# Compressibility (1/GPa) = 0.03503575
#
# Stress axis : x y z
#
# Youngs Moduli (GPa) = 68.45212 84.39411 83.44780
#
# Poissons Ratio (x) = -0.28087 0.30794
# Poissons Ratio (y) = -0.22781 0.11187
# Poissons Ratio (z) = 0.25260 0.11314
#
# Static dielectric constant tensor:
#      x y z
#    x 1.842970 0.000000 0.018530 
#    y 0.000000 1.912250 0.000000 
#    z 0.018530 0.000000 1.945470 
# 
# From -- ./inp_files/14501.got.cif
#   From: 2010.05.17/outbox.cif.g08.bks.cpg/sg9_8_cif.got.tgz:14501.got - 2010.06.03 20:04:27.
