data_PCOD9139429
_publ_section_title
;
Structure prediction by ZEFSAII (Michael W. Deem and Ramdas Pophale) SiO2 
 PCOD9139429
Probable space group: C C
;
_chemical_formula_sum "Si O2"
_cell_formula_units_Z 20
_cell_length_a 4.787857
_cell_length_b 21.458694
_cell_length_c 8.143580
_cell_angle_alpha 90.000000
_cell_angle_beta 69.821281
_cell_angle_gamma 90.000000
_cell_volume 785.326384
_symmetry_space_group_name_H-M "C C"
_symmetry_group_IT_number 9
_symmetry_cell_setting 'monoclinic'
loop_
_space_group_symop_operation_xyz
x,y,z
x,-y,1/2+z
1/2+x,1/2+y,z
1/2+x,1/2-y,1/2+z
loop_
_atom_site_type_symbol
_atom_site_label
_atom_site_fract_x
_atom_site_fract_y
_atom_site_fract_z
Si Si1 0.758850 0.905378 0.765950
Si Si2 0.240209 0.199631 0.104163
Si Si3 0.386805 0.297131 0.360083
Si Si4 0.301201 0.900860 0.114872
Si Si5 0.803179 0.980607 0.075308
O O1 0.020564 0.856231 0.697096
O O2 0.098237 0.849155 0.237383
O O3 0.718272 0.947950 0.614971
O O4 0.832597 0.960643 0.880235
O O5 0.075084 0.228627 0.977423
O O6 0.293736 0.248392 0.238908
O O7 0.474693 0.123820 0.416719
O O8 0.571679 0.178177 0.990592
O O9 0.547599 0.931499 0.183279
O O10 0.108716 0.958816 0.092278
#
# Coordination Sequence:
#
# PCOD9139429 Si02
#       5
#     4   4   4   4   4
#     4  10  28  50  83 121 163 213 275 337 424 485
#     4  12  30  51  86 117 173 221 280 349 414 507
#     4  12  29  53  81 119 168 222 287 338 424 490
#     4  10  26  48  77 113 160 213 273 337 399 496
#     4  10  25  44  85 112 166 201 277 335 411 490
#
# _framework density 25.467119
#
# number of rings (size 3 to 8) (size 9 to 14) (size 15 to 20)
#    1.200    0.000    0.000    2.400   11.200    3.200 
#    0.000    0.000    0.000    0.000    0.000    0.000 
#    0.000    0.000    0.000    0.000    0.000    0.000 
#
# Total GULP energy -55950.869896 kJ/mol
# GULP energy per Si atom -5595.086990 kJ/mol
# Density = 2.540916 g / cm^3
# Si number density = 25.467119 Si / 1000 Ang^3
#
#
#
# Elastic Constant Matrix: (Units=GPa)
#
#
# Indices 1 2 3 4 5 6 
#
# 1 177.4142 70.2367 56.8267 0.0000 -26.6892 0.0000
# 2 70.2367 144.5984 69.3113 0.0000 -28.0426 0.0000
# 3 56.8267 69.3113 103.5248 0.0000 -2.3489 0.0000
# 4 0.0000 0.0000 0.0000 32.2563 0.0000 14.9200
# 5 -26.6892 -28.0426 -2.3489 0.0000 62.5054 0.0000
# 6 0.0000 0.0000 0.0000 14.9200 0.0000 -3.3901
#
#
#
# Elastic Compliance Matrix: (Units=1/GPa)
#
#
# Indices 1 2 3 4 5 6 
#
# 1 0.007656 -0.001886 -0.002887 0.000000 0.002314 0.000000
# 2 -0.001886 0.011962 -0.006876 0.000000 0.004303 0.000000
# 3 -0.002887 -0.006876 0.015764 0.000000 -0.003725 0.000000
# 4 0.000000 0.000000 0.000000 0.010212 0.000000 0.044945
# 5 0.002314 0.004303 -0.003725 0.000000 0.018777 0.000000
# 6 0.000000 0.000000 0.000000 0.044945 0.000000 -0.097169
#
#
# Mechanical properties :
#
#
# Convention : Reuss Voigt Hill
#
# Bulk Modulus (GPa) = 82.75988 90.92077 86.84032
# Shear Modulus (GPa) = -913.95889 33.55181 -440.20354
#
# Velocity S-wave (km/s) = -18.96463 3.63362 -13.16157
# Velocity P-wave (km/s) = 21.14179 7.30636 14.02841
#
# Compressibility (1/GPa) = 0.01208315
#
# Stress axis : x y z
#
# Youngs Moduli (GPa) = 130.61289 83.59636 63.43754
#
# Poissons Ratio (x) = 0.15766 0.18317
# Poissons Ratio (y) = 0.24634 0.43620
# Poissons Ratio (z) = 0.37713 0.57481
#
# Static dielectric constant tensor:
#      x y z
#    x 1.974760 0.000000 -0.011110 
#    y 0.000000 2.023670 0.000000 
#    z -0.011110 0.000000 2.141500 
# 
# From -- ./inp_files/3849.got.cif
#   From: 2010.05.17/outbox.cif.g08.bks.cpg/sg9_2_cif.got.tgz:3849.got - 2010.06.03 20:04:27.
