data_PCOD9139443
_publ_section_title
;
Structure prediction by ZEFSAII (Michael W. Deem and Ramdas Pophale) SiO2 
 PCOD9139443
Probable space group: C C
;
_chemical_formula_sum "Si O2"
_cell_formula_units_Z 28
_cell_length_a 8.063867
_cell_length_b 8.919953
_cell_length_c 21.100621
_cell_angle_alpha 90.000000
_cell_angle_beta 49.275305
_cell_angle_gamma 90.000000
_cell_volume 1150.234133
_symmetry_space_group_name_H-M "C C"
_symmetry_group_IT_number 9
_symmetry_cell_setting 'monoclinic'
loop_
_space_group_symop_operation_xyz
x,y,z
x,-y,1/2+z
1/2+x,1/2+y,z
1/2+x,1/2-y,1/2+z
loop_
_atom_site_type_symbol
_atom_site_label
_atom_site_fract_x
_atom_site_fract_y
_atom_site_fract_z
Si Si1 0.680940 0.806882 0.205250
Si Si2 0.064660 0.322096 0.988056
Si Si3 0.436155 0.518644 0.071071
Si Si4 0.452333 0.297634 0.262867
Si Si5 0.672032 0.301280 0.333503
Si Si6 0.043205 0.133620 0.412768
Si Si7 0.232633 0.028199 0.116668
O O1 0.844791 0.758506 0.220778
O O2 0.428720 0.796291 0.284739
O O3 0.731862 0.698878 0.134681
O O4 0.725940 0.968728 0.163526
O O5 0.056161 0.304896 0.914397
O O6 0.315691 0.301935 0.944298
O O7 0.975171 0.465826 0.047021
O O8 0.918529 0.188090 0.052418
O O9 0.625291 0.502399 0.075609
O O10 0.503382 0.421592 0.993954
O O11 0.625068 0.245439 0.273985
O O12 0.230839 0.259629 0.358444
O O13 0.580701 0.448051 0.207654
O O14 0.599635 0.476129 0.361525
#
# Coordination Sequence:
#
# PCOD9139443 Si02
#       7
#     4   4   4   4   4   4   4
#     4  11  25  50  71 110 148 187 247 298 360 439
#     4  11  25  48  73 107 144 190 246 300 361 431
#     4  10  25  45  72 103 142 197 234 301 361 430
#     4  11  25  44  75 104 144 194 234 299 366 426
#     4  11  26  46  74 105 145 194 240 301 362 434
#     4  11  24  46  72 109 145 189 248 299 358 441
#     4  11  26  45  71 108 144 189 243 302 358 433
#
# _framework density 24.342867999999999
#
# number of rings (size 3 to 8) (size 9 to 14) (size 15 to 20)
#    0.000    1.143    1.429    2.571    6.000    8.000 
#    0.000    0.000    0.000    0.000    0.000    0.000 
#    0.000    0.000    0.000    0.000    0.000    0.000 
#
# Total GULP energy -78105.211057 kJ/mol
# GULP energy per Si atom -5578.943647 kJ/mol
# Density = 2.428746 g / cm^3
# Si number density = 24.342868 Si / 1000 Ang^3
#
#
#
# Elastic Constant Matrix: (Units=GPa)
#
#
# Indices 1 2 3 4 5 6 
#
# 1 100.7194 3.9367 31.8643 0.0000 18.6302 0.0000
# 2 3.9367 53.5285 51.1831 0.0000 -0.8563 0.0000
# 3 31.8643 51.1831 101.5177 0.0000 20.6553 0.0000
# 4 0.0000 0.0000 0.0000 40.3093 0.0000 -0.8275
# 5 18.6302 -0.8563 20.6553 0.0000 50.2632 0.0000
# 6 0.0000 0.0000 0.0000 -0.8275 0.0000 19.4674
#
#
#
# Elastic Compliance Matrix: (Units=1/GPa)
#
#
# Indices 1 2 3 4 5 6 
#
# 1 0.011883 0.004358 -0.005506 0.000000 -0.002067 0.000000
# 2 0.004358 0.041654 -0.024209 0.000000 0.009043 0.000000
# 3 -0.005506 -0.024209 0.025593 0.000000 -0.008889 0.000000
# 4 0.000000 0.000000 0.000000 0.024830 0.000000 0.001055
# 5 -0.002067 0.009043 -0.008889 0.000000 0.024468 0.000000
# 6 0.000000 0.000000 0.000000 0.001055 0.000000 0.051413
#
#
# Mechanical properties :
#
#
# Convention : Reuss Voigt Hill
#
# Bulk Modulus (GPa) = 35.19222 47.74823 41.47022
# Shear Modulus (GPa) = 20.83105 33.26006 27.04556
#
# Velocity S-wave (km/s) = 2.92847 3.70038 3.33682
# Velocity P-wave (km/s) = 5.09145 6.15748 5.64966
#
# Compressibility (1/GPa) = 0.02841537
#
# Stress axis : x y z
#
# Youngs Moduli (GPa) = 84.15624 24.00740 39.07328
#
# Poissons Ratio (x) = -0.10463 0.21515
# Poissons Ratio (y) = -0.36677 0.94592
# Poissons Ratio (z) = 0.46340 0.58119
#
# Static dielectric constant tensor:
#      x y z
#    x 1.895640 0.000000 -0.018560 
#    y 0.000000 1.984240 0.000000 
#    z -0.018560 0.000000 1.936570 
# 
# From -- ./inp_files/32368.got.cif
#   From: 2010.05.17/outbox.cif.g08.bks.cpg/sg9_17_cif.got.tgz:32368.got - 2010.06.03 20:04:27.
