data_PCOD9139286
_publ_section_title
;
Structure prediction by ZEFSAII (Michael W. Deem and Ramdas Pophale) SiO2 
 PCOD9139286
Probable space group: C C
;
_chemical_formula_sum "Si O2"
_cell_formula_units_Z 28
_cell_length_a 8.699663
_cell_length_b 18.387992
_cell_length_c 12.455682
_cell_angle_alpha 90.000000
_cell_angle_beta 145.893610
_cell_angle_gamma 90.000000
_cell_volume 1117.272422
_symmetry_space_group_name_H-M "C C"
_symmetry_group_IT_number 9
_symmetry_cell_setting 'monoclinic'
loop_
_space_group_symop_operation_xyz
x,y,z
x,-y,1/2+z
1/2+x,1/2+y,z
1/2+x,1/2-y,1/2+z
loop_
_atom_site_type_symbol
_atom_site_label
_atom_site_fract_x
_atom_site_fract_y
_atom_site_fract_z
Si Si1 0.012190 0.678272 0.802410
Si Si2 0.626095 0.692901 0.068155
Si Si3 0.163705 0.349341 0.010332
Si Si4 0.274821 0.337401 0.667096
Si Si5 0.331505 0.086090 0.491115
Si Si6 0.779614 0.929990 0.886700
Si Si7 0.185508 0.956309 0.521340
O O1 0.322754 0.700966 0.943476
O O2 0.825460 0.750569 0.701020
O O3 0.898558 0.623305 0.646109
O O4 0.056332 0.647645 0.947386
O O5 0.737993 0.769642 0.093158
O O6 0.609557 0.627863 0.972354
O O7 0.865547 0.665703 0.284293
O O8 0.089969 0.402728 0.064842
O O9 0.363614 0.382248 0.037076
O O10 0.564558 0.371100 0.798138
O O11 0.229474 0.376644 0.755415
O O12 0.240067 0.002789 0.446616
O O13 0.484707 0.961440 0.748348
O O14 0.968945 0.996542 0.962744
#
# Coordination Sequence:
#
# PCOD9139286 Si02
#       7
#     4   4   4   4   4   4   4
#     4  12  20  39  71 104 137 193 240 294 365 426
#     4  11  21  40  70 105 144 183 244 299 358 432
#     4  11  22  42  72 103 140 189 243 301 353 432
#     4  11  22  39  68 105 140 185 248 296 349 432
#     4  11  22  43  72 102 142 192 239 296 361 438
#     4  10  25  47  70 103 151 188 242 305 360 439
#     4  10  24  48  69 102 150 190 236 299 370 431
#
# _framework density 25.061032999999998
#
# number of rings (size 3 to 8) (size 9 to 14) (size 15 to 20)
#    0.000    1.143    4.286    1.714    0.000    2.286 
#    7.714    5.714   12.571    0.000    0.000    0.000 
#    0.000    0.000    0.000    0.000    0.000    0.000 
#
# Total GULP energy -78305.628818 kJ/mol
# GULP energy per Si atom -5593.259201 kJ/mol
# Density = 2.500399 g / cm^3
# Si number density = 25.061033 Si / 1000 Ang^3
#
#
#
# Elastic Constant Matrix: (Units=GPa)
#
#
# Indices 1 2 3 4 5 6 
#
# 1 99.7300 66.1885 14.7054 0.0001 -19.0026 -0.0005
# 2 66.1885 125.4919 -14.2615 0.0000 -14.2862 -0.0002
# 3 14.7054 -14.2615 73.1947 0.0016 3.3004 -0.0004
# 4 0.0001 0.0000 0.0016 14.4938 0.0004 6.4155
# 5 -19.0026 -14.2862 3.3004 0.0004 39.1735 -0.0004
# 6 -0.0005 -0.0002 -0.0004 6.4155 -0.0004 22.3609
#
#
#
# Elastic Compliance Matrix: (Units=1/GPa)
#
#
# Indices 1 2 3 4 5 6 
#
# 1 0.018489 -0.009747 -0.005880 0.000000 0.005910 0.000000
# 2 -0.009747 0.013617 0.004618 0.000000 -0.000151 0.000000
# 3 -0.005880 0.004618 0.015856 -0.000002 -0.002504 0.000001
# 4 0.000000 0.000000 -0.000002 0.079032 -0.000001 -0.022675
# 5 0.005910 -0.000151 -0.002504 -0.000001 0.028550 0.000001
# 6 0.000000 0.000000 0.000001 -0.022675 0.000001 0.051227
#
#
# Mechanical properties :
#
#
# Convention : Reuss Voigt Hill
#
# Bulk Modulus (GPa) = 38.54391 47.96459 43.25425
# Shear Modulus (GPa) = 21.05817 30.65792 25.85804
#
# Velocity S-wave (km/s) = 2.90190 3.50141 3.21565
# Velocity P-wave (km/s) = 5.16153 5.96046 5.57533
#
# Compressibility (1/GPa) = 0.02594443
#
# Stress axis : x y z
#
# Youngs Moduli (GPa) = 54.08558 73.43579 63.06619
#
# Poissons Ratio (x) = 0.71580 0.37085
# Poissons Ratio (y) = 0.52719 -0.29126
# Poissons Ratio (z) = 0.31804 -0.33915
#
# Static dielectric constant tensor:
#      x y z
#    x 2.023050 0.000000 -0.075170 
#    y 0.000000 2.089120 0.000000 
#    z -0.075170 0.000000 2.096610 
# 
# From -- ./inp_files/15509.got.cif
#   From: 2010.05.17/outbox.cif.g08.bks.cpg/sg9_8_cif.got.tgz:15509.got - 2010.06.03 20:04:27.
