data_PCOD9139088
_publ_section_title
;
Structure prediction by ZEFSAII (Michael W. Deem and Ramdas Pophale) SiO2 
 PCOD9139088
Probable space group: C C
;
_chemical_formula_sum "Si O2"
_cell_formula_units_Z 28
_cell_length_a 13.885994
_cell_length_b 4.999344
_cell_length_c 18.009581
_cell_angle_alpha 90.000000
_cell_angle_beta 50.917270
_cell_angle_gamma 90.000000
_cell_volume 970.482361
_symmetry_space_group_name_H-M "C C"
_symmetry_group_IT_number 9
_symmetry_cell_setting 'monoclinic'
loop_
_space_group_symop_operation_xyz
x,y,z
x,-y,1/2+z
1/2+x,1/2+y,z
1/2+x,1/2-y,1/2+z
loop_
_atom_site_type_symbol
_atom_site_label
_atom_site_fract_x
_atom_site_fract_y
_atom_site_fract_z
Si Si1 0.951570 0.108500 0.346550
Si Si2 0.179071 0.995854 0.314545
Si Si3 0.131243 0.148647 0.060027
Si Si4 0.608143 0.983325 0.703674
Si Si5 0.329158 0.760882 0.022683
Si Si6 0.411398 0.646057 0.712368
Si Si7 0.093677 0.494382 0.939319
O O1 0.081631 0.955027 0.295974
O O2 0.012493 0.404813 0.313077
O O3 0.873760 0.998440 0.453512
O O4 0.890671 0.023263 0.298828
O O5 0.301295 0.165437 0.236788
O O6 0.119303 0.197484 0.405722
O O7 0.178811 0.698352 0.345728
O O8 0.137406 0.248910 0.141476
O O9 0.246145 0.940313 0.005253
O O10 0.992797 0.026018 0.116180
O O11 0.133756 0.389195 0.000430
O O12 0.741151 0.837766 0.633106
O O13 0.515991 0.842812 0.691837
O O14 0.450385 0.914414 0.993835
#
# Coordination Sequence:
#
# PCOD9139088 Si02
#       7
#     4   4   4   4   4   4   4
#     4  10  24  44  72 102 145 190 244 302 369 444
#     4  11  27  44  71 106 140 191 246 297 376 441
#     4  10  24  45  69 102 145 191 246 308 375 443
#     4  10  24  44  71 105 133 196 243 304 377 432
#     4  10  24  44  70 103 146 195 246 306 374 448
#     4  10  24  45  67 104 143 191 243 311 376 438
#     4  11  27  44  70 108 138 192 246 300 369 446
#
# _framework density 28.85163
#
# number of rings (size 3 to 8) (size 9 to 14) (size 15 to 20)
#    0.000    1.714    0.000    0.857   20.000    0.000 
#    7.714    0.000    0.000    0.000    0.000    0.000 
#    0.000    0.000    0.000    0.000    0.000    0.000 
#
# Total GULP energy -78258.565935 kJ/mol
# GULP energy per Si atom -5589.897567 kJ/mol
# Density = 2.878596 g / cm^3
# Si number density = 28.851630 Si / 1000 Ang^3
#
#
#
# Elastic Constant Matrix: (Units=GPa)
#
#
# Indices 1 2 3 4 5 6 
#
# 1 158.6328 16.9004 23.2633 0.0014 -37.5704 0.0099
# 2 16.9004 94.6650 4.8573 0.0055 -9.5014 0.0242
# 3 23.2633 4.8573 125.8097 -0.0011 -21.1875 0.0004
# 4 0.0014 0.0055 -0.0011 55.1006 -0.0014 -12.0412
# 5 -37.5704 -9.5014 -21.1875 -0.0014 53.0930 0.0016
# 6 0.0099 0.0242 0.0004 -12.0412 0.0016 37.1248
#
#
#
# Elastic Compliance Matrix: (Units=1/GPa)
#
#
# Indices 1 2 3 4 5 6 
#
# 1 0.007671 -0.000834 -0.000533 0.000000 0.005066 -0.000002
# 2 -0.000834 0.010848 -0.000040 -0.000003 0.001336 -0.000008
# 3 -0.000533 -0.000040 0.008559 0.000000 0.003031 0.000000
# 4 0.000000 -0.000003 0.000000 0.019533 0.000000 0.006335
# 5 0.005066 0.001336 0.003031 0.000000 0.023869 -0.000003
# 6 -0.000002 -0.000008 0.000000 0.006335 -0.000003 0.028991
#
#
# Mechanical properties :
#
#
# Convention : Reuss Voigt Hill
#
# Bulk Modulus (GPa) = 41.21069 52.12771 46.66920
# Shear Modulus (GPa) = 45.30122 51.33612 48.31867
#
# Velocity S-wave (km/s) = 3.96680 4.22277 4.09679
# Velocity P-wave (km/s) = 5.94099 6.47166 6.21200
#
# Compressibility (1/GPa) = 0.02426555
#
# Stress axis : x y z
#
# Youngs Moduli (GPa) = 130.36607 92.17869 116.83457
#
# Poissons Ratio (x) = 0.07684 0.06227
# Poissons Ratio (y) = 0.10867 0.00465
# Poissons Ratio (z) = 0.06949 0.00367
#
# Static dielectric constant tensor:
#      x y z
#    x 2.189270 -0.000020 0.007420 
#    y -0.000020 2.507830 -0.000020 
#    z 0.007420 -0.000020 2.382630 
# 
# From -- ./inp_files/25233.got.cif
#   From: 2010.05.17/outbox.cif.g08.bks.cpg/sg9_13_cif.got.tgz:25233.got - 2010.06.03 20:04:27.
