data_PCOD9139030
_publ_section_title
;
Structure prediction by ZEFSAII (Michael W. Deem and Ramdas Pophale) SiO2 
 PCOD9139030
Probable space group: C C
;
_chemical_formula_sum "Si O2"
_cell_formula_units_Z 28
_cell_length_a 9.118163
_cell_length_b 10.453274
_cell_length_c 19.831931
_cell_angle_alpha 90.000000
_cell_angle_beta 135.577106
_cell_angle_gamma 90.000000
_cell_volume 1323.094742
_symmetry_space_group_name_H-M "C C"
_symmetry_group_IT_number 9
_symmetry_cell_setting 'monoclinic'
loop_
_space_group_symop_operation_xyz
x,y,z
x,-y,1/2+z
1/2+x,1/2+y,z
1/2+x,1/2-y,1/2+z
loop_
_atom_site_type_symbol
_atom_site_label
_atom_site_fract_x
_atom_site_fract_y
_atom_site_fract_z
Si Si1 0.405470 0.976574 0.477590
Si Si2 0.968461 0.316922 0.768028
Si Si3 0.892320 0.713395 0.859580
Si Si4 0.510978 0.889064 0.259808
Si Si5 0.535126 0.738919 0.060173
Si Si6 0.493392 0.359418 0.399015
Si Si7 0.211386 0.734016 0.064465
O O1 0.394222 0.927209 0.396229
O O2 0.175209 0.949340 0.430324
O O3 0.586341 0.877323 0.563316
O O4 0.467557 0.118994 0.515680
O O5 0.160715 0.268860 0.784952
O O6 0.945714 0.468291 0.757151
O O7 0.012814 0.266473 0.857994
O O8 0.757093 0.256897 0.669654
O O9 0.995986 0.700290 0.821185
O O10 0.027469 0.794737 0.958085
O O11 0.348298 0.828858 0.153573
O O12 0.749887 0.896802 0.313051
O O13 0.370361 0.681054 0.059719
O O14 0.540489 0.661424 0.992811
#
# Coordination Sequence:
#
# PCOD9139030 Si02
#       7
#     4   4   4   4   4   4   4
#     4   9  24  45  64  94 134 170 221 274 323 393
#     4  11  27  42  68 105 128 174 231 262 343 399
#     4   9  23  48  62  97 134 174 218 272 330 392
#     4  12  24  43  70  96 139 175 215 286 322 396
#     4  12  24  43  69  98 134 174 219 278 328 392
#     4  11  24  43  66  99 131 177 223 266 338 392
#     4  10  24  44  63 101 130 174 225 264 338 386
#
# _framework density 21.162507000000002
#
# number of rings (size 3 to 8) (size 9 to 14) (size 15 to 20)
#    0.857    0.571    2.857    0.857    6.000    1.143 
#    5.143    0.000    0.000    0.000    0.000    0.000 
#    0.000    0.000    0.000    0.000    0.000    0.000 
#
# Total GULP energy -78104.307118 kJ/mol
# GULP energy per Si atom -5578.879080 kJ/mol
# Density = 2.111434 g / cm^3
# Si number density = 21.162507 Si / 1000 Ang^3
#
#
#
# Elastic Constant Matrix: (Units=GPa)
#
#
# Indices 1 2 3 4 5 6 
#
# 1 93.9914 7.4437 37.0562 0.0000 18.1835 0.0000
# 2 7.4437 34.4910 4.4502 0.0000 -7.5006 0.0000
# 3 37.0562 4.4502 85.2963 0.0000 11.0736 0.0000
# 4 0.0000 0.0000 0.0000 19.5910 0.0000 2.4185
# 5 18.1835 -7.5006 11.0736 0.0000 41.1830 0.0000
# 6 0.0000 0.0000 0.0000 2.4185 0.0000 17.6442
#
#
#
# Elastic Compliance Matrix: (Units=1/GPa)
#
#
# Indices 1 2 3 4 5 6 
#
# 1 0.014022 -0.003537 -0.005201 0.000000 -0.005437 0.000000
# 2 -0.003537 0.031551 -0.001096 0.000000 0.007603 0.000000
# 3 -0.005201 -0.001096 0.014266 0.000000 -0.001739 0.000000
# 4 0.000000 0.000000 0.000000 0.051922 0.000000 -0.007117
# 5 -0.005437 0.007603 -0.001739 0.000000 0.028535 0.000000
# 6 0.000000 0.000000 0.000000 -0.007117 0.000000 0.057652
#
#
# Mechanical properties :
#
#
# Convention : Reuss Voigt Hill
#
# Bulk Modulus (GPa) = 24.89447 34.63099 29.76273
# Shear Modulus (GPa) = 21.64426 26.67221 24.15823
#
# Velocity S-wave (km/s) = 3.20154 3.55400 3.38236
# Velocity P-wave (km/s) = 5.04534 5.76550 5.41740
#
# Compressibility (1/GPa) = 0.04016956
#
# Stress axis : x y z
#
# Youngs Moduli (GPa) = 71.31756 31.69438 70.09437
#
# Poissons Ratio (x) = 0.11211 0.36458
# Poissons Ratio (y) = 0.25227 0.07685
# Poissons Ratio (z) = 0.37094 0.03475
#
# Static dielectric constant tensor:
#      x y z
#    x 1.777980 0.000000 -0.002310 
#    y 0.000000 1.756530 0.000000 
#    z -0.002310 0.000000 1.762730 
# 
# From -- ./inp_files/22781.got.cif
#   From: 2010.05.17/outbox.cif.g08.bks.cpg/sg9_12_cif.got.tgz:22781.got - 2010.06.03 20:04:27.
