data_PCOD9139930
_publ_section_title
;
Structure prediction by ZEFSAII (Michael W. Deem and Ramdas Pophale) SiO2 
 PCOD9139930
Probable space group: C C
;
_chemical_formula_sum "Si O2"
_cell_formula_units_Z 32
_cell_length_a 24.687911
_cell_length_b 6.738950
_cell_length_c 26.085991
_cell_angle_alpha 90.000000
_cell_angle_beta 20.755489
_cell_angle_gamma 90.000000
_cell_volume 1537.991322
_symmetry_space_group_name_H-M "C C"
_symmetry_group_IT_number 9
_symmetry_cell_setting 'monoclinic'
loop_
_space_group_symop_operation_xyz
x,y,z
x,-y,1/2+z
1/2+x,1/2+y,z
1/2+x,1/2-y,1/2+z
loop_
_atom_site_type_symbol
_atom_site_label
_atom_site_fract_x
_atom_site_fract_y
_atom_site_fract_z
Si Si1 0.585810 0.150391 0.162000
Si Si2 0.204788 0.262134 0.004618
Si Si3 0.933083 0.999375 0.734299
Si Si4 0.363648 0.007871 0.163070
Si Si5 0.251130 0.382527 0.727971
Si Si6 0.203224 0.673345 0.854902
Si Si7 0.347410 0.955652 0.954733
Si Si8 0.394668 0.128304 0.529440
O O1 0.479485 0.311040 0.227560
O O2 0.504364 0.078773 0.285721
O O3 0.740455 0.267170 0.037272
O O4 0.618751 0.961889 0.097515
O O5 0.343297 0.336436 0.847252
O O6 0.267163 0.145808 0.999551
O O7 0.089772 0.108584 0.078927
O O8 0.820231 0.079995 0.791290
O O9 0.242296 0.097578 0.310241
O O10 0.346500 0.768707 0.180118
O O11 0.334057 0.020923 0.127527
O O12 0.532295 0.103201 0.020894
O O13 0.250681 0.589924 0.756718
O O14 0.314876 0.336949 0.615126
O O15 0.072401 0.332736 0.882921
O O16 0.368009 0.957190 0.997256
#
# Coordination Sequence:
#
# PCOD9139930 Si02
#       8
#     4   4   4   4   4   4   4   4
#     4  11  23  42  63  94 132 159 218 261 310 386
#     4  11  24  45  61  98 128 161 217 269 309 386
#     4  11  26  41  66  93 125 172 211 265 323 374
#     4   9  24  42  58  96 124 159 219 256 306 380
#     4   9  21  42  60  94 126 156 212 260 300 382
#     4  11  24  40  65  89 128 172 205 259 320 366
#     4  11  22  42  65  94 128 169 208 260 321 377
#     4   9  20  42  64  90 125 164 204 256 321 361
#
# _framework density 20.806360999999999
#
# number of rings (size 3 to 8) (size 9 to 14) (size 15 to 20)
#    0.750    1.000    2.500    0.750    5.250    0.000 
#    6.750    0.000    0.000    0.000    0.000    0.000 
#    0.000    0.000    0.000    0.000    0.000    0.000 
#
# Total GULP energy -89132.148060 kJ/mol
# GULP energy per Si atom -5570.759254 kJ/mol
# Density = 2.075900 g / cm^3
# Si number density = 20.806361 Si / 1000 Ang^3
#
#
#
# Elastic Constant Matrix: (Units=GPa)
#
#
# Indices 1 2 3 4 5 6 
#
# 1 36.1725 -2.2552 6.0952 0.0001 -5.2824 0.0016
# 2 -2.2552 44.9149 0.5349 0.0041 0.3233 -0.0049
# 3 6.0952 0.5349 43.3031 -0.0066 -1.9439 0.0028
# 4 0.0001 0.0041 -0.0066 35.3231 -0.0007 8.8400
# 5 -5.2824 0.3233 -1.9439 -0.0007 13.9824 0.0002
# 6 0.0016 -0.0049 0.0028 8.8400 0.0002 19.5374
#
#
#
# Elastic Compliance Matrix: (Units=1/GPa)
#
#
# Indices 1 2 3 4 5 6 
#
# 1 0.029940 0.001471 -0.003750 0.000000 0.010756 -0.000001
# 2 0.001471 0.022344 -0.000484 -0.000005 -0.000028 0.000008
# 3 -0.003750 -0.000484 0.023712 0.000006 0.001891 -0.000006
# 4 0.000000 -0.000005 0.000006 0.031925 0.000002 -0.014445
# 5 0.010756 -0.000028 0.001891 0.000002 0.075846 -0.000003
# 6 -0.000001 0.000008 -0.000006 -0.014445 -0.000003 0.057720
#
#
# Mechanical properties :
#
#
# Convention : Reuss Voigt Hill
#
# Bulk Modulus (GPa) = 14.19066 14.79335 14.49200
# Shear Modulus (GPa) = 18.48416 21.76962 20.12689
#
# Velocity S-wave (km/s) = 2.98382 3.23816 3.11359
# Velocity P-wave (km/s) = 4.32505 4.59416 4.46164
#
# Compressibility (1/GPa) = 0.07046890
#
# Stress axis : x y z
#
# Youngs Moduli (GPa) = 33.40066 44.75445 42.17334
#
# Poissons Ratio (x) = -0.06581 0.15813
# Poissons Ratio (y) = -0.04912 0.02042
# Poissons Ratio (z) = 0.12524 0.02167
#
# Static dielectric constant tensor:
#      x y z
#    x 1.735960 0.000000 0.005590 
#    y 0.000000 1.780200 0.000000 
#    z 0.005590 0.000000 1.769360 
# 
# From -- ./inp_files/12617.got.cif
#   From: 2010.05.17/outbox.cif.g08.bks.cpg/sg9_7_cif.got.tgz:12617.got - 2010.06.03 20:04:27.
