data_PCOD9139757
_publ_section_title
;
Structure prediction by ZEFSAII (Michael W. Deem and Ramdas Pophale) SiO2 
 PCOD9139757
Probable space group: C C
;
_chemical_formula_sum "Si O2"
_cell_formula_units_Z 28
_cell_length_a 6.629449
_cell_length_b 32.800005
_cell_length_c 5.266405
_cell_angle_alpha 90.000000
_cell_angle_beta 76.950437
_cell_angle_gamma 90.000000
_cell_volume 1115.584900
_symmetry_space_group_name_H-M "C C"
_symmetry_group_IT_number 9
_symmetry_cell_setting 'monoclinic'
loop_
_space_group_symop_operation_xyz
x,y,z
x,-y,1/2+z
1/2+x,1/2+y,z
1/2+x,1/2-y,1/2+z
loop_
_atom_site_type_symbol
_atom_site_label
_atom_site_fract_x
_atom_site_fract_y
_atom_site_fract_z
Si Si1 0.621060 0.392378 0.056100
Si Si2 0.656448 0.647056 0.049724
Si Si3 0.640335 0.797927 0.766768
Si Si4 0.607424 0.023784 0.172984
Si Si5 0.546239 0.113687 0.202562
Si Si6 0.603605 0.478405 0.833367
Si Si7 0.392287 0.222548 0.833091
O O1 0.556370 0.377747 0.349154
O O2 0.540912 0.435371 0.974376
O O3 0.567735 0.359373 0.855449
O O4 0.873906 0.394237 0.972766
O O5 0.886737 0.626644 0.024297
O O6 0.700143 0.693309 0.961157
O O7 0.676040 0.845855 0.718033
O O8 0.549805 0.781374 0.524598
O O9 0.820509 0.768414 0.807928
O O10 0.476328 0.794310 0.042634
O O11 0.658928 0.071284 0.124718
O O12 0.671758 0.995057 0.922896
O O13 0.355153 0.022986 0.248298
O O14 0.548056 0.512808 0.057306
#
# Coordination Sequence:
#
# PCOD9139757 Si02
#       7
#     4   4   4   4   4   4   4
#     4   9  15  24  39  54  85 121 160 195 239 303
#     4   9  16  27  41  60  86 121 166 201 239 301
#     4  11  22  37  57  79 108 144 182 223 269 321
#     4   9  17  22  35  57  88 125 161 195 239 307
#     4   8  18  27  44  61  95 131 166 198 259 313
#     4   9  15  20  29  50  78 114 156 191 225 287
#     4  11  21  37  55  79 104 140 183 225 268 318
#
# _framework density 25.098942999999998
#
# number of rings (size 3 to 8) (size 9 to 14) (size 15 to 20)
#    0.857    1.714    1.429    1.714    6.000    0.000 
#    0.000    0.000    0.000    0.000    0.000    0.000 
#    0.000    0.000    0.000   84.857    0.000    0.000 
#
# Total GULP energy -78253.081552 kJ/mol
# GULP energy per Si atom -5589.505825 kJ/mol
# Density = 2.504182 g / cm^3
# Si number density = 25.098943 Si / 1000 Ang^3
#
#
#
# Elastic Constant Matrix: (Units=GPa)
#
#
# Indices 1 2 3 4 5 6 
#
# 1 49.5058 44.7980 19.4285 0.0000 17.8823 0.0000
# 2 44.7980 194.6547 47.8990 0.0000 5.9364 0.0000
# 3 19.4285 47.8990 114.0369 0.0000 21.0680 0.0000
# 4 0.0000 0.0000 0.0000 34.0650 0.0000 -1.6380
# 5 17.8823 5.9364 21.0680 0.0000 36.3554 0.0000
# 6 0.0000 0.0000 0.0000 -1.6380 0.0000 24.5195
#
#
#
# Elastic Compliance Matrix: (Units=1/GPa)
#
#
# Indices 1 2 3 4 5 6 
#
# 1 0.031594 -0.006874 0.000189 0.000000 -0.014527 0.000000
# 2 -0.006874 0.007234 -0.002546 0.000000 0.003676 0.000000
# 3 0.000189 -0.002546 0.010915 0.000000 -0.006003 0.000000
# 4 0.000000 0.000000 0.000000 0.029450 0.000000 0.001967
# 5 -0.014527 0.003676 -0.006003 0.000000 0.037530 0.000000
# 6 0.000000 0.000000 0.000000 0.001967 0.000000 0.040915
#
#
# Mechanical properties :
#
#
# Convention : Reuss Voigt Hill
#
# Bulk Modulus (GPa) = 31.97050 64.71647 48.34349
# Shear Modulus (GPa) = 26.80551 35.39278 31.09914
#
# Velocity S-wave (km/s) = 3.27156 3.75924 3.52385
# Velocity P-wave (km/s) = 5.19964 6.68454 5.98829
#
# Compressibility (1/GPa) = 0.03127884
#
# Stress axis : x y z
#
# Youngs Moduli (GPa) = 31.65191 138.23882 91.61327
#
# Poissons Ratio (x) = 0.95031 -0.01728
# Poissons Ratio (y) = 0.21759 0.23328
# Poissons Ratio (z) = -0.00597 0.35200
#
# Static dielectric constant tensor:
#      x y z
#    x 2.107210 0.000000 -0.027120 
#    y 0.000000 1.942660 0.000000 
#    z -0.027120 0.000000 1.900120 
# 
# From -- ./inp_files/1154.got.cif
#   From: 2010.05.17/outbox.cif.g08.bks.cpg/sg9_1_cif.got.tgz:1154.got - 2010.06.03 20:04:27.
