data_PCOD9139754
_publ_section_title
;
Structure prediction by ZEFSAII (Michael W. Deem and Ramdas Pophale) SiO2 
 PCOD9139754
Probable space group: C C
;
_chemical_formula_sum "Si O2"
_cell_formula_units_Z 28
_cell_length_a 11.766190
_cell_length_b 21.192527
_cell_length_c 12.114632
_cell_angle_alpha 90.000000
_cell_angle_beta 24.112592
_cell_angle_gamma 90.000000
_cell_volume 1234.110125
_symmetry_space_group_name_H-M "C C"
_symmetry_group_IT_number 9
_symmetry_cell_setting 'monoclinic'
loop_
_space_group_symop_operation_xyz
x,y,z
x,-y,1/2+z
1/2+x,1/2+y,z
1/2+x,1/2-y,1/2+z
loop_
_atom_site_type_symbol
_atom_site_label
_atom_site_fract_x
_atom_site_fract_y
_atom_site_fract_z
Si Si1 0.004550 0.627749 0.839960
Si Si2 0.468427 0.016031 0.717753
Si Si3 0.231201 0.795339 0.384897
Si Si4 0.896490 0.372287 0.843306
Si Si5 0.968371 0.875423 0.422212
Si Si6 0.379209 0.487290 0.661157
Si Si7 0.072345 0.127073 0.421317
O O1 0.088911 0.562911 0.702105
O O2 0.293539 0.660199 0.622647
O O3 0.836240 0.666878 0.898307
O O4 0.799010 0.616216 0.124753
O O5 0.605958 0.025237 0.475707
O O6 0.494693 0.942004 0.717752
O O7 0.141927 0.031326 0.003856
O O8 0.134107 0.839577 0.371146
O O9 0.978135 0.750063 0.633540
O O10 0.179372 0.342363 0.640485
O O11 0.738590 0.343340 0.877418
O O12 0.670506 0.380887 0.139167
O O13 0.890213 0.942705 0.545574
O O14 0.444837 0.560217 0.577253
#
# Coordination Sequence:
#
# PCOD9139754 Si02
#       7
#     4   4   4   4   4   4   4
#     4  12  23  42  68  90 136 174 220 277 327 379
#     4  11  21  36  61  98 141 174 216 254 320 403
#     4  12  28  48  72  98 122 166 234 292 336 364
#     4  11  23  39  63 100 137 179 212 251 321 415
#     4  12  23  42  68  90 136 174 220 277 327 379
#     4  11  21  36  61  98 141 174 216 254 320 403
#     4  11  23  39  63 100 137 179 212 251 321 415
#
# _framework density 22.688414000000002
#
# number of rings (size 3 to 8) (size 9 to 14) (size 15 to 20)
#    0.000    0.571    1.429    9.429    2.000    0.000 
#    0.000    0.000    0.000   17.143    0.000    0.000 
#    0.000    0.000    0.000    0.000    0.000    0.000 
#
# Total GULP energy -78321.841182 kJ/mol
# GULP energy per Si atom -5594.417227 kJ/mol
# Density = 2.263677 g / cm^3
# Si number density = 22.688414 Si / 1000 Ang^3
#
#
#
# Elastic Constant Matrix: (Units=GPa)
#
#
# Indices 1 2 3 4 5 6 
#
# 1 163.4922 17.9555 43.4597 -0.0007 -16.2801 0.0147
# 2 17.9555 24.9515 14.0914 0.0564 -0.0762 -0.0108
# 3 43.4597 14.0914 143.6039 0.0187 13.7724 0.0588
# 4 -0.0007 0.0564 0.0187 20.9663 0.0007 -7.6780
# 5 -16.2801 -0.0762 13.7724 0.0007 61.2610 -0.0107
# 6 0.0147 -0.0108 0.0588 -7.6780 -0.0107 16.3277
#
#
#
# Elastic Compliance Matrix: (Units=1/GPa)
#
#
# Indices 1 2 3 4 5 6 
#
# 1 0.007355 -0.004127 -0.002052 0.000016 0.002411 0.000007
# 2 -0.004127 0.044806 -0.003115 -0.000123 -0.000341 -0.000013
# 3 -0.002052 -0.003115 0.008118 -0.000012 -0.002374 -0.000037
# 4 0.000016 -0.000123 -0.000012 0.057618 0.000011 0.027095
# 5 0.002411 -0.000341 -0.002374 0.000011 0.017498 0.000023
# 6 0.000007 -0.000013 -0.000037 0.027095 0.000023 0.073987
#
#
# Mechanical properties :
#
#
# Convention : Reuss Voigt Hill
#
# Bulk Modulus (GPa) = 23.98586 53.67341 38.82964
# Shear Modulus (GPa) = 20.67248 36.81372 28.74310
#
# Velocity S-wave (km/s) = 3.02180 4.03249 3.56316
# Velocity P-wave (km/s) = 4.77177 6.73717 5.83778
#
# Compressibility (1/GPa) = 0.04169123
#
# Stress axis : x y z
#
# Youngs Moduli (GPa) = 135.95600 22.31850 123.18158
#
# Poissons Ratio (x) = 0.09210 0.25280
# Poissons Ratio (y) = 0.56104 0.38372
# Poissons Ratio (z) = 0.27902 0.06952
#
# Static dielectric constant tensor:
#      x y z
#    x 1.923970 -0.000090 -0.065630 
#    y -0.000090 1.882220 -0.000030 
#    z -0.065630 -0.000030 1.799380 
# 
# From -- ./inp_files/17220.got.cif
#   From: 2010.05.17/outbox.cif.g08.bks.cpg/sg9_9_cif.got.tgz:17220.got - 2010.06.03 20:04:27.
