data_PCOD9139947
_publ_section_title
;
Structure prediction by ZEFSAII (Michael W. Deem and Ramdas Pophale) SiO2 
 PCOD9139947
Probable space group: C C
;
_chemical_formula_sum "Si O2"
_cell_formula_units_Z 24
_cell_length_a 9.808481
_cell_length_b 17.065283
_cell_length_c 8.141266
_cell_angle_alpha 90.000000
_cell_angle_beta 46.465660
_cell_angle_gamma 90.000000
_cell_volume 987.921063
_symmetry_space_group_name_H-M "C C"
_symmetry_group_IT_number 9
_symmetry_cell_setting 'monoclinic'
loop_
_space_group_symop_operation_xyz
x,y,z
x,-y,1/2+z
1/2+x,1/2+y,z
1/2+x,1/2-y,1/2+z
loop_
_atom_site_type_symbol
_atom_site_label
_atom_site_fract_x
_atom_site_fract_y
_atom_site_fract_z
Si Si1 0.768960 0.840595 0.647440
Si Si2 0.148270 0.669220 0.736592
Si Si3 0.021617 0.844885 0.767419
Si Si4 0.949508 0.602910 0.222534
Si Si5 0.644042 0.333178 0.184054
Si Si6 0.833457 0.425746 0.321633
O O1 0.888015 0.843747 0.715555
O O2 0.599417 0.898827 0.748847
O O3 0.674543 0.755578 0.715543
O O4 0.924417 0.849221 0.375517
O O5 0.121613 0.760851 0.712810
O O6 0.365657 0.644796 0.537517
O O7 0.057279 0.645814 0.985604
O O8 0.019803 0.621719 0.714331
O O9 0.181290 0.908819 0.594071
O O10 0.763942 0.652140 0.422362
O O11 0.883705 0.515044 0.249697
O O12 0.739336 0.388628 0.240057
#
# Coordination Sequence:
#
# PCOD9139947 Si02
#       6
#     4   4   4   4   4   4
#     4  11  22  42  74 104 135 198 257 290 356 453
#     4  12  24  42  75 110 146 190 252 308 364 436
#     4  11  23  45  78 102 141 199 257 294 363 458
#     4  12  28  42  69 114 159 179 242 324 376 417
#     4  11  22  43  74 101 141 198 245 294 363 451
#     4  11  25  48  70 105 150 196 243 304 374 437
#
# _framework density 24.293438999999999
#
# number of rings (size 3 to 8) (size 9 to 14) (size 15 to 20)
#    0.000    0.667    5.000    3.000    2.333    2.667 
#    0.000    3.333    0.000    0.000    0.000    0.000 
#    0.000    0.000    0.000    0.000    0.000    0.000 
#
# Total GULP energy -67238.909105 kJ/mol
# GULP energy per Si atom -5603.242425 kJ/mol
# Density = 2.423815 g / cm^3
# Si number density = 24.293439 Si / 1000 Ang^3
#
#
#
# Elastic Constant Matrix: (Units=GPa)
#
#
# Indices 1 2 3 4 5 6 
#
# 1 92.4382 36.3184 27.0374 0.0000 -11.6983 0.0000
# 2 36.3184 65.8532 14.3869 0.0000 5.4490 0.0000
# 3 27.0374 14.3869 185.1954 0.0000 -21.2479 0.0000
# 4 0.0000 0.0000 0.0000 33.9661 0.0000 0.2575
# 5 -11.6983 5.4490 -21.2479 0.0000 51.0535 0.0000
# 6 0.0000 0.0000 0.0000 0.2575 0.0000 17.7550
#
#
#
# Elastic Compliance Matrix: (Units=1/GPa)
#
#
# Indices 1 2 3 4 5 6 
#
# 1 0.014877 -0.008285 -0.001088 0.000000 0.003841 0.000000
# 2 -0.008285 0.020313 -0.000877 0.000000 -0.004431 0.000000
# 3 -0.001088 -0.000877 0.005890 0.000000 0.002296 0.000000
# 4 0.000000 0.000000 0.000000 0.029444 0.000000 -0.000427
# 5 0.003841 -0.004431 0.002296 0.000000 0.021896 0.000000
# 6 0.000000 0.000000 0.000000 -0.000427 0.000000 0.056328
#
#
# Mechanical properties :
#
#
# Convention : Reuss Voigt Hill
#
# Bulk Modulus (GPa) = 48.58894 55.44138 52.01516
# Shear Modulus (GPa) = 28.39162 38.27119 33.33140
#
# Velocity S-wave (km/s) = 3.42233 3.97340 3.70811
# Velocity P-wave (km/s) = 5.97166 6.62734 6.30802
#
# Compressibility (1/GPa) = 0.02058082
#
# Stress axis : x y z
#
# Youngs Moduli (GPa) = 67.21604 49.22997 169.77884
#
# Poissons Ratio (x) = 0.40788 0.18468
# Poissons Ratio (y) = 0.55689 0.14887
# Poissons Ratio (z) = 0.07311 0.04317
#
# Static dielectric constant tensor:
#      x y z
#    x 1.965130 0.000000 0.087760 
#    y 0.000000 1.847020 0.000000 
#    z 0.087760 0.000000 2.042160 
# 
# From -- ./inp_files/7831.got.cif
#   From: 2010.05.17/outbox.cif.g08.bks.cpg/sg9_4_cif.got.tgz:7831.got - 2010.06.03 20:04:27.
