data_PCOD9139189
_publ_section_title
;
Structure prediction by ZEFSAII (Michael W. Deem and Ramdas Pophale) SiO2 
 PCOD9139189
Probable space group: C C
;
_chemical_formula_sum "Si O2"
_cell_formula_units_Z 24
_cell_length_a 4.932754
_cell_length_b 13.507757
_cell_length_c 14.459813
_cell_angle_alpha 90.000000
_cell_angle_beta 82.108291
_cell_angle_gamma 90.000000
_cell_volume 954.339101
_symmetry_space_group_name_H-M "C C"
_symmetry_group_IT_number 9
_symmetry_cell_setting 'monoclinic'
loop_
_space_group_symop_operation_xyz
x,y,z
x,-y,1/2+z
1/2+x,1/2+y,z
1/2+x,1/2-y,1/2+z
loop_
_atom_site_type_symbol
_atom_site_label
_atom_site_fract_x
_atom_site_fract_y
_atom_site_fract_z
Si Si1 0.382430 0.506207 0.866240
Si Si2 0.950762 0.717872 0.683477
Si Si3 0.253318 0.561604 0.162549
Si Si4 0.896887 0.360522 0.379131
Si Si5 0.758860 0.547455 0.592040
Si Si6 0.688319 0.171507 0.489732
O O1 0.292971 0.481816 0.764387
O O2 0.676675 0.556792 0.860585
O O3 0.152024 0.583629 0.913393
O O4 0.370892 0.403906 0.923116
O O5 0.821867 0.823352 0.667865
O O6 0.019314 0.699627 0.786016
O O7 0.729261 0.633673 0.669303
O O8 0.194836 0.691730 0.600227
O O9 0.484483 0.510836 0.088194
O O10 0.968297 0.530218 0.130151
O O11 0.733606 0.278765 0.445028
O O12 0.898746 0.611343 0.503747
#
# Coordination Sequence:
#
# PCOD9139189 Si02
#       6
#     4   4   4   4   4   4
#     4  12  24  43  68  96 134 172 224 268 330 384
#     4  10  24  46  68 100 134 174 220 270 332 386
#     4  12  22  46  69  94 132 179 213 275 330 388
#     4  12  26  47  67 100 133 176 217 276 324 395
#     4  10  26  42  67  97 131 170 220 269 327 389
#     4  10  26  44  67 103 130 175 224 270 323 398
#
# _framework density 25.148292999999999
#
# number of rings (size 3 to 8) (size 9 to 14) (size 15 to 20)
#    1.000    0.000    5.000    0.000    4.667    5.333 
#    0.000    0.000    0.000    0.000    0.000    0.000 
#    0.000    0.000    0.000    0.000    0.000    0.000 
#
# Total GULP energy -67064.297179 kJ/mol
# GULP energy per Si atom -5588.691432 kJ/mol
# Density = 2.509105 g / cm^3
# Si number density = 25.148293 Si / 1000 Ang^3
#
#
#
# Elastic Constant Matrix: (Units=GPa)
#
#
# Indices 1 2 3 4 5 6 
#
# 1 92.0756 24.0198 12.4030 0.0000 9.7927 0.0000
# 2 24.0198 160.9472 23.5919 0.0000 -6.0113 0.0000
# 3 12.4030 23.5919 119.2989 0.0000 -13.0485 0.0000
# 4 0.0000 0.0000 0.0000 46.5965 0.0000 -9.7326
# 5 9.7927 -6.0113 -13.0485 0.0000 24.7347 0.0000
# 6 0.0000 0.0000 0.0000 -9.7326 0.0000 15.7658
#
#
#
# Elastic Compliance Matrix: (Units=1/GPa)
#
#
# Indices 1 2 3 4 5 6 
#
# 1 0.012196 -0.001817 -0.001576 0.000000 -0.006101 0.000000
# 2 -0.001817 0.006690 -0.000931 0.000000 0.001854 0.000000
# 3 -0.001576 -0.000931 0.009311 0.000000 0.005310 0.000000
# 4 0.000000 0.000000 0.000000 0.024638 0.000000 0.015209
# 5 -0.006101 0.001854 0.005310 0.000000 0.046096 0.000000
# 6 0.000000 0.000000 0.000000 0.015209 0.000000 0.072817
#
#
# Mechanical properties :
#
#
# Convention : Reuss Voigt Hill
#
# Bulk Modulus (GPa) = 51.15490 54.70569 52.93029
# Shear Modulus (GPa) = 26.75044 38.23988 32.49516
#
# Velocity S-wave (km/s) = 3.26499 3.90369 3.59854
# Velocity P-wave (km/s) = 5.88209 6.48990 6.19346
#
# Compressibility (1/GPa) = 0.01954847
#
# Stress axis : x y z
#
# Youngs Moduli (GPa) = 81.99517 149.47370 107.39901
#
# Poissons Ratio (x) = 0.27159 0.16926
# Poissons Ratio (y) = 0.14898 0.10002
# Poissons Ratio (z) = 0.12922 0.13921
#
# Static dielectric constant tensor:
#      x y z
#    x 1.979100 0.000000 0.000170 
#    y 0.000000 1.952110 0.000000 
#    z 0.000170 0.000000 2.093630 
# 
# From -- ./inp_files/21708.got.cif
#   From: 2010.05.17/outbox.cif.g08.bks.cpg/sg9_11_cif.got.tgz:21708.got - 2010.06.03 20:04:27.
