data_PCOD9139604
_publ_section_title
;
Structure prediction by ZEFSAII (Michael W. Deem and Ramdas Pophale) SiO2 
 PCOD9139604
Probable space group: C C
;
_chemical_formula_sum "Si O2"
_cell_formula_units_Z 32
_cell_length_a 5.264805
_cell_length_b 14.068428
_cell_length_c 17.370322
_cell_angle_alpha 90.000000
_cell_angle_beta 109.776863
_cell_angle_gamma 90.000000
_cell_volume 1210.691303
_symmetry_space_group_name_H-M "C C"
_symmetry_group_IT_number 9
_symmetry_cell_setting 'monoclinic'
loop_
_space_group_symop_operation_xyz
x,y,z
x,-y,1/2+z
1/2+x,1/2+y,z
1/2+x,1/2-y,1/2+z
loop_
_atom_site_type_symbol
_atom_site_label
_atom_site_fract_x
_atom_site_fract_y
_atom_site_fract_z
Si Si1 0.744310 0.690407 0.239820
Si Si2 0.650079 0.338936 0.334971
Si Si3 0.498898 0.990189 0.307982
Si Si4 0.082469 0.235619 0.466276
Si Si5 0.082298 0.926488 0.069595
Si Si6 0.673203 0.953408 0.158304
Si Si7 0.431128 0.404959 0.461641
Si Si8 0.122205 0.330300 0.633294
O O1 0.851904 0.592751 0.291253
O O2 0.423636 0.693858 0.195447
O O3 0.871002 0.784383 0.291477
O O4 0.899992 0.688261 0.174860
O O5 0.765634 0.409692 0.283236
O O6 0.869825 0.258930 0.378035
O O7 0.631912 0.399283 0.411103
O O8 0.689861 0.977844 0.251825
O O9 0.673110 0.961865 0.400597
O O10 0.058482 0.125754 0.484658
O O11 0.346897 0.295894 0.470263
O O12 0.036187 0.278348 0.546783
O O13 0.880421 0.905796 0.119503
O O14 0.386521 0.902179 0.123566
O O15 0.045519 0.037327 0.044698
O O16 0.635914 0.057982 0.119409
#
# Coordination Sequence:
#
# PCOD9139604 Si02
#       8
#     4   4   4   4   4   4   4   4
#     4  11  27  47  76 107 151 198 251 318 384 454
#     4  11  27  47  75 107 156 198 262 313 390 462
#     4  10  26  46  73 108 146 206 247 317 384 463
#     4  11  27  46  71 111 147 203 247 320 381 463
#     4  12  27  46  78 108 149 199 259 312 387 460
#     4  11  25  48  75 109 148 197 256 316 384 455
#     4  11  26  46  74 103 156 192 258 312 388 453
#     4  11  25  48  74 107 151 191 250 318 384 446
#
# _framework density 26.431180000000001
#
# number of rings (size 3 to 8) (size 9 to 14) (size 15 to 20)
#    0.000    1.000    1.250    3.000   15.750    1.000 
#    0.000    0.000    0.000    0.000    0.000    0.000 
#    0.000    0.000    0.000    0.000    0.000    0.000 
#
# Total GULP energy -89531.933304 kJ/mol
# GULP energy per Si atom -5595.745832 kJ/mol
# Density = 2.637102 g / cm^3
# Si number density = 26.431180 Si / 1000 Ang^3
#
#
#
# Elastic Constant Matrix: (Units=GPa)
#
#
# Indices 1 2 3 4 5 6 
#
# 1 134.9924 20.1213 37.3294 0.0000 -2.5327 0.0000
# 2 20.1213 110.2742 7.5866 0.0000 6.1065 0.0000
# 3 37.3294 7.5866 57.1341 0.0000 -4.8348 0.0000
# 4 0.0000 0.0000 0.0000 50.8124 0.0000 -5.1428
# 5 -2.5327 6.1065 -4.8348 0.0000 50.7919 0.0000
# 6 0.0000 0.0000 0.0000 -5.1428 0.0000 25.4745
#
#
#
# Elastic Compliance Matrix: (Units=1/GPa)
#
#
# Indices 1 2 3 4 5 6 
#
# 1 0.009217 -0.001283 -0.005847 0.000000 0.000057 0.000000
# 2 -0.001283 0.009407 -0.000516 0.000000 -0.001244 0.000000
# 3 -0.005847 -0.000516 0.021545 0.000000 0.001821 0.000000
# 4 0.000000 0.000000 0.000000 0.020091 0.000000 0.004056
# 5 0.000057 -0.001244 0.001821 0.000000 0.020014 0.000000
# 6 0.000000 0.000000 0.000000 0.004056 0.000000 0.040074
#
#
# Mechanical properties :
#
#
# Convention : Reuss Voigt Hill
#
# Bulk Modulus (GPa) = 40.19693 48.05281 44.12487
# Shear Modulus (GPa) = 34.73868 41.23999 37.98933
#
# Velocity S-wave (km/s) = 3.62927 3.95432 3.79528
# Velocity P-wave (km/s) = 5.72742 6.25049 5.99466
#
# Compressibility (1/GPa) = 0.02487752
#
# Stress axis : x y z
#
# Youngs Moduli (GPa) = 108.49624 106.30649 46.41342
#
# Poissons Ratio (x) = 0.13636 0.27137
# Poissons Ratio (y) = 0.13917 0.02396
# Poissons Ratio (z) = 0.63436 0.05489
#
# Static dielectric constant tensor:
#      x y z
#    x 2.067720 0.000000 0.040210 
#    y 0.000000 2.137920 0.000000 
#    z 0.040210 0.000000 2.157310 
# 
# From -- ./inp_files/28713.got.cif
#   From: 2010.05.17/outbox.cif.g08.bks.cpg/sg9_15_cif.got.tgz:28713.got - 2010.06.03 20:04:27.
