data_PCOD9139673
_publ_section_title
;
Structure prediction by ZEFSAII (Michael W. Deem and Ramdas Pophale) SiO2 
 PCOD9139673
Probable space group: C C
;
_chemical_formula_sum "Si O2"
_cell_formula_units_Z 28
_cell_length_a 14.316520
_cell_length_b 21.916529
_cell_length_c 5.040696
_cell_angle_alpha 90.000000
_cell_angle_beta 69.384917
_cell_angle_gamma 90.000000
_cell_volume 1480.335748
_symmetry_space_group_name_H-M "C C"
_symmetry_group_IT_number 9
_symmetry_cell_setting 'monoclinic'
loop_
_space_group_symop_operation_xyz
x,y,z
x,-y,1/2+z
1/2+x,1/2+y,z
1/2+x,1/2-y,1/2+z
loop_
_atom_site_type_symbol
_atom_site_label
_atom_site_fract_x
_atom_site_fract_y
_atom_site_fract_z
Si Si1 0.669120 0.677301 0.222510
Si Si2 0.610741 0.822699 0.280885
Si Si3 0.722039 0.138003 0.159231
Si Si4 0.557822 0.638004 0.823450
Si Si5 0.889930 0.304509 0.331488
Si Si6 0.889930 0.960527 0.382926
Si Si7 0.889931 0.232050 0.832751
O O1 0.639931 0.750000 0.254234
O O2 0.647570 0.646939 0.526970
O O3 0.783646 0.668113 0.020985
O O4 0.597688 0.645601 0.078889
O O5 0.632291 0.853061 0.542246
O O6 0.496215 0.831887 0.308413
O O7 0.682173 0.854398 0.994401
O O8 0.791728 0.079593 0.043064
O O9 0.793838 0.194522 0.015493
O O10 0.488130 0.579595 0.846665
O O11 0.486025 0.694525 0.823309
O O12 0.889929 0.291365 0.018596
O O13 0.889930 0.243636 0.519526
O O14 0.889931 0.981953 0.079702
#
# Coordination Sequence:
#
# PCOD9139673 Si02
#       7
#     4   4   4   4   4   4   4
#     4  12  21  35  52  84 119 167 192 229 278 360
#     4  12  21  35  52  84 119 167 192 229 278 360
#     4  11  22  36  57  81 119 151 192 239 304 339
#     4  11  22  36  57  81 119 151 192 239 304 339
#     4  12  22  29  52  75 120 155 199 208 266 340
#     4  11  24  43  66  92 112 146 203 264 307 348
#     4  11  18  32  48  79 106 159 184 226 261 348
#
# _framework density 18.914629000000001
#
# number of rings (size 3 to 8) (size 9 to 14) (size 15 to 20)
#    0.000    0.571    5.714    4.286    0.000    4.571 
#    0.000    0.000    0.000    0.000    0.000   20.000 
#    0.000    0.000    0.000    0.000    0.000    0.000 
#
# Total GULP energy -78188.366594 kJ/mol
# GULP energy per Si atom -5584.883328 kJ/mol
# Density = 1.887158 g / cm^3
# Si number density = 18.914629 Si / 1000 Ang^3
#
#
#
# Elastic Constant Matrix: (Units=GPa)
#
#
# Indices 1 2 3 4 5 6 
#
# 1 77.4329 13.1245 -12.1342 0.0000 -13.3829 0.0000
# 2 13.1245 28.9053 2.6488 0.0000 -4.9399 0.0000
# 3 -12.1342 2.6488 51.7277 0.0000 1.2625 0.0000
# 4 0.0000 0.0000 0.0000 23.8409 0.0000 6.0065
# 5 -13.3829 -4.9399 1.2625 0.0000 37.4980 0.0000
# 6 0.0000 0.0000 0.0000 6.0065 0.0000 11.1002
#
#
#
# Elastic Compliance Matrix: (Units=1/GPa)
#
#
# Indices 1 2 3 4 5 6 
#
# 1 0.015410 -0.006579 0.003842 0.000000 0.004504 0.000000
# 2 -0.006579 0.038395 -0.003579 0.000000 0.002830 0.000000
# 3 0.003842 -0.003579 0.020411 0.000000 0.000213 0.000000
# 4 0.000000 0.000000 0.000000 0.048566 0.000000 -0.026280
# 5 0.004504 0.002830 0.000213 0.000000 0.028641 0.000000
# 6 0.000000 0.000000 0.000000 -0.026280 0.000000 0.104309
#
#
# Mechanical properties :
#
#
# Convention : Reuss Voigt Hill
#
# Bulk Modulus (GPa) = 16.23798 18.37156 17.30477
# Shear Modulus (GPa) = 17.30750 24.78294 21.04522
#
# Velocity S-wave (km/s) = 3.02823 3.62367 3.33925
# Velocity P-wave (km/s) = 4.56404 5.21938 4.90267
#
# Compressibility (1/GPa) = 0.06158400
#
# Stress axis : x y z
#
# Youngs Moduli (GPa) = 64.89298 26.04528 48.99251
#
# Poissons Ratio (x) = 0.17136 -0.18822
# Poissons Ratio (y) = 0.42695 0.17532
# Poissons Ratio (z) = -0.24931 0.09320
#
# Static dielectric constant tensor:
#      x y z
#    x 1.685830 0.000000 -0.013250 
#    y 0.000000 1.651610 0.000000 
#    z -0.013250 0.000000 1.657730 
# 
# From -- ./inp_files/2627.got.cif
#   From: 2010.05.17/outbox.cif.g08.bks.cpg/sg9_2_cif.got.tgz:2627.got - 2010.06.03 20:04:27.
