data_PCOD9139616
_publ_section_title
;
Structure prediction by ZEFSAII (Michael W. Deem and Ramdas Pophale) SiO2 
 PCOD9139616
Probable space group: C C
;
_chemical_formula_sum "Si O2"
_cell_formula_units_Z 32
_cell_length_a 14.115384
_cell_length_b 5.268469
_cell_length_c 24.923508
_cell_angle_alpha 90.000000
_cell_angle_beta 39.337528
_cell_angle_gamma 90.000000
_cell_volume 1174.893623
_symmetry_space_group_name_H-M "C C"
_symmetry_group_IT_number 9
_symmetry_cell_setting 'monoclinic'
loop_
_space_group_symop_operation_xyz
x,y,z
x,-y,1/2+z
1/2+x,1/2+y,z
1/2+x,1/2-y,1/2+z
loop_
_atom_site_type_symbol
_atom_site_label
_atom_site_fract_x
_atom_site_fract_y
_atom_site_fract_z
Si Si1 0.108380 0.302498 0.031840
Si Si2 0.453895 0.189085 0.151883
Si Si3 0.255292 0.868365 0.305084
Si Si4 0.753347 0.686875 0.077450
Si Si5 0.813829 0.078320 0.131027
Si Si6 0.555581 0.129917 0.886429
Si Si7 0.031548 0.866188 0.238180
Si Si8 0.379327 0.969547 0.357621
O O1 0.099579 0.596719 0.054865
O O2 0.143953 0.183521 0.074566
O O3 0.222138 0.147321 0.945715
O O4 0.950592 0.270734 0.072010
O O5 0.348743 0.946071 0.211699
O O6 0.365365 0.376877 0.152771
O O7 0.482092 0.292275 0.199394
O O8 0.166423 0.607993 0.341216
O O9 0.379298 0.844172 0.298168
O O10 0.142341 0.108076 0.362059
O O11 0.799453 0.963611 0.077823
O O12 0.657243 0.577462 0.168989
O O13 0.911069 0.580400 0.987216
O O14 0.648250 0.170215 0.214096
O O15 0.488397 0.139114 0.855538
O O16 0.894732 0.774466 0.337676
#
# Coordination Sequence:
#
# PCOD9139616 Si02
#       8
#     4   4   4   4   4   4   4   4
#     4  11  24  47  69 103 142 189 246 301 367 442
#     4  11  25  43  73 102 143 188 246 303 362 442
#     4  11  27  48  74 109 147 192 244 307 372 443
#     4  11  25  43  73 102 143 188 246 303 362 442
#     4  12  24  42  72  98 140 190 236 302 364 436
#     4  11  27  48  74 109 147 192 244 307 372 443
#     4  11  24  47  69 103 142 189 246 301 367 442
#     4  10  26  48  70 106 152 194 244 312 372 434
#
# _framework density 27.236507
#
# number of rings (size 3 to 8) (size 9 to 14) (size 15 to 20)
#    0.000    1.000    2.500    2.250   10.500    1.000 
#    0.000    0.000    0.000    0.000    0.000    0.000 
#    0.000    0.000    0.000    0.000    0.000    0.000 
#
# Total GULP energy -89319.761467 kJ/mol
# GULP energy per Si atom -5582.485092 kJ/mol
# Density = 2.717452 g / cm^3
# Si number density = 27.236507 Si / 1000 Ang^3
#
#
#
# Elastic Constant Matrix: (Units=GPa)
#
#
# Indices 1 2 3 4 5 6 
#
# 1 123.7928 7.2703 54.0511 0.0183 -3.8028 0.0283
# 2 7.2703 66.2632 40.6337 -0.0899 -9.7780 0.1712
# 3 54.0511 40.6337 93.3531 -0.0380 -3.5256 -0.0108
# 4 0.0183 -0.0899 -0.0380 27.9923 -0.0038 4.6284
# 5 -3.8028 -9.7780 -3.5256 -0.0038 39.6129 -0.0024
# 6 0.0283 0.1712 -0.0108 4.6284 -0.0024 42.8383
#
#
#
# Elastic Compliance Matrix: (Units=1/GPa)
#
#
# Indices 1 2 3 4 5 6 
#
# 1 0.011558 0.004101 -0.008425 -0.000001 0.001372 -0.000026
# 2 0.004101 0.022798 -0.012111 0.000072 0.004943 -0.000104
# 3 -0.008425 -0.012111 0.020788 -0.000015 -0.001948 0.000061
# 4 -0.000001 0.000072 -0.000015 0.036374 0.000019 -0.003930
# 5 0.001372 0.004943 -0.001948 0.000019 0.026423 -0.000022
# 6 -0.000026 -0.000104 0.000061 -0.003930 -0.000022 0.023769
#
#
# Mechanical properties :
#
#
# Convention : Reuss Voigt Hill
#
# Bulk Modulus (GPa) = 44.89649 54.14658 49.52153
# Shear Modulus (GPa) = 27.47189 34.18563 30.82876
#
# Velocity S-wave (km/s) = 3.17936 3.54664 3.36801
# Velocity P-wave (km/s) = 5.47700 6.05763 5.77461
#
# Compressibility (1/GPa) = 0.02227346
#
# Stress axis : x y z
#
# Youngs Moduli (GPa) = 86.52036 43.86405 48.10456
#
# Poissons Ratio (x) = -0.17988 0.40529
# Poissons Ratio (y) = -0.35481 0.58258
# Poissons Ratio (z) = 0.72895 0.53123
#
# Static dielectric constant tensor:
#      x y z
#    x 2.027130 -0.000050 -0.036680 
#    y -0.000050 2.399800 0.000000 
#    z -0.036680 0.000000 2.203700 
# 
# From -- ./inp_files/36636.got.cif
#   From: 2010.05.17/outbox.cif.g08.bks.cpg/sg9_19_cif.got.tgz:36636.got - 2010.06.03 20:04:27.
