data_PCOD9139262
_publ_section_title
;
Structure prediction by ZEFSAII (Michael W. Deem and Ramdas Pophale) SiO2 
 PCOD9139262
Probable space group: C C
;
_chemical_formula_sum "Si O2"
_cell_formula_units_Z 32
_cell_length_a 26.300938
_cell_length_b 4.798778
_cell_length_c 14.423466
_cell_angle_alpha 90.000000
_cell_angle_beta 139.138810
_cell_angle_gamma 90.000000
_cell_volume 1190.970786
_symmetry_space_group_name_H-M "C C"
_symmetry_group_IT_number 9
_symmetry_cell_setting 'monoclinic'
loop_
_space_group_symop_operation_xyz
x,y,z
x,-y,1/2+z
1/2+x,1/2+y,z
1/2+x,1/2-y,1/2+z
loop_
_atom_site_type_symbol
_atom_site_label
_atom_site_fract_x
_atom_site_fract_y
_atom_site_fract_z
Si Si1 0.981050 0.601005 0.780570
Si Si2 0.670841 0.300800 0.898727
Si Si3 0.104210 0.368711 0.585056
Si Si4 0.351697 0.622935 0.850448
Si Si5 0.760283 0.901023 0.892221
Si Si6 0.690201 0.209112 0.562068
Si Si7 0.010065 0.572147 0.619883
Si Si8 0.386887 0.599278 0.700980
O O1 0.946652 0.352057 0.794019
O O2 0.000094 0.454826 0.709632
O O3 0.919390 0.847085 0.684836
O O4 0.053916 0.750143 0.930650
O O5 0.727816 0.186149 0.896068
O O6 0.584498 0.270322 0.738166
O O7 0.670441 0.592410 0.949994
O O8 0.690454 0.089826 0.010858
O O9 0.183122 0.261652 0.742170
O O10 0.134765 0.653476 0.574675
O O11 0.041544 0.383785 0.580741
O O12 0.319566 0.438139 0.889369
O O13 0.274396 0.797004 0.716905
O O14 0.370301 0.474146 0.778940
O O15 0.428579 0.787431 0.983680
O O16 0.811912 0.773857 0.045816
#
# Coordination Sequence:
#
# PCOD9139262 Si02
#       8
#     4   4   4   4   4   4   4   4
#     4  12  27  48  74 107 147 190 241 303 364 429
#     4  11  25  47  73 102 144 191 236 294 360 423
#     4  10  24  47  72 109 144 191 242 297 361 433
#     4  11  24  47  74 109 144 191 242 299 361 432
#     4  10  24  47  72 109 144 191 242 297 361 433
#     4  11  25  47  73 102 144 191 236 294 360 423
#     4  11  24  47  74 109 144 191 242 299 361 432
#     4  12  27  48  74 107 147 190 241 303 364 429
#
# _framework density 26.868836999999999
#
# number of rings (size 3 to 8) (size 9 to 14) (size 15 to 20)
#    0.000    1.000    5.000    0.000    3.500    1.000 
#    9.000    7.500    0.000    0.000    0.000    0.000 
#    0.000    0.000    0.000    0.000    0.000    0.000 
#
# Total GULP energy -89439.129545 kJ/mol
# GULP energy per Si atom -5589.945597 kJ/mol
# Density = 2.680768 g / cm^3
# Si number density = 26.868837 Si / 1000 Ang^3
#
#
#
# Elastic Constant Matrix: (Units=GPa)
#
#
# Indices 1 2 3 4 5 6 
#
# 1 140.7323 21.8941 47.0507 0.0002 -22.5300 0.0002
# 2 21.8941 53.1130 -8.4882 0.0014 9.7295 0.0008
# 3 47.0507 -8.4882 165.6315 0.0000 11.3157 0.0001
# 4 0.0002 0.0014 0.0000 36.8370 0.0002 -6.6757
# 5 -22.5300 9.7295 11.3157 0.0002 58.0778 0.0001
# 6 0.0002 0.0008 0.0001 -6.6757 0.0001 19.4404
#
#
#
# Elastic Compliance Matrix: (Units=1/GPa)
#
#
# Indices 1 2 3 4 5 6 
#
# 1 0.010068 -0.005732 -0.003533 0.000000 0.005554 0.000000
# 2 -0.005732 0.022940 0.003262 -0.000001 -0.006702 -0.000001
# 3 -0.003533 0.003262 0.007438 0.000000 -0.003366 0.000000
# 4 0.000000 -0.000001 0.000000 0.028948 0.000000 0.009940
# 5 0.005554 -0.006702 -0.003366 0.000000 0.021152 0.000000
# 6 0.000000 -0.000001 0.000000 0.009940 0.000000 0.054853
#
#
# Mechanical properties :
#
#
# Convention : Reuss Voigt Hill
#
# Bulk Modulus (GPa) = 35.16331 53.37667 44.26999
# Shear Modulus (GPa) = 29.96071 42.80574 36.38323
#
# Velocity S-wave (km/s) = 3.34289 3.99574 3.68381
# Velocity P-wave (km/s) = 5.29295 6.41847 5.88269
#
# Compressibility (1/GPa) = 0.02843873
#
# Stress axis : x y z
#
# Youngs Moduli (GPa) = 99.32525 43.59237 134.43890
#
# Poissons Ratio (x) = 0.24989 0.47500
# Poissons Ratio (y) = 0.56936 -0.43852
# Poissons Ratio (z) = 0.35094 -0.14219
#
# Static dielectric constant tensor:
#      x y z
#    x 2.190040 0.000000 0.033990 
#    y 0.000000 2.077160 0.000000 
#    z 0.033990 0.000000 2.065530 
# 
# From -- ./inp_files/27897.got.cif
#   From: 2010.05.17/outbox.cif.g08.bks.cpg/sg9_14_cif.got.tgz:27897.got - 2010.06.03 20:04:27.
