data_PCOD9139176
_publ_section_title
;
Structure prediction by ZEFSAII (Michael W. Deem and Ramdas Pophale) SiO2 
 PCOD9139176
Probable space group: C C
;
_chemical_formula_sum "Si O2"
_cell_formula_units_Z 28
_cell_length_a 17.819610
_cell_length_b 9.399777
_cell_length_c 8.403008
_cell_angle_alpha 90.000000
_cell_angle_beta 134.128429
_cell_angle_gamma 90.000000
_cell_volume 1010.281562
_symmetry_space_group_name_H-M "C C"
_symmetry_group_IT_number 9
_symmetry_cell_setting 'monoclinic'
loop_
_space_group_symop_operation_xyz
x,y,z
x,-y,1/2+z
1/2+x,1/2+y,z
1/2+x,1/2-y,1/2+z
loop_
_atom_site_type_symbol
_atom_site_label
_atom_site_fract_x
_atom_site_fract_y
_atom_site_fract_z
Si Si1 0.744880 0.995018 0.856210
Si Si2 0.542150 0.260970 0.005295
Si Si3 0.275727 0.958247 0.999754
Si Si4 0.614282 0.845202 0.925226
Si Si5 0.395037 0.249676 0.518986
Si Si6 0.791372 0.713965 0.835271
Si Si7 0.053908 0.912275 0.544311
O O1 0.710120 0.914594 0.965678
O O2 0.820690 0.878262 0.884438
O O3 0.636621 0.054416 0.613213
O O4 0.816919 0.132296 0.975903
O O5 0.484346 0.194473 0.771026
O O6 0.529452 0.179070 0.155776
O O7 0.665407 0.264950 0.154046
O O8 0.514290 0.428869 0.953150
O O9 0.150383 0.940954 0.807765
O O10 0.311986 0.119010 0.021779
O O11 0.318729 0.883636 0.901651
O O12 0.313413 0.869138 0.206116
O O13 0.605376 0.686340 0.984012
O O14 0.459245 0.318692 0.471983
#
# Coordination Sequence:
#
# PCOD9139176 Si02
#       7
#     4   4   4   4   4   4   4
#     4  11  26  45  81 115 156 208 271 326 400 474
#     4  10  24  45  76 110 151 207 268 321 396 479
#     4  11  24  46  75 104 154 207 256 321 397 470
#     4  11  25  49  74 111 163 209 255 330 408 462
#     4  12  25  45  80 117 147 201 281 328 382 482
#     4  10  24  47  72 104 158 210 251 324 411 465
#     4  11  24  45  76 113 155 206 260 328 400 480
#
# _framework density 27.715047999999999
#
# number of rings (size 3 to 8) (size 9 to 14) (size 15 to 20)
#    0.000    1.143    2.857    1.714   14.000    0.000 
#    0.000    7.143    0.000    0.000    0.000    0.000 
#    0.000    0.000    0.000    0.000    0.000    0.000 
#
# Total GULP energy -78098.608182 kJ/mol
# GULP energy per Si atom -5578.472013 kJ/mol
# Density = 2.765197 g / cm^3
# Si number density = 27.715048 Si / 1000 Ang^3
#
#
#
# Elastic Constant Matrix: (Units=GPa)
#
#
# Indices 1 2 3 4 5 6 
#
# 1 87.3160 28.5590 8.1180 0.0000 -5.9860 0.0000
# 2 28.5590 133.6937 5.0683 0.0000 -7.9048 0.0000
# 3 8.1180 5.0683 53.4714 0.0000 -9.5910 0.0000
# 4 0.0000 0.0000 0.0000 34.8781 0.0000 -9.8797
# 5 -5.9860 -7.9048 -9.5910 0.0000 30.4598 0.0000
# 6 0.0000 0.0000 0.0000 -9.8797 0.0000 39.8561
#
#
#
# Elastic Compliance Matrix: (Units=1/GPa)
#
#
# Indices 1 2 3 4 5 6 
#
# 1 0.012507 -0.002538 -0.001415 0.000000 0.001354 0.000000
# 2 -0.002538 0.008119 -0.000102 0.000000 0.001576 0.000000
# 3 -0.001415 -0.000102 0.020001 0.000000 0.005993 0.000000
# 4 0.000000 0.000000 0.000000 0.030837 0.000000 0.007644
# 5 0.001354 0.001576 0.005993 0.000000 0.035392 0.000000
# 6 0.000000 0.000000 0.000000 0.007644 0.000000 0.026985
#
#
# Mechanical properties :
#
#
# Convention : Reuss Voigt Hill
#
# Bulk Modulus (GPa) = 30.75294 39.77464 35.26379
# Shear Modulus (GPa) = 32.72458 36.55450 34.63954
#
# Velocity S-wave (km/s) = 3.43993 3.63566 3.53915
# Velocity P-wave (km/s) = 5.18630 5.65743 5.42698
#
# Compressibility (1/GPa) = 0.03251721
#
# Stress axis : x y z
#
# Youngs Moduli (GPa) = 79.95406 123.16803 49.99730
#
# Poissons Ratio (x) = 0.31260 0.07077
# Poissons Ratio (y) = 0.20293 0.00508
# Poissons Ratio (z) = 0.11317 0.01250
#
# Static dielectric constant tensor:
#      x y z
#    x 2.192840 0.000000 -0.059480 
#    y 0.000000 2.186260 0.000000 
#    z -0.059480 0.000000 2.233760 
# 
# From -- ./inp_files/11426.got.cif
#   From: 2010.05.17/outbox.cif.g08.bks.cpg/sg9_6_cif.got.tgz:11426.got - 2010.06.03 20:04:27.
