data_PCOD9139492
_publ_section_title
;
Structure prediction by ZEFSAII (Michael W. Deem and Ramdas Pophale) SiO2 
 PCOD9139492
Probable space group: C C
;
_chemical_formula_sum "Si O2"
_cell_formula_units_Z 32
_cell_length_a 8.963474
_cell_length_b 11.153813
_cell_length_c 16.064407
_cell_angle_alpha 90.000000
_cell_angle_beta 56.226225
_cell_angle_gamma 90.000000
_cell_volume 1335.027879
_symmetry_space_group_name_H-M "C C"
_symmetry_group_IT_number 9
_symmetry_cell_setting 'monoclinic'
loop_
_space_group_symop_operation_xyz
x,y,z
x,-y,1/2+z
1/2+x,1/2+y,z
1/2+x,1/2-y,1/2+z
loop_
_atom_site_type_symbol
_atom_site_label
_atom_site_fract_x
_atom_site_fract_y
_atom_site_fract_z
Si Si1 0.423570 0.738584 0.416800
Si Si2 0.219401 0.915699 0.898382
Si Si3 0.579596 0.787210 0.912747
Si Si4 0.699610 0.430214 0.574737
Si Si5 0.951149 0.175233 0.811389
Si Si6 0.321926 0.142187 0.633600
Si Si7 0.519518 0.906459 0.237504
Si Si8 0.803787 0.030982 0.238506
O O1 0.532525 0.624362 0.414490
O O2 0.242382 0.710237 0.425195
O O3 0.346957 0.827801 0.511474
O O4 0.526818 0.811843 0.311925
O O5 0.315963 0.784467 0.869470
O O6 0.359429 0.000270 0.806946
O O7 0.195415 0.983322 0.994168
O O8 0.541692 0.664130 0.875012
O O9 0.647783 0.887039 0.826415
O O10 0.413066 0.814133 0.021749
O O11 0.768751 0.504548 0.632375
O O12 0.489556 0.403521 0.657277
O O13 0.130196 0.206088 0.703675
O O14 0.857587 0.066545 0.792745
O O15 0.457292 0.147305 0.669181
O O16 0.712234 0.969994 0.186354
#
# Coordination Sequence:
#
# PCOD9139492 Si02
#       8
#     4   4   4   4   4   4   4   4
#     4  11  25  42  73 101 139 182 233 292 348 422
#     4  11  23  46  71 101 137 187 229 287 350 418
#     4  12  25  46  70  98 144 181 235 290 351 424
#     4  10  25  47  67 104 145 174 240 288 348 425
#     4  11  23  46  72  97 136 183 231 284 355 416
#     4  11  25  45  66 103 135 180 229 289 356 417
#     4  11  23  44  67 102 142 175 237 290 346 423
#     4  11  25  46  70 100 142 188 226 296 352 417
#
# _framework density 23.969536999999999
#
# number of rings (size 3 to 8) (size 9 to 14) (size 15 to 20)
#    0.000    1.000    5.000    0.750    7.000    0.000 
#    6.750    0.000    0.000    0.000    0.000    0.000 
#    0.000    0.000    0.000    0.000    0.000    0.000 
#
# Total GULP energy -89341.673007 kJ/mol
# GULP energy per Si atom -5583.854563 kJ/mol
# Density = 2.391498 g / cm^3
# Si number density = 23.969537 Si / 1000 Ang^3
#
#
#
# Elastic Constant Matrix: (Units=GPa)
#
#
# Indices 1 2 3 4 5 6 
#
# 1 121.7909 41.3002 29.7458 0.0000 11.0384 0.0000
# 2 41.3002 95.4858 32.9239 0.0000 12.3768 0.0000
# 3 29.7458 32.9239 105.6388 0.0000 -5.8791 0.0000
# 4 0.0000 0.0000 0.0000 17.6763 0.0000 4.8642
# 5 11.0384 12.3768 -5.8791 0.0000 26.4574 0.0000
# 6 0.0000 0.0000 0.0000 4.8642 0.0000 37.6993
#
#
#
# Elastic Compliance Matrix: (Units=1/GPa)
#
#
# Indices 1 2 3 4 5 6 
#
# 1 0.010091 -0.003272 -0.001995 0.000000 -0.003123 0.000000
# 2 -0.003272 0.013964 -0.003765 0.000000 -0.006004 0.000000
# 3 -0.001995 -0.003765 0.011488 0.000000 0.005147 0.000000
# 4 0.000000 0.000000 0.000000 0.058655 0.000000 -0.007568
# 5 -0.003123 -0.006004 0.005147 0.000000 0.043052 0.000000
# 6 0.000000 0.000000 0.000000 -0.007568 0.000000 0.027502
#
#
# Mechanical properties :
#
#
# Convention : Reuss Voigt Hill
#
# Bulk Modulus (GPa) = 57.21313 58.98391 58.09852
# Shear Modulus (GPa) = 26.50508 30.96298 28.73403
#
# Velocity S-wave (km/s) = 3.32894 3.59801 3.46609
# Velocity P-wave (km/s) = 6.22067 6.47474 6.34897
#
# Compressibility (1/GPa) = 0.01747851
#
# Stress axis : x y z
#
# Youngs Moduli (GPa) = 99.10173 71.61112 87.04749
#
# Poissons Ratio (x) = 0.23429 0.17370
# Poissons Ratio (y) = 0.32423 0.32774
# Poissons Ratio (z) = 0.19775 0.26962
#
# Static dielectric constant tensor:
#      x y z
#    x 2.016290 0.000000 0.016630 
#    y 0.000000 2.043420 0.000000 
#    z 0.016630 0.000000 1.977460 
# 
# From -- ./inp_files/22858.got.cif
#   From: 2010.05.17/outbox.cif.g08.bks.cpg/sg9_12_cif.got.tgz:22858.got - 2010.06.03 20:04:27.
