data_PCOD9139642
_publ_section_title
;
Structure prediction by ZEFSAII (Michael W. Deem and Ramdas Pophale) SiO2 
 PCOD9139642
Probable space group: C C
;
_chemical_formula_sum "Si O2"
_cell_formula_units_Z 28
_cell_length_a 9.295387
_cell_length_b 23.230434
_cell_length_c 7.960123
_cell_angle_alpha 90.000000
_cell_angle_beta 143.669246
_cell_angle_gamma 90.000000
_cell_volume 1018.340735
_symmetry_space_group_name_H-M "C C"
_symmetry_group_IT_number 9
_symmetry_cell_setting 'monoclinic'
loop_
_space_group_symop_operation_xyz
x,y,z
x,-y,1/2+z
1/2+x,1/2+y,z
1/2+x,1/2-y,1/2+z
loop_
_atom_site_type_symbol
_atom_site_label
_atom_site_fract_x
_atom_site_fract_y
_atom_site_fract_z
Si Si1 0.291070 0.493941 0.655600
Si Si2 0.630978 0.870007 0.409438
Si Si3 0.953333 0.782862 0.591198
Si Si4 0.295183 0.871028 0.392963
Si Si5 0.133985 0.999297 0.226347
Si Si6 0.458557 0.899764 0.897910
Si Si7 0.472573 0.283073 0.206720
O O1 0.157177 0.438278 0.462599
O O2 0.574501 0.489073 0.867269
O O3 0.168340 0.555799 0.541813
O O4 0.351800 0.486972 0.912454
O O5 0.892778 0.840353 0.638676
O O6 0.462022 0.848236 0.400368
O O7 0.523464 0.862667 0.121165
O O8 0.206266 0.754477 0.883997
O O9 0.962657 0.793995 0.398810
O O10 0.275799 0.939911 0.355431
O O11 0.399669 0.862887 0.679513
O O12 0.033159 0.841152 0.161541
O O13 0.247463 0.057393 0.262650
O O14 0.719571 0.245524 0.413823
#
# Coordination Sequence:
#
# PCOD9139642 Si02
#       7
#     4   4   4   4   4   4   4
#     4  12  24  43  69 104 151 200 248 300 366 456
#     4  12  27  46  78 113 147 202 256 315 386 454
#     4  10  26  51  80 111 151 201 258 323 394 460
#     4  12  27  46  78 113 147 202 256 315 386 454
#     4  12  24  43  69 104 151 200 248 300 366 456
#     4  12  26  48  68 108 162 196 242 306 376 464
#     4  10  26  51  80 111 151 201 258 323 394 460
#
# _framework density 27.495709000000002
#
# number of rings (size 3 to 8) (size 9 to 14) (size 15 to 20)
#    0.000    0.571    4.286    2.571   10.000    3.429 
#    0.000    0.000    0.000    0.000    0.000    0.000 
#    0.000    0.000    0.000    0.000    0.000    0.000 
#
# Total GULP energy -78421.415920 kJ/mol
# GULP energy per Si atom -5601.529709 kJ/mol
# Density = 2.743313 g / cm^3
# Si number density = 27.495709 Si / 1000 Ang^3
#
#
#
# Elastic Constant Matrix: (Units=GPa)
#
#
# Indices 1 2 3 4 5 6 
#
# 1 169.4187 73.8023 34.7152 0.0000 50.0640 0.0000
# 2 73.8023 91.4585 30.7469 0.0000 7.2625 0.0000
# 3 34.7152 30.7469 96.8137 0.0000 6.8627 0.0000
# 4 0.0000 0.0000 0.0000 28.5809 0.0000 30.9101
# 5 50.0640 7.2625 6.8627 0.0000 25.8397 0.0000
# 6 0.0000 0.0000 0.0000 30.9101 0.0000 53.0091
#
#
#
# Elastic Compliance Matrix: (Units=1/GPa)
#
#
# Indices 1 2 3 4 5 6 
#
# 1 0.030802 -0.020325 -0.000779 0.000000 -0.053760 0.000000
# 2 -0.020325 0.025807 -0.003246 0.000000 0.032988 0.000000
# 3 -0.000779 -0.003246 0.011688 0.000000 -0.000682 0.000000
# 4 0.000000 0.000000 0.000000 0.094724 0.000000 -0.055234
# 5 -0.053760 0.032988 -0.000682 0.000000 0.133768 0.000000
# 6 0.000000 0.000000 0.000000 -0.055234 0.000000 0.051072
#
#
# Mechanical properties :
#
#
# Convention : Reuss Voigt Hill
#
# Bulk Modulus (GPa) = 51.03061 70.69108 60.86084
# Shear Modulus (GPa) = 12.40401 36.04772 24.22587
#
# Velocity S-wave (km/s) = 2.12628 3.62474 2.97152
# Velocity P-wave (km/s) = 4.96264 6.57906 5.82717
#
# Compressibility (1/GPa) = 0.01959608
#
# Stress axis : x y z
#
# Youngs Moduli (GPa) = 32.46490 38.74907 85.55876
#
# Poissons Ratio (x) = 0.78758 0.06667
# Poissons Ratio (y) = 0.65985 0.27775
# Poissons Ratio (z) = 0.02530 0.12579
#
# Static dielectric constant tensor:
#      x y z
#    x 2.176810 0.000000 -0.028890 
#    y 0.000000 2.088410 0.000000 
#    z -0.028890 0.000000 2.203990 
# 
# From -- ./inp_files/6447.got.cif
#   From: 2010.05.17/outbox.cif.g08.bks.cpg/sg9_4_cif.got.tgz:6447.got - 2010.06.03 20:04:27.
