data_PCOD9139031
_publ_section_title
;
Structure prediction by ZEFSAII (Michael W. Deem and Ramdas Pophale) SiO2 
 PCOD9139031
Probable space group: C C
;
_chemical_formula_sum "Si O2"
_cell_formula_units_Z 24
_cell_length_a 9.150037
_cell_length_b 23.968584
_cell_length_c 5.109998
_cell_angle_alpha 90.000000
_cell_angle_beta 55.556332
_cell_angle_gamma 90.000000
_cell_volume 924.214602
_symmetry_space_group_name_H-M "C C"
_symmetry_group_IT_number 9
_symmetry_cell_setting 'monoclinic'
loop_
_space_group_symop_operation_xyz
x,y,z
x,-y,1/2+z
1/2+x,1/2+y,z
1/2+x,1/2-y,1/2+z
loop_
_atom_site_type_symbol
_atom_site_label
_atom_site_fract_x
_atom_site_fract_y
_atom_site_fract_z
Si Si1 0.688310 0.031811 0.008140
Si Si2 0.683936 0.135952 0.673129
Si Si3 0.283982 0.861375 0.590876
Si Si4 0.257357 0.967980 0.936554
Si Si5 0.858631 0.759025 0.174986
Si Si6 0.983857 0.183195 0.057191
O O1 0.746409 0.088820 0.811970
O O2 0.472770 0.033133 0.229446
O O3 0.743607 0.015919 0.243771
O O4 0.482639 0.122849 0.799564
O O5 0.699675 0.195429 0.805646
O O6 0.816775 0.143704 0.296516
O O7 0.206338 0.909694 0.854054
O O8 0.305914 0.804917 0.736797
O O9 0.160451 0.847842 0.469614
O O10 0.200210 0.015364 0.785028
O O11 0.958911 0.768357 0.799414
O O12 0.965319 0.785419 0.305845
#
# Coordination Sequence:
#
# PCOD9139031 Si02
#       6
#     4   4   4   4   4   4
#     4   9  18  33  61  90 123 165 215 266 320 379
#     4   9  23  43  66  97 130 174 221 267 327 394
#     4  11  22  46  71  96 130 188 209 270 346 379
#     4   9  20  38  60  95 126 162 223 271 309 391
#     4  10  24  44  63  97 138 164 219 275 321 396
#     4  10  25  44  61  99 137 161 223 273 313 397
#
# _framework density 25.967994000000001
#
# number of rings (size 3 to 8) (size 9 to 14) (size 15 to 20)
#    1.000    1.333    0.000    1.000    2.333    5.333 
#    6.000    1.667    0.000    0.000    0.000    0.000 
#    0.000    0.000    0.000    0.000    0.000    0.000 
#
# Total GULP energy -67120.757063 kJ/mol
# GULP energy per Si atom -5593.396422 kJ/mol
# Density = 2.590889 g / cm^3
# Si number density = 25.967994 Si / 1000 Ang^3
#
#
#
# Elastic Constant Matrix: (Units=GPa)
#
#
# Indices 1 2 3 4 5 6 
#
# 1 100.2999 3.8880 39.6896 0.0000 -2.9803 0.0000
# 2 3.8880 119.6442 -12.0892 0.0000 -1.2498 0.0000
# 3 39.6896 -12.0892 71.2147 0.0000 11.9148 0.0000
# 4 0.0000 0.0000 0.0000 28.8860 0.0000 10.0467
# 5 -2.9803 -1.2498 11.9148 0.0000 34.4943 0.0000
# 6 0.0000 0.0000 0.0000 10.0467 0.0000 16.4979
#
#
#
# Elastic Compliance Matrix: (Units=1/GPa)
#
#
# Indices 1 2 3 4 5 6 
#
# 1 0.013454 -0.001242 -0.008380 0.000000 0.004012 0.000000
# 2 -0.001242 0.008620 0.002251 0.000000 -0.000573 0.000000
# 3 -0.008380 0.002251 0.020380 0.000000 -0.007682 0.000000
# 4 0.000000 0.000000 0.000000 0.043922 0.000000 -0.026747
# 5 0.004012 -0.000573 -0.007682 0.000000 0.031970 0.000000
# 6 0.000000 0.000000 0.000000 -0.026747 0.000000 0.076902
#
#
# Mechanical properties :
#
#
# Convention : Reuss Voigt Hill
#
# Bulk Modulus (GPa) = 36.08563 39.34841 37.71702
# Shear Modulus (GPa) = 22.80763 33.28700 28.04732
#
# Velocity S-wave (km/s) = 2.96682 3.58417 3.29001
# Velocity P-wave (km/s) = 5.06581 5.68454 5.38407
#
# Compressibility (1/GPa) = 0.02771186
#
# Stress axis : x y z
#
# Youngs Moduli (GPa) = 74.33003 116.00957 49.06807
#
# Poissons Ratio (x) = 0.14409 0.41119
# Poissons Ratio (y) = 0.09232 -0.11047
# Poissons Ratio (z) = 0.62289 -0.26117
#
# Static dielectric constant tensor:
#      x y z
#    x 2.098600 0.000000 -0.091670 
#    y 0.000000 2.063190 0.000000 
#    z -0.091670 0.000000 2.020990 
# 
# From -- ./inp_files/783.got.cif
#   From: 2010.05.17/outbox.cif.g08.bks.cpg/sg9_1_cif.got.tgz:783.got - 2010.06.03 20:04:27.
