data_PCOD9139886
_publ_section_title
;
Structure prediction by ZEFSAII (Michael W. Deem and Ramdas Pophale) SiO2 
 PCOD9139886
Probable space group: C C
;
_chemical_formula_sum "Si O2"
_cell_formula_units_Z 32
_cell_length_a 8.621368
_cell_length_b 21.632551
_cell_length_c 9.301269
_cell_angle_alpha 90.000000
_cell_angle_beta 63.120019
_cell_angle_gamma 90.000000
_cell_volume 1547.281520
_symmetry_space_group_name_H-M "C C"
_symmetry_group_IT_number 9
_symmetry_cell_setting 'monoclinic'
loop_
_space_group_symop_operation_xyz
x,y,z
x,-y,1/2+z
1/2+x,1/2+y,z
1/2+x,1/2-y,1/2+z
loop_
_atom_site_type_symbol
_atom_site_label
_atom_site_fract_x
_atom_site_fract_y
_atom_site_fract_z
Si Si1 0.052170 0.393267 0.774070
Si Si2 0.824843 0.610798 0.636491
Si Si3 0.625467 0.503472 0.573190
Si Si4 0.098686 0.461563 0.220365
Si Si5 0.913151 0.395923 0.519661
Si Si6 0.885005 0.827484 0.740685
Si Si7 0.440236 0.552945 0.385562
Si Si8 0.222873 0.796736 0.419159
O O1 0.064115 0.467675 0.775437
O O2 0.243095 0.364040 0.704513
O O3 0.948947 0.383037 0.670267
O O4 0.949573 0.367708 0.955297
O O5 0.688696 0.565961 0.618995
O O6 0.735336 0.664230 0.766029
O O7 0.942257 0.568258 0.692082
O O8 0.764850 0.448523 0.547172
O O9 0.585936 0.520963 0.425494
O O10 0.451978 0.482530 0.729249
O O11 0.265146 0.453892 0.049552
O O12 0.087565 0.422666 0.372167
O O13 0.854480 0.333508 0.467744
O O14 0.787922 0.771688 0.860476
O O15 0.037812 0.802325 0.574952
O O16 0.958925 0.875938 0.828239
#
# Coordination Sequence:
#
# PCOD9139886 Si02
#       8
#     4   4   4   4   4   4   4   4
#     4  12  22  42  70 104 139 180 230 280 351 415
#     4  11  23  42  71  99 142 181 219 287 351 419
#     4  12  23  42  68 110 138 173 225 285 368 411
#     4  11  22  39  63 106 141 177 219 274 356 413
#     4  11  24  43  72 103 141 181 223 293 352 421
#     4  12  27  48  70  98 135 194 241 288 341 412
#     4  12  26  40  66 101 144 181 224 288 341 422
#     4  11  27  50  70  93 140 187 241 285 352 407
#
# _framework density 20.681432999999998
#
# number of rings (size 3 to 8) (size 9 to 14) (size 15 to 20)
#    0.000    0.500    5.000    3.750    5.250    0.000 
#    2.250    1.250    0.000    0.000    0.000    0.000 
#    0.000    0.000    0.000    0.000    0.000    0.000 
#
# Total GULP energy -89434.456511 kJ/mol
# GULP energy per Si atom -5589.653532 kJ/mol
# Density = 2.063436 g / cm^3
# Si number density = 20.681433 Si / 1000 Ang^3
#
#
#
# Elastic Constant Matrix: (Units=GPa)
#
#
# Indices 1 2 3 4 5 6 
#
# 1 65.9905 38.5022 38.6247 0.0000 9.8711 0.0000
# 2 38.5022 100.0339 38.9787 0.0000 6.5291 0.0000
# 3 38.6247 38.9787 156.4772 0.0000 -9.6671 0.0000
# 4 0.0000 0.0000 0.0000 36.6294 0.0000 -8.9367
# 5 9.8711 6.5291 -9.6671 0.0000 46.3707 0.0000
# 6 0.0000 0.0000 0.0000 -8.9367 0.0000 25.9648
#
#
#
# Elastic Compliance Matrix: (Units=1/GPa)
#
#
# Indices 1 2 3 4 5 6 
#
# 1 0.022098 -0.006608 -0.004094 0.000000 -0.004627 0.000000
# 2 -0.006608 0.013265 -0.001724 0.000000 -0.000821 0.000000
# 3 -0.004094 -0.001724 0.008003 0.000000 0.002783 0.000000
# 4 0.000000 0.000000 0.000000 0.029803 0.000000 0.010258
# 5 -0.004627 -0.000821 0.002783 0.000000 0.023246 0.000000
# 6 0.000000 0.000000 0.000000 0.010258 0.000000 0.042044
#
#
# Mechanical properties :
#
#
# Convention : Reuss Voigt Hill
#
# Bulk Modulus (GPa) = 54.01561 61.63478 57.82520
# Shear Modulus (GPa) = 29.50153 35.55270 32.52711
#
# Velocity S-wave (km/s) = 3.78097 4.15066 3.97012
# Velocity P-wave (km/s) = 6.72574 7.26893 7.00260
#
# Compressibility (1/GPa) = 0.01851317
#
# Stress axis : x y z
#
# Youngs Moduli (GPa) = 45.25364 75.38511 124.95713
#
# Poissons Ratio (x) = 0.49813 0.51163
# Poissons Ratio (y) = 0.29903 0.21543
# Poissons Ratio (z) = 0.18529 0.12997
#
# Static dielectric constant tensor:
#      x y z
#    x 1.778520 0.000000 -0.029380 
#    y 0.000000 1.701690 0.000000 
#    z -0.029380 0.000000 1.797590 
# 
# From -- ./inp_files/6160.got.cif
#   From: 2010.05.17/outbox.cif.g08.bks.cpg/sg9_4_cif.got.tgz:6160.got - 2010.06.03 20:04:27.
