data_PCOD9139972
_publ_section_title
;
Structure prediction by ZEFSAII (Michael W. Deem and Ramdas Pophale) SiO2 
 PCOD9139972
Probable space group: C C
;
_chemical_formula_sum "Si O2"
_cell_formula_units_Z 20
_cell_length_a 8.429135
_cell_length_b 18.522434
_cell_length_c 9.313130
_cell_angle_alpha 90.000000
_cell_angle_beta 31.097042
_cell_angle_gamma 90.000000
_cell_volume 750.996494
_symmetry_space_group_name_H-M "C C"
_symmetry_group_IT_number 9
_symmetry_cell_setting 'monoclinic'
loop_
_space_group_symop_operation_xyz
x,y,z
x,-y,1/2+z
1/2+x,1/2+y,z
1/2+x,1/2-y,1/2+z
loop_
_atom_site_type_symbol
_atom_site_label
_atom_site_fract_x
_atom_site_fract_y
_atom_site_fract_z
Si Si1 0.652700 0.292301 0.212020
Si Si2 0.904646 0.624038 0.744838
Si Si3 0.992911 0.692041 0.989317
Si Si4 0.796135 0.037826 0.221802
Si Si5 0.297452 0.917627 0.883694
O O1 0.304716 0.277405 0.521741
O O2 0.904875 0.307475 0.139520
O O3 0.671192 0.357120 0.088131
O O4 0.131728 0.565345 0.496071
O O5 0.934723 0.650546 0.882555
O O6 0.558309 0.596582 0.987472
O O7 0.766649 0.753719 0.228966
O O8 0.949072 0.623575 0.132145
O O9 0.539612 0.039004 0.296625
O O10 0.005794 0.966686 0.067774
#
# Coordination Sequence:
#
# PCOD9139972 Si02
#       5
#     4   4   4   4   4
#     4  11  22  43  76 112 152 202 260 327 399 479
#     4  11  25  48  79 116 158 210 265 328 402 480
#     4  12  27  49  81 121 163 207 264 339 408 480
#     4  11  28  52  80 112 161 216 270 327 392 487
#     4  11  28  52  80 119 162 213 271 331 403 478
#
# _framework density 26.631284000000001
#
# number of rings (size 3 to 8) (size 9 to 14) (size 15 to 20)
#    0.000    0.800    0.000    6.000    0.000   16.000 
#    0.000    4.000    0.000    0.000    0.000    0.000 
#    0.000    0.000    0.000    0.000    0.000    0.000 
#
# Total GULP energy -55979.887254 kJ/mol
# GULP energy per Si atom -5597.988725 kJ/mol
# Density = 2.657067 g / cm^3
# Si number density = 26.631284 Si / 1000 Ang^3
#
#
#
# Elastic Constant Matrix: (Units=GPa)
#
#
# Indices 1 2 3 4 5 6 
#
# 1 172.0733 105.1742 85.0828 0.0001 29.7405 0.0005
# 2 105.1742 136.3079 62.2275 0.0002 -0.8216 -0.0002
# 3 85.0828 62.2275 195.0879 -0.0001 0.9734 0.0005
# 4 0.0001 0.0002 -0.0001 55.7381 0.0001 -10.7224
# 5 29.7405 -0.8216 0.9734 0.0001 49.6033 -0.0004
# 6 0.0005 -0.0002 0.0005 -10.7224 -0.0004 51.6600
#
#
#
# Elastic Compliance Matrix: (Units=1/GPa)
#
#
# Indices 1 2 3 4 5 6 
#
# 1 0.015519 -0.010490 -0.003375 0.000000 -0.009412 0.000000
# 2 -0.010490 0.015680 -0.000459 0.000000 0.006558 0.000000
# 3 -0.003375 -0.000459 0.006735 0.000000 0.001884 0.000000
# 4 0.000000 0.000000 0.000000 0.018687 0.000000 0.003879
# 5 -0.009412 0.006558 0.001884 0.000000 0.025875 0.000000
# 6 0.000000 0.000000 0.000000 0.003879 0.000000 0.020162
#
#
# Mechanical properties :
#
#
# Convention : Reuss Voigt Hill
#
# Bulk Modulus (GPa) = 107.70463 112.04866 109.87664
# Shear Modulus (GPa) = 37.20207 48.13258 42.66732
#
# Velocity S-wave (km/s) = 3.74161 4.25593 4.00703
# Velocity P-wave (km/s) = 7.69395 8.14346 7.92190
#
# Compressibility (1/GPa) = 0.00928465
#
# Stress axis : x y z
#
# Youngs Moduli (GPa) = 64.43779 63.77744 148.48027
#
# Poissons Ratio (x) = 0.66903 0.50114
# Poissons Ratio (y) = 0.67596 0.06816
# Poissons Ratio (z) = 0.21749 0.02928
#
# Static dielectric constant tensor:
#      x y z
#    x 2.176900 0.000000 0.045080 
#    y 0.000000 2.131590 0.000000 
#    z 0.045080 0.000000 2.080930 
# 
# From -- ./inp_files/5687.got.cif
#   From: 2010.05.17/outbox.cif.g08.bks.cpg/sg9_3_cif.got.tgz:5687.got - 2010.06.03 20:04:27.
