data_PCOD9139569
_publ_section_title
;
Structure prediction by ZEFSAII (Michael W. Deem and Ramdas Pophale) SiO2 
 PCOD9139569
Probable space group: C C
;
_chemical_formula_sum "Si O2"
_cell_formula_units_Z 24
_cell_length_a 20.013824
_cell_length_b 5.194942
_cell_length_c 20.815000
_cell_angle_alpha 90.000000
_cell_angle_beta 28.620514
_cell_angle_gamma 90.000000
_cell_volume 1036.640827
_symmetry_space_group_name_H-M "C C"
_symmetry_group_IT_number 9
_symmetry_cell_setting 'monoclinic'
loop_
_space_group_symop_operation_xyz
x,y,z
x,-y,1/2+z
1/2+x,1/2+y,z
1/2+x,1/2-y,1/2+z
loop_
_atom_site_type_symbol
_atom_site_label
_atom_site_fract_x
_atom_site_fract_y
_atom_site_fract_z
Si Si1 0.553240 0.213230 0.397220
Si Si2 0.452822 0.764275 0.785832
Si Si3 0.162837 0.094425 0.508316
Si Si4 0.023850 0.201421 0.495166
Si Si5 0.285323 0.506088 0.617173
Si Si6 0.831325 0.756775 0.944602
O O1 0.601361 0.489101 0.384700
O O2 0.394432 0.274264 0.511838
O O3 0.645721 0.115285 0.261186
O O4 0.559274 0.992333 0.446411
O O5 0.312636 0.793511 0.860101
O O6 0.593921 0.746173 0.626463
O O7 0.423571 0.498609 0.846133
O O8 0.428886 0.008285 0.851532
O O9 0.058104 0.118512 0.538145
O O10 0.204155 0.816263 0.503269
O O11 0.864215 0.154851 0.608336
O O12 0.278858 0.684723 0.560249
#
# Coordination Sequence:
#
# PCOD9139569 Si02
#       6
#     4   4   4   4   4   4
#     4  10  26  41  75 103 145 185 243 303 364 439
#     4  10  26  42  71 101 140 189 241 298 355 440
#     4  10  26  45  74 103 148 187 249 296 374 428
#     4  10  26  41  74 105 144 186 242 306 364 440
#     4  10  26  47  72 104 146 187 246 295 372 426
#     4  10  26  42  72 100 143 188 239 294 361 433
#
# _framework density 23.151703999999999
#
# number of rings (size 3 to 8) (size 9 to 14) (size 15 to 20)
#    2.000    0.000    0.000    0.000   11.667    2.667 
#    0.000    0.000    0.000    0.000    0.000    0.000 
#    0.000    0.000    0.000    0.000    0.000    0.000 
#
# Total GULP energy -66908.761457 kJ/mol
# GULP energy per Si atom -5575.730121 kJ/mol
# Density = 2.309901 g / cm^3
# Si number density = 23.151704 Si / 1000 Ang^3
#
#
#
# Elastic Constant Matrix: (Units=GPa)
#
#
# Indices 1 2 3 4 5 6 
#
# 1 110.3818 28.3785 17.1538 0.2473 5.3246 -0.0882
# 2 28.3785 140.8329 22.0532 0.1270 5.9838 -0.0489
# 3 17.1538 22.0532 92.6950 0.0995 -1.9709 -0.0600
# 4 0.2473 0.1270 0.0995 23.7512 -0.0307 11.7439
# 5 5.3246 5.9838 -1.9709 -0.0307 18.6657 0.0372
# 6 -0.0882 -0.0489 -0.0600 11.7439 0.0372 27.0436
#
#
#
# Elastic Compliance Matrix: (Units=1/GPa)
#
#
# Indices 1 2 3 4 5 6 
#
# 1 0.009830 -0.001646 -0.001479 -0.000134 -0.002433 0.000087
# 2 -0.001646 0.007775 -0.001592 -0.000031 -0.002191 0.000022
# 3 -0.001479 -0.001592 0.011486 -0.000037 0.002145 0.000031
# 4 -0.000134 -0.000031 -0.000037 0.053618 0.000179 -0.023285
# 5 -0.002433 -0.002191 0.002145 0.000179 0.055198 -0.000161
# 6 0.000087 0.000022 0.000031 -0.023285 -0.000161 0.047090
#
#
# Mechanical properties :
#
#
# Convention : Reuss Voigt Hill
#
# Bulk Modulus (GPa) = 50.87004 53.23119 52.05061
# Shear Modulus (GPa) = 24.87781 32.31371 28.59576
#
# Velocity S-wave (km/s) = 3.28160 3.74001 3.51828
# Velocity P-wave (km/s) = 6.03148 6.45697 6.24785
#
# Compressibility (1/GPa) = 0.01965794
#
# Stress axis : x y z
#
# Youngs Moduli (GPa) = 101.72774 128.62401 87.06147
#
# Poissons Ratio (x) = 0.21167 0.12878
# Poissons Ratio (y) = 0.16741 0.13857
# Poissons Ratio (z) = 0.15047 0.20473
#
# Static dielectric constant tensor:
#      x y z
#    x 1.909450 0.000020 -0.036140 
#    y 0.000020 1.897720 0.000040 
#    z -0.036140 0.000040 1.832870 
# 
# From -- ./inp_files/19630.got.cif
#   From: 2010.05.17/outbox.cif.g08.bks.cpg/sg9_10_cif.got.tgz:19630.got - 2010.06.03 20:04:27.
