data_PCOD9139527
_publ_section_title
;
Structure prediction by ZEFSAII (Michael W. Deem and Ramdas Pophale) SiO2 
 PCOD9139527
Probable space group: C C
;
_chemical_formula_sum "Si O2"
_cell_formula_units_Z 32
_cell_length_a 8.636394
_cell_length_b 27.205443
_cell_length_c 9.565307
_cell_angle_alpha 90.000000
_cell_angle_beta 33.365745
_cell_angle_gamma 90.000000
_cell_volume 1236.047776
_symmetry_space_group_name_H-M "C C"
_symmetry_group_IT_number 9
_symmetry_cell_setting 'monoclinic'
loop_
_space_group_symop_operation_xyz
x,y,z
x,-y,1/2+z
1/2+x,1/2+y,z
1/2+x,1/2-y,1/2+z
loop_
_atom_site_type_symbol
_atom_site_label
_atom_site_fract_x
_atom_site_fract_y
_atom_site_fract_z
Si Si1 0.108000 0.685972 0.150410
Si Si2 0.638041 0.383604 0.925549
Si Si3 0.405534 0.221818 0.820634
Si Si4 0.953951 0.481469 0.190723
Si Si5 0.349168 0.712711 0.726457
Si Si6 0.529145 0.575496 0.208405
Si Si7 0.576868 0.851065 0.963948
Si Si8 0.783702 0.444178 0.041950
O O1 0.100360 0.687801 0.320272
O O2 0.947813 0.636892 0.226209
O O3 0.970416 0.733975 0.180325
O O4 0.390352 0.686387 0.848796
O O5 0.629461 0.410588 0.786302
O O6 0.479400 0.331472 0.036384
O O7 0.544790 0.420462 0.121054
O O8 0.092997 0.239136 0.091318
O O9 0.565990 0.219872 0.848772
O O10 0.443823 0.172797 0.701424
O O11 0.774376 0.443936 0.423425
O O12 0.780915 0.482499 0.173902
O O13 0.964727 0.529074 0.282992
O O14 0.268033 0.463115 0.917111
O O15 0.379438 0.624830 0.264574
O O16 0.401445 0.896857 0.035322
#
# Coordination Sequence:
#
# PCOD9139527 Si02
#       8
#     4   4   4   4   4   4   4   4
#     4  11  24  42  64 100 144 190 241 291 346 418
#     4  11  24  44  70 103 139 189 240 291 354 419
#     4  12  26  45  70 102 145 194 239 291 349 413
#     4  11  26  50  74 104 144 178 235 291 371 427
#     4  12  23  41  67  99 142 196 241 290 349 412
#     4  11  26  48  75 107 142 184 233 300 353 431
#     4  10  26  45  70 106 143 188 240 294 353 421
#     4  10  25  49  74 105 139 185 233 296 361 433
#
# _framework density 25.888967999999998
#
# number of rings (size 3 to 8) (size 9 to 14) (size 15 to 20)
#    0.000    1.000    3.750    0.750    5.250    6.000 
#    2.250    0.000    0.000    0.000    0.000    0.000 
#    0.000    0.000    0.000    0.000    0.000    0.000 
#
# Total GULP energy -89234.981736 kJ/mol
# GULP energy per Si atom -5577.186359 kJ/mol
# Density = 2.583004 g / cm^3
# Si number density = 25.888968 Si / 1000 Ang^3
#
#
#
# Elastic Constant Matrix: (Units=GPa)
#
#
# Indices 1 2 3 4 5 6 
#
# 1 123.4767 39.0310 33.0318 0.0000 40.0226 0.0000
# 2 39.0310 121.0544 38.4320 0.0000 22.3356 0.0000
# 3 33.0318 38.4320 67.9935 0.0000 21.4869 0.0000
# 4 0.0000 0.0000 0.0000 40.9820 0.0000 8.2045
# 5 40.0226 22.3356 21.4869 0.0000 42.0865 0.0000
# 6 0.0000 0.0000 0.0000 8.2045 0.0000 41.9212
#
#
#
# Elastic Compliance Matrix: (Units=1/GPa)
#
#
# Indices 1 2 3 4 5 6 
#
# 1 0.012318 -0.001510 -0.002006 0.000000 -0.009888 0.000000
# 2 -0.001510 0.010560 -0.004672 0.000000 -0.001783 0.000000
# 3 -0.002006 -0.004672 0.020194 0.000000 -0.005923 0.000000
# 4 0.000000 0.000000 0.000000 0.025396 0.000000 -0.004970
# 5 -0.009888 -0.001783 -0.005923 0.000000 0.037134 0.000000
# 6 0.000000 0.000000 0.000000 -0.004970 0.000000 0.024827
#
#
# Mechanical properties :
#
#
# Convention : Reuss Voigt Hill
#
# Bulk Modulus (GPa) = 37.45805 59.27934 48.36870
# Shear Modulus (GPa) = 32.11254 38.46659 35.28956
#
# Velocity S-wave (km/s) = 3.52574 3.85883 3.69604
# Velocity P-wave (km/s) = 5.57446 6.54227 6.07766
#
# Compressibility (1/GPa) = 0.02669653
#
# Stress axis : x y z
#
# Youngs Moduli (GPa) = 81.18411 94.69883 49.51973
#
# Poissons Ratio (x) = 0.14303 0.09931
# Poissons Ratio (y) = 0.12262 0.23133
# Poissons Ratio (z) = 0.16282 0.44239
#
# Static dielectric constant tensor:
#      x y z
#    x 2.056490 0.000000 -0.165410 
#    y 0.000000 2.143970 0.000000 
#    z -0.165410 0.000000 2.962720 
# 
# From -- ./inp_files/6432.got.cif
#   From: 2010.05.17/outbox.cif.g08.bks.cpg/sg9_4_cif.got.tgz:6432.got - 2010.06.03 20:04:27.
