data_PCOD9139342
_publ_section_title
;
Structure prediction by ZEFSAII (Michael W. Deem and Ramdas Pophale) SiO2 
 PCOD9139342
Probable space group: C C
;
_chemical_formula_sum "Si O2"
_cell_formula_units_Z 24
_cell_length_a 8.046779
_cell_length_b 18.434565
_cell_length_c 7.583687
_cell_angle_alpha 90.000000
_cell_angle_beta 55.981226
_cell_angle_gamma 90.000000
_cell_volume 932.424255
_symmetry_space_group_name_H-M "C C"
_symmetry_group_IT_number 9
_symmetry_cell_setting 'monoclinic'
loop_
_space_group_symop_operation_xyz
x,y,z
x,-y,1/2+z
1/2+x,1/2+y,z
1/2+x,1/2-y,1/2+z
loop_
_atom_site_type_symbol
_atom_site_label
_atom_site_fract_x
_atom_site_fract_y
_atom_site_fract_z
Si Si1 0.406190 0.435056 0.125000
Si Si2 0.044939 0.660209 0.286562
Si Si3 0.429341 0.654637 0.275761
Si Si4 0.604401 0.706718 0.518079
Si Si5 0.514456 0.971632 0.565964
Si Si6 0.229286 0.937536 0.435163
O O1 0.215315 0.467330 0.333776
O O2 0.380050 0.413411 0.935583
O O3 0.455528 0.356142 0.176731
O O4 0.591922 0.490070 0.021949
O O5 0.816863 0.679186 0.463862
O O6 0.053551 0.577657 0.214665
O O7 0.217031 0.678805 0.324734
O O8 0.076540 0.713371 0.102589
O O9 0.556575 0.704430 0.335780
O O10 0.572078 0.627979 0.031772
O O11 0.347066 0.931101 0.548642
O O12 0.403076 0.045938 0.689963
#
# Coordination Sequence:
#
# PCOD9139342 Si02
#       6
#     4   4   4   4   4   4
#     4  10  25  50  71 115 158 202 260 331 388 471
#     4  12  24  50  81 110 155 216 262 325 405 456
#     4  10  26  50  75 113 162 211 257 329 397 468
#     4  10  24  52  74 117 160 196 273 328 385 482
#     4  12  27  43  78 108 154 209 260 325 391 465
#     4  12  24  49  71 111 163 198 264 320 398 466
#
# _framework density 25.739355
#
# number of rings (size 3 to 8) (size 9 to 14) (size 15 to 20)
#    1.000    0.000    5.000    1.000    7.000    1.333 
#    0.000    0.000    0.000    0.000    0.000    0.000 
#    0.000    0.000    0.000    0.000    0.000    0.000 
#
# Total GULP energy -67084.865109 kJ/mol
# GULP energy per Si atom -5590.405426 kJ/mol
# Density = 2.568077 g / cm^3
# Si number density = 25.739355 Si / 1000 Ang^3
#
#
#
# Elastic Constant Matrix: (Units=GPa)
#
#
# Indices 1 2 3 4 5 6 
#
# 1 162.7179 32.5128 35.5424 0.0000 -11.6317 0.0000
# 2 32.5128 60.4777 30.7157 0.0000 -4.5754 0.0000
# 3 35.5424 30.7157 137.2309 0.0000 -29.0031 0.0000
# 4 0.0000 0.0000 0.0000 34.2998 0.0000 19.9479
# 5 -11.6317 -4.5754 -29.0031 0.0000 44.1683 0.0000
# 6 0.0000 0.0000 0.0000 19.9479 0.0000 2.3054
#
#
#
# Elastic Compliance Matrix: (Units=1/GPa)
#
#
# Indices 1 2 3 4 5 6 
#
# 1 0.007062 -0.003269 -0.000901 0.000000 0.000930 0.000000
# 2 -0.003269 0.020202 -0.003965 0.000000 -0.001372 0.000000
# 3 -0.000901 -0.003965 0.009604 0.000000 0.005658 0.000000
# 4 0.000000 0.000000 0.000000 -0.007230 0.000000 0.062563
# 5 0.000930 -0.001372 0.005658 0.000000 0.026459 0.000000
# 6 0.000000 0.000000 0.000000 0.062563 0.000000 -0.107575
#
#
# Mechanical properties :
#
#
# Convention : Reuss Voigt Hill
#
# Bulk Modulus (GPa) = 48.54719 61.99648 55.27183
# Shear Modulus (GPa) = -176.41316 33.59838 -71.40739
#
# Velocity S-wave (km/s) = -8.28777 3.61686 -5.27283
# Velocity P-wave (km/s) = 8.52530 6.44831 3.94335
#
# Compressibility (1/GPa) = 0.02059852
#
# Stress axis : x y z
#
# Youngs Moduli (GPa) = 141.60392 49.49935 104.12682
#
# Poissons Ratio (x) = 0.16179 0.09382
# Poissons Ratio (y) = 0.46285 0.41288
# Poissons Ratio (z) = 0.12758 0.19627
#
# Static dielectric constant tensor:
#      x y z
#    x 2.006790 0.000000 0.005270 
#    y 0.000000 2.033430 0.000000 
#    z 0.005270 0.000000 2.040320 
# 
# From -- ./inp_files/5700.got.cif
#   From: 2010.05.17/outbox.cif.g08.bks.cpg/sg9_3_cif.got.tgz:5700.got - 2010.06.03 20:04:27.
