data_PCOD9139912
_publ_section_title
;
Structure prediction by ZEFSAII (Michael W. Deem and Ramdas Pophale) SiO2 
 PCOD9139912
Probable space group: C C
;
_chemical_formula_sum "Si O2"
_cell_formula_units_Z 32
_cell_length_a 12.494559
_cell_length_b 13.013985
_cell_length_c 8.931831
_cell_angle_alpha 90.000000
_cell_angle_beta 111.335221
_cell_angle_gamma 90.000000
_cell_volume 1352.818568
_symmetry_space_group_name_H-M "C C"
_symmetry_group_IT_number 9
_symmetry_cell_setting 'monoclinic'
loop_
_space_group_symop_operation_xyz
x,y,z
x,-y,1/2+z
1/2+x,1/2+y,z
1/2+x,1/2-y,1/2+z
loop_
_atom_site_type_symbol
_atom_site_label
_atom_site_fract_x
_atom_site_fract_y
_atom_site_fract_z
Si Si1 0.694060 0.189688 0.595680
Si Si2 0.544494 0.985022 0.171683
Si Si3 0.860221 0.272074 0.906733
Si Si4 0.380554 0.986249 0.355622
Si Si5 0.407316 0.377568 0.660678
Si Si6 0.062115 0.858020 0.362543
Si Si7 0.291971 0.445515 0.909897
Si Si8 0.612603 0.501142 0.156265
O O1 0.598819 0.107706 0.601401
O O2 0.740470 0.243105 0.768486
O O3 0.657261 0.275435 0.457444
O O4 0.788003 0.126260 0.552405
O O5 0.463358 0.951440 0.265157
O O6 0.659113 0.040688 0.290231
O O7 0.452878 0.054972 0.034233
O O8 0.881621 0.390571 0.884745
O O9 0.951435 0.200738 0.866379
O O10 0.875354 0.235898 0.085927
O O11 0.245480 0.973375 0.257142
O O12 0.361731 0.406212 0.801424
O O13 0.341276 0.449161 0.503922
O O14 0.541005 0.407654 0.705080
O O15 0.095496 0.958828 0.478947
O O16 0.052602 0.898315 0.189186
#
# Coordination Sequence:
#
# PCOD9139912 Si02
#       8
#     4   4   4   4   4   4   4   4
#     4  12  23  43  69  99 137 175 235 284 338 405
#     4  12  23  42  70  98 133 184 224 273 348 402
#     4  11  23  43  69 100 134 176 225 285 334 400
#     4  12  25  44  69  95 143 184 222 274 344 415
#     4  11  22  40  73  99 136 175 230 284 340 397
#     4  11  23  45  67  96 133 179 226 280 343 404
#     4  12  21  42  69 106 132 176 228 288 339 396
#     4  11  24  43  68  95 132 181 222 270 348 409
#
# _framework density 23.654318
#
# number of rings (size 3 to 8) (size 9 to 14) (size 15 to 20)
#    0.000    0.500    6.250    3.000    0.000    0.000 
#    4.500    0.000    5.500    0.000    0.000    0.000 
#    0.000    0.000    0.000    0.000    0.000    0.000 
#
# Total GULP energy -89257.200032 kJ/mol
# GULP energy per Si atom -5578.575002 kJ/mol
# Density = 2.360048 g / cm^3
# Si number density = 23.654318 Si / 1000 Ang^3
#
#
#
# Elastic Constant Matrix: (Units=GPa)
#
#
# Indices 1 2 3 4 5 6 
#
# 1 117.5051 3.8896 12.7523 0.0000 14.5345 0.0000
# 2 3.8896 67.4362 8.9170 0.0000 -16.4719 0.0000
# 3 12.7523 8.9170 38.6050 0.0000 -0.0309 0.0000
# 4 0.0000 0.0000 0.0000 32.3646 0.0000 6.7023
# 5 14.5345 -16.4719 -0.0309 0.0000 40.7286 0.0000
# 6 0.0000 0.0000 0.0000 6.7023 0.0000 11.6458
#
#
#
# Elastic Compliance Matrix: (Units=1/GPa)
#
#
# Indices 1 2 3 4 5 6 
#
# 1 0.009319 -0.001083 -0.002831 0.000000 -0.003766 0.000000
# 2 -0.001083 0.017156 -0.003599 0.000000 0.007322 0.000000
# 3 -0.002831 -0.003599 0.027670 0.000000 -0.000424 0.000000
# 4 0.000000 0.000000 0.000000 0.035079 0.000000 -0.020188
# 5 -0.003766 0.007322 -0.000424 0.000000 0.028858 0.000000
# 6 0.000000 0.000000 0.000000 -0.020188 0.000000 0.097487
#
#
# Mechanical properties :
#
#
# Convention : Reuss Voigt Hill
#
# Bulk Modulus (GPa) = 25.56374 30.51824 28.04099
# Shear Modulus (GPa) = 20.52266 30.14695 25.33481
#
# Velocity S-wave (km/s) = 2.94871 3.57386 3.27623
# Velocity P-wave (km/s) = 4.73539 5.47355 5.11779
#
# Compressibility (1/GPa) = 0.03911791
#
# Stress axis : x y z
#
# Youngs Moduli (GPa) = 107.30555 58.28980 36.14076
#
# Poissons Ratio (x) = 0.06313 0.10232
# Poissons Ratio (y) = 0.11621 0.13007
# Poissons Ratio (z) = 0.30381 0.20979
#
# Static dielectric constant tensor:
#      x y z
#    x 1.959000 0.000000 0.050600 
#    y 0.000000 1.920070 0.000000 
#    z 0.050600 0.000000 2.038460 
# 
# From -- ./inp_files/7629.got.cif
#   From: 2010.05.17/outbox.cif.g08.bks.cpg/sg9_4_cif.got.tgz:7629.got - 2010.06.03 20:04:27.
