data_PCOD9139692
_publ_section_title
;
Structure prediction by ZEFSAII (Michael W. Deem and Ramdas Pophale) SiO2 
 PCOD9139692
Probable space group: C C
;
_chemical_formula_sum "Si O2"
_cell_formula_units_Z 24
_cell_length_a 7.283382
_cell_length_b 12.439687
_cell_length_c 12.438980
_cell_angle_alpha 90.000000
_cell_angle_beta 47.502069
_cell_angle_gamma 90.000000
_cell_volume 830.945548
_symmetry_space_group_name_H-M "C C"
_symmetry_group_IT_number 9
_symmetry_cell_setting 'monoclinic'
loop_
_space_group_symop_operation_xyz
x,y,z
x,-y,1/2+z
1/2+x,1/2+y,z
1/2+x,1/2-y,1/2+z
loop_
_atom_site_type_symbol
_atom_site_label
_atom_site_fract_x
_atom_site_fract_y
_atom_site_fract_z
Si Si1 0.632710 0.752482 0.148200
Si Si2 0.846991 0.354481 0.966367
Si Si3 0.274916 0.542698 0.515460
Si Si4 0.815631 0.926096 0.701124
Si Si5 0.414982 0.128113 0.212300
Si Si6 0.618181 0.358616 0.289903
O O1 0.771146 0.828537 0.007493
O O2 0.564949 0.633878 0.130574
O O3 0.793175 0.719625 0.188584
O O4 0.366809 0.817396 0.256701
O O5 0.687961 0.366591 0.135950
O O6 0.763555 0.398151 0.881826
O O7 0.113053 0.418909 0.875493
O O8 0.916647 0.232432 0.903733
O O9 0.311130 0.532056 0.633268
O O10 0.478408 0.470133 0.374560
O O11 0.009738 0.477295 0.611769
O O12 0.678632 0.848084 0.668295
#
# Coordination Sequence:
#
# PCOD9139692 Si02
#       6
#     4   4   4   4   4   4
#     4  11  20  43  79 103 140 195 251 293 375 459
#     4   8  18  38  69  97 145 193 227 309 375 418
#     4   9  22  44  68 111 149 183 248 311 367 448
#     4   7  19  43  72 104 144 187 236 322 369 426
#     4   8  20  45  74 107 136 200 244 301 385 442
#     4  11  19  41  74 104 154 198 242 324 383 435
#
# _framework density 28.882759
#
# number of rings (size 3 to 8) (size 9 to 14) (size 15 to 20)
#    2.000    0.667    0.000    3.000    0.000    0.000 
#    3.000   28.333    0.000   16.000    0.000    0.000 
#    0.000    0.000    0.000    0.000    0.000    0.000 
#
# Total GULP energy -66827.811952 kJ/mol
# GULP energy per Si atom -5568.984329 kJ/mol
# Density = 2.881702 g / cm^3
# Si number density = 28.882759 Si / 1000 Ang^3
#
#
#
# Elastic Constant Matrix: (Units=GPa)
#
#
# Indices 1 2 3 4 5 6 
#
# 1 158.9687 50.3550 56.8619 -0.0028 1.3112 0.0032
# 2 50.3550 124.0651 58.4911 -0.0013 9.9862 0.0017
# 3 56.8619 58.4911 214.9620 -0.0026 38.7504 0.0033
# 4 -0.0028 -0.0013 -0.0026 62.1404 0.0020 1.8799
# 5 1.3112 9.9862 38.7504 0.0020 37.1013 -0.0023
# 6 0.0032 0.0017 0.0033 1.8799 -0.0023 42.9229
#
#
#
# Elastic Compliance Matrix: (Units=1/GPa)
#
#
# Indices 1 2 3 4 5 6 
#
# 1 0.007685 -0.002467 -0.001764 0.000000 0.002235 0.000000
# 2 -0.002467 0.010039 -0.001981 0.000000 -0.000546 0.000000
# 3 -0.001764 -0.001981 0.006838 0.000000 -0.006546 -0.000001
# 4 0.000000 0.000000 0.000000 0.016114 -0.000001 -0.000706
# 5 0.002235 -0.000546 -0.006546 -0.000001 0.033858 0.000002
# 6 0.000000 0.000000 -0.000001 -0.000706 0.000002 0.023328
#
#
# Mechanical properties :
#
#
# Convention : Reuss Voigt Hill
#
# Bulk Modulus (GPa) = 82.38948 92.15688 87.27318
# Shear Modulus (GPa) = 43.73201 50.58545 47.15873
#
# Velocity S-wave (km/s) = 3.89539 4.18952 4.04513
# Velocity P-wave (km/s) = 6.98710 7.44173 7.21799
#
# Compressibility (1/GPa) = 0.01213747
#
# Stress axis : x y z
#
# Youngs Moduli (GPa) = 130.12850 99.60777 146.24847
#
# Poissons Ratio (x) = 0.24574 0.25804
# Poissons Ratio (y) = 0.32104 0.28966
# Poissons Ratio (z) = 0.22960 0.19728
#
# Static dielectric constant tensor:
#      x y z
#    x 2.448510 0.000000 -0.029770 
#    y 0.000000 2.372290 0.000000 
#    z -0.029770 0.000000 2.442540 
# 
# From -- ./inp_files/23534.got.cif
#   From: 2010.05.17/outbox.cif.g08.bks.cpg/sg9_12_cif.got.tgz:23534.got - 2010.06.03 20:04:27.
