data_PCOD9139050
_publ_section_title
;
Structure prediction by ZEFSAII (Michael W. Deem and Ramdas Pophale) SiO2 
 PCOD9139050
Probable space group: C C
;
_chemical_formula_sum "Si O2"
_cell_formula_units_Z 32
_cell_length_a 14.622387
_cell_length_b 12.278050
_cell_length_c 8.247863
_cell_angle_alpha 90.000000
_cell_angle_beta 74.416234
_cell_angle_gamma 90.000000
_cell_volume 1426.339940
_symmetry_space_group_name_H-M "C C"
_symmetry_group_IT_number 9
_symmetry_cell_setting 'monoclinic'
loop_
_space_group_symop_operation_xyz
x,y,z
x,-y,1/2+z
1/2+x,1/2+y,z
1/2+x,1/2-y,1/2+z
loop_
_atom_site_type_symbol
_atom_site_label
_atom_site_fract_x
_atom_site_fract_y
_atom_site_fract_z
Si Si1 0.243300 0.950308 0.573670
Si Si2 0.937812 0.886921 0.574893
Si Si3 0.636888 0.619853 0.818257
Si Si4 0.550696 0.227969 0.122012
Si Si5 0.520164 0.835378 0.145899
Si Si6 0.461776 0.032923 0.993980
Si Si7 0.194259 0.267045 0.252948
Si Si8 0.379076 0.608764 0.751344
O O1 0.218934 0.896741 0.411923
O O2 0.350214 0.990145 0.538600
O O3 0.230753 0.854777 0.710685
O O4 0.169276 0.044590 0.653613
O O5 0.956445 0.771862 0.651780
O O6 0.873386 0.872347 0.446932
O O7 0.040455 0.920369 0.451055
O O8 0.899098 0.982792 0.704693
O O9 0.607131 0.736342 0.757512
O O10 0.494664 0.114800 0.122999
O O11 0.468525 0.320025 0.145746
O O12 0.628104 0.229094 0.942425
O O13 0.486747 0.902483 0.319130
O O14 0.625709 0.795903 0.135946
O O15 0.512864 0.919086 0.002068
O O16 0.282473 0.347970 0.220261
#
# Coordination Sequence:
#
# PCOD9139050 Si02
#       8
#     4   4   4   4   4   4   4   4
#     4  12  22  41  68 105 133 183 242 286 343 419
#     4  11  25  45  72 105 140 187 235 295 360 420
#     4  11  23  40  72 103 138 181 237 303 343 412
#     4  10  24  44  67 102 142 185 226 296 359 406
#     4  11  27  46  71 101 144 189 234 287 365 421
#     4  11  26  45  70 100 146 184 230 296 356 420
#     4  11  24  44  69 103 140 186 235 286 350 429
#     4  11  25  43  75 105 143 181 241 295 356 419
#
# _framework density 22.435046
#
# number of rings (size 3 to 8) (size 9 to 14) (size 15 to 20)
#    0.000    1.000    2.500    3.750    7.000    5.000 
#    0.000    0.000    0.000    0.000    0.000    0.000 
#    0.000    0.000    0.000    0.000    0.000    0.000 
#
# Total GULP energy -89478.299737 kJ/mol
# GULP energy per Si atom -5592.393734 kJ/mol
# Density = 2.238398 g / cm^3
# Si number density = 22.435046 Si / 1000 Ang^3
#
#
#
# Elastic Constant Matrix: (Units=GPa)
#
#
# Indices 1 2 3 4 5 6 
#
# 1 67.5524 42.8697 32.3480 0.0000 20.4164 0.0000
# 2 42.8697 158.7495 37.3779 0.0000 10.8818 0.0000
# 3 32.3480 37.3779 71.0013 0.0000 6.8982 0.0000
# 4 0.0000 0.0000 0.0000 40.0096 0.0000 8.0775
# 5 20.4164 10.8818 6.8982 0.0000 20.9209 0.0000
# 6 0.0000 0.0000 0.0000 8.0775 0.0000 30.3621
#
#
#
# Elastic Compliance Matrix: (Units=1/GPa)
#
#
# Indices 1 2 3 4 5 6 
#
# 1 0.028369 -0.004086 -0.008565 0.000000 -0.022736 0.000000
# 2 -0.004086 0.007916 -0.002369 0.000000 0.000651 0.000000
# 3 -0.008565 -0.002369 0.018907 0.000000 0.003356 0.000000
# 4 0.000000 0.000000 0.000000 0.026413 0.000000 -0.007027
# 5 -0.022736 0.000651 0.003356 0.000000 0.068541 0.000000
# 6 0.000000 0.000000 0.000000 -0.007027 0.000000 0.034805
#
#
# Mechanical properties :
#
#
# Convention : Reuss Voigt Hill
#
# Bulk Modulus (GPa) = 39.75718 58.05493 48.90605
# Shear Modulus (GPa) = 22.38390 30.57237 26.47814
#
# Velocity S-wave (km/s) = 3.16210 3.69549 3.43915
# Velocity P-wave (km/s) = 5.57596 6.64394 6.13324
#
# Compressibility (1/GPa) = 0.02515269
#
# Stress axis : x y z
#
# Youngs Moduli (GPa) = 35.24964 126.33060 52.88924
#
# Poissons Ratio (x) = 0.51617 0.45300
# Poissons Ratio (y) = 0.14403 0.12529
# Poissons Ratio (z) = 0.30191 0.29927
#
# Static dielectric constant tensor:
#      x y z
#    x 1.805750 0.000000 0.043620 
#    y 0.000000 1.812430 0.000000 
#    z 0.043620 0.000000 1.899860 
# 
# From -- ./inp_files/9104.got.cif
#   From: 2010.05.17/outbox.cif.g08.bks.cpg/sg9_5_cif.got.tgz:9104.got - 2010.06.03 20:04:27.
