data_PCOD9139907
_publ_section_title
;
Structure prediction by ZEFSAII (Michael W. Deem and Ramdas Pophale) SiO2 
 PCOD9139907
Probable space group: C C
;
_chemical_formula_sum "Si O2"
_cell_formula_units_Z 32
_cell_length_a 21.108990
_cell_length_b 9.577013
_cell_length_c 8.023129
_cell_angle_alpha 90.000000
_cell_angle_beta 116.415189
_cell_angle_gamma 90.000000
_cell_volume 1452.621314
_symmetry_space_group_name_H-M "C C"
_symmetry_group_IT_number 9
_symmetry_cell_setting 'monoclinic'
loop_
_space_group_symop_operation_xyz
x,y,z
x,-y,1/2+z
1/2+x,1/2+y,z
1/2+x,1/2-y,1/2+z
loop_
_atom_site_type_symbol
_atom_site_label
_atom_site_fract_x
_atom_site_fract_y
_atom_site_fract_z
Si Si1 0.983280 0.832907 0.652350
Si Si2 0.681270 0.778460 0.674979
Si Si3 0.832063 0.786803 0.930391
Si Si4 0.334993 0.408277 0.310429
Si Si5 0.686696 0.081653 0.814628
Si Si6 0.034822 0.419606 0.048288
Si Si7 0.978961 0.321004 0.642978
Si Si8 0.547189 0.582428 0.568226
O O1 0.905023 0.858224 0.489700
O O2 0.003611 0.671697 0.661803
O O3 0.039757 0.921475 0.607293
O O4 0.997012 0.885213 0.853345
O O5 0.678367 0.851161 0.488206
O O6 0.621751 0.659771 0.625663
O O7 0.682367 0.911495 0.804307
O O8 0.758646 0.714897 0.797929
O O9 0.834137 0.846963 0.122729
O O10 0.898768 0.686842 0.991322
O O11 0.838088 0.922911 0.818877
O O12 0.260988 0.375831 0.318239
O O13 0.616864 0.119548 0.627565
O O14 0.025387 0.581046 0.078940
O O15 0.989026 0.379253 0.837359
O O16 0.010080 0.165990 0.675028
#
# Coordination Sequence:
#
# PCOD9139907 Si02
#       8
#     4   4   4   4   4   4   4   4
#     4  12  24  44  67 100 134 173 223 269 337 392
#     4  11  23  41  65 101 134 176 221 273 335 393
#     4  11  23  41  65 101 134 176 221 273 335 393
#     4  11  22  40  68  98 134 170 223 272 328 393
#     4  11  22  40  68  98 134 170 223 272 328 393
#     4  12  24  44  67 100 134 173 223 269 337 392
#     4  12  25  43  68  98 134 172 222 279 325 399
#     4  12  25  43  68  98 134 172 222 279 325 399
#
# _framework density 22.029140000000002
#
# number of rings (size 3 to 8) (size 9 to 14) (size 15 to 20)
#    0.000    0.500    5.000    6.000    3.500    0.000 
#    0.000    2.500    0.000    0.000    0.000    0.000 
#    0.000    0.000    0.000    0.000    0.000    0.000 
#
# Total GULP energy -89436.376631 kJ/mol
# GULP energy per Si atom -5589.773539 kJ/mol
# Density = 2.197900 g / cm^3
# Si number density = 22.029140 Si / 1000 Ang^3
#
#
#
# Elastic Constant Matrix: (Units=GPa)
#
#
# Indices 1 2 3 4 5 6 
#
# 1 126.8219 27.5693 31.2110 0.0000 35.5521 0.0000
# 2 27.5693 49.8253 19.5147 0.0000 9.5191 0.0000
# 3 31.2110 19.5147 53.2795 0.0000 4.8091 0.0000
# 4 0.0000 0.0000 0.0000 26.8233 0.0000 5.3163
# 5 35.5521 9.5191 4.8091 0.0000 50.5030 0.0000
# 6 0.0000 0.0000 0.0000 5.3163 0.0000 34.4620
#
#
#
# Elastic Compliance Matrix: (Units=1/GPa)
#
#
# Indices 1 2 3 4 5 6 
#
# 1 0.011879 -0.003169 -0.005141 0.000000 -0.007275 0.000000
# 2 -0.003169 0.024956 -0.007122 0.000000 -0.001795 0.000000
# 3 -0.005141 -0.007122 0.024149 0.000000 0.002662 0.000000
# 4 0.000000 0.000000 0.000000 0.038457 0.000000 -0.005933
# 5 -0.007275 -0.001795 0.002662 0.000000 0.025007 0.000000
# 6 0.000000 0.000000 0.000000 -0.005933 0.000000 0.029933
#
#
# Mechanical properties :
#
#
# Convention : Reuss Voigt Hill
#
# Bulk Modulus (GPa) = 33.20183 42.94631 38.07407
# Shear Modulus (GPa) = 25.60364 32.46644 29.03504
#
# Velocity S-wave (km/s) = 3.41290 3.84317 3.63441
# Velocity P-wave (km/s) = 5.53489 6.26345 5.91041
#
# Compressibility (1/GPa) = 0.03011882
#
# Stress axis : x y z
#
# Youngs Moduli (GPa) = 84.18428 40.07043 41.40970
#
# Poissons Ratio (x) = 0.12699 0.21289
# Poissons Ratio (y) = 0.26680 0.29493
# Poissons Ratio (z) = 0.43279 0.28539
#
# Static dielectric constant tensor:
#      x y z
#    x 1.862370 0.000000 -0.011470 
#    y 0.000000 1.764580 0.000000 
#    z -0.011470 0.000000 1.811100 
# 
# From -- ./inp_files/12077.got.cif
#   From: 2010.05.17/outbox.cif.g08.bks.cpg/sg9_7_cif.got.tgz:12077.got - 2010.06.03 20:04:27.
