data_PCOD9139137
_publ_section_title
;
Structure prediction by ZEFSAII (Michael W. Deem and Ramdas Pophale) SiO2 
 PCOD9139137
Probable space group: C C
;
_chemical_formula_sum "Si O2"
_cell_formula_units_Z 24
_cell_length_a 7.018909
_cell_length_b 7.521086
_cell_length_c 21.293523
_cell_angle_alpha 90.000000
_cell_angle_beta 67.178091
_cell_angle_gamma 90.000000
_cell_volume 1036.082403
_symmetry_space_group_name_H-M "C C"
_symmetry_group_IT_number 9
_symmetry_cell_setting 'monoclinic'
loop_
_space_group_symop_operation_xyz
x,y,z
x,-y,1/2+z
1/2+x,1/2+y,z
1/2+x,1/2-y,1/2+z
loop_
_atom_site_type_symbol
_atom_site_label
_atom_site_fract_x
_atom_site_fract_y
_atom_site_fract_z
Si Si1 0.851460 0.601566 0.872670
Si Si2 0.935100 0.903227 0.499598
Si Si3 0.016059 0.870725 0.762643
Si Si4 0.992480 0.272991 0.542917
Si Si5 0.577110 0.457511 0.612001
Si Si6 0.291519 0.724527 0.827128
O O1 0.863923 0.392898 0.856904
O O2 0.862296 0.718086 0.807629
O O3 0.065739 0.656135 0.878512
O O4 0.641993 0.642231 0.935937
O O5 0.965725 0.852762 0.569100
O O6 0.723509 0.833137 0.499167
O O7 0.921824 0.117267 0.505248
O O8 0.020382 0.891525 0.687832
O O9 0.231109 0.806223 0.766143
O O10 0.940738 0.057007 0.801943
O O11 0.820845 0.423554 0.569705
O O12 0.013148 0.160123 0.605511
#
# Coordination Sequence:
#
# PCOD9139137 Si02
#       6
#     4   4   4   4   4   4
#     4  10  26  43  69 101 134 177 221 278 338 401
#     4  10  26  43  69  99 134 178 222 281 332 402
#     4  10  24  45  68 100 134 179 220 281 333 402
#     4  10  25  40  68  94 137 173 228 272 337 392
#     4  10  24  46  65 103 129 183 221 282 328 404
#     4  10  25  41  67  97 134 170 224 270 338 399
#
# _framework density 23.164182
#
# number of rings (size 3 to 8) (size 9 to 14) (size 15 to 20)
#    2.000    0.000    0.000    1.000    9.333    1.333 
#    6.000    0.000    0.000    0.000    0.000    0.000 
#    0.000    0.000    0.000    0.000    0.000    0.000 
#
# Total GULP energy -66969.437833 kJ/mol
# GULP energy per Si atom -5580.786486 kJ/mol
# Density = 2.311146 g / cm^3
# Si number density = 23.164182 Si / 1000 Ang^3
#
#
#
# Elastic Constant Matrix: (Units=GPa)
#
#
# Indices 1 2 3 4 5 6 
#
# 1 74.4578 41.0090 5.9902 0.0000 -1.6634 0.0000
# 2 41.0090 114.8192 13.1970 0.0000 -6.8709 0.0000
# 3 5.9902 13.1970 66.9730 0.0000 4.5535 0.0000
# 4 0.0000 0.0000 0.0000 18.6845 0.0000 -2.3856
# 5 -1.6634 -6.8709 4.5535 0.0000 13.4776 0.0000
# 6 0.0000 0.0000 0.0000 -2.3856 0.0000 35.7111
#
#
#
# Elastic Compliance Matrix: (Units=1/GPa)
#
#
# Indices 1 2 3 4 5 6 
#
# 1 0.016737 -0.006003 -0.000252 0.000000 -0.000910 0.000000
# 2 -0.006003 0.011444 -0.002113 0.000000 0.005807 0.000000
# 3 -0.000252 -0.002113 0.015809 0.000000 -0.006449 0.000000
# 4 0.000000 0.000000 0.000000 0.053981 0.000000 0.003606
# 5 -0.000910 0.005807 -0.006449 0.000000 0.079224 0.000000
# 6 0.000000 0.000000 0.000000 0.003606 0.000000 0.028243
#
#
# Mechanical properties :
#
#
# Convention : Reuss Voigt Hill
#
# Bulk Modulus (GPa) = 36.69342 41.84915 39.27129
# Shear Modulus (GPa) = 21.62086 26.64491 24.13288
#
# Velocity S-wave (km/s) = 3.05843 3.39523 3.23122
# Velocity P-wave (km/s) = 5.32419 5.78582 5.55980
#
# Compressibility (1/GPa) = 0.02725284
#
# Stress axis : x y z
#
# Youngs Moduli (GPa) = 59.74877 87.38363 63.25595
#
# Poissons Ratio (x) = 0.52458 0.01595
# Poissons Ratio (y) = 0.35868 0.13365
# Poissons Ratio (z) = 0.01507 0.18463
#
# Static dielectric constant tensor:
#      x y z
#    x 1.866460 0.000000 0.044040 
#    y 0.000000 1.835840 0.000000 
#    z 0.044040 0.000000 1.873460 
# 
# From -- ./inp_files/32287.got.cif
#   From: 2010.05.17/outbox.cif.g08.bks.cpg/sg9_17_cif.got.tgz:32287.got - 2010.06.03 20:04:27.
