data_PCOD9139585
_publ_section_title
;
Structure prediction by ZEFSAII (Michael W. Deem and Ramdas Pophale) SiO2 
 PCOD9139585
Probable space group: C C
;
_chemical_formula_sum "Si O2"
_cell_formula_units_Z 32
_cell_length_a 17.251446
_cell_length_b 7.738684
_cell_length_c 21.935445
_cell_angle_alpha 90.000000
_cell_angle_beta 153.628201
_cell_angle_gamma 90.000000
_cell_volume 1300.804419
_symmetry_space_group_name_H-M "C C"
_symmetry_group_IT_number 9
_symmetry_cell_setting 'monoclinic'
loop_
_space_group_symop_operation_xyz
x,y,z
x,-y,1/2+z
1/2+x,1/2+y,z
1/2+x,1/2-y,1/2+z
loop_
_atom_site_type_symbol
_atom_site_label
_atom_site_fract_x
_atom_site_fract_y
_atom_site_fract_z
Si Si1 0.809640 0.563723 0.968910
Si Si2 0.037058 0.755475 0.771499
Si Si3 0.195592 0.548134 0.715411
Si Si4 0.361373 0.571773 0.052460
Si Si5 0.773588 0.713566 0.693313
Si Si6 0.784798 0.749950 0.078886
Si Si7 0.399995 0.393614 0.963371
Si Si8 0.892754 0.660087 0.290307
O O1 0.655957 0.426988 0.857189
O O2 0.822454 0.627553 0.047753
O O3 0.786737 0.731669 0.908714
O O4 0.990975 0.485761 0.073512
O O5 0.955117 0.761719 0.646507
O O6 0.872780 0.751176 0.700736
O O7 0.172242 0.612854 0.890940
O O8 0.277838 0.386217 0.736128
O O9 0.285070 0.525657 0.843991
O O10 0.245769 0.725012 0.718714
O O11 0.337160 0.437533 0.090347
O O12 0.466853 0.482544 0.072619
O O13 0.569293 0.664935 0.544955
O O14 0.867495 0.542320 0.786050
O O15 0.577051 0.764666 0.942208
O O16 0.874636 0.691230 0.204560
#
# Coordination Sequence:
#
# PCOD9139585 Si02
#       8
#     4   4   4   4   4   4   4   4
#     4  10  26  44  78 104 152 206 258 320 389 462
#     4  12  27  47  77 113 150 202 266 324 382 472
#     4  11  26  48  75 111 156 203 254 323 398 462
#     4  11  27  46  73 111 151 200 261 319 391 460
#     4  11  26  46  73 112 151 206 260 318 388 468
#     4  11  24  47  73 109 148 199 256 314 383 462
#     4  10  26  48  72 109 158 203 254 327 392 467
#     4  12  26  46  77 109 154 201 253 319 387 465
#
# _framework density 24.600163999999999
#
# number of rings (size 3 to 8) (size 9 to 14) (size 15 to 20)
#    0.000    1.000    1.250    3.000   15.750    2.000 
#    0.000    0.000    0.000    0.000    0.000    0.000 
#    0.000    0.000    0.000    0.000    0.000    0.000 
#
# Total GULP energy -89655.424962 kJ/mol
# GULP energy per Si atom -5603.464060 kJ/mol
# Density = 2.454417 g / cm^3
# Si number density = 24.600164 Si / 1000 Ang^3
#
#
#
# Elastic Constant Matrix: (Units=GPa)
#
#
# Indices 1 2 3 4 5 6 
#
# 1 88.3492 51.0900 5.7615 0.0005 9.3687 0.0000
# 2 51.0900 111.5311 2.0830 0.0000 8.5595 0.0000
# 3 5.7615 2.0830 57.7259 0.0011 0.9673 0.0001
# 4 0.0005 0.0000 0.0011 27.7243 0.0005 5.8321
# 5 9.3687 8.5595 0.9673 0.0005 30.9485 -0.0001
# 6 0.0000 0.0000 0.0001 5.8321 -0.0001 48.7560
#
#
#
# Elastic Compliance Matrix: (Units=1/GPa)
#
#
# Indices 1 2 3 4 5 6 
#
# 1 0.015726 -0.006966 -0.001271 0.000000 -0.002794 0.000000
# 2 -0.006966 0.012251 0.000275 0.000000 -0.001288 0.000000
# 3 -0.001271 0.000275 0.017444 -0.000001 -0.000236 0.000000
# 4 0.000000 0.000000 -0.000001 0.037001 -0.000001 -0.004426
# 5 -0.002794 -0.001288 -0.000236 -0.000001 0.033521 0.000000
# 6 0.000000 0.000000 0.000000 -0.004426 0.000000 0.021040
#
#
# Mechanical properties :
#
#
# Convention : Reuss Voigt Hill
#
# Bulk Modulus (GPa) = 33.90250 41.71946 37.81098
# Shear Modulus (GPa) = 30.72410 34.73053 32.72732
#
# Velocity S-wave (km/s) = 3.53787 3.76147 3.65138
# Velocity P-wave (km/s) = 5.52268 5.98838 5.76024
#
# Compressibility (1/GPa) = 0.02949635
#
# Stress axis : x y z
#
# Youngs Moduli (GPa) = 63.58932 81.62877 57.32573
#
# Poissons Ratio (x) = 0.56859 0.07288
# Poissons Ratio (y) = 0.44293 -0.01575
# Poissons Ratio (z) = 0.08085 -0.02243
#
# Static dielectric constant tensor:
#      x y z
#    x 1.935740 0.000000 -0.005890 
#    y 0.000000 1.997440 0.000000 
#    z -0.005890 0.000000 1.944950 
# 
# From -- ./inp_files/34067.got.cif
#   From: 2010.05.17/outbox.cif.g08.bks.cpg/sg9_18_cif.got.tgz:34067.got - 2010.06.03 20:04:27.
