data_PCOD9139707
_publ_section_title
;
Structure prediction by ZEFSAII (Michael W. Deem and Ramdas Pophale) SiO2 
 PCOD9139707
Probable space group: C C
;
_chemical_formula_sum "Si O2"
_cell_formula_units_Z 32
_cell_length_a 6.947476
_cell_length_b 18.056574
_cell_length_c 13.281727
_cell_angle_alpha 90.000000
_cell_angle_beta 119.567521
_cell_angle_gamma 90.000000
_cell_volume 1449.184804
_symmetry_space_group_name_H-M "C C"
_symmetry_group_IT_number 9
_symmetry_cell_setting 'monoclinic'
loop_
_space_group_symop_operation_xyz
x,y,z
x,-y,1/2+z
1/2+x,1/2+y,z
1/2+x,1/2-y,1/2+z
loop_
_atom_site_type_symbol
_atom_site_label
_atom_site_fract_x
_atom_site_fract_y
_atom_site_fract_z
Si Si1 0.738110 0.272476 0.552910
Si Si2 0.715699 0.137745 0.806639
Si Si3 0.555007 0.414544 0.085103
Si Si4 0.521503 0.761314 0.801987
Si Si5 0.649640 0.433945 0.495013
Si Si6 0.901885 0.348994 0.048416
Si Si7 0.545749 0.082349 0.395430
Si Si8 0.373722 0.074839 0.844967
O O1 0.722843 0.264999 0.427043
O O2 0.959423 0.247149 0.669102
O O3 0.693323 0.358097 0.566238
O O4 0.533561 0.223756 0.544448
O O5 0.822227 0.216911 0.806556
O O6 0.568745 0.115255 0.673096
O O7 0.548994 0.137117 0.857608
O O8 0.913232 0.081828 0.881313
O O9 0.671372 0.350436 0.048179
O O10 0.651772 0.412007 0.222886
O O11 0.635723 0.492255 0.056312
O O12 0.291623 0.414152 0.006669
O O13 0.528710 0.849328 0.815721
O O14 0.825407 0.433909 0.449704
O O15 0.879467 0.397759 0.943068
O O16 0.484254 0.002514 0.338645
#
# Coordination Sequence:
#
# PCOD9139707 Si02
#       8
#     4   4   4   4   4   4   4   4
#     4   9  19  37  63  87 121 165 207 260 320 375
#     4   9  19  38  60  86 124 168 210 261 321 383
#     4  11  22  36  61  93 128 170 218 269 326 387
#     4   9  19  37  63  87 121 165 207 260 320 375
#     4  11  20  37  60  91 128 164 216 265 324 379
#     4   9  19  38  60  86 124 168 210 261 321 383
#     4  11  20  37  60  91 128 164 216 265 324 379
#     4  11  22  36  61  93 128 170 218 269 326 387
#
# _framework density 22.081379999999999
#
# number of rings (size 3 to 8) (size 9 to 14) (size 15 to 20)
#    0.000    2.000    2.500    1.500    0.000    1.000 
#    0.000   11.250    0.000   12.000    0.000    0.000 
#    0.000    0.000    0.000    0.000    0.000    0.000 
#
# Total GULP energy -89166.920573 kJ/mol
# GULP energy per Si atom -5572.932536 kJ/mol
# Density = 2.203112 g / cm^3
# Si number density = 22.081380 Si / 1000 Ang^3
#
#
#
# Elastic Constant Matrix: (Units=GPa)
#
#
# Indices 1 2 3 4 5 6 
#
# 1 54.1911 13.5186 4.8723 0.0000 -6.2103 0.0000
# 2 13.5186 95.3205 -9.5822 0.0000 2.3091 0.0000
# 3 4.8723 -9.5822 99.1097 0.0000 7.4448 0.0000
# 4 0.0000 0.0000 0.0000 12.4395 0.0000 6.2338
# 5 -6.2103 2.3091 7.4448 0.0000 27.2952 0.0000
# 6 0.0000 0.0000 0.0000 6.2338 0.0000 24.8571
#
#
#
# Elastic Compliance Matrix: (Units=1/GPa)
#
#
# Indices 1 2 3 4 5 6 
#
# 1 0.019990 -0.003132 -0.001681 0.000000 0.005272 0.000000
# 2 -0.003132 0.011123 0.001382 0.000000 -0.002030 0.000000
# 3 -0.001681 0.001382 0.010560 0.000000 -0.003380 0.000000
# 4 0.000000 0.000000 0.000000 0.091944 0.000000 -0.023058
# 5 0.005272 -0.002030 -0.003380 0.000000 0.038929 0.000000
# 6 0.000000 0.000000 0.000000 -0.023058 0.000000 0.046013
#
#
# Mechanical properties :
#
#
# Convention : Reuss Voigt Hill
#
# Bulk Modulus (GPa) = 28.72714 29.58206 29.15460
# Shear Modulus (GPa) = 21.09479 28.90586 25.00033
#
# Velocity S-wave (km/s) = 3.09418 3.62202 3.36845
# Velocity P-wave (km/s) = 5.07968 5.56039 5.32546
#
# Compressibility (1/GPa) = 0.03481028
#
# Stress axis : x y z
#
# Youngs Moduli (GPa) = 50.02558 89.90231 94.69722
#
# Poissons Ratio (x) = 0.28155 0.15923
# Poissons Ratio (y) = 0.15667 -0.13086
# Poissons Ratio (z) = 0.08412 -0.12424
#
# Static dielectric constant tensor:
#      x y z
#    x 1.816450 0.000000 -0.003200 
#    y 0.000000 1.840650 0.000000 
#    z -0.003200 0.000000 1.835550 
# 
# From -- ./inp_files/22247.got.cif
#   From: 2010.05.17/outbox.cif.g08.bks.cpg/sg9_12_cif.got.tgz:22247.got - 2010.06.03 20:04:27.
