data_PCOD9139211
_publ_section_title
;
Structure prediction by ZEFSAII (Michael W. Deem and Ramdas Pophale) SiO2 
 PCOD9139211
Probable space group: C C
;
_chemical_formula_sum "Si O2"
_cell_formula_units_Z 32
_cell_length_a 14.038108
_cell_length_b 5.072942
_cell_length_c 17.300262
_cell_angle_alpha 90.000000
_cell_angle_beta 72.734246
_cell_angle_gamma 90.000000
_cell_volume 1176.512379
_symmetry_space_group_name_H-M "C C"
_symmetry_group_IT_number 9
_symmetry_cell_setting 'monoclinic'
loop_
_space_group_symop_operation_xyz
x,y,z
x,-y,1/2+z
1/2+x,1/2+y,z
1/2+x,1/2-y,1/2+z
loop_
_atom_site_type_symbol
_atom_site_label
_atom_site_fract_x
_atom_site_fract_y
_atom_site_fract_z
Si Si1 0.045430 0.702224 0.759140
Si Si2 0.142243 0.040333 0.987492
Si Si3 0.074648 0.439476 0.415331
Si Si4 0.765722 0.622393 0.225316
Si Si5 0.799176 0.125346 0.135000
Si Si6 0.865826 0.415118 0.974137
Si Si7 0.398915 0.595170 0.810639
Si Si8 0.568391 0.222792 0.148784
O O1 0.146984 0.874719 0.739721
O O2 0.036197 0.580591 0.675500
O O3 0.077792 0.502992 0.822444
O O4 0.936033 0.796680 0.813574
O O5 0.257361 0.043170 0.987489
O O6 0.130190 0.830011 0.921555
O O7 0.075251 0.902734 0.070988
O O8 0.114198 0.324135 0.959618
O O9 0.959200 0.396956 0.463726
O O10 0.807522 0.328662 0.205085
O O11 0.810306 0.817964 0.148986
O O12 0.803995 0.786126 0.289696
O O13 0.684808 0.176285 0.138457
O O14 0.862785 0.230437 0.049792
O O15 0.892810 0.229919 0.894895
O O16 0.490108 0.651639 0.728087
#
# Coordination Sequence:
#
# PCOD9139211 Si02
#       8
#     4   4   4   4   4   4   4   4
#     4  11  25  47  72 109 150 192 244 313 371 441
#     4  11  29  48  74 108 153 197 251 308 372 452
#     4  12  27  47  77 108 151 199 247 304 385 443
#     4  11  26  44  76 104 144 191 248 298 368 441
#     4  10  25  48  70 104 147 192 239 307 367 440
#     4  11  27  48  72 111 150 193 248 312 377 445
#     4  12  25  44  74 107 143 193 245 305 370 440
#     4  10  24  46  71 101 146 191 246 299 370 432
#
# _framework density 27.199034999999999
#
# number of rings (size 3 to 8) (size 9 to 14) (size 15 to 20)
#    0.000    1.000    2.500    1.500    7.000    9.000 
#    0.000    0.000    0.000    0.000    0.000    0.000 
#    0.000    0.000    0.000    0.000    0.000    0.000 
#
# Total GULP energy -89328.958101 kJ/mol
# GULP energy per Si atom -5583.059881 kJ/mol
# Density = 2.713713 g / cm^3
# Si number density = 27.199035 Si / 1000 Ang^3
#
#
#
# Elastic Constant Matrix: (Units=GPa)
#
#
# Indices 1 2 3 4 5 6 
#
# 1 118.9276 10.3994 -10.0640 0.0001 -12.4945 0.0001
# 2 10.3994 88.3165 -9.8133 0.0003 5.2886 0.0009
# 3 -10.0640 -9.8133 69.6000 0.0000 -17.8537 0.0002
# 4 0.0001 0.0003 0.0000 21.8152 -0.0001 0.5743
# 5 -12.4945 5.2886 -17.8537 -0.0001 35.1534 0.0001
# 6 0.0001 0.0009 0.0002 0.5743 0.0001 30.4229
#
#
#
# Elastic Compliance Matrix: (Units=1/GPa)
#
#
# Indices 1 2 3 4 5 6 
#
# 1 0.009191 -0.001097 0.002362 0.000000 0.004632 0.000000
# 2 -0.001097 0.011667 0.001076 0.000000 -0.001599 0.000000
# 3 0.002362 0.001076 0.017287 0.000000 0.009458 0.000000
# 4 0.000000 0.000000 0.000000 0.045862 0.000000 -0.000866
# 5 0.004632 -0.001599 0.009458 0.000000 0.035137 0.000000
# 6 0.000000 0.000000 0.000000 -0.000866 0.000000 0.032886
#
#
# Mechanical properties :
#
#
# Convention : Reuss Voigt Hill
#
# Bulk Modulus (GPa) = 23.34878 28.65426 26.00152
# Shear Modulus (GPa) = 30.93601 36.56644 33.75122
#
# Velocity S-wave (km/s) = 3.37619 3.67059 3.52646
# Velocity P-wave (km/s) = 4.87865 5.34062 5.11485
#
# Compressibility (1/GPa) = 0.04282879
#
# Stress axis : x y z
#
# Youngs Moduli (GPa) = 108.80321 85.70872 57.84628
#
# Poissons Ratio (x) = 0.09403 -0.13665
# Poissons Ratio (y) = 0.11937 -0.06226
# Poissons Ratio (z) = -0.25703 -0.09225
#
# Static dielectric constant tensor:
#      x y z
#    x 2.135960 0.000000 0.061340 
#    y 0.000000 3.113460 0.000000 
#    z 0.061340 0.000000 2.190200 
# 
# From -- ./inp_files/30465.got.cif
#   From: 2010.05.17/outbox.cif.g08.bks.cpg/sg9_16_cif.got.tgz:30465.got - 2010.06.03 20:04:27.
