data_PCOD9139389
_publ_section_title
;
Structure prediction by ZEFSAII (Michael W. Deem and Ramdas Pophale) SiO2 
 PCOD9139389
Probable space group: C C
;
_chemical_formula_sum "Si O2"
_cell_formula_units_Z 24
_cell_length_a 17.958426
_cell_length_b 5.584146
_cell_length_c 18.218607
_cell_angle_alpha 90.000000
_cell_angle_beta 28.330197
_cell_angle_gamma 90.000000
_cell_volume 867.010149
_symmetry_space_group_name_H-M "C C"
_symmetry_group_IT_number 9
_symmetry_cell_setting 'monoclinic'
loop_
_space_group_symop_operation_xyz
x,y,z
x,-y,1/2+z
1/2+x,1/2+y,z
1/2+x,1/2-y,1/2+z
loop_
_atom_site_type_symbol
_atom_site_label
_atom_site_fract_x
_atom_site_fract_y
_atom_site_fract_z
Si Si1 0.832290 0.417255 0.335830
Si Si2 0.064921 0.244406 0.628153
Si Si3 0.102149 0.246417 0.906584
Si Si4 0.849208 0.932630 0.192515
Si Si5 0.258405 0.924165 0.655020
Si Si6 0.503294 0.052468 0.817227
O O1 0.729420 0.635384 0.462068
O O2 0.720176 0.340601 0.369103
O O3 0.894247 0.288556 0.355118
O O4 0.999442 0.499591 0.155865
O O5 0.054187 0.320935 0.723250
O O6 0.935950 0.084414 0.695705
O O7 0.164290 0.516024 0.853604
O O8 0.149228 0.119131 0.789480
O O9 0.936104 0.144217 0.073591
O O10 0.854640 0.701019 0.137407
O O11 0.387610 0.010402 0.484277
O O12 0.148272 0.718785 0.714208
#
# Coordination Sequence:
#
# PCOD9139389 Si02
#       6
#     4   4   4   4   4   4
#     4   9  21  46  66 103 136 185 243 290 352 423
#     4   9  21  47  71 100 141 192 239 298 349 431
#     4  11  25  44  75 107 136 197 241 295 366 428
#     4  11  25  45  75 104 147 187 247 297 357 439
#     4  12  23  49  69 106 153 183 241 302 364 435
#     4  10  25  43  72 102 145 194 231 296 372 422
#
# _framework density 27.681335000000001
#
# number of rings (size 3 to 8) (size 9 to 14) (size 15 to 20)
#    1.000    0.667    3.333    0.000    2.333    5.333 
#    6.000    0.000    0.000    0.000    0.000    0.000 
#    0.000    0.000    0.000    0.000    0.000    0.000 
#
# Total GULP energy -66928.887221 kJ/mol
# GULP energy per Si atom -5577.407268 kJ/mol
# Density = 2.761833 g / cm^3
# Si number density = 27.681335 Si / 1000 Ang^3
#
#
#
# Elastic Constant Matrix: (Units=GPa)
#
#
# Indices 1 2 3 4 5 6 
#
# 1 158.8015 42.2622 63.8120 -0.0144 3.8769 0.0056
# 2 42.2622 47.3870 53.4705 -0.0188 12.4240 0.0125
# 3 63.8120 53.4705 185.3195 -0.0058 12.2199 0.0055
# 4 -0.0144 -0.0188 -0.0058 51.1385 0.0094 -0.0885
# 5 3.8769 12.4240 12.2199 0.0094 56.5962 -0.0065
# 6 0.0056 0.0125 0.0055 -0.0885 -0.0065 61.1771
#
#
#
# Elastic Compliance Matrix: (Units=1/GPa)
#
#
# Indices 1 2 3 4 5 6 
#
# 1 0.008466 -0.006626 -0.001076 0.000000 0.001107 0.000001
# 2 -0.006626 0.037930 -0.008261 0.000012 -0.006089 -0.000007
# 3 -0.001076 -0.008261 0.008142 -0.000002 0.000129 0.000001
# 4 0.000000 0.000012 -0.000002 0.019555 -0.000005 0.000028
# 5 0.001107 -0.006089 0.000129 -0.000005 0.018902 0.000003
# 6 0.000001 -0.000007 0.000001 0.000028 0.000003 0.016346
#
#
# Mechanical properties :
#
#
# Convention : Reuss Voigt Hill
#
# Bulk Modulus (GPa) = 44.22595 78.95528 61.59062
# Shear Modulus (GPa) = 33.60097 49.24657 41.42377
#
# Velocity S-wave (km/s) = 3.48781 4.22246 3.87260
# Velocity P-wave (km/s) = 5.67726 7.23582 6.50340
#
# Compressibility (1/GPa) = 0.02261116
#
# Stress axis : x y z
#
# Youngs Moduli (GPa) = 118.11804 26.36404 122.82437
#
# Poissons Ratio (x) = 0.17470 0.13219
# Poissons Ratio (y) = 0.78269 1.01465
# Poissons Ratio (z) = 0.12713 0.21779
#
# Static dielectric constant tensor:
#      x y z
#    x 2.217020 0.000000 0.067800 
#    y 0.000000 2.352580 0.000010 
#    z 0.067800 0.000010 2.083780 
# 
# From -- ./inp_files/34249.got.cif
#   From: 2010.05.17/outbox.cif.g08.bks.cpg/sg9_18_cif.got.tgz:34249.got - 2010.06.03 20:04:27.
