data_PCOD9139488
_publ_section_title
;
Structure prediction by ZEFSAII (Michael W. Deem and Ramdas Pophale) SiO2 
 PCOD9139488
Probable space group: C C
;
_chemical_formula_sum "Si O2"
_cell_formula_units_Z 24
_cell_length_a 11.709298
_cell_length_b 8.890037
_cell_length_c 10.984069
_cell_angle_alpha 90.000000
_cell_angle_beta 130.925682
_cell_angle_gamma 90.000000
_cell_volume 863.906196
_symmetry_space_group_name_H-M "C C"
_symmetry_group_IT_number 9
_symmetry_cell_setting 'monoclinic'
loop_
_space_group_symop_operation_xyz
x,y,z
x,-y,1/2+z
1/2+x,1/2+y,z
1/2+x,1/2-y,1/2+z
loop_
_atom_site_type_symbol
_atom_site_label
_atom_site_fract_x
_atom_site_fract_y
_atom_site_fract_z
Si Si1 0.821740 0.709711 0.100680
Si Si2 0.798798 0.463873 0.811358
Si Si3 0.049373 0.279552 0.443790
Si Si4 0.508723 0.501583 0.262549
Si Si5 0.140380 0.373778 0.755933
Si Si6 0.805544 0.152136 0.924031
O O1 0.734605 0.608234 0.139124
O O2 0.962641 0.604885 0.158294
O O3 0.921998 0.847547 0.226181
O O4 0.726956 0.799359 0.931216
O O5 0.922418 0.591117 0.867486
O O6 0.863942 0.309022 0.913290
O O7 0.221720 0.529965 0.781034
O O8 0.989767 0.119221 0.358359
O O9 0.132590 0.269506 0.631354
O O10 0.171732 0.318589 0.428014
O O11 0.680013 0.486476 0.332632
O O12 0.434084 0.574837 0.091533
#
# Coordination Sequence:
#
# PCOD9139488 Si02
#       6
#     4   4   4   4   4   4
#     4  11  27  51  79 116 156 209 256 325 391 467
#     4  11  26  48  81 111 155 205 262 317 395 463
#     4  11  26  50  81 113 159 204 259 329 390 467
#     4  10  27  49  77 115 152 202 268 318 390 466
#     4  11  27  48  79 117 157 205 265 319 396 462
#     4  10  25  46  77 114 155 207 256 322 390 463
#
# _framework density 27.780794
#
# number of rings (size 3 to 8) (size 9 to 14) (size 15 to 20)
#    0.000    1.333    1.667    0.000   16.333    1.333 
#    3.000    0.000    0.000    0.000    0.000    0.000 
#    0.000    0.000    0.000    0.000    0.000    0.000 
#
# Total GULP energy -67239.582170 kJ/mol
# GULP energy per Si atom -5603.298514 kJ/mol
# Density = 2.771756 g / cm^3
# Si number density = 27.780794 Si / 1000 Ang^3
#
#
#
# Elastic Constant Matrix: (Units=GPa)
#
#
# Indices 1 2 3 4 5 6 
#
# 1 144.9721 54.0400 33.1772 0.0000 1.5059 0.0000
# 2 54.0400 155.2770 56.5528 0.0000 4.7389 0.0000
# 3 33.1772 56.5528 122.5307 0.0000 6.2830 0.0000
# 4 0.0000 0.0000 0.0000 55.4341 0.0000 -9.5763
# 5 1.5059 4.7389 6.2830 0.0000 49.4064 0.0000
# 6 0.0000 0.0000 0.0000 -9.5763 0.0000 52.2341
#
#
#
# Elastic Compliance Matrix: (Units=1/GPa)
#
#
# Indices 1 2 3 4 5 6 
#
# 1 0.008041 -0.002412 -0.001070 0.000000 0.000122 0.000000
# 2 -0.002412 0.008469 -0.003239 0.000000 -0.000327 0.000000
# 3 -0.001070 -0.003239 0.009993 0.000000 -0.000928 0.000000
# 4 0.000000 0.000000 0.000000 0.018629 0.000000 0.003415
# 5 0.000122 -0.000327 -0.000928 0.000000 0.020386 0.000000
# 6 0.000000 0.000000 0.000000 0.003415 0.000000 0.019771
#
#
# Mechanical properties :
#
#
# Convention : Reuss Voigt Hill
#
# Bulk Modulus (GPa) = 76.56557 78.92444 77.74500
# Shear Modulus (GPa) = 48.50327 50.01557 49.25942
#
# Velocity S-wave (km/s) = 4.18296 4.24767 4.21544
# Velocity P-wave (km/s) = 7.13793 7.24765 7.19300
#
# Compressibility (1/GPa) = 0.01306070
#
# Stress axis : x y z
#
# Youngs Moduli (GPa) = 124.36685 118.07359 100.06583
#
# Poissons Ratio (x) = 0.28484 0.10707
# Poissons Ratio (y) = 0.30002 0.32411
# Poissons Ratio (z) = 0.13308 0.38244
#
# Static dielectric constant tensor:
#      x y z
#    x 2.197460 0.000000 -0.028380 
#    y 0.000000 2.152160 0.000000 
#    z -0.028380 0.000000 2.260280 
# 
# From -- ./inp_files/34591.got.cif
#   From: 2010.05.17/outbox.cif.g08.bks.cpg/sg9_18_cif.got.tgz:34591.got - 2010.06.03 20:04:27.
