data_PCOD9139094
_publ_section_title
;
Structure prediction by ZEFSAII (Michael W. Deem and Ramdas Pophale) SiO2 
 PCOD9139094
Probable space group: C C
;
_chemical_formula_sum "Si O2"
_cell_formula_units_Z 16
_cell_length_a 4.933217
_cell_length_b 26.593226
_cell_length_c 5.761353
_cell_angle_alpha 90.000000
_cell_angle_beta 126.412845
_cell_angle_gamma 90.000000
_cell_volume 608.264556
_symmetry_space_group_name_H-M "C C"
_symmetry_group_IT_number 9
_symmetry_cell_setting 'monoclinic'
loop_
_space_group_symop_operation_xyz
x,y,z
x,-y,1/2+z
1/2+x,1/2+y,z
1/2+x,1/2-y,1/2+z
loop_
_atom_site_type_symbol
_atom_site_label
_atom_site_fract_x
_atom_site_fract_y
_atom_site_fract_z
Si Si1 0.707370 0.152922 0.755800
Si Si2 0.630061 0.282440 0.162391
Si Si3 0.077464 0.494416 0.586260
Si Si4 0.792677 0.413130 0.725834
O O1 0.374553 0.172880 0.710535
O O2 0.580149 0.125195 0.457242
O O3 0.934073 0.199816 0.791302
O O4 0.946362 0.116091 0.021780
O O5 0.857863 0.234130 0.335598
O O6 0.251882 0.496299 0.423778
O O7 0.888889 0.442034 0.537590
O O8 0.824451 0.542132 0.431501
#
# Coordination Sequence:
#
# PCOD9139094 Si02
#       4
#     4   4   4   4
#     4  12  26  45  76 111 142 195 256 315 360 484
#     4  12  26  49  74 103 146 187 244 319 404 444
#     4   8  20  44  68 106 156 210 244 312 368 446
#     4  10  24  44  70 112 150 200 256 296 380 430
#
# _framework density 26.304344
#
# number of rings (size 3 to 8) (size 9 to 14) (size 15 to 20)
#    1.500    0.000    0.000    4.500    3.500    2.000 
#    0.000    0.000    0.000    0.000    0.000    0.000 
#    0.000    0.000    0.000    0.000    0.000    0.000 
#
# Total GULP energy -44764.889783 kJ/mol
# GULP energy per Si atom -5595.611223 kJ/mol
# Density = 2.624447 g / cm^3
# Si number density = 26.304344 Si / 1000 Ang^3
#
#
#
# Elastic Constant Matrix: (Units=GPa)
#
#
# Indices 1 2 3 4 5 6 
#
# 1 105.6305 15.9463 41.4703 0.0000 -8.6638 0.0000
# 2 15.9463 85.7615 27.3824 0.0000 13.3848 0.0000
# 3 41.4703 27.3824 137.2233 0.0000 -1.8657 0.0000
# 4 0.0000 0.0000 0.0000 58.9890 0.0000 4.3990
# 5 -8.6638 13.3848 -1.8657 0.0000 44.8105 0.0000
# 6 0.0000 0.0000 0.0000 4.3990 0.0000 46.9697
#
#
#
# Elastic Compliance Matrix: (Units=1/GPa)
#
#
# Indices 1 2 3 4 5 6 
#
# 1 0.011077 -0.001479 -0.003019 0.000000 0.002458 0.000000
# 2 -0.001479 0.013343 -0.002275 0.000000 -0.004366 0.000000
# 3 -0.003019 -0.002275 0.008660 0.000000 0.000456 0.000000
# 4 0.000000 0.000000 0.000000 0.017072 0.000000 -0.001599
# 5 0.002458 -0.004366 0.000456 0.000000 0.024115 0.000000
# 6 0.000000 0.000000 0.000000 -0.001599 0.000000 0.021440
#
#
# Mechanical properties :
#
#
# Convention : Reuss Voigt Hill
#
# Bulk Modulus (GPa) = 51.19349 55.35703 53.27526
# Shear Modulus (GPa) = 43.19133 46.40827 44.79980
#
# Velocity S-wave (km/s) = 4.05654 4.20489 4.13138
# Velocity P-wave (km/s) = 6.43777 6.68321 6.56164
#
# Compressibility (1/GPa) = 0.01953374
#
# Stress axis : x y z
#
# Youngs Moduli (GPa) = 90.27610 74.94518 115.47460
#
# Poissons Ratio (x) = 0.11087 0.34862
# Poissons Ratio (y) = 0.13355 0.26269
# Poissons Ratio (z) = 0.27254 0.17049
#
# Static dielectric constant tensor:
#      x y z
#    x 2.069830 0.000000 -0.008100 
#    y 0.000000 2.070720 0.000000 
#    z -0.008100 0.000000 1.985830 
# 
# From -- ./inp_files/134.got.cif
#   From: 2010.05.17/outbox.cif.g08.bks.cpg/sg9_1_cif.got.tgz:134.got - 2010.06.03 20:04:27.
