data_PCOD9139256
_publ_section_title
;
Structure prediction by ZEFSAII (Michael W. Deem and Ramdas Pophale) SiO2 
 PCOD9139256
Probable space group: C C
;
_chemical_formula_sum "Si O2"
_cell_formula_units_Z 28
_cell_length_a 7.834642
_cell_length_b 16.475023
_cell_length_c 13.046779
_cell_angle_alpha 90.000000
_cell_angle_beta 138.463851
_cell_angle_gamma 90.000000
_cell_volume 1116.664148
_symmetry_space_group_name_H-M "C C"
_symmetry_group_IT_number 9
_symmetry_cell_setting 'monoclinic'
loop_
_space_group_symop_operation_xyz
x,y,z
x,-y,1/2+z
1/2+x,1/2+y,z
1/2+x,1/2-y,1/2+z
loop_
_atom_site_type_symbol
_atom_site_label
_atom_site_fract_x
_atom_site_fract_y
_atom_site_fract_z
Si Si1 0.086530 0.534980 0.227940
Si Si2 0.069481 0.182295 0.773687
Si Si3 0.241268 0.848006 0.937752
Si Si4 0.647896 0.269386 0.688225
Si Si5 0.508705 0.440090 0.528724
Si Si6 0.992951 0.001983 0.247018
Si Si7 0.381175 0.683150 0.456862
O O1 0.247213 0.460689 0.350913
O O2 0.234002 0.536614 0.184624
O O3 0.167527 0.616486 0.326632
O O4 0.779000 0.531825 0.098814
O O5 0.940214 0.244746 0.796471
O O6 0.053277 0.090422 0.801797
O O7 0.947242 0.186635 0.605964
O O8 0.345244 0.225176 0.897218
O O9 0.111660 0.791998 0.790846
O O10 0.112682 0.848973 0.990460
O O11 0.514376 0.810011 0.082509
O O12 0.221419 0.936891 0.881427
O O13 0.548439 0.346758 0.579386
O O14 0.476900 0.491102 0.618482
#
# Coordination Sequence:
#
# PCOD9139256 Si02
#       7
#     4   4   4   4   4   4   4
#     4  11  25  47  73 109 150 198 256 309 383 456
#     4  12  24  44  73 106 141 197 243 312 384 448
#     4  10  24  47  70 107 142 195 247 311 375 457
#     4  11  24  43  75 102 146 192 252 307 379 449
#     4  11  25  48  73 108 151 198 253 315 378 456
#     4  10  26  44  74 106 150 196 249 314 382 454
#     4  11  24  45  72 102 152 190 252 308 381 454
#
# _framework density 25.074683
#
# number of rings (size 3 to 8) (size 9 to 14) (size 15 to 20)
#    0.000    1.143    2.857    1.714    6.000    4.571 
#    0.000    2.857    0.000    0.000    0.000    0.000 
#    0.000    0.000    0.000    0.000    0.000    0.000 
#
# Total GULP energy -78279.982974 kJ/mol
# GULP energy per Si atom -5591.427355 kJ/mol
# Density = 2.501761 g / cm^3
# Si number density = 25.074683 Si / 1000 Ang^3
#
#
#
# Elastic Constant Matrix: (Units=GPa)
#
#
# Indices 1 2 3 4 5 6 
#
# 1 76.7946 28.5418 35.9946 0.0003 -27.7240 0.0002
# 2 28.5418 140.0688 35.0874 -0.0003 -5.7704 -0.0005
# 3 35.9946 35.0874 90.5940 0.0012 -18.4429 0.0010
# 4 0.0003 -0.0003 0.0012 50.2554 0.0006 0.6289
# 5 -27.7240 -5.7704 -18.4429 0.0006 32.7052 0.0004
# 6 0.0002 -0.0005 0.0010 0.6289 0.0004 36.7536
#
#
#
# Elastic Compliance Matrix: (Units=1/GPa)
#
#
# Indices 1 2 3 4 5 6 
#
# 1 0.021642 -0.002665 -0.004437 0.000000 0.015374 0.000000
# 2 -0.002665 0.008239 -0.002594 0.000000 -0.002268 0.000000
# 3 -0.004437 -0.002594 0.014626 0.000000 0.004029 0.000000
# 4 0.000000 0.000000 0.000000 0.019903 -0.000001 -0.000341
# 5 0.015374 -0.002268 0.004029 -0.000001 0.045480 -0.000001
# 6 0.000000 0.000000 0.000000 -0.000341 -0.000001 0.027214
#
#
# Mechanical properties :
#
#
# Convention : Reuss Voigt Hill
#
# Bulk Modulus (GPa) = 39.81668 56.30057 48.05863
# Shear Modulus (GPa) = 30.32755 37.79841 34.06298
#
# Velocity S-wave (km/s) = 3.48154 3.88678 3.68973
# Velocity P-wave (km/s) = 5.66350 6.53029 6.11228
#
# Compressibility (1/GPa) = 0.02511510
#
# Stress axis : x y z
#
# Youngs Moduli (GPa) = 46.20640 121.37802 68.37208
#
# Poissons Ratio (x) = 0.32350 0.30335
# Poissons Ratio (y) = 0.12315 0.17734
# Poissons Ratio (z) = 0.20501 0.31482
#
# Static dielectric constant tensor:
#      x y z
#    x 1.996210 0.000000 0.054450 
#    y 0.000000 2.037530 0.000000 
#    z 0.054450 0.000000 2.026570 
# 
# From -- ./inp_files/15025.got.cif
#   From: 2010.05.17/outbox.cif.g08.bks.cpg/sg9_8_cif.got.tgz:15025.got - 2010.06.03 20:04:27.
