data_PCOD9139987
_publ_section_title
;
Structure prediction by ZEFSAII (Michael W. Deem and Ramdas Pophale) SiO2 
 PCOD9139987
Probable space group: C C
;
_chemical_formula_sum "Si O2"
_cell_formula_units_Z 32
_cell_length_a 5.625601
_cell_length_b 26.885393
_cell_length_c 9.967928
_cell_angle_alpha 90.000000
_cell_angle_beta 88.428088
_cell_angle_gamma 90.000000
_cell_volume 1507.046819
_symmetry_space_group_name_H-M "C C"
_symmetry_group_IT_number 9
_symmetry_cell_setting 'monoclinic'
loop_
_space_group_symop_operation_xyz
x,y,z
x,-y,1/2+z
1/2+x,1/2+y,z
1/2+x,1/2-y,1/2+z
loop_
_atom_site_type_symbol
_atom_site_label
_atom_site_fract_x
_atom_site_fract_y
_atom_site_fract_z
Si Si1 0.785280 0.146988 0.266770
Si Si2 0.028994 0.595225 0.786025
Si Si3 0.065650 0.055726 0.137213
Si Si4 0.024335 0.661262 0.524020
Si Si5 0.909445 0.639135 0.058622
Si Si6 0.522005 0.537935 0.829036
Si Si7 0.652363 0.280343 0.879456
Si Si8 0.804022 0.739737 0.097207
O O1 0.687651 0.132885 0.414385
O O2 0.572080 0.160639 0.172616
O O3 0.902361 0.100235 0.193181
O O4 0.944710 0.194763 0.294322
O O5 0.772893 0.567117 0.801562
O O6 0.008728 0.629293 0.656415
O O7 0.274295 0.563261 0.781885
O O8 0.039783 0.629296 0.918290
O O9 0.310137 0.086125 0.109598
O O10 0.059964 0.013099 0.248090
O O11 0.996058 0.034827 0.991456
O O12 0.132767 0.715463 0.554534
O O13 0.782772 0.673788 0.450146
O O14 0.721397 0.684368 0.050475
O O15 0.811715 0.255403 0.760116
O O16 0.538893 0.248773 0.001560
#
# Coordination Sequence:
#
# PCOD9139987 Si02
#       8
#     4   4   4   4   4   4   4   4
#     4  11  22  44  72  97 143 186 244 291 373 430
#     4  11  27  49  72 112 146 193 240 312 370 437
#     4  11  25  46  73 105 144 186 241 301 370 442
#     4  11  26  44  72 103 146 187 246 303 364 438
#     4  11  23  47  72 101 147 191 237 299 368 446
#     4  11  28  46  77 109 143 191 248 300 376 437
#     4  11  25  42  67 107 138 195 242 303 360 441
#     4  11  24  42  67 104 141 191 244 291 371 437
#
# _framework density 21.233582999999999
#
# number of rings (size 3 to 8) (size 9 to 14) (size 15 to 20)
#    0.000    1.000    3.750    0.750    8.750    2.000 
#    2.250    0.000    0.000    0.000    0.000    0.000 
#    0.000    0.000    0.000    0.000    0.000    0.000 
#
# Total GULP energy -89207.742464 kJ/mol
# GULP energy per Si atom -5575.483904 kJ/mol
# Density = 2.118525 g / cm^3
# Si number density = 21.233583 Si / 1000 Ang^3
#
#
#
# Elastic Constant Matrix: (Units=GPa)
#
#
# Indices 1 2 3 4 5 6 
#
# 1 69.7120 17.4046 41.2426 0.0000 -6.4013 0.0000
# 2 17.4046 77.3809 63.7446 0.0000 -13.6237 0.0000
# 3 41.2426 63.7446 171.3586 0.0000 -23.7276 0.0000
# 4 0.0000 0.0000 0.0000 49.3477 0.0000 -5.3242
# 5 -6.4013 -13.6237 -23.7276 0.0000 35.4900 0.0000
# 6 0.0000 0.0000 0.0000 -5.3242 0.0000 24.3823
#
#
#
# Elastic Compliance Matrix: (Units=1/GPa)
#
#
# Indices 1 2 3 4 5 6 
#
# 1 0.016751 -0.000620 -0.003764 0.000000 0.000267 0.000000
# 2 -0.000620 0.018907 -0.006496 0.000000 0.002803 0.000000
# 3 -0.003764 -0.006496 0.009608 0.000000 0.003251 0.000000
# 4 0.000000 0.000000 0.000000 0.020753 0.000000 0.004532
# 5 0.000267 0.002803 0.003251 0.000000 0.031475 0.000000
# 6 0.000000 0.000000 0.000000 0.004532 0.000000 0.042003
#
#
# Mechanical properties :
#
#
# Convention : Reuss Voigt Hill
#
# Bulk Modulus (GPa) = 42.54146 62.58167 52.56156
# Shear Modulus (GPa) = 29.56947 34.91465 32.24206
#
# Velocity S-wave (km/s) = 3.73578 4.05941 3.90095
# Velocity P-wave (km/s) = 6.21985 7.17696 6.71548
#
# Compressibility (1/GPa) = 0.02350648
#
# Stress axis : x y z
#
# Youngs Moduli (GPa) = 59.69843 52.88937 104.07597
#
# Poissons Ratio (x) = 0.03279 0.39175
# Poissons Ratio (y) = 0.03701 0.67609
# Poissons Ratio (z) = 0.22471 0.34358
#
# Static dielectric constant tensor:
#      x y z
#    x 1.904220 0.000000 -0.028180 
#    y 0.000000 1.810750 0.000000 
#    z -0.028180 0.000000 1.755780 
# 
# From -- ./inp_files/4504.got.cif
#   From: 2010.05.17/outbox.cif.g08.bks.cpg/sg9_3_cif.got.tgz:4504.got - 2010.06.03 20:04:27.
