data_PCOD9139388
_publ_section_title
;
Structure prediction by ZEFSAII (Michael W. Deem and Ramdas Pophale) SiO2 
 PCOD9139388
Probable space group: C C
;
_chemical_formula_sum "Si O2"
_cell_formula_units_Z 32
_cell_length_a 14.939750
_cell_length_b 9.872653
_cell_length_c 18.974707
_cell_angle_alpha 90.000000
_cell_angle_beta 30.425388
_cell_angle_gamma 90.000000
_cell_volume 1417.292903
_symmetry_space_group_name_H-M "C C"
_symmetry_group_IT_number 9
_symmetry_cell_setting 'monoclinic'
loop_
_space_group_symop_operation_xyz
x,y,z
x,-y,1/2+z
1/2+x,1/2+y,z
1/2+x,1/2-y,1/2+z
loop_
_atom_site_type_symbol
_atom_site_label
_atom_site_fract_x
_atom_site_fract_y
_atom_site_fract_z
Si Si1 0.798110 0.650636 0.710380
Si Si2 0.265559 0.455024 0.736513
Si Si3 0.286955 0.019323 0.338473
Si Si4 0.920754 0.109471 0.935830
Si Si5 0.068624 0.999205 0.119494
Si Si6 0.050301 0.258177 0.707337
Si Si7 0.955315 0.858475 0.994037
Si Si8 0.371885 0.044093 0.028764
O O1 0.826573 0.805371 0.672980
O O2 0.881314 0.590427 0.724743
O O3 0.588558 0.647965 0.869207
O O4 0.829806 0.545140 0.626242
O O5 0.362076 0.464358 0.747888
O O6 0.344206 0.569494 0.631747
O O7 0.054629 0.476319 0.877016
O O8 0.425249 0.115329 0.282133
O O9 0.159243 0.113837 0.376976
O O10 0.167411 0.956913 0.481172
O O11 0.974930 0.166284 0.822195
O O12 0.746064 0.183013 0.080528
O O13 0.909738 0.947427 0.955106
O O14 0.058900 0.836701 0.133025
O O15 0.201828 0.039270 0.092229
O O16 0.913877 0.700875 0.015864
#
# Coordination Sequence:
#
# PCOD9139388 Si02
#       8
#     4   4   4   4   4   4   4   4
#     4  11  26  48  70 105 143 198 238 305 365 444
#     4  11  27  47  75 104 148 194 244 300 379 432
#     4  10  25  43  69 100 152 184 242 297 366 434
#     4  11  24  42  74 101 146 181 259 288 363 442
#     4  11  25  44  68 106 149 182 247 302 356 443
#     4  12  22  42  73 110 135 196 237 307 361 439
#     4  10  26  47  69 107 145 193 237 309 368 441
#     4  12  27  47  78 103 148 196 246 302 376 431
#
# _framework density 22.578253
#
# number of rings (size 3 to 8) (size 9 to 14) (size 15 to 20)
#    0.000    1.000    2.500    2.250   14.000    2.000 
#    2.250    0.000    0.000    0.000    0.000    0.000 
#    0.000    0.000    0.000    0.000    0.000    0.000 
#
# Total GULP energy -89298.143493 kJ/mol
# GULP energy per Si atom -5581.133968 kJ/mol
# Density = 2.252686 g / cm^3
# Si number density = 22.578253 Si / 1000 Ang^3
#
#
#
# Elastic Constant Matrix: (Units=GPa)
#
#
# Indices 1 2 3 4 5 6 
#
# 1 88.6865 31.8102 32.7547 -0.0001 4.2377 0.0001
# 2 31.8102 143.7804 27.8009 -0.0001 13.3943 0.0001
# 3 32.7547 27.8009 96.8464 0.0002 -1.6096 0.0000
# 4 -0.0001 -0.0001 0.0002 25.2916 -0.0001 2.1323
# 5 4.2377 13.3943 -1.6096 -0.0001 33.8239 0.0000
# 6 0.0001 0.0001 0.0000 2.1323 0.0000 21.6024
#
#
#
# Elastic Compliance Matrix: (Units=1/GPa)
#
#
# Indices 1 2 3 4 5 6 
#
# 1 0.013565 -0.002132 -0.003993 0.000000 -0.001045 0.000000
# 2 -0.002132 0.008020 -0.001631 0.000000 -0.002987 0.000000
# 3 -0.003993 -0.001631 0.012173 0.000000 0.001725 0.000000
# 4 0.000000 0.000000 0.000000 0.039871 0.000000 -0.003935
# 5 -0.001045 -0.002987 0.001725 0.000000 0.030961 0.000000
# 6 0.000000 0.000000 0.000000 -0.003935 0.000000 0.046680
#
#
# Mechanical properties :
#
#
# Convention : Reuss Voigt Hill
#
# Bulk Modulus (GPa) = 54.80511 57.11609 55.96060
# Shear Modulus (GPa) = 28.92460 31.94010 30.43235
#
# Velocity S-wave (km/s) = 3.58310 3.76525 3.67531
# Velocity P-wave (km/s) = 6.43772 6.65242 6.54595
#
# Compressibility (1/GPa) = 0.01824648
#
# Stress axis : x y z
#
# Youngs Moduli (GPa) = 73.71879 124.68449 82.14835
#
# Poissons Ratio (x) = 0.26578 0.32805
# Poissons Ratio (y) = 0.15714 0.13398
# Poissons Ratio (z) = 0.29438 0.20336
#
# Static dielectric constant tensor:
#      x y z
#    x 1.933110 0.000000 0.006000 
#    y 0.000000 1.863330 0.000000 
#    z 0.006000 0.000000 1.887580 
# 
# From -- ./inp_files/33704.got.cif
#   From: 2010.05.17/outbox.cif.g08.bks.cpg/sg9_17_cif.got.tgz:33704.got - 2010.06.03 20:04:27.
