data_PCOD9139435
_publ_section_title
;
Structure prediction by ZEFSAII (Michael W. Deem and Ramdas Pophale) SiO2 
 PCOD9139435
Probable space group: C C
;
_chemical_formula_sum "Si O2"
_cell_formula_units_Z 32
_cell_length_a 10.702131
_cell_length_b 17.585439
_cell_length_c 13.665419
_cell_angle_alpha 90.000000
_cell_angle_beta 32.371614
_cell_angle_gamma 90.000000
_cell_volume 1376.992675
_symmetry_space_group_name_H-M "C C"
_symmetry_group_IT_number 9
_symmetry_cell_setting 'monoclinic'
loop_
_space_group_symop_operation_xyz
x,y,z
x,-y,1/2+z
1/2+x,1/2+y,z
1/2+x,1/2-y,1/2+z
loop_
_atom_site_type_symbol
_atom_site_label
_atom_site_fract_x
_atom_site_fract_y
_atom_site_fract_z
Si Si1 0.102370 0.010997 0.212530
Si Si2 0.919568 0.153143 0.236311
Si Si3 0.268816 0.586297 0.810544
Si Si4 0.184499 0.296511 0.091123
Si Si5 0.020423 0.410838 0.856921
Si Si6 0.676387 0.691301 0.471613
Si Si7 0.886484 0.317531 0.625969
Si Si8 0.255523 0.461524 0.108680
O O1 0.096314 0.083645 0.142872
O O2 0.996674 0.033184 0.388555
O O3 0.885029 0.958582 0.320822
O O4 0.331879 0.959905 0.044924
O O5 0.834128 0.172718 0.402304
O O6 0.723022 0.123021 0.292405
O O7 0.019972 0.235949 0.143213
O O8 0.436572 0.655472 0.669504
O O9 0.302301 0.535364 0.692959
O O10 0.999420 0.608071 0.004301
O O11 0.292788 0.241296 0.104673
O O12 0.126487 0.379405 0.176621
O O13 0.095314 0.463162 0.713480
O O14 0.881167 0.340745 0.901370
O O15 0.719640 0.672497 0.328531
O O16 0.621538 0.779812 0.515025
#
# Coordination Sequence:
#
# PCOD9139435 Si02
#       8
#     4   4   4   4   4   4   4   4
#     4  10  25  45  69  99 139 184 241 289 352 434
#     4  11  25  47  67 107 145 190 236 296 374 433
#     4  11  22  41  67 101 132 173 235 287 348 422
#     4  11  25  42  69 105 139 180 237 294 360 429
#     4  11  26  47  69 101 145 188 238 302 359 433
#     4  11  23  39  68 103 133 183 233 288 362 416
#     4  12  22  42  71 102 137 178 237 303 344 429
#     4  11  22  45  68  98 136 184 233 287 359 418
#
# _framework density 23.239049999999999
#
# number of rings (size 3 to 8) (size 9 to 14) (size 15 to 20)
#    0.000    1.000    3.750    2.250    5.250    1.000 
#   11.250    0.000    0.000    0.000    0.000    0.000 
#    0.000    0.000    0.000    0.000    0.000    0.000 
#
# Total GULP energy -89122.575935 kJ/mol
# GULP energy per Si atom -5570.160996 kJ/mol
# Density = 2.318616 g / cm^3
# Si number density = 23.239050 Si / 1000 Ang^3
#
#
#
# Elastic Constant Matrix: (Units=GPa)
#
#
# Indices 1 2 3 4 5 6 
#
# 1 84.0371 53.1751 25.6967 0.0099 -14.8396 0.0058
# 2 53.1751 102.6510 26.0692 -0.0095 -11.3173 0.0012
# 3 25.6967 26.0692 102.3349 -0.0324 10.0304 0.0002
# 4 0.0099 -0.0095 -0.0324 30.2132 0.0131 -6.6229
# 5 -14.8396 -11.3173 10.0304 0.0131 35.8756 -0.0009
# 6 0.0058 0.0012 0.0002 -6.6229 -0.0009 46.1397
#
#
#
# Elastic Compliance Matrix: (Units=1/GPa)
#
#
# Indices 1 2 3 4 5 6 
#
# 1 0.019414 -0.008523 -0.003318 -0.000016 0.006270 -0.000004
# 2 -0.008523 0.014792 -0.001789 0.000005 0.001641 0.000001
# 3 -0.003318 -0.001789 0.011568 0.000016 -0.005171 0.000003
# 4 -0.000016 0.000005 0.000016 0.034173 -0.000022 0.004905
# 5 0.006270 0.001641 -0.005171 -0.000022 0.032431 -0.000003
# 6 -0.000004 0.000001 0.000003 0.004905 -0.000003 0.022377
#
#
# Mechanical properties :
#
#
# Convention : Reuss Voigt Hill
#
# Bulk Modulus (GPa) = 54.01452 55.43390 54.72421
# Shear Modulus (GPa) = 29.72875 34.71784 32.22330
#
# Velocity S-wave (km/s) = 3.58055 3.86935 3.72775
# Velocity P-wave (km/s) = 6.35510 6.62330 6.49058
#
# Compressibility (1/GPa) = 0.01851354
#
# Stress axis : x y z
#
# Youngs Moduli (GPa) = 51.50841 67.60392 86.44797
#
# Poissons Ratio (x) = 0.57619 0.28687
# Poissons Ratio (y) = 0.43901 0.15464
# Poissons Ratio (z) = 0.17092 0.12093
#
# Static dielectric constant tensor:
#      x y z
#    x 1.929820 -0.000040 -0.057260 
#    y -0.000040 2.571250 0.000050 
#    z -0.057260 0.000050 1.979910 
# 
# From -- ./inp_files/25013.got.cif
#   From: 2010.05.17/outbox.cif.g08.bks.cpg/sg9_13_cif.got.tgz:25013.got - 2010.06.03 20:04:27.
