data_PCOD9139083
_publ_section_title
;
Structure prediction by ZEFSAII (Michael W. Deem and Ramdas Pophale) SiO2 
 PCOD9139083
Probable space group: C C
;
_chemical_formula_sum "Si O2"
_cell_formula_units_Z 28
_cell_length_a 9.471336
_cell_length_b 7.115034
_cell_length_c 26.263985
_cell_angle_alpha 90.000000
_cell_angle_beta 38.764309
_cell_angle_gamma 90.000000
_cell_volume 1108.166934
_symmetry_space_group_name_H-M "C C"
_symmetry_group_IT_number 9
_symmetry_cell_setting 'monoclinic'
loop_
_space_group_symop_operation_xyz
x,y,z
x,-y,1/2+z
1/2+x,1/2+y,z
1/2+x,1/2-y,1/2+z
loop_
_atom_site_type_symbol
_atom_site_label
_atom_site_fract_x
_atom_site_fract_y
_atom_site_fract_z
Si Si1 0.933990 0.864771 0.220400
Si Si2 0.976159 0.088452 0.596733
Si Si3 0.208857 0.406126 0.493879
Si Si4 0.951485 0.691573 0.736019
Si Si5 0.159079 0.014960 0.910457
Si Si6 0.474203 0.732651 0.384138
Si Si7 0.878147 0.675101 0.642112
O O1 0.045841 0.848977 0.133701
O O2 0.695043 0.764773 0.288543
O O3 0.116305 0.783762 0.207322
O O4 0.907919 0.084010 0.243287
O O5 0.713831 0.143929 0.668684
O O6 0.108620 0.199452 0.515746
O O7 0.004216 0.866121 0.591601
O O8 0.409481 0.392640 0.479591
O O9 0.328924 0.539827 0.418467
O O10 0.993608 0.517983 0.575491
O O11 0.797230 0.601840 0.822911
O O12 0.900340 0.618424 0.694040
O O13 0.313402 0.095904 0.912700
O O14 0.084187 0.805965 0.909797
#
# Coordination Sequence:
#
# PCOD9139083 Si02
#       7
#     4   4   4   4   4   4   4
#     4  11  24  42  75 100 145 187 260 300 382 463
#     4  11  24  44  70 103 141 187 246 309 374 466
#     4  10  26  42  71 105 151 190 243 324 396 465
#     4  11  24  42  72 106 136 194 254 301 383 462
#     4  10  24  44  72 103 150 200 250 315 398 464
#     4  10  24  44  69 106 147 200 246 321 393 469
#     4  11  26  42  73 109 136 198 247 316 380 471
#
# _framework density 25.266952
#
# number of rings (size 3 to 8) (size 9 to 14) (size 15 to 20)
#    0.857    0.571    2.857    0.857   10.000    1.143 
#    0.000    1.429    0.000    0.000    0.000    0.000 
#    0.000    0.000    0.000    0.000    0.000    0.000 
#
# Total GULP energy -78101.318884 kJ/mol
# GULP energy per Si atom -5578.665635 kJ/mol
# Density = 2.520944 g / cm^3
# Si number density = 25.266952 Si / 1000 Ang^3
#
#
#
# Elastic Constant Matrix: (Units=GPa)
#
#
# Indices 1 2 3 4 5 6 
#
# 1 99.4924 15.9912 23.1410 0.0000 -1.9400 0.0000
# 2 15.9912 143.3916 48.5867 0.0000 0.5903 -0.0001
# 3 23.1410 48.5867 97.6986 0.0000 -13.5756 0.0000
# 4 0.0000 0.0000 0.0000 33.2494 0.0000 -9.1211
# 5 -1.9400 0.5903 -13.5756 0.0000 33.2563 0.0000
# 6 0.0000 -0.0001 0.0000 -9.1211 0.0000 35.8219
#
#
#
# Elastic Compliance Matrix: (Units=1/GPa)
#
#
# Indices 1 2 3 4 5 6 
#
# 1 0.010660 -0.000380 -0.002384 0.000000 -0.000345 0.000000
# 2 -0.000380 0.008523 -0.004424 0.000000 -0.001979 0.000000
# 3 -0.002384 -0.004424 0.013773 0.000000 0.005562 0.000000
# 4 0.000000 0.000000 0.000000 0.032334 0.000000 0.008233
# 5 -0.000345 -0.001979 0.005562 0.000000 0.032355 0.000000
# 6 0.000000 0.000000 0.000000 0.008233 0.000000 0.030012
#
#
# Mechanical properties :
#
#
# Convention : Reuss Voigt Hill
#
# Bulk Modulus (GPa) = 53.81745 57.33560 55.57653
# Shear Modulus (GPa) = 33.73217 37.32311 35.52764
#
# Velocity S-wave (km/s) = 3.65777 3.84754 3.75386
# Velocity P-wave (km/s) = 6.25978 6.51761 6.39000
#
# Compressibility (1/GPa) = 0.01858133
#
# Stress axis : x y z
#
# Youngs Moduli (GPa) = 93.81030 117.32435 72.60514
#
# Poissons Ratio (x) = 0.04453 0.17309
# Poissons Ratio (y) = 0.03561 0.32120
# Poissons Ratio (z) = 0.22364 0.51903
#
# Static dielectric constant tensor:
#      x y z
#    x 2.007370 0.000000 0.049180 
#    y 0.000000 2.028330 0.000000 
#    z 0.049180 0.000000 1.935150 
# 
# From -- ./inp_files/36333.got.cif
#   From: 2010.05.17/outbox.cif.g08.bks.cpg/sg9_19_cif.got.tgz:36333.got - 2010.06.03 20:04:27.
