data_PCOD9139438
_publ_section_title
;
Structure prediction by ZEFSAII (Michael W. Deem and Ramdas Pophale) SiO2 
 PCOD9139438
Probable space group: C C
;
_chemical_formula_sum "Si O2"
_cell_formula_units_Z 32
_cell_length_a 16.505830
_cell_length_b 5.737016
_cell_length_c 26.392158
_cell_angle_alpha 90.000000
_cell_angle_beta 149.480587
_cell_angle_gamma 90.000000
_cell_volume 1269.161581
_symmetry_space_group_name_H-M "C C"
_symmetry_group_IT_number 9
_symmetry_cell_setting 'monoclinic'
loop_
_space_group_symop_operation_xyz
x,y,z
x,-y,1/2+z
1/2+x,1/2+y,z
1/2+x,1/2-y,1/2+z
loop_
_atom_site_type_symbol
_atom_site_label
_atom_site_fract_x
_atom_site_fract_y
_atom_site_fract_z
Si Si1 0.668920 0.431397 0.809230
Si Si2 0.953709 0.784264 0.253383
Si Si3 0.610048 0.494291 0.995375
Si Si4 0.445047 0.935222 0.155348
Si Si5 0.831300 0.283518 0.309692
Si Si6 0.130238 0.585560 0.439658
Si Si7 0.858900 0.294482 0.009684
Si Si8 0.151870 0.023609 0.130414
O O1 0.507291 0.481584 0.754773
O O2 0.604725 0.219855 0.740992
O O3 0.731001 0.632298 0.804579
O O4 0.798789 0.375610 0.922308
O O5 0.974817 0.603084 0.218653
O O6 0.786520 0.715592 0.188183
O O7 0.083019 0.748606 0.366975
O O8 0.443294 0.441074 0.877752
O O9 0.678618 0.741805 0.011670
O O10 0.767537 0.333378 0.073263
O O11 0.574959 0.464200 0.035241
O O12 0.409143 0.996137 0.076939
O O13 0.728539 0.311428 0.203262
O O14 0.970306 0.472813 0.375815
O O15 0.231571 0.382498 0.466788
O O16 0.015432 0.140393 0.088888
#
# Coordination Sequence:
#
# PCOD9139438 Si02
#       8
#     4   4   4   4   4   4   4   4
#     4  12  26  46  74 103 148 194 250 311 380 446
#     4  10  25  45  70 104 143 195 235 309 375 449
#     4  11  25  44  73 103 145 196 246 306 380 458
#     4  11  24  44  70 104 143 183 248 302 370 453
#     4  11  25  48  68 104 145 196 242 313 370 452
#     4  11  24  45  71 100 146 186 245 306 380 441
#     4  12  24  47  76 108 146 195 248 323 374 452
#     4  10  25  45  72 106 146 187 252 306 373 449
#
# _framework density 25.213497
#
# number of rings (size 3 to 8) (size 9 to 14) (size 15 to 20)
#    0.000    1.000    3.750    1.500    5.250    2.000 
#    2.250    1.250    0.000    0.000    0.000    0.000 
#    0.000    0.000    0.000    0.000    0.000    0.000 
#
# Total GULP energy -89207.380726 kJ/mol
# GULP energy per Si atom -5575.461295 kJ/mol
# Density = 2.515611 g / cm^3
# Si number density = 25.213497 Si / 1000 Ang^3
#
#
#
# Elastic Constant Matrix: (Units=GPa)
#
#
# Indices 1 2 3 4 5 6 
#
# 1 89.2547 3.3769 39.7164 0.0003 -22.9589 0.0009
# 2 3.3769 18.1034 5.5976 -0.0010 -9.7872 0.0038
# 3 39.7164 5.5976 63.9064 -0.0001 -25.9943 0.0000
# 4 0.0003 -0.0010 -0.0001 38.3354 0.0000 0.9350
# 5 -22.9589 -9.7872 -25.9943 0.0000 60.3844 -0.0006
# 6 0.0009 0.0038 0.0000 0.9350 -0.0006 29.9407
#
#
#
# Elastic Compliance Matrix: (Units=1/GPa)
#
#
# Indices 1 2 3 4 5 6 
#
# 1 0.015732 0.001077 -0.008931 0.000000 0.002311 -0.000001
# 2 0.001077 0.060751 -0.002205 0.000002 0.009307 -0.000008
# 3 -0.008931 -0.002205 0.024082 0.000000 0.006614 0.000001
# 4 0.000000 0.000002 0.000000 0.026105 0.000000 -0.000815
# 5 0.002311 0.009307 0.006614 0.000000 0.021795 -0.000001
# 6 -0.000001 -0.000008 0.000001 -0.000815 -0.000001 0.033425
#
#
# Mechanical properties :
#
#
# Convention : Reuss Voigt Hill
#
# Bulk Modulus (GPa) = 12.43075 29.84958 21.14016
# Shear Modulus (GPa) = 21.85094 33.90367 27.87730
#
# Velocity S-wave (km/s) = 2.94706 3.67094 3.32874
# Velocity P-wave (km/s) = 4.06462 5.46189 4.81422
#
# Compressibility (1/GPa) = 0.08044567
#
# Stress axis : x y z
#
# Youngs Moduli (GPa) = 63.56525 16.46070 41.52542
#
# Poissons Ratio (x) = -0.01772 0.37087
# Poissons Ratio (y) = -0.06843 0.09155
# Poissons Ratio (z) = 0.56771 0.03629
#
# Static dielectric constant tensor:
#      x y z
#    x 1.967560 0.000000 -0.021280 
#    y 0.000000 2.135260 0.000000 
#    z -0.021280 0.000000 2.026330 
# 
# From -- ./inp_files/37488.got.cif
#   From: 2010.05.17/outbox.cif.g08.bks.cpg/sg9_19_cif.got.tgz:37488.got - 2010.06.03 20:04:27.
