data_PCOD9139593
_publ_section_title
;
Structure prediction by ZEFSAII (Michael W. Deem and Ramdas Pophale) SiO2 
 PCOD9139593
Probable space group: C C
;
_chemical_formula_sum "Si O2"
_cell_formula_units_Z 20
_cell_length_a 5.286691
_cell_length_b 18.309464
_cell_length_c 8.463936
_cell_angle_alpha 90.000000
_cell_angle_beta 88.931890
_cell_angle_gamma 90.000000
_cell_volume 819.136843
_symmetry_space_group_name_H-M "C C"
_symmetry_group_IT_number 9
_symmetry_cell_setting 'monoclinic'
loop_
_space_group_symop_operation_xyz
x,y,z
x,-y,1/2+z
1/2+x,1/2+y,z
1/2+x,1/2-y,1/2+z
loop_
_atom_site_type_symbol
_atom_site_label
_atom_site_fract_x
_atom_site_fract_y
_atom_site_fract_z
Si Si1 0.035710 0.248091 0.531410
Si Si2 0.721203 0.453614 0.907681
Si Si3 0.715515 0.116008 0.546731
Si Si4 0.756993 0.604661 0.054841
Si Si5 0.908023 0.183940 0.833323
O O1 0.235345 0.248628 0.388937
O O2 0.795976 0.197622 0.489010
O O3 0.966797 0.332300 0.558179
O O4 0.107994 0.211265 0.698140
O O5 0.445575 0.435115 0.983644
O O6 0.718803 0.430667 0.725644
O O7 0.945445 0.409846 0.992532
O O8 0.789973 0.537896 0.933936
O O9 0.743881 0.125787 0.734895
O O10 0.521453 0.648647 0.986518
#
# Coordination Sequence:
#
# PCOD9139593 Si02
#       5
#     4   4   4   4   4
#     4  10  26  45  85 112 154 208 274 326 392 469
#     4  12  29  52  76 120 158 214 261 330 403 474
#     4  10  28  50  82 112 163 203 272 324 397 475
#     4  12  29  47  83 110 163 209 265 329 399 477
#     4  10  26  48  82 114 156 208 270 325 401 461
#
# _framework density 24.415942000000001
#
# number of rings (size 3 to 8) (size 9 to 14) (size 15 to 20)
#    1.200    0.000    0.000    2.400   16.800    1.600 
#    0.000    0.000    0.000    0.000    0.000    0.000 
#    0.000    0.000    0.000    0.000    0.000    0.000 
#
# Total GULP energy -55900.987072 kJ/mol
# GULP energy per Si atom -5590.098707 kJ/mol
# Density = 2.436037 g / cm^3
# Si number density = 24.415942 Si / 1000 Ang^3
#
#
#
# Elastic Constant Matrix: (Units=GPa)
#
#
# Indices 1 2 3 4 5 6 
#
# 1 80.9463 12.2831 35.4081 0.0000 6.0673 0.0000
# 2 12.2831 119.2319 -1.7270 0.0000 -0.5785 0.0000
# 3 35.4081 -1.7270 73.1770 0.0000 20.9027 0.0000
# 4 0.0000 0.0000 0.0000 25.6735 0.0000 -24.3133
# 5 6.0673 -0.5785 20.9027 0.0000 36.3438 0.0000
# 6 0.0000 0.0000 0.0000 -24.3133 0.0000 12.2172
#
#
#
# Elastic Compliance Matrix: (Units=1/GPa)
#
#
# Indices 1 2 3 4 5 6 
#
# 1 0.016173 -0.001779 -0.008482 0.000000 0.002150 0.000000
# 2 -0.001779 0.008585 0.001124 0.000000 -0.000213 0.000000
# 3 -0.008482 0.001124 0.020804 0.000000 -0.010531 0.000000
# 4 0.000000 0.000000 0.000000 -0.044029 0.000000 -0.087622
# 5 0.002150 -0.000213 -0.010531 0.000000 0.033210 0.000000
# 6 0.000000 0.000000 0.000000 -0.087622 0.000000 -0.092524
#
#
# Mechanical properties :
#
#
# Convention : Reuss Voigt Hill
#
# Bulk Modulus (GPa) = 36.64302 40.58706 38.61504
# Shear Modulus (GPa) = -164.41045 30.00631 -67.20207
#
# Velocity S-wave (km/s) = -8.21484 3.50946 -5.25201
# Velocity P-wave (km/s) = 8.65665 5.75161 4.57475
#
# Compressibility (1/GPa) = 0.02729033
#
# Stress axis : x y z
#
# Youngs Moduli (GPa) = 61.83279 116.47567 48.06716
#
# Poissons Ratio (x) = 0.20715 0.40768
# Poissons Ratio (y) = 0.10997 -0.05403
# Poissons Ratio (z) = 0.52444 -0.13092
#
# Static dielectric constant tensor:
#      x y z
#    x 1.970100 0.000000 0.012510 
#    y 0.000000 1.966760 0.000000 
#    z 0.012510 0.000000 1.935570 
# 
# From -- ./inp_files/3639.got.cif
#   From: 2010.05.17/outbox.cif.g08.bks.cpg/sg9_2_cif.got.tgz:3639.got - 2010.06.03 20:04:27.
