data_PCOD9139611
_publ_section_title
;
Structure prediction by ZEFSAII (Michael W. Deem and Ramdas Pophale) SiO2 
 PCOD9139611
Probable space group: C C
;
_chemical_formula_sum "Si O2"
_cell_formula_units_Z 24
_cell_length_a 11.771645
_cell_length_b 10.454153
_cell_length_c 9.145659
_cell_angle_alpha 90.000000
_cell_angle_beta 124.478783
_cell_angle_gamma 90.000000
_cell_volume 927.780444
_symmetry_space_group_name_H-M "C C"
_symmetry_group_IT_number 9
_symmetry_cell_setting 'monoclinic'
loop_
_space_group_symop_operation_xyz
x,y,z
x,-y,1/2+z
1/2+x,1/2+y,z
1/2+x,1/2-y,1/2+z
loop_
_atom_site_type_symbol
_atom_site_label
_atom_site_fract_x
_atom_site_fract_y
_atom_site_fract_z
Si Si1 0.358170 0.766293 0.265680
Si Si2 0.026055 0.596391 0.432401
Si Si3 0.878440 0.157693 0.844431
Si Si4 0.457444 0.485502 0.664996
Si Si5 0.259402 0.110863 0.399291
Si Si6 0.594450 0.128026 0.149088
O O1 0.406997 0.642248 0.210024
O O2 0.483247 0.805355 0.461550
O O3 0.222491 0.723310 0.253254
O O4 0.311588 0.863095 0.101791
O O5 0.009119 0.745364 0.459214
O O6 0.042541 0.590823 0.271610
O O7 0.132045 0.504787 0.592434
O O8 0.879887 0.547303 0.391344
O O9 0.757028 0.247262 0.820342
O O10 0.893446 0.111617 0.689835
O O11 0.905931 0.035303 0.963810
O O12 0.622346 0.472268 0.793843
#
# Coordination Sequence:
#
# PCOD9139611 Si02
#       6
#     4   4   4   4   4   4
#     4  11  25  45  79 106 151 201 271 316 407 464
#     4  10  26  47  73 111 156 206 259 321 400 478
#     4   9  25  42  70 114 146 199 255 321 389 473
#     4  11  22  44  76 106 151 198 256 330 389 463
#     4   9  22  47  70 106 148 197 259 321 384 472
#     4  12  26  49  78 111 156 209 260 331 397 474
#
# _framework density 25.868189000000001
#
# number of rings (size 3 to 8) (size 9 to 14) (size 15 to 20)
#    1.000    0.667    1.667    1.000    2.333    9.333 
#    0.000    0.000    0.000    0.000    0.000    0.000 
#    0.000    0.000    0.000    0.000    0.000    0.000 
#
# Total GULP energy -67104.634796 kJ/mol
# GULP energy per Si atom -5592.052900 kJ/mol
# Density = 2.580931 g / cm^3
# Si number density = 25.868189 Si / 1000 Ang^3
#
#
#
# Elastic Constant Matrix: (Units=GPa)
#
#
# Indices 1 2 3 4 5 6 
#
# 1 125.1019 14.3996 51.7481 0.0000 -5.9830 0.0000
# 2 14.3996 66.6174 15.4323 0.0000 -10.6982 0.0000
# 3 51.7481 15.4323 113.4310 0.0000 -6.4195 0.0000
# 4 0.0000 0.0000 0.0000 39.7094 0.0000 -17.0912
# 5 -5.9830 -10.6982 -6.4195 0.0000 49.4514 0.0000
# 6 0.0000 0.0000 0.0000 -17.0912 0.0000 38.9878
#
#
#
# Elastic Compliance Matrix: (Units=1/GPa)
#
#
# Indices 1 2 3 4 5 6 
#
# 1 0.009943 -0.001073 -0.004367 0.000000 0.000404 0.000000
# 2 -0.001073 0.016103 -0.001523 0.000000 0.003156 0.000000
# 3 -0.004367 -0.001523 0.011048 0.000000 0.000576 0.000000
# 4 0.000000 0.000000 0.000000 0.031039 0.000000 0.013607
# 5 0.000404 0.003156 0.000576 0.000000 0.021028 0.000000
# 6 0.000000 0.000000 0.000000 0.013607 0.000000 0.031614
#
#
# Mechanical properties :
#
#
# Convention : Reuss Voigt Hill
#
# Bulk Modulus (GPa) = 43.16258 52.03447 47.59852
# Shear Modulus (GPa) = 35.10670 40.53442 37.82056
#
# Velocity S-wave (km/s) = 3.68793 3.96278 3.82782
# Velocity P-wave (km/s) = 5.90392 6.41070 6.16252
#
# Compressibility (1/GPa) = 0.02316822
#
# Stress axis : x y z
#
# Youngs Moduli (GPa) = 100.57603 62.10190 90.51363
#
# Poissons Ratio (x) = 0.06661 0.39529
# Poissons Ratio (y) = 0.10788 0.13784
# Poissons Ratio (z) = 0.43923 0.09457
#
# Static dielectric constant tensor:
#      x y z
#    x 2.027610 0.000000 0.073040 
#    y 0.000000 2.100300 0.000000 
#    z 0.073040 0.000000 2.015570 
# 
# From -- ./inp_files/16312.got.cif
#   From: 2010.05.17/outbox.cif.g08.bks.cpg/sg9_9_cif.got.tgz:16312.got - 2010.06.03 20:04:27.
