data_PCOD9139577
_publ_section_title
;
Structure prediction by ZEFSAII (Michael W. Deem and Ramdas Pophale) SiO2 
 PCOD9139577
Probable space group: C C
;
_chemical_formula_sum "Si O2"
_cell_formula_units_Z 32
_cell_length_a 12.613470
_cell_length_b 14.514617
_cell_length_c 7.771971
_cell_angle_alpha 90.000000
_cell_angle_beta 66.972122
_cell_angle_gamma 90.000000
_cell_volume 1309.506493
_symmetry_space_group_name_H-M "C C"
_symmetry_group_IT_number 9
_symmetry_cell_setting 'monoclinic'
loop_
_space_group_symop_operation_xyz
x,y,z
x,-y,1/2+z
1/2+x,1/2+y,z
1/2+x,1/2-y,1/2+z
loop_
_atom_site_type_symbol
_atom_site_label
_atom_site_fract_x
_atom_site_fract_y
_atom_site_fract_z
Si Si1 0.036840 0.094743 0.870710
Si Si2 0.703513 0.696858 0.193279
Si Si3 0.365173 0.045572 0.208949
Si Si4 0.309226 0.684096 0.930262
Si Si5 0.625913 0.951671 0.425461
Si Si6 0.985172 0.889577 0.807514
Si Si7 0.294692 0.864907 0.115893
Si Si8 0.712812 0.870815 0.010176
O O1 0.158135 0.126688 0.721433
O O2 0.932825 0.139019 0.830859
O O3 0.026445 0.986169 0.855187
O O4 0.015201 0.113974 0.085684
O O5 0.770708 0.599630 0.150410
O O6 0.772982 0.755377 0.289683
O O7 0.571497 0.684326 0.335403
O O8 0.697911 0.760572 0.027173
O O9 0.342270 0.087183 0.411473
O O10 0.346610 0.935170 0.222182
O O11 0.494654 0.063603 0.063806
O O12 0.214531 0.603255 0.994313
O O13 0.319323 0.756410 0.081337
O O14 0.653749 0.910091 0.221384
O O15 0.656928 0.060364 0.408081
O O16 0.850045 0.883456 0.922168
#
# Coordination Sequence:
#
# PCOD9139577 Si02
#       8
#     4   4   4   4   4   4   4   4
#     4  12  26  47  76 108 148 193 251 304 363 435
#     4  10  26  43  73 107 140 192 239 299 367 432
#     4  11  24  45  70 103 140 190 232 293 369 431
#     4  10  26  43  73 107 140 192 239 299 367 432
#     4  11  24  45  70 103 140 190 232 293 369 431
#     4  12  26  47  76 108 148 193 251 304 363 435
#     4  11  25  45  72 101 145 183 244 296 361 429
#     4  11  25  45  72 101 145 183 244 296 361 429
#
# _framework density 24.436686999999999
#
# number of rings (size 3 to 8) (size 9 to 14) (size 15 to 20)
#    0.000    1.000    2.500    2.250   10.500    2.000 
#    0.000    0.000    0.000    0.000    0.000    0.000 
#    0.000    0.000    0.000    0.000    0.000    0.000 
#
# Total GULP energy -89513.509473 kJ/mol
# GULP energy per Si atom -5594.594342 kJ/mol
# Density = 2.438107 g / cm^3
# Si number density = 24.436687 Si / 1000 Ang^3
#
#
#
# Elastic Constant Matrix: (Units=GPa)
#
#
# Indices 1 2 3 4 5 6 
#
# 1 87.0149 20.4404 57.4221 0.0000 -43.9549 0.0000
# 2 20.4404 61.2360 -10.3018 0.0000 -9.4971 0.0000
# 3 57.4221 -10.3018 116.5433 0.0000 -22.7768 0.0000
# 4 0.0000 0.0000 0.0000 35.3614 0.0000 0.6722
# 5 -43.9549 -9.4971 -22.7768 0.0000 55.3043 0.0000
# 6 0.0000 0.0000 0.0000 0.6722 0.0000 40.9180
#
#
#
# Elastic Compliance Matrix: (Units=1/GPa)
#
#
# Indices 1 2 3 4 5 6 
#
# 1 0.031276 -0.009812 -0.012777 0.000000 0.017911 0.000000
# 2 -0.009812 0.020403 0.006306 0.000000 -0.001697 0.000000
# 3 -0.012777 0.006306 0.014856 0.000000 -0.002954 0.000000
# 4 0.000000 0.000000 0.000000 0.028288 0.000000 -0.000465
# 5 0.017911 -0.001697 -0.002954 0.000000 0.030809 0.000000
# 6 0.000000 0.000000 0.000000 -0.000465 0.000000 0.024447
#
#
# Mechanical properties :
#
#
# Convention : Reuss Voigt Hill
#
# Bulk Modulus (GPa) = 29.43756 44.43506 36.93631
# Shear Modulus (GPa) = 25.77746 39.46565 32.62156
#
# Velocity S-wave (km/s) = 3.25140 4.02309 3.65765
# Velocity P-wave (km/s) = 5.11547 6.30900 5.74333
#
# Compressibility (1/GPa) = 0.03397020
#
# Stress axis : x y z
#
# Youngs Moduli (GPa) = 31.97310 49.01241 67.31266
#
# Poissons Ratio (x) = 0.48089 0.86006
# Poissons Ratio (y) = 0.31371 -0.42448
# Poissons Ratio (z) = 0.40852 -0.30908
#
# Static dielectric constant tensor:
#      x y z
#    x 1.959600 0.000000 0.110960 
#    y 0.000000 1.977990 0.000000 
#    z 0.110960 0.000000 1.973660 
# 
# From -- ./inp_files/7567.got.cif
#   From: 2010.05.17/outbox.cif.g08.bks.cpg/sg9_4_cif.got.tgz:7567.got - 2010.06.03 20:04:27.
