data_PCOD9139419
_publ_section_title
;
Structure prediction by ZEFSAII (Michael W. Deem and Ramdas Pophale) SiO2 
 PCOD9139419
Probable space group: C C
;
_chemical_formula_sum "Si O2"
_cell_formula_units_Z 20
_cell_length_a 15.303731
_cell_length_b 11.197225
_cell_length_c 8.111905
_cell_angle_alpha 90.000000
_cell_angle_beta 145.934744
_cell_angle_gamma 90.000000
_cell_volume 778.618391
_symmetry_space_group_name_H-M "C C"
_symmetry_group_IT_number 9
_symmetry_cell_setting 'monoclinic'
loop_
_space_group_symop_operation_xyz
x,y,z
x,-y,1/2+z
1/2+x,1/2+y,z
1/2+x,1/2-y,1/2+z
loop_
_atom_site_type_symbol
_atom_site_label
_atom_site_fract_x
_atom_site_fract_y
_atom_site_fract_z
Si Si1 0.317750 0.308446 0.860810
Si Si2 0.631034 0.036824 0.871045
Si Si3 0.699195 0.393915 0.966787
Si Si4 0.926613 0.617403 0.262196
Si Si5 0.987410 0.018106 0.425327
O O1 0.162934 0.387587 0.588933
O O2 0.301674 0.219465 0.676226
O O3 0.462270 0.395905 0.046207
O O4 0.339202 0.233822 0.059310
O O5 0.535354 0.116503 0.593036
O O6 0.534432 0.923139 0.777328
O O7 0.807025 0.004906 0.090518
O O8 0.579873 0.400375 0.627070
O O9 0.591035 0.413407 0.956657
O O10 0.807246 0.508881 0.105959
#
# Coordination Sequence:
#
# PCOD9139419 Si02
#       5
#     4   4   4   4   4
#     4  10  26  42  72 103 146 181 247 283 371 426
#     4  10  25  44  74 105 145 190 242 296 362 433
#     4  12  22  45  73 100 144 185 236 303 346 427
#     4  12  22  48  74 105 148 191 236 307 359 426
#     4  10  25  45  69 107 139 183 243 293 356 426
#
# _framework density 25.686523999999999
#
# number of rings (size 3 to 8) (size 9 to 14) (size 15 to 20)
#    1.200    0.000    4.000    1.200    2.800    1.600 
#    0.000    0.000    0.000    0.000    0.000    0.000 
#    0.000    0.000    0.000    0.000    0.000    0.000 
#
# Total GULP energy -55893.736389 kJ/mol
# GULP energy per Si atom -5589.373639 kJ/mol
# Density = 2.562806 g / cm^3
# Si number density = 25.686524 Si / 1000 Ang^3
#
#
#
# Elastic Constant Matrix: (Units=GPa)
#
#
# Indices 1 2 3 4 5 6 
#
# 1 81.8694 -14.0522 -1.3747 0.0000 22.3800 0.0000
# 2 -14.0522 77.1900 30.7727 0.0000 4.6244 0.0000
# 3 -1.3747 30.7727 180.9894 0.0000 -15.5258 0.0000
# 4 0.0000 0.0000 0.0000 58.6617 0.0000 -13.0864
# 5 22.3800 4.6244 -15.5258 0.0000 48.6369 0.0000
# 6 0.0000 0.0000 0.0000 -13.0864 0.0000 37.3463
#
#
#
# Elastic Compliance Matrix: (Units=1/GPa)
#
#
# Indices 1 2 3 4 5 6 
#
# 1 0.014884 0.003621 -0.001151 0.000000 -0.007560 0.000000
# 2 0.003621 0.014997 -0.002866 0.000000 -0.004007 0.000000
# 3 -0.001151 -0.002866 0.006244 0.000000 0.002795 0.000000
# 4 0.000000 0.000000 0.000000 0.018492 0.000000 0.006480
# 5 -0.007560 -0.004007 0.002795 0.000000 0.025313 0.000000
# 6 0.000000 0.000000 0.000000 0.006480 0.000000 0.029047
#
#
# Mechanical properties :
#
#
# Convention : Reuss Voigt Hill
#
# Bulk Modulus (GPa) = 28.30278 41.19336 34.74807
# Shear Modulus (GPa) = 41.13687 50.57586 45.85636
#
# Velocity S-wave (km/s) = 4.00621 4.44212 4.22978
# Velocity P-wave (km/s) = 5.69580 6.51012 6.11652
#
# Compressibility (1/GPa) = 0.03533222
#
# Stress axis : x y z
#
# Youngs Moduli (GPa) = 67.18830 66.68001 160.16557
#
# Poissons Ratio (x) = -0.24148 0.18439
# Poissons Ratio (y) = -0.24332 0.45905
# Poissons Ratio (z) = 0.07735 0.19111
#
# Static dielectric constant tensor:
#      x y z
#    x 1.968020 0.000000 -0.089580 
#    y 0.000000 2.068890 0.000000 
#    z -0.089580 0.000000 2.087310 
# 
# From -- ./inp_files/4685.got.cif
#   From: 2010.05.17/outbox.cif.g08.bks.cpg/sg9_3_cif.got.tgz:4685.got - 2010.06.03 20:04:27.
