data_PCOD9139777
_publ_section_title
;
Structure prediction by ZEFSAII (Michael W. Deem and Ramdas Pophale) SiO2 
 PCOD9139777
Probable space group: C C
;
_chemical_formula_sum "Si O2"
_cell_formula_units_Z 32
_cell_length_a 14.407646
_cell_length_b 21.114291
_cell_length_c 8.621755
_cell_angle_alpha 90.000000
_cell_angle_beta 144.278186
_cell_angle_gamma 90.000000
_cell_volume 1531.322821
_symmetry_space_group_name_H-M "C C"
_symmetry_group_IT_number 9
_symmetry_cell_setting 'monoclinic'
loop_
_space_group_symop_operation_xyz
x,y,z
x,-y,1/2+z
1/2+x,1/2+y,z
1/2+x,1/2-y,1/2+z
loop_
_atom_site_type_symbol
_atom_site_label
_atom_site_fract_x
_atom_site_fract_y
_atom_site_fract_z
Si Si1 0.531610 0.913199 0.509350
Si Si2 0.653719 0.401597 0.320102
Si Si3 0.412863 0.127989 0.396548
Si Si4 0.338694 0.439181 0.056999
Si Si5 0.347118 0.798228 0.115813
Si Si6 0.022530 0.830447 0.837317
Si Si7 0.773740 0.920924 0.331919
Si Si8 0.379602 0.004835 0.538979
O O1 0.439039 0.850639 0.341175
O O2 0.488948 0.964345 0.319060
O O3 0.470247 0.947729 0.579496
O O4 0.715056 0.900246 0.782679
O O5 0.510103 0.413117 0.243484
O O6 0.718783 0.472475 0.375594
O O7 0.594214 0.368185 0.082030
O O8 0.800752 0.363016 0.595632
O O9 0.383364 0.181333 0.486587
O O10 0.598562 0.110890 0.618934
O O11 0.347001 0.062461 0.380500
O O12 0.305133 0.430922 0.192618
O O13 0.298110 0.511536 0.951302
O O14 0.418198 0.729772 0.245696
O O15 0.164903 0.806057 0.919592
O O16 0.906583 0.875817 0.584440
#
# Coordination Sequence:
#
# PCOD9139777 Si02
#       8
#     4   4   4   4   4   4   4   4
#     4  11  22  42  70 103 141 183 226 291 351 435
#     4  12  26  42  72 108 145 180 245 293 362 421
#     4  11  25  46  72 101 146 189 236 294 362 429
#     4  12  26  40  70 113 149 179 238 291 370 423
#     4  11  27  48  75  97 144 191 247 282 367 417
#     4  12  28  50  73 104 141 196 242 301 350 430
#     4  12  27  45  72 105 151 190 236 298 359 432
#     4  11  21  39  68 103 137 182 222 284 365 415
#
# _framework density 20.896964000000001
#
# number of rings (size 3 to 8) (size 9 to 14) (size 15 to 20)
#    0.000    0.500    3.750    3.750   14.000    0.000 
#    2.250    1.250    0.000    0.000    0.000    0.000 
#    0.000    0.000    0.000    0.000    0.000    0.000 
#
# Total GULP energy -89473.179166 kJ/mol
# GULP energy per Si atom -5592.073698 kJ/mol
# Density = 2.084940 g / cm^3
# Si number density = 20.896964 Si / 1000 Ang^3
#
#
#
# Elastic Constant Matrix: (Units=GPa)
#
#
# Indices 1 2 3 4 5 6 
#
# 1 120.7370 23.2439 66.0675 0.0000 -1.1356 0.0000
# 2 23.2439 52.3615 54.9570 0.0000 -15.3627 0.0000
# 3 66.0675 54.9570 168.8155 0.0000 -2.4423 0.0000
# 4 0.0000 0.0000 0.0000 21.7692 0.0000 10.5188
# 5 -1.1356 -15.3627 -2.4423 0.0000 31.7042 0.0000
# 6 0.0000 0.0000 0.0000 10.5188 0.0000 26.1337
#
#
#
# Elastic Compliance Matrix: (Units=1/GPa)
#
#
# Indices 1 2 3 4 5 6 
#
# 1 0.010551 -0.000628 -0.003928 0.000000 -0.000229 0.000000
# 2 -0.000628 0.036048 -0.011250 0.000000 0.016579 0.000000
# 3 -0.003928 -0.011250 0.011055 0.000000 -0.004740 0.000000
# 4 0.000000 0.000000 0.000000 0.057028 0.000000 -0.022954
# 5 -0.000229 0.016579 -0.004740 0.000000 0.039202 0.000000
# 6 0.000000 0.000000 0.000000 -0.022954 0.000000 0.047504
#
#
# Mechanical properties :
#
#
# Convention : Reuss Voigt Hill
#
# Bulk Modulus (GPa) = 38.39949 70.05009 54.22479
# Shear Modulus (GPa) = 20.68865 29.09778 24.89322
#
# Velocity S-wave (km/s) = 3.14989 3.73559 3.45517
# Velocity P-wave (km/s) = 5.62535 7.22500 6.47477
#
# Compressibility (1/GPa) = 0.02604201
#
# Stress axis : x y z
#
# Youngs Moduli (GPa) = 94.78143 27.74061 90.46072
#
# Poissons Ratio (x) = 0.01742 0.35532
# Poissons Ratio (y) = 0.05954 1.01765
# Poissons Ratio (z) = 0.37229 0.31207
#
# Static dielectric constant tensor:
#      x y z
#    x 1.816010 0.000000 0.004470 
#    y 0.000000 1.730730 0.000000 
#    z 0.004470 0.000000 1.796670 
# 
# From -- ./inp_files/10103.got.cif
#   From: 2010.05.17/outbox.cif.g08.bks.cpg/sg9_6_cif.got.tgz:10103.got - 2010.06.03 20:04:27.
