data_PCOD9139360
_publ_section_title
;
Structure prediction by ZEFSAII (Michael W. Deem and Ramdas Pophale) SiO2 
 PCOD9139360
Probable space group: C C
;
_chemical_formula_sum "Si O2"
_cell_formula_units_Z 28
_cell_length_a 5.174020
_cell_length_b 22.416121
_cell_length_c 8.776013
_cell_angle_alpha 90.000000
_cell_angle_beta 95.687277
_cell_angle_gamma 90.000000
_cell_volume 1012.844498
_symmetry_space_group_name_H-M "C C"
_symmetry_group_IT_number 9
_symmetry_cell_setting 'monoclinic'
loop_
_space_group_symop_operation_xyz
x,y,z
x,-y,1/2+z
1/2+x,1/2+y,z
1/2+x,1/2-y,1/2+z
loop_
_atom_site_type_symbol
_atom_site_label
_atom_site_fract_x
_atom_site_fract_y
_atom_site_fract_z
Si Si1 0.125000 0.584081 0.683020
Si Si2 0.539031 0.144023 0.045157
Si Si3 0.854635 0.527423 0.119791
Si Si4 0.221038 0.718008 0.305012
Si Si5 0.120869 0.153174 0.674320
Si Si6 0.242853 0.921895 0.918651
Si Si7 0.036399 0.215706 0.055883
O O1 0.403709 0.609976 0.730026
O O2 0.050625 0.516850 0.720029
O O3 0.906176 0.628898 0.736588
O O4 0.041021 0.583165 0.498597
O O5 0.521637 0.073655 0.030563
O O6 0.602139 0.158848 0.227125
O O7 0.762142 0.186532 0.990008
O O8 0.254261 0.170477 0.014114
O O9 0.675248 0.482929 0.010431
O O10 0.704802 0.564914 0.240426
O O11 0.501012 0.722056 0.235691
O O12 0.095841 0.777774 0.214901
O O13 0.131752 0.725671 0.472992
O O14 0.111104 0.135089 0.493148
#
# Coordination Sequence:
#
# PCOD9139360 Si02
#       7
#     4   4   4   4   4   4   4
#     4   8  21  38  59  92 114 173 200 275 304 392
#     4  10  25  41  66  99 128 180 204 292 313 410
#     4   9  20  43  61  95 131 160 230 254 347 377
#     4  10  25  43  66  98 134 175 222 274 328 408
#     4   9  20  38  60  89 121 163 216 252 327 376
#     4   8  21  38  61  92 123 173 201 282 309 404
#     4  10  26  41  65  97 131 176 219 267 340 377
#
# _framework density 27.644912999999999
#
# number of rings (size 3 to 8) (size 9 to 14) (size 15 to 20)
#    2.571    0.000    0.000    0.000    6.000    5.714 
#    7.714    0.000    0.000    0.000    0.000    0.000 
#    0.000    0.000    0.000    0.000    0.000    0.000 
#
# Total GULP energy -78039.741950 kJ/mol
# GULP energy per Si atom -5574.267282 kJ/mol
# Density = 2.758199 g / cm^3
# Si number density = 27.644913 Si / 1000 Ang^3
#
#
#
# Elastic Constant Matrix: (Units=GPa)
#
#
# Indices 1 2 3 4 5 6 
#
# 1 124.2173 4.8672 6.5238 0.0000 -25.2427 0.0000
# 2 4.8672 95.8659 19.3072 0.0000 -11.5289 0.0000
# 3 6.5238 19.3072 119.1876 0.0000 -20.9628 0.0000
# 4 0.0000 0.0000 0.0000 67.7315 0.0000 -8.1068
# 5 -25.2427 -11.5289 -20.9628 0.0000 29.3508 0.0000
# 6 0.0000 0.0000 0.0000 -8.1068 0.0000 21.4216
#
#
#
# Elastic Compliance Matrix: (Units=1/GPa)
#
#
# Indices 1 2 3 4 5 6 
#
# 1 0.009894 0.000420 0.001048 0.000000 0.009422 0.000000
# 2 0.000420 0.011109 -0.001134 0.000000 0.003915 0.000000
# 3 0.001048 -0.001134 0.009832 0.000000 0.007477 0.000000
# 4 0.000000 0.000000 0.000000 0.015465 0.000000 0.005852
# 5 0.009422 0.003915 0.007477 0.000000 0.049052 0.000000
# 6 0.000000 0.000000 0.000000 0.005852 0.000000 0.048897
#
#
# Mechanical properties :
#
#
# Convention : Reuss Voigt Hill
#
# Bulk Modulus (GPa) = 31.74485 44.51857 38.13171
# Shear Modulus (GPa) = 32.45036 44.27228 38.36132
#
# Velocity S-wave (km/s) = 3.42983 4.00617 3.72915
# Velocity P-wave (km/s) = 5.21469 6.12681 5.68906
#
# Compressibility (1/GPa) = 0.03150117
#
# Stress axis : x y z
#
# Youngs Moduli (GPa) = 101.07521 90.01629 101.71239
#
# Poissons Ratio (x) = -0.03779 -0.10656
# Poissons Ratio (y) = -0.04243 0.11534
# Poissons Ratio (z) = -0.10589 0.10208
#
# Static dielectric constant tensor:
#      x y z
#    x 2.160680 0.000000 0.024210 
#    y 0.000000 2.146260 0.000000 
#    z 0.024210 0.000000 2.395580 
# 
# From -- ./inp_files/13833.got.cif
#   From: 2010.05.17/outbox.cif.g08.bks.cpg/sg9_7_cif.got.tgz:13833.got - 2010.06.03 20:04:27.
