data_PCOD9139400
_publ_section_title
;
Structure prediction by ZEFSAII (Michael W. Deem and Ramdas Pophale) SiO2 
 PCOD9139400
Probable space group: C C
;
_chemical_formula_sum "Si O2"
_cell_formula_units_Z 28
_cell_length_a 24.725117
_cell_length_b 4.955112
_cell_length_c 21.714076
_cell_angle_alpha 90.000000
_cell_angle_beta 155.747276
_cell_angle_gamma 90.000000
_cell_volume 1092.757146
_symmetry_space_group_name_H-M "C C"
_symmetry_group_IT_number 9
_symmetry_cell_setting 'monoclinic'
loop_
_space_group_symop_operation_xyz
x,y,z
x,-y,1/2+z
1/2+x,1/2+y,z
1/2+x,1/2-y,1/2+z
loop_
_atom_site_type_symbol
_atom_site_label
_atom_site_fract_x
_atom_site_fract_y
_atom_site_fract_z
Si Si1 0.855540 0.214540 0.103530
Si Si2 0.694582 0.319688 0.152334
Si Si3 0.329836 0.246722 0.433458
Si Si4 0.765849 0.309405 0.580443
Si Si5 0.369172 0.349242 0.345876
Si Si6 0.063995 0.446807 0.111404
Si Si7 0.028700 0.533496 0.881241
O O1 0.821119 0.926243 0.094959
O O2 0.985456 0.326873 0.272194
O O3 0.749461 0.430320 0.020160
O O4 0.860585 0.204612 0.035913
O O5 0.764113 0.604788 0.234182
O O6 0.628492 0.208387 0.146777
O O7 0.587336 0.257631 0.987992
O O8 0.811638 0.109457 0.253668
O O9 0.369311 0.445362 0.418567
O O10 0.171319 0.273187 0.260947
O O11 0.433893 0.015237 0.518709
O O12 0.638647 0.190991 0.481404
O O13 0.511909 0.215275 0.496008
O O14 0.388811 0.110670 0.252794
#
# Coordination Sequence:
#
# PCOD9139400 Si02
#       7
#     4   4   4   4   4   4   4
#     4  10  25  44  68 102 134 184 219 289 331 411
#     4  11  23  43  69  96 140 170 227 274 343 395
#     4   9  21  44  70  99 138 172 229 276 347 399
#     4  10  26  41  67  99 138 175 238 263 349 389
#     4   9  24  40  65 101 129 176 218 274 336 399
#     4   9  22  43  68 103 130 180 219 283 335 410
#     4  10  27  43  71 100 137 183 226 285 333 411
#
# _framework density 25.623258
#
# number of rings (size 3 to 8) (size 9 to 14) (size 15 to 20)
#    1.714    0.571    0.000    0.000    8.000    5.714 
#    0.000    0.000    0.000    0.000    0.000    0.000 
#    0.000    0.000    0.000    0.000    0.000    0.000 
#
# Total GULP energy -78015.433168 kJ/mol
# GULP energy per Si atom -5572.530941 kJ/mol
# Density = 2.556494 g / cm^3
# Si number density = 25.623258 Si / 1000 Ang^3
#
#
#
# Elastic Constant Matrix: (Units=GPa)
#
#
# Indices 1 2 3 4 5 6 
#
# 1 114.0418 51.4659 72.1537 0.0007 -7.8715 0.0004
# 2 51.4659 141.0469 70.2713 0.0048 0.8121 0.0018
# 3 72.1537 70.2713 172.9779 0.0007 3.2374 0.0003
# 4 0.0007 0.0048 0.0007 26.3046 0.0005 11.4417
# 5 -7.8715 0.8121 3.2374 0.0005 45.8436 0.0002
# 6 0.0004 0.0018 0.0003 11.4417 0.0002 30.2350
#
#
#
# Elastic Compliance Matrix: (Units=1/GPa)
#
#
# Indices 1 2 3 4 5 6 
#
# 1 0.012859 -0.002521 -0.004388 0.000000 0.002563 0.000000
# 2 -0.002521 0.009384 -0.002753 -0.000002 -0.000405 0.000000
# 3 -0.004388 -0.002753 0.008754 0.000000 -0.001323 0.000000
# 4 0.000000 -0.000002 0.000000 0.045507 0.000000 -0.017221
# 5 0.002563 -0.000405 -0.001323 0.000000 0.022354 0.000000
# 6 0.000000 0.000000 0.000000 -0.017221 0.000000 0.039591
#
#
# Mechanical properties :
#
#
# Convention : Reuss Voigt Hill
#
# Bulk Modulus (GPa) = 85.65945 90.64982 88.15463
# Shear Modulus (GPa) = 30.92841 36.08836 33.50838
#
# Velocity S-wave (km/s) = 3.47802 3.75697 3.62018
# Velocity P-wave (km/s) = 7.04498 7.36712 7.20785
#
# Compressibility (1/GPa) = 0.01167414
#
# Stress axis : x y z
#
# Youngs Moduli (GPa) = 77.76401 106.56967 114.22700
#
# Poissons Ratio (x) = 0.26865 0.50121
# Poissons Ratio (y) = 0.19603 0.31446
# Poissons Ratio (z) = 0.34122 0.29338
#
# Static dielectric constant tensor:
#      x y z
#    x 2.114130 0.000000 0.051180 
#    y 0.000000 2.124400 0.000000 
#    z 0.051180 0.000000 2.143190 
# 
# From -- ./inp_files/36028.got.cif
#   From: 2010.05.17/outbox.cif.g08.bks.cpg/sg9_19_cif.got.tgz:36028.got - 2010.06.03 20:04:27.
