data_PCOD9139703
_publ_section_title
;
Structure prediction by ZEFSAII (Michael W. Deem and Ramdas Pophale) SiO2 
 PCOD9139703
Probable space group: C C
;
_chemical_formula_sum "Si O2"
_cell_formula_units_Z 28
_cell_length_a 11.942981
_cell_length_b 18.453499
_cell_length_c 9.278306
_cell_angle_alpha 90.000000
_cell_angle_beta 37.687708
_cell_angle_gamma 90.000000
_cell_volume 1250.130200
_symmetry_space_group_name_H-M "C C"
_symmetry_group_IT_number 9
_symmetry_cell_setting 'monoclinic'
loop_
_space_group_symop_operation_xyz
x,y,z
x,-y,1/2+z
1/2+x,1/2+y,z
1/2+x,1/2-y,1/2+z
loop_
_atom_site_type_symbol
_atom_site_label
_atom_site_fract_x
_atom_site_fract_y
_atom_site_fract_z
Si Si1 0.460700 0.433506 0.502000
Si Si2 0.717204 0.352771 0.760298
Si Si3 0.637681 0.197666 0.835201
Si Si4 0.054538 0.483740 0.567119
Si Si5 0.306283 0.427765 0.976031
Si Si6 0.318655 0.004243 0.546326
Si Si7 0.863616 0.863885 0.322738
O O1 0.423470 0.424667 0.708969
O O2 0.378195 0.507078 0.507482
O O3 0.675355 0.442423 0.264126
O O4 0.388743 0.371068 0.467914
O O5 0.640182 0.278340 0.769992
O O6 0.731904 0.423837 0.644848
O O7 0.934135 0.334583 0.567588
O O8 0.561615 0.368615 0.041921
O O9 0.761014 0.143671 0.612949
O O10 0.748950 0.202747 0.873713
O O11 0.113697 0.554300 0.593910
O O12 0.220973 0.428568 0.423026
O O13 0.997488 0.501747 0.465341
O O14 0.870313 0.463774 0.839074
#
# Coordination Sequence:
#
# PCOD9139703 Si02
#       7
#     4   4   4   4   4   4   4
#     4  11  24  39  69 103 136 174 220 284 354 403
#     4  12  24  42  70  99 130 183 235 271 329 411
#     4  12  24  43  73  94 134 185 234 277 328 407
#     4  11  20  36  62  93 136 165 211 282 340 391
#     4  11  21  42  63  96 138 178 219 281 340 404
#     4  12  22  37  64 104 131 168 220 277 346 406
#     4  11  23  43  67  97 135 175 229 282 335 402
#
# _framework density 22.397666999999998
#
# number of rings (size 3 to 8) (size 9 to 14) (size 15 to 20)
#    0.000    0.571    4.286    7.714    0.000    0.000 
#    0.000    0.000    3.143    1.714    0.000    0.000 
#    0.000    0.000    0.000    0.000    0.000    0.000 
#
# Total GULP energy -78011.087142 kJ/mol
# GULP energy per Si atom -5572.220510 kJ/mol
# Density = 2.234669 g / cm^3
# Si number density = 22.397667 Si / 1000 Ang^3
#
#
#
# Elastic Constant Matrix: (Units=GPa)
#
#
# Indices 1 2 3 4 5 6 
#
# 1 87.7968 16.7666 25.3988 -0.0001 -10.1960 0.0001
# 2 16.7666 61.3653 16.4484 0.0000 2.7272 0.0000
# 3 25.3988 16.4484 165.8716 -0.0001 -0.7488 0.0001
# 4 -0.0001 0.0000 -0.0001 32.6516 0.0001 -5.3603
# 5 -10.1960 2.7272 -0.7488 0.0001 44.2802 -0.0001
# 6 0.0001 0.0000 0.0001 -5.3603 -0.0001 24.1403
#
#
#
# Elastic Compliance Matrix: (Units=1/GPa)
#
#
# Indices 1 2 3 4 5 6 
#
# 1 0.012838 -0.003209 -0.001634 0.000000 0.003126 0.000000
# 2 -0.003209 0.017593 -0.001262 0.000000 -0.001844 0.000000
# 3 -0.001634 -0.001262 0.006403 0.000000 -0.000190 0.000000
# 4 0.000000 0.000000 0.000000 0.031785 0.000000 0.007058
# 5 0.003126 -0.001844 -0.000190 0.000000 0.023414 0.000000
# 6 0.000000 0.000000 0.000000 0.007058 0.000000 0.042992
#
#
# Mechanical properties :
#
#
# Convention : Reuss Voigt Hill
#
# Bulk Modulus (GPa) = 40.60693 48.02902 44.31798
# Shear Modulus (GPa) = 32.16654 37.30909 34.73782
#
# Velocity S-wave (km/s) = 3.79378 4.08580 3.94249
# Velocity P-wave (km/s) = 6.11225 6.61428 6.36821
#
# Compressibility (1/GPa) = 0.02462634
#
# Stress axis : x y z
#
# Youngs Moduli (GPa) = 77.89164 56.84188 156.17366
#
# Poissons Ratio (x) = 0.18240 0.25512
# Poissons Ratio (y) = 0.24994 0.19702
# Poissons Ratio (z) = 0.12724 0.07171
#
# Static dielectric constant tensor:
#      x y z
#    x 1.880410 0.000000 -0.047020 
#    y 0.000000 1.907510 0.000000 
#    z -0.047020 0.000000 1.985630 
# 
# From -- ./inp_files/8245.got.cif
#   From: 2010.05.17/outbox.cif.g08.bks.cpg/sg9_5_cif.got.tgz:8245.got - 2010.06.03 20:04:27.
