data_PCOD9139913
_publ_section_title
;
Structure prediction by ZEFSAII (Michael W. Deem and Ramdas Pophale) SiO2 
 PCOD9139913
Probable space group: C C
;
_chemical_formula_sum "Si O2"
_cell_formula_units_Z 32
_cell_length_a 10.600935
_cell_length_b 9.377827
_cell_length_c 20.061704
_cell_angle_alpha 90.000000
_cell_angle_beta 42.147688
_cell_angle_gamma 90.000000
_cell_volume 1338.336021
_symmetry_space_group_name_H-M "C C"
_symmetry_group_IT_number 9
_symmetry_cell_setting 'monoclinic'
loop_
_space_group_symop_operation_xyz
x,y,z
x,-y,1/2+z
1/2+x,1/2+y,z
1/2+x,1/2-y,1/2+z
loop_
_atom_site_type_symbol
_atom_site_label
_atom_site_fract_x
_atom_site_fract_y
_atom_site_fract_z
Si Si1 0.258060 0.467691 0.037280
Si Si2 0.864091 0.293771 0.563885
Si Si3 0.300708 0.380963 0.792754
Si Si4 0.105491 0.048399 0.709942
Si Si5 0.947794 0.734377 0.613402
Si Si6 0.640440 0.721470 0.570210
Si Si7 0.125262 0.100023 0.925166
Si Si8 0.922670 0.490470 0.413832
O O1 0.258728 0.355887 0.097183
O O2 0.169847 0.620286 0.085123
O O3 0.111869 0.385638 0.045697
O O4 0.482030 0.501954 0.937931
O O5 0.749354 0.416667 0.645687
O O6 0.902385 0.360065 0.474974
O O7 0.042010 0.248733 0.538236
O O8 0.409879 0.473247 0.806278
O O9 0.449154 0.327085 0.679761
O O10 0.207642 0.237302 0.856434
O O11 0.139930 0.474656 0.821418
O O12 0.240341 0.163996 0.691880
O O13 0.044444 0.127240 0.664899
O O14 0.994598 0.841782 0.536083
O O15 0.828652 0.629959 0.484667
O O16 0.302896 0.031212 0.893774
#
# Coordination Sequence:
#
# PCOD9139913 Si02
#       8
#     4   4   4   4   4   4   4   4
#     4  12  22  40  76 102 136 184 234 286 350 412
#     4  11  22  40  74 103 130 182 234 283 348 419
#     4  12  28  44  66 108 146 182 232 292 350 416
#     4  11  24  44  66 100 142 182 229 289 348 413
#     4  12  25  47  72 102 139 183 234 291 349 412
#     4  11  22  40  74 103 130 182 234 283 348 419
#     4  12  25  47  72 102 139 183 234 291 349 412
#     4  11  24  44  66 100 142 182 229 289 348 413
#
# _framework density 23.910288000000001
#
# number of rings (size 3 to 8) (size 9 to 14) (size 15 to 20)
#    0.000    0.500    7.500    1.500    0.000    4.000 
#    0.000    0.000    0.000    0.000    0.000    0.000 
#    0.000    0.000    0.000    0.000    0.000    0.000 
#
# Total GULP energy -89264.495277 kJ/mol
# GULP energy per Si atom -5579.030955 kJ/mol
# Density = 2.385587 g / cm^3
# Si number density = 23.910288 Si / 1000 Ang^3
#
#
#
# Elastic Constant Matrix: (Units=GPa)
#
#
# Indices 1 2 3 4 5 6 
#
# 1 127.5784 48.3095 33.7788 0.0000 -32.9489 0.0000
# 2 48.3095 120.8148 4.6340 0.0000 -10.9945 0.0000
# 3 33.7788 4.6340 39.2257 0.0000 -13.4141 0.0000
# 4 0.0000 0.0000 0.0000 30.1042 0.0000 -13.3331
# 5 -32.9489 -10.9945 -13.4141 0.0000 34.8207 0.0000
# 6 0.0000 0.0000 0.0000 -13.3331 0.0000 46.7158
#
#
#
# Elastic Compliance Matrix: (Units=1/GPa)
#
#
# Indices 1 2 3 4 5 6 
#
# 1 0.014033 -0.004504 -0.008635 0.000000 0.008530 0.000000
# 2 -0.004504 0.009968 0.002672 0.000000 -0.000085 0.000000
# 3 -0.008635 0.002672 0.034677 0.000000 0.006031 0.000000
# 4 0.000000 0.000000 0.000000 0.038025 0.000000 0.010853
# 5 0.008530 -0.000085 0.006031 0.000000 0.039086 0.000000
# 6 0.000000 0.000000 0.000000 0.010853 0.000000 0.024503
#
#
# Mechanical properties :
#
#
# Convention : Reuss Voigt Hill
#
# Bulk Modulus (GPa) = 26.49532 51.22929 38.86230
# Shear Modulus (GPa) = 25.79873 35.72124 30.75998
#
# Velocity S-wave (km/s) = 3.28835 3.86938 3.59064
# Velocity P-wave (km/s) = 5.05201 6.43700 5.78610
#
# Compressibility (1/GPa) = 0.03774251
#
# Stress axis : x y z
#
# Youngs Moduli (GPa) = 71.25962 100.32264 28.83792
#
# Poissons Ratio (x) = 0.45184 0.24903
# Poissons Ratio (y) = 0.32094 -0.07705
# Poissons Ratio (z) = 0.61536 -0.26804
#
# Static dielectric constant tensor:
#      x y z
#    x 2.057590 0.000000 -0.053690 
#    y 0.000000 1.876520 0.000000 
#    z -0.053690 0.000000 1.920820 
# 
# From -- ./inp_files/33129.got.cif
#   From: 2010.05.17/outbox.cif.g08.bks.cpg/sg9_17_cif.got.tgz:33129.got - 2010.06.03 20:04:27.
