data_PCOD9139321
_publ_section_title
;
Structure prediction by ZEFSAII (Michael W. Deem and Ramdas Pophale) SiO2 
 PCOD9139321
Probable space group: C C
;
_chemical_formula_sum "Si O2"
_cell_formula_units_Z 28
_cell_length_a 11.306753
_cell_length_b 11.839037
_cell_length_c 17.610711
_cell_angle_alpha 90.000000
_cell_angle_beta 150.870939
_cell_angle_gamma 90.000000
_cell_volume 1147.526080
_symmetry_space_group_name_H-M "C C"
_symmetry_group_IT_number 9
_symmetry_cell_setting 'monoclinic'
loop_
_space_group_symop_operation_xyz
x,y,z
x,-y,1/2+z
1/2+x,1/2+y,z
1/2+x,1/2-y,1/2+z
loop_
_atom_site_type_symbol
_atom_site_label
_atom_site_fract_x
_atom_site_fract_y
_atom_site_fract_z
Si Si1 0.392550 0.993901 0.009250
Si Si2 0.726908 0.305296 0.508694
Si Si3 0.466269 0.437230 0.497780
Si Si4 0.722235 0.810210 0.659331
Si Si5 0.025479 0.685494 0.707890
Si Si6 0.339123 0.870241 0.818700
Si Si7 0.295660 0.682908 0.359212
O O1 0.410414 0.914143 0.093117
O O2 0.213015 0.095328 0.936041
O O3 0.642374 0.060503 0.127429
O O4 0.345927 0.921784 0.907327
O O5 0.590732 0.363386 0.502769
O O6 0.590483 0.182693 0.426299
O O7 0.007241 0.297895 0.694468
O O8 0.219071 0.367993 0.376047
O O9 0.681272 0.455064 0.678878
O O10 0.366347 0.554338 0.410926
O O11 0.463693 0.746070 0.512923
O O12 0.870711 0.777491 0.817017
O O13 0.857584 0.769122 0.661273
O O14 0.166058 0.761075 0.725586
#
# Coordination Sequence:
#
# PCOD9139321 Si02
#       7
#     4   4   4   4   4   4   4
#     4  11  25  53  75 113 153 207 254 330 393 457
#     4  10  24  49  80 106 162 205 260 326 391 470
#     4  11  24  47  77 116 156 208 258 331 396 463
#     4  11  27  46  76 113 152 204 263 321 394 475
#     4  11  23  48  76 109 157 203 258 322 395 469
#     4  11  27  45  81 114 152 207 269 317 398 473
#     4  11  26  48  75 113 156 204 266 327 395 467
#
# _framework density 24.400314999999999
#
# number of rings (size 3 to 8) (size 9 to 14) (size 15 to 20)
#    0.000    1.143    2.857    2.571   12.000    0.000 
#    5.143    0.000    0.000    0.000    0.000    0.000 
#    0.000    0.000    0.000    0.000    0.000    0.000 
#
# Total GULP energy -78110.747352 kJ/mol
# GULP energy per Si atom -5579.339097 kJ/mol
# Density = 2.434478 g / cm^3
# Si number density = 24.400315 Si / 1000 Ang^3
#
#
#
# Elastic Constant Matrix: (Units=GPa)
#
#
# Indices 1 2 3 4 5 6 
#
# 1 82.8514 30.4233 37.2914 0.0011 8.1511 0.0009
# 2 30.4233 42.0123 47.3820 0.0029 -9.0243 0.0013
# 3 37.2914 47.3820 143.0913 0.0042 -5.2826 0.0023
# 4 0.0011 0.0029 0.0042 23.4132 0.0022 -4.5812
# 5 8.1511 -9.0243 -5.2826 0.0022 34.4158 0.0012
# 6 0.0009 0.0013 0.0023 -4.5812 0.0012 46.3743
#
#
#
# Elastic Compliance Matrix: (Units=1/GPa)
#
#
# Indices 1 2 3 4 5 6 
#
# 1 0.018460 -0.014976 -0.000159 0.000002 -0.008323 0.000000
# 2 -0.014976 0.052512 -0.012919 -0.000005 0.015333 -0.000001
# 3 -0.000159 -0.012919 0.011248 0.000000 -0.001623 0.000000
# 4 0.000002 -0.000005 0.000000 0.043553 -0.000005 0.004302
# 5 -0.008323 0.015333 -0.001623 -0.000005 0.034799 -0.000002
# 6 0.000000 -0.000001 0.000000 0.004302 -0.000002 0.021989
#
#
# Mechanical properties :
#
#
# Convention : Reuss Voigt Hill
#
# Bulk Modulus (GPa) = 38.29871 55.34982 46.82426
# Shear Modulus (GPa) = 20.21250 31.03121 25.62186
#
# Velocity S-wave (km/s) = 2.88127 3.57004 3.24398
# Velocity P-wave (km/s) = 5.17677 6.30292 5.76740
#
# Compressibility (1/GPa) = 0.02611054
#
# Stress axis : x y z
#
# Youngs Moduli (GPa) = 54.17264 19.04345 88.90469
#
# Poissons Ratio (x) = 0.28519 0.01414
# Poissons Ratio (y) = 0.81129 1.14858
# Poissons Ratio (z) = 0.00862 0.24603
#
# Static dielectric constant tensor:
#      x y z
#    x 2.098040 0.000000 0.077670 
#    y 0.000000 2.026180 0.000000 
#    z 0.077670 0.000000 2.015630 
# 
# From -- ./inp_files/30103.got.cif
#   From: 2010.05.17/outbox.cif.g08.bks.cpg/sg9_16_cif.got.tgz:30103.got - 2010.06.03 20:04:27.
