data_PCOD9139012
_publ_section_title
;
Structure prediction by ZEFSAII (Michael W. Deem and Ramdas Pophale) SiO2 
 PCOD9139012
Probable space group: C C
;
_chemical_formula_sum "Si O2"
_cell_formula_units_Z 32
_cell_length_a 5.243340
_cell_length_b 29.208134
_cell_length_c 8.630892
_cell_angle_alpha 90.000000
_cell_angle_beta 111.880502
_cell_angle_gamma 90.000000
_cell_volume 1226.586656
_symmetry_space_group_name_H-M "C C"
_symmetry_group_IT_number 9
_symmetry_cell_setting 'monoclinic'
loop_
_space_group_symop_operation_xyz
x,y,z
x,-y,1/2+z
1/2+x,1/2+y,z
1/2+x,1/2-y,1/2+z
loop_
_atom_site_type_symbol
_atom_site_label
_atom_site_fract_x
_atom_site_fract_y
_atom_site_fract_z
Si Si1 0.055350 0.448620 0.626500
Si Si2 0.008568 0.938955 0.326178
Si Si3 0.370329 0.178082 0.104434
Si Si4 0.108673 0.741988 0.741918
Si Si5 0.453321 0.627162 0.227226
Si Si6 0.763223 0.022611 0.477601
Si Si7 0.087421 0.810587 0.996628
Si Si8 0.444214 0.336676 0.291908
O O1 0.346722 0.423096 0.665483
O O2 0.071795 0.499377 0.562603
O O3 0.066748 0.449174 0.815876
O O4 0.809166 0.429355 0.467293
O O5 0.862269 0.889112 0.299632
O O6 0.891969 0.981630 0.401363
O O7 0.986914 0.952657 0.138567
O O8 0.305408 0.226102 0.176853
O O9 0.666116 0.154908 0.180380
O O10 0.152743 0.145395 0.142204
O O11 0.260250 0.174594 0.904865
O O12 0.981888 0.775004 0.843170
O O13 0.289144 0.701581 0.856097
O O14 0.869102 0.714738 0.601931
O O15 0.616082 0.640180 0.419920
O O16 0.908287 0.821453 0.105917
#
# Coordination Sequence:
#
# PCOD9139012 Si02
#       8
#     4   4   4   4   4   4   4   4
#     4  11  22  44  73 103 152 190 248 313 388 456
#     4  11  23  46  71 110 146 192 249 313 387 458
#     4  11  26  48  74 104 150 196 256 303 379 435
#     4  11  27  47  67 105 145 204 249 322 367 449
#     4  11  26  48  74 110 145 201 247 317 373 455
#     4  10  24  43  72 110 142 193 248 310 391 468
#     4  11  28  44  70 100 146 192 258 309 376 437
#     4  12  26  42  75 104 142 202 253 313 367 468
#
# _framework density 26.088660000000001
#
# number of rings (size 3 to 8) (size 9 to 14) (size 15 to 20)
#    0.000    1.000    2.500    2.250   10.500    1.000 
#    0.000    2.500    0.000    0.000    0.000    0.000 
#    0.000    0.000    0.000    0.000    0.000    0.000 
#
# Total GULP energy -89322.823152 kJ/mol
# GULP energy per Si atom -5582.676447 kJ/mol
# Density = 2.602928 g / cm^3
# Si number density = 26.088660 Si / 1000 Ang^3
#
#
#
# Elastic Constant Matrix: (Units=GPa)
#
#
# Indices 1 2 3 4 5 6 
#
# 1 66.2189 11.2642 16.9901 0.0000 -0.0760 0.0000
# 2 11.2642 110.7333 40.8912 0.0000 -2.5981 0.0000
# 3 16.9901 40.8912 143.6368 0.0000 -6.6556 0.0000
# 4 0.0000 0.0000 0.0000 48.9753 0.0000 -3.4408
# 5 -0.0760 -2.5981 -6.6556 0.0000 34.4108 0.0000
# 6 0.0000 0.0000 0.0000 -3.4408 0.0000 43.2796
#
#
#
# Elastic Compliance Matrix: (Units=1/GPa)
#
#
# Indices 1 2 3 4 5 6 
#
# 1 0.015680 -0.001020 -0.001581 0.000000 -0.000348 0.000000
# 2 -0.001020 0.010159 -0.002761 0.000000 0.000231 0.000000
# 3 -0.001581 -0.002761 0.007997 0.000000 0.001335 0.000000
# 4 0.000000 0.000000 0.000000 0.020533 0.000000 0.001632
# 5 -0.000348 0.000231 0.001335 0.000000 0.029335 0.000000
# 6 0.000000 0.000000 0.000000 0.001632 0.000000 0.023235
#
#
# Mechanical properties :
#
#
# Convention : Reuss Voigt Hill
#
# Bulk Modulus (GPa) = 43.26367 50.98667 47.12517
# Shear Modulus (GPa) = 39.88293 42.09604 40.98949
#
# Velocity S-wave (km/s) = 3.91416 4.02129 3.96809
# Velocity P-wave (km/s) = 6.08661 6.41460 6.25276
#
# Compressibility (1/GPa) = 0.02311408
#
# Stress axis : x y z
#
# Youngs Moduli (GPa) = 63.77556 98.43121 125.04988
#
# Poissons Ratio (x) = 0.10035 0.19765
# Poissons Ratio (y) = 0.06502 0.34525
# Poissons Ratio (z) = 0.10080 0.27176
#
# Static dielectric constant tensor:
#      x y z
#    x 2.078440 0.000000 -0.026280 
#    y 0.000000 2.145020 0.000000 
#    z -0.026280 0.000000 2.259360 
# 
# From -- ./inp_files/4555.got.cif
#   From: 2010.05.17/outbox.cif.g08.bks.cpg/sg9_3_cif.got.tgz:4555.got - 2010.06.03 20:04:27.
