data_PCOD9139289
_publ_section_title
;
Structure prediction by ZEFSAII (Michael W. Deem and Ramdas Pophale) SiO2 
 PCOD9139289
Probable space group: C C
;
_chemical_formula_sum "Si O2"
_cell_formula_units_Z 32
_cell_length_a 9.441012
_cell_length_b 12.269354
_cell_length_c 14.527825
_cell_angle_alpha 90.000000
_cell_angle_beta 48.052956
_cell_angle_gamma 90.000000
_cell_volume 1251.628347
_symmetry_space_group_name_H-M "C C"
_symmetry_group_IT_number 9
_symmetry_cell_setting 'monoclinic'
loop_
_space_group_symop_operation_xyz
x,y,z
x,-y,1/2+z
1/2+x,1/2+y,z
1/2+x,1/2-y,1/2+z
loop_
_atom_site_type_symbol
_atom_site_label
_atom_site_fract_x
_atom_site_fract_y
_atom_site_fract_z
Si Si1 0.768530 0.001767 0.828730
Si Si2 0.445915 0.669524 0.389117
Si Si3 0.235712 0.978415 0.869360
Si Si4 0.733623 0.681310 0.745589
Si Si5 0.624967 0.222120 0.644778
Si Si6 0.291116 0.680876 0.961595
Si Si7 0.167009 0.094532 0.586121
Si Si8 0.643659 0.035351 0.180197
O O1 0.966765 0.047555 0.703137
O O2 0.812303 0.904351 0.880682
O O3 0.666304 0.962776 0.780646
O O4 0.703176 0.103435 0.920674
O O5 0.560167 0.590029 0.407262
O O6 0.598709 0.726118 0.256106
O O7 0.308627 0.750081 0.504662
O O8 0.431074 0.924924 0.749811
O O9 0.229871 0.097777 0.830959
O O10 0.243595 0.984242 0.975251
O O11 0.776359 0.614952 0.633347
O O12 0.924911 0.749600 0.680406
O O13 0.509911 0.715634 0.839896
O O14 0.648927 0.091375 0.648278
O O15 0.171221 0.788505 0.034102
O O16 0.283966 0.609702 0.059044
#
# Coordination Sequence:
#
# PCOD9139289 Si02
#       8
#     4   4   4   4   4   4   4   4
#     4  11  25  49  73 105 144 203 238 320 380 453
#     4  12  26  50  75 106 160 194 258 317 386 453
#     4  11  25  47  73 109 152 194 249 320 381 462
#     4  10  24  48  69 111 147 196 254 310 387 457
#     4  11  27  46  75 109 150 201 255 319 381 463
#     4  11  24  45  76 107 152 188 255 318 374 465
#     4  11  25  40  78 105 148 197 249 308 385 452
#     4  11  26  45  75 106 145 195 250 308 392 451
#
# _framework density 25.566693000000001
#
# number of rings (size 3 to 8) (size 9 to 14) (size 15 to 20)
#    0.000    1.000    3.750    1.500   10.500    3.000 
#    0.000    0.000    0.000    0.000    0.000    0.000 
#    0.000    0.000    0.000    0.000    0.000    0.000 
#
# Total GULP energy -89517.462672 kJ/mol
# GULP energy per Si atom -5594.841417 kJ/mol
# Density = 2.550850 g / cm^3
# Si number density = 25.566693 Si / 1000 Ang^3
#
#
#
# Elastic Constant Matrix: (Units=GPa)
#
#
# Indices 1 2 3 4 5 6 
#
# 1 73.9077 -13.4145 13.8319 0.0000 0.6457 0.0000
# 2 -13.4145 52.5678 5.3803 0.0000 6.1056 0.0000
# 3 13.8319 5.3803 125.5352 -0.0001 9.1024 0.0000
# 4 0.0000 0.0000 -0.0001 34.7000 0.0000 12.5252
# 5 0.6457 6.1056 9.1024 0.0000 45.1167 0.0000
# 6 0.0000 0.0000 0.0000 12.5252 0.0000 27.3260
#
#
#
# Elastic Compliance Matrix: (Units=1/GPa)
#
#
# Indices 1 2 3 4 5 6 
#
# 1 0.014577 0.003944 -0.001747 0.000000 -0.000390 0.000000
# 2 0.003944 0.020446 -0.001123 0.000000 -0.002597 0.000000
# 3 -0.001747 -0.001123 0.008315 0.000000 -0.001501 0.000000
# 4 0.000000 0.000000 0.000000 0.034532 0.000000 -0.015828
# 5 -0.000390 -0.002597 -0.001501 0.000000 0.022825 0.000000
# 6 0.000000 0.000000 0.000000 -0.015828 0.000000 0.043850
#
#
# Mechanical properties :
#
#
# Convention : Reuss Voigt Hill
#
# Bulk Modulus (GPa) = 21.98449 29.28955 25.63702
# Shear Modulus (GPa) = 31.73444 37.84276 34.78860
#
# Velocity S-wave (km/s) = 3.52695 3.85146 3.69277
# Velocity P-wave (km/s) = 5.02029 5.59100 5.31332
#
# Compressibility (1/GPa) = 0.04548661
#
# Stress axis : x y z
#
# Youngs Moduli (GPa) = 68.60340 48.90944 120.26038
#
# Poissons Ratio (x) = -0.19289 0.21008
# Poissons Ratio (y) = -0.27056 0.13500
# Poissons Ratio (z) = 0.11984 0.05490
#
# Static dielectric constant tensor:
#      x y z
#    x 2.038370 0.000000 -0.024200 
#    y 0.000000 2.046620 0.000000 
#    z -0.024200 0.000000 2.042570 
# 
# From -- ./inp_files/23362.got.cif
#   From: 2010.05.17/outbox.cif.g08.bks.cpg/sg9_12_cif.got.tgz:23362.got - 2010.06.03 20:04:27.
