data_PCOD9139535
_publ_section_title
;
Structure prediction by ZEFSAII (Michael W. Deem and Ramdas Pophale) SiO2 
 PCOD9139535
Probable space group: C C
;
_chemical_formula_sum "Si O2"
_cell_formula_units_Z 20
_cell_length_a 23.708420
_cell_length_b 5.117595
_cell_length_c 9.577484
_cell_angle_alpha 90.000000
_cell_angle_beta 40.176964
_cell_angle_gamma 90.000000
_cell_volume 749.688815
_symmetry_space_group_name_H-M "C C"
_symmetry_group_IT_number 9
_symmetry_cell_setting 'monoclinic'
loop_
_space_group_symop_operation_xyz
x,y,z
x,-y,1/2+z
1/2+x,1/2+y,z
1/2+x,1/2-y,1/2+z
loop_
_atom_site_type_symbol
_atom_site_label
_atom_site_fract_x
_atom_site_fract_y
_atom_site_fract_z
Si Si1 0.361510 0.698310 0.378380
Si Si2 0.582033 0.155607 0.271516
Si Si3 0.325008 0.968288 0.180430
Si Si4 0.694187 0.080157 0.329439
Si Si5 0.965129 0.852715 0.927179
O O1 0.365309 0.755133 0.208575
O O2 0.274405 0.552555 0.593649
O O3 0.443404 0.579972 0.305374
O O4 0.355507 0.985518 0.463812
O O5 0.529684 0.422812 0.355199
O O6 0.621171 0.133949 0.352177
O O7 0.519812 0.911666 0.351225
O O8 0.659683 0.116372 0.012522
O O9 0.229325 0.843175 0.338620
O O10 0.367232 0.241025 0.158391
#
# Coordination Sequence:
#
# PCOD9139535 Si02
#       5
#     4   4   4   4   4
#     4  10  25  49  79 113 154 221 271 331 387 508
#     4  12  29  50  77 125 163 210 260 355 403 476
#     4  10  25  49  80 116 154 225 270 332 390 511
#     4  12  27  46  82 118 167 208 279 329 416 469
#     4  10  28  50  80 110 168 206 270 325 418 472
#
# _framework density 26.677734000000001
#
# number of rings (size 3 to 8) (size 9 to 14) (size 15 to 20)
#    1.200    0.000    2.000    1.200   11.200    0.000 
#    3.600    0.000    0.000    0.000    0.000    0.000 
#    0.000    0.000    0.000    0.000    0.000    0.000 
#
# Total GULP energy -55756.008092 kJ/mol
# GULP energy per Si atom -5575.600809 kJ/mol
# Density = 2.661701 g / cm^3
# Si number density = 26.677734 Si / 1000 Ang^3
#
#
#
# Elastic Constant Matrix: (Units=GPa)
#
#
# Indices 1 2 3 4 5 6 
#
# 1 159.7067 62.4828 16.8672 0.0001 -3.0691 0.0001
# 2 62.4828 200.2912 47.6669 -0.0002 -9.1850 0.0009
# 3 16.8672 47.6669 111.6007 -0.0001 -10.2405 0.0002
# 4 0.0001 -0.0002 -0.0001 32.2621 -0.0001 -25.3772
# 5 -3.0691 -9.1850 -10.2405 -0.0001 31.4683 0.0002
# 6 0.0001 0.0009 0.0002 -25.3772 0.0002 55.6363
#
#
#
# Elastic Compliance Matrix: (Units=1/GPa)
#
#
# Indices 1 2 3 4 5 6 
#
# 1 0.007134 -0.002191 -0.000141 0.000000 0.000010 0.000000
# 2 -0.002191 0.006254 -0.002260 0.000000 0.000876 0.000000
# 3 -0.000141 -0.002260 0.010190 0.000000 0.002643 0.000000
# 4 0.000000 0.000000 0.000000 0.048340 0.000000 0.022049
# 5 0.000010 0.000876 0.002643 0.000000 0.032895 0.000000
# 6 0.000000 0.000000 0.000000 0.022049 0.000000 0.028031
#
#
# Mechanical properties :
#
#
# Convention : Reuss Voigt Hill
#
# Bulk Modulus (GPa) = 69.47841 80.62584 75.05212
# Shear Modulus (GPa) = 34.05394 46.84546 40.44970
#
# Velocity S-wave (km/s) = 3.57668 4.19498 3.89811
# Velocity P-wave (km/s) = 6.56940 7.33155 6.96091
#
# Compressibility (1/GPa) = 0.01439296
#
# Stress axis : x y z
#
# Youngs Moduli (GPa) = 140.17471 159.88881 98.13995
#
# Poissons Ratio (x) = 0.35038 0.01387
# Poissons Ratio (y) = 0.30718 0.22177
# Poissons Ratio (z) = 0.01980 0.36131
#
# Static dielectric constant tensor:
#      x y z
#    x 2.105120 0.000000 0.006430 
#    y 0.000000 2.158860 0.000000 
#    z 0.006430 0.000000 2.206120 
# 
# From -- ./inp_files/11103.got.cif
#   From: 2010.05.17/outbox.cif.g08.bks.cpg/sg9_6_cif.got.tgz:11103.got - 2010.06.03 20:04:27.
