data_PCOD9139312
_publ_section_title
;
Structure prediction by ZEFSAII (Michael W. Deem and Ramdas Pophale) SiO2 
 PCOD9139312
Probable space group: C C
;
_chemical_formula_sum "Si O2"
_cell_formula_units_Z 20
_cell_length_a 5.012966
_cell_length_b 17.274936
_cell_length_c 8.826489
_cell_angle_alpha 90.000000
_cell_angle_beta 97.408565
_cell_angle_gamma 90.000000
_cell_volume 757.981207
_symmetry_space_group_name_H-M "C C"
_symmetry_group_IT_number 9
_symmetry_cell_setting 'monoclinic'
loop_
_space_group_symop_operation_xyz
x,y,z
x,-y,1/2+z
1/2+x,1/2+y,z
1/2+x,1/2-y,1/2+z
loop_
_atom_site_type_symbol
_atom_site_label
_atom_site_fract_x
_atom_site_fract_y
_atom_site_fract_z
Si Si1 0.053810 0.825606 0.400950
Si Si2 0.817617 0.162760 0.181920
Si Si3 0.330889 0.090768 0.334623
Si Si4 0.908495 0.203042 0.594820
Si Si5 0.232508 0.931145 0.163743
O O1 0.206163 0.751319 0.479768
O O2 0.260939 0.876977 0.317079
O O3 0.914945 0.870427 0.527211
O O4 0.829411 0.798835 0.265903
O O5 0.583015 0.119505 0.254429
O O6 0.684614 0.245500 0.124837
O O7 0.089124 0.153321 0.299307
O O8 0.393117 0.073327 0.516418
O O9 0.228678 0.014402 0.238939
O O10 0.965650 0.112221 0.580456
#
# Coordination Sequence:
#
# PCOD9139312 Si02
#       5
#     4   4   4   4   4
#     4  10  24  50  81 118 151 212 266 330 393 466
#     4  12  26  49  83 111 164 203 269 325 395 477
#     4  12  27  53  73 123 156 213 259 328 406 474
#     4  10  24  48  84 114 157 204 276 320 398 464
#     4  10  27  50  81 116 160 212 260 335 394 481
#
# _framework density 26.385878000000002
#
# number of rings (size 3 to 8) (size 9 to 14) (size 15 to 20)
#    1.200    0.000    2.000    2.400    2.800    4.800 
#    7.200    0.000    0.000    0.000    0.000    0.000 
#    0.000    0.000    0.000    0.000    0.000    0.000 
#
# Total GULP energy -55701.859294 kJ/mol
# GULP energy per Si atom -5570.185929 kJ/mol
# Density = 2.632582 g / cm^3
# Si number density = 26.385878 Si / 1000 Ang^3
#
#
#
# Elastic Constant Matrix: (Units=GPa)
#
#
# Indices 1 2 3 4 5 6 
#
# 1 125.3355 56.7325 48.8732 0.0000 -24.1368 0.0000
# 2 56.7325 133.1138 23.5437 0.0000 -23.1499 0.0000
# 3 48.8732 23.5437 153.8921 0.0000 -30.7994 0.0000
# 4 0.0000 0.0000 0.0000 51.2346 0.0000 -4.6877
# 5 -24.1368 -23.1499 -30.7994 0.0000 29.5736 0.0000
# 6 0.0000 0.0000 0.0000 -4.6877 0.0000 17.8868
#
#
#
# Elastic Compliance Matrix: (Units=1/GPa)
#
#
# Indices 1 2 3 4 5 6 
#
# 1 0.011301 -0.003730 -0.002219 0.000000 0.003993 0.000000
# 2 -0.003730 0.009927 0.000773 0.000000 0.005532 0.000000
# 3 -0.002219 0.000773 0.008645 0.000000 0.007797 0.000000
# 4 0.000000 0.000000 0.000000 0.019998 0.000000 0.005241
# 5 0.003993 0.005532 0.007797 0.000000 0.049523 0.000000
# 6 0.000000 0.000000 0.000000 0.005241 0.000000 0.057281
#
#
# Mechanical properties :
#
#
# Convention : Reuss Voigt Hill
#
# Bulk Modulus (GPa) = 51.22619 74.51557 62.87088
# Shear Modulus (GPa) = 28.81277 38.61847 33.71562
#
# Velocity S-wave (km/s) = 3.30809 3.82986 3.57850
# Velocity P-wave (km/s) = 5.83504 6.91803 6.39948
#
# Compressibility (1/GPa) = 0.01952126
#
# Stress axis : x y z
#
# Youngs Moduli (GPa) = 88.48726 100.73291 115.67212
#
# Poissons Ratio (x) = 0.37569 0.25672
# Poissons Ratio (y) = 0.33002 -0.08939
# Poissons Ratio (z) = 0.19638 -0.07785
#
# Static dielectric constant tensor:
#      x y z
#    x 2.068550 0.000000 -0.048330 
#    y 0.000000 2.112550 0.000000 
#    z -0.048330 0.000000 2.289240 
# 
# From -- ./inp_files/3730.got.cif
#   From: 2010.05.17/outbox.cif.g08.bks.cpg/sg9_2_cif.got.tgz:3730.got - 2010.06.03 20:04:27.
