data_PCOD9139496
_publ_section_title
;
Structure prediction by ZEFSAII (Michael W. Deem and Ramdas Pophale) SiO2 
 PCOD9139496
Probable space group: C C
;
_chemical_formula_sum "Si O2"
_cell_formula_units_Z 32
_cell_length_a 11.211508
_cell_length_b 19.145378
_cell_length_c 8.522631
_cell_angle_alpha 90.000000
_cell_angle_beta 129.956455
_cell_angle_gamma 90.000000
_cell_volume 1402.272356
_symmetry_space_group_name_H-M "C C"
_symmetry_group_IT_number 9
_symmetry_cell_setting 'monoclinic'
loop_
_space_group_symop_operation_xyz
x,y,z
x,-y,1/2+z
1/2+x,1/2+y,z
1/2+x,1/2-y,1/2+z
loop_
_atom_site_type_symbol
_atom_site_label
_atom_site_fract_x
_atom_site_fract_y
_atom_site_fract_z
Si Si1 0.841370 0.407151 0.208610
Si Si2 0.755127 0.526400 0.323656
Si Si3 0.476623 0.257247 0.130740
Si Si4 0.164115 0.638995 0.855707
Si Si5 0.904043 0.973047 0.414827
Si Si6 0.320280 0.594739 0.529941
Si Si7 0.762174 0.255723 0.183142
Si Si8 0.497009 0.139264 0.390648
O O1 0.808742 0.446863 0.341012
O O2 0.752798 0.334279 0.114155
O O3 0.023665 0.396638 0.332961
O O4 0.772928 0.457940 0.020645
O O5 0.579575 0.536018 0.119886
O O6 0.871263 0.581535 0.336340
O O7 0.414574 0.333373 0.120446
O O8 0.660852 0.249945 0.257735
O O9 0.431921 0.200916 0.225075
O O10 0.430010 0.246935 0.908024
O O11 0.078811 0.665845 0.622681
O O12 0.289116 0.581703 0.905132
O O13 0.236740 0.698809 0.027523
O O14 0.889433 0.955199 0.221011
O O15 0.848228 0.052395 0.395167
O O16 0.139082 0.605364 0.413429
#
# Coordination Sequence:
#
# PCOD9139496 Si02
#       8
#     4   4   4   4   4   4   4   4
#     4  11  25  45  67 103 136 183 225 281 346 402
#     4  11  25  42  71 101 139 177 230 282 338 409
#     4  12  26  45  71 102 139 179 230 282 341 407
#     4  10  25  47  70 102 136 184 226 284 346 404
#     4  11  25  42  71 101 139 177 230 282 338 409
#     4  11  25  45  67 103 136 183 225 281 346 402
#     4  12  26  45  71 102 139 179 230 282 341 407
#     4  10  25  47  70 102 136 184 226 284 346 404
#
# _framework density 22.820103
#
# number of rings (size 3 to 8) (size 9 to 14) (size 15 to 20)
#    0.000    1.000    2.500    2.250    7.000    5.000 
#    0.000    0.000    0.000    0.000    0.000    0.000 
#    0.000    0.000    0.000    0.000    0.000    0.000 
#
# Total GULP energy -89464.219085 kJ/mol
# GULP energy per Si atom -5591.513693 kJ/mol
# Density = 2.276816 g / cm^3
# Si number density = 22.820103 Si / 1000 Ang^3
#
#
#
# Elastic Constant Matrix: (Units=GPa)
#
#
# Indices 1 2 3 4 5 6 
#
# 1 53.7066 8.6469 0.2393 0.0000 11.6880 0.0000
# 2 8.6469 89.4799 37.8219 0.0000 -5.3899 0.0000
# 3 0.2393 37.8219 91.3227 0.0000 -3.2407 0.0000
# 4 0.0000 0.0000 0.0000 34.4765 0.0000 -20.4695
# 5 11.6880 -5.3899 -3.2407 0.0000 19.0100 0.0000
# 6 0.0000 0.0000 0.0000 -20.4695 0.0000 38.5332
#
#
#
# Elastic Compliance Matrix: (Units=1/GPa)
#
#
# Indices 1 2 3 4 5 6 
#
# 1 0.022326 -0.003383 0.000826 0.000000 -0.014545 0.000000
# 2 -0.003383 0.014221 -0.005698 0.000000 0.005141 0.000000
# 3 0.000826 -0.005698 0.013313 0.000000 0.000146 0.000000
# 4 0.000000 0.000000 0.000000 0.042368 0.000000 0.022507
# 5 -0.014545 0.005141 0.000146 0.000000 0.063029 0.000000
# 6 0.000000 0.000000 0.000000 0.022507 0.000000 0.037908
#
#
# Mechanical properties :
#
#
# Convention : Reuss Voigt Hill
#
# Bulk Modulus (GPa) = 29.98469 36.43613 33.21041
# Shear Modulus (GPa) = 22.64583 30.92402 26.78493
#
# Velocity S-wave (km/s) = 3.15360 3.68519 3.42971
# Velocity P-wave (km/s) = 5.14085 5.84028 5.50169
#
# Compressibility (1/GPa) = 0.03335035
#
# Stress axis : x y z
#
# Youngs Moduli (GPa) = 44.79070 70.31916 75.11336
#
# Poissons Ratio (x) = 0.23788 -0.06207
# Poissons Ratio (y) = 0.15152 0.42802
# Poissons Ratio (z) = -0.03702 0.40071
#
# Static dielectric constant tensor:
#      x y z
#    x 1.837630 0.000000 -0.018930 
#    y 0.000000 1.850900 0.000000 
#    z -0.018930 0.000000 1.850860 
# 
# From -- ./inp_files/8321.got.cif
#   From: 2010.05.17/outbox.cif.g08.bks.cpg/sg9_5_cif.got.tgz:8321.got - 2010.06.03 20:04:27.
