data_PCOD9139103
_publ_section_title
;
Structure prediction by ZEFSAII (Michael W. Deem and Ramdas Pophale) SiO2 
 PCOD9139103
Probable space group: C C
;
_chemical_formula_sum "Si O2"
_cell_formula_units_Z 32
_cell_length_a 21.458807
_cell_length_b 15.250249
_cell_length_c 8.604958
_cell_angle_alpha 90.000000
_cell_angle_beta 30.236109
_cell_angle_gamma 90.000000
_cell_volume 1418.033190
_symmetry_space_group_name_H-M "C C"
_symmetry_group_IT_number 9
_symmetry_cell_setting 'monoclinic'
loop_
_space_group_symop_operation_xyz
x,y,z
x,-y,1/2+z
1/2+x,1/2+y,z
1/2+x,1/2-y,1/2+z
loop_
_atom_site_type_symbol
_atom_site_label
_atom_site_fract_x
_atom_site_fract_y
_atom_site_fract_z
Si Si1 0.982920 0.416044 0.228190
Si Si2 0.054363 0.054219 0.347870
Si Si3 0.222906 0.027227 0.278514
Si Si4 0.439097 0.712642 0.722211
Si Si5 0.299847 0.191481 0.279376
Si Si6 0.175083 0.680939 0.818565
Si Si7 0.129980 0.475855 0.626694
Si Si8 0.363382 0.403621 0.682731
O O1 0.865989 0.475204 0.423259
O O2 0.919734 0.323769 0.407606
O O3 0.033845 0.449685 0.282610
O O4 0.087103 0.424850 0.873210
O O5 0.962388 0.135807 0.546381
O O6 0.134758 0.060486 0.331938
O O7 0.154929 0.056091 0.994569
O O8 0.975689 0.964143 0.503303
O O9 0.232352 0.098053 0.400356
O O10 0.339599 0.778605 0.863333
O O11 0.566222 0.765567 0.471215
O O12 0.401235 0.659717 0.958941
O O13 0.216889 0.263544 0.376598
O O14 0.291985 0.656743 0.460370
O O15 0.125373 0.589852 0.992026
O O16 0.261491 0.523448 0.352934
#
# Coordination Sequence:
#
# PCOD9139103 Si02
#       8
#     4   4   4   4   4   4   4   4
#     4  10  24  45  71 103 140 194 242 300 366 446
#     4  12  22  48  71 103 142 192 251 301 361 457
#     4  10  24  44  72 101 143 189 251 294 369 447
#     4  12  26  48  69 105 152 189 243 314 376 438
#     4  10  25  46  66 103 145 182 238 302 371 432
#     4  12  26  46  68 110 141 188 245 307 380 436
#     4  12  24  45  73 101 144 186 252 299 367 455
#     4  12  27  46  72 108 141 200 246 303 374 451
#
# _framework density 22.566468
#
# number of rings (size 3 to 8) (size 9 to 14) (size 15 to 20)
#    0.750    0.000    3.750    3.000    5.250    0.000 
#    2.250    0.000    0.000    0.000    0.000    0.000 
#    0.000    0.000    0.000    0.000    0.000    0.000 
#
# Total GULP energy -89307.003931 kJ/mol
# GULP energy per Si atom -5581.687746 kJ/mol
# Density = 2.251511 g / cm^3
# Si number density = 22.566468 Si / 1000 Ang^3
#
#
#
# Elastic Constant Matrix: (Units=GPa)
#
#
# Indices 1 2 3 4 5 6 
#
# 1 76.2485 15.2552 14.2163 0.0000 -26.0677 0.0000
# 2 15.2552 52.3323 28.2546 0.0000 -3.2576 0.0000
# 3 14.2163 28.2546 83.5566 0.0000 -2.4825 0.0000
# 4 0.0000 0.0000 0.0000 37.0324 0.0000 -5.0904
# 5 -26.0677 -3.2576 -2.4825 0.0000 37.5148 0.0000
# 6 0.0000 0.0000 0.0000 -5.0904 0.0000 48.5549
#
#
#
# Elastic Compliance Matrix: (Units=1/GPa)
#
#
# Indices 1 2 3 4 5 6 
#
# 1 0.018365 -0.003788 -0.001477 0.000000 0.012335 0.000000
# 2 -0.003788 0.024244 -0.007584 0.000000 -0.001029 0.000000
# 3 -0.001477 -0.007584 0.014763 0.000000 -0.000708 0.000000
# 4 0.000000 0.000000 0.000000 0.027398 0.000000 0.002872
# 5 0.012335 -0.001029 -0.000708 0.000000 0.035091 0.000000
# 6 0.000000 0.000000 0.000000 0.002872 0.000000 0.020896
#
#
# Mechanical properties :
#
#
# Convention : Reuss Voigt Hill
#
# Bulk Modulus (GPa) = 31.57289 36.39884 33.98587
# Shear Modulus (GPa) = 28.24643 34.91451 31.58047
#
# Velocity S-wave (km/s) = 3.54177 3.93770 3.74497
# Velocity P-wave (km/s) = 5.54500 6.06948 5.81316
#
# Compressibility (1/GPa) = 0.03167274
#
# Stress axis : x y z
#
# Youngs Moduli (GPa) = 54.45047 41.24806 67.73804
#
# Poissons Ratio (x) = 0.15626 0.10006
# Poissons Ratio (y) = 0.20627 0.51372
# Poissons Ratio (z) = 0.08043 0.31282
#
# Static dielectric constant tensor:
#      x y z
#    x 1.833430 0.000000 0.016450 
#    y 0.000000 1.819590 0.000000 
#    z 0.016450 0.000000 1.850780 
# 
# From -- ./inp_files/11783.got.cif
#   From: 2010.05.17/outbox.cif.g08.bks.cpg/sg9_6_cif.got.tgz:11783.got - 2010.06.03 20:04:27.
