data_PCOD9139245
_publ_section_title
;
Structure prediction by ZEFSAII (Michael W. Deem and Ramdas Pophale) SiO2 
 PCOD9139245
Probable space group: C C
;
_chemical_formula_sum "Si O2"
_cell_formula_units_Z 28
_cell_length_a 20.034286
_cell_length_b 4.751825
_cell_length_c 10.829768
_cell_angle_alpha 90.000000
_cell_angle_beta 73.241138
_cell_angle_gamma 90.000000
_cell_volume 987.198272
_symmetry_space_group_name_H-M "C C"
_symmetry_group_IT_number 9
_symmetry_cell_setting 'monoclinic'
loop_
_space_group_symop_operation_xyz
x,y,z
x,-y,1/2+z
1/2+x,1/2+y,z
1/2+x,1/2-y,1/2+z
loop_
_atom_site_type_symbol
_atom_site_label
_atom_site_fract_x
_atom_site_fract_y
_atom_site_fract_z
Si Si1 0.471910 0.828724 0.096010
Si Si2 0.709189 0.255251 0.113214
Si Si3 0.209172 0.625464 0.850971
Si Si4 0.859185 0.850398 0.492198
Si Si5 0.552613 0.619436 0.708213
Si Si6 0.058581 0.340500 0.376166
Si Si7 0.855432 0.260492 0.728275
O O1 0.504522 0.540910 0.131287
O O2 0.534799 0.023418 0.016648
O O3 0.414266 0.000570 0.206582
O O4 0.427009 0.818263 0.994135
O O5 0.707986 0.039667 0.995382
O O6 0.790227 0.344658 0.050036
O O7 0.636395 0.424739 0.137296
O O8 0.710219 0.113024 0.246417
O O9 0.136060 0.764772 0.863263
O O10 0.273807 0.830506 0.788725
O O11 0.863269 0.932941 0.347278
O O12 0.859835 0.087733 0.598573
O O13 0.525057 0.435992 0.839834
O O14 0.553771 0.934126 0.766129
#
# Coordination Sequence:
#
# PCOD9139245 Si02
#       7
#     4   4   4   4   4   4   4
#     4  12  28  43  77 114 162 213 273 339 419 495
#     4   9  21  47  77 118 152 220 268 348 397 495
#     4   9  21  45  78 112 157 210 277 330 407 480
#     4  10  24  46  78 112 163 209 277 337 418 490
#     4  11  28  48  76 112 163 210 277 329 418 481
#     4  11  28  47  75 113 163 212 271 338 406 492
#     4  10  24  48  77 117 158 216 271 345 409 495
#
# _framework density 28.363095999999999
#
# number of rings (size 3 to 8) (size 9 to 14) (size 15 to 20)
#    0.000    1.714    0.000    0.857   14.000    1.143 
#    0.000    0.000    0.000    0.000    0.000    0.000 
#    0.000    0.000    0.000    0.000    0.000    0.000 
#
# Total GULP energy -78114.490573 kJ/mol
# GULP energy per Si atom -5579.606470 kJ/mol
# Density = 2.829854 g / cm^3
# Si number density = 28.363096 Si / 1000 Ang^3
#
#
#
# Elastic Constant Matrix: (Units=GPa)
#
#
# Indices 1 2 3 4 5 6 
#
# 1 213.7229 32.6267 41.3627 0.0000 -5.2052 0.0000
# 2 32.6267 81.6953 71.3989 0.0000 2.5236 0.0000
# 3 41.3627 71.3989 206.4287 0.0000 16.8140 0.0000
# 4 0.0000 0.0000 0.0000 42.7480 0.0000 -6.9068
# 5 -5.2052 2.5236 16.8140 0.0000 43.7385 0.0000
# 6 0.0000 0.0000 0.0000 -6.9068 0.0000 35.1389
#
#
#
# Elastic Compliance Matrix: (Units=1/GPa)
#
#
# Indices 1 2 3 4 5 6 
#
# 1 0.005045 -0.001570 -0.000541 0.000000 0.000899 0.000000
# 2 -0.001570 0.018111 -0.006038 0.000000 0.001090 0.000000
# 3 -0.000541 -0.006038 0.007245 0.000000 -0.002501 0.000000
# 4 0.000000 0.000000 0.000000 0.024160 0.000000 0.004749
# 5 0.000899 0.001090 -0.002501 0.000000 0.023869 0.000000
# 6 0.000000 0.000000 0.000000 0.004749 0.000000 0.029392
#
#
# Mechanical properties :
#
#
# Convention : Reuss Voigt Hill
#
# Bulk Modulus (GPa) = 70.90823 88.06926 79.48875
# Shear Modulus (GPa) = 38.81323 48.08900 43.45111
#
# Velocity S-wave (km/s) = 3.70326 4.12208 3.91827
# Velocity P-wave (km/s) = 6.58331 7.33304 6.96827
#
# Compressibility (1/GPa) = 0.01410273
#
# Stress axis : x y z
#
# Youngs Moduli (GPa) = 198.20729 55.21425 138.02548
#
# Poissons Ratio (x) = 0.08667 0.07471
# Poissons Ratio (y) = 0.31112 0.83347
# Poissons Ratio (z) = 0.10728 0.33341
#
# Static dielectric constant tensor:
#      x y z
#    x 2.325060 0.000000 0.041740 
#    y 0.000000 2.219630 0.000000 
#    z 0.041740 0.000000 2.310050 
# 
# From -- ./inp_files/19588.got.cif
#   From: 2010.05.17/outbox.cif.g08.bks.cpg/sg9_10_cif.got.tgz:19588.got - 2010.06.03 20:04:27.
