data_PCOD9139710
_publ_section_title
;
Structure prediction by ZEFSAII (Michael W. Deem and Ramdas Pophale) SiO2 
 PCOD9139710
Probable space group: C C
;
_chemical_formula_sum "Si O2"
_cell_formula_units_Z 32
_cell_length_a 19.009434
_cell_length_b 11.854415
_cell_length_c 15.281699
_cell_angle_alpha 90.000000
_cell_angle_beta 26.685749
_cell_angle_gamma 90.000000
_cell_volume 1546.539066
_symmetry_space_group_name_H-M "C C"
_symmetry_group_IT_number 9
_symmetry_cell_setting 'monoclinic'
loop_
_space_group_symop_operation_xyz
x,y,z
x,-y,1/2+z
1/2+x,1/2+y,z
1/2+x,1/2-y,1/2+z
loop_
_atom_site_type_symbol
_atom_site_label
_atom_site_fract_x
_atom_site_fract_y
_atom_site_fract_z
Si Si1 0.776500 0.683705 0.545030
Si Si2 0.446524 0.415246 0.127383
Si Si3 0.334060 0.562048 0.401511
Si Si4 0.605673 0.089658 0.242005
Si Si5 0.781581 0.722658 0.065250
Si Si6 0.529547 0.123837 0.923220
Si Si7 0.266971 0.806407 0.847414
Si Si8 0.055131 0.982509 0.815892
O O1 0.728259 0.810583 0.622042
O O2 0.769594 0.671239 0.447749
O O3 0.650992 0.596356 0.722778
O O4 0.947068 0.649478 0.388186
O O5 0.410248 0.524442 0.226473
O O6 0.304279 0.326717 0.295887
O O7 0.604155 0.354055 0.989482
O O8 0.474828 0.445910 0.995473
O O9 0.170753 0.495910 0.595614
O O10 0.318545 0.693178 0.444328
O O11 0.437257 0.511564 0.366406
O O12 0.573341 0.005546 0.358274
O O13 0.683860 0.799106 0.243424
O O14 0.676104 0.616992 0.157055
O O15 0.928999 0.671941 0.952480
O O16 0.414162 0.138235 0.132976
#
# Coordination Sequence:
#
# PCOD9139710 Si02
#       8
#     4   4   4   4   4   4   4   4
#     4  12  23  40  64  94 137 177 214 274 338 395
#     4  12  24  40  66 103 131 176 225 279 328 399
#     4  11  24  42  64  99 135 171 219 277 338 395
#     4  11  24  41  64  95 133 175 222 270 338 397
#     4  11  20  38  66  91 128 167 217 271 331 381
#     4  11  21  39  65  99 124 169 224 279 322 389
#     4  12  21  38  64  99 131 166 229 278 322 392
#     4  12  23  42  69  94 133 177 220 276 339 390
#
# _framework density 20.691362999999999
#
# number of rings (size 3 to 8) (size 9 to 14) (size 15 to 20)
#    0.000    0.500    7.500    1.500    0.000    0.000 
#    0.000    1.250    2.750    0.000    0.000    0.000 
#    0.000    0.000    0.000    0.000    0.000    0.000 
#
# Total GULP energy -89473.829692 kJ/mol
# GULP energy per Si atom -5592.114356 kJ/mol
# Density = 2.064427 g / cm^3
# Si number density = 20.691363 Si / 1000 Ang^3
#
#
#
# Elastic Constant Matrix: (Units=GPa)
#
#
# Indices 1 2 3 4 5 6 
#
# 1 36.5870 16.3795 13.6730 0.0000 -2.3638 0.0000
# 2 16.3795 120.5598 30.5483 0.0000 4.8646 0.0000
# 3 13.6730 30.5483 63.7998 0.0000 4.9722 0.0000
# 4 0.0000 0.0000 0.0000 59.3555 0.0000 1.1027
# 5 -2.3638 4.8646 4.9722 0.0000 27.7064 0.0000
# 6 0.0000 0.0000 0.0000 1.1027 0.0000 26.7814
#
#
#
# Elastic Compliance Matrix: (Units=1/GPa)
#
#
# Indices 1 2 3 4 5 6 
#
# 1 0.031005 -0.002975 -0.005544 0.000000 0.004163 0.000000
# 2 -0.002975 0.009746 -0.003931 0.000000 -0.001260 0.000000
# 3 -0.005544 -0.003931 0.018993 0.000000 -0.003191 0.000000
# 4 0.000000 0.000000 0.000000 0.016861 0.000000 -0.000694
# 5 0.004163 -0.001260 -0.003191 0.000000 0.037242 0.000000
# 6 0.000000 0.000000 0.000000 -0.000694 0.000000 0.037368
#
#
# Mechanical properties :
#
#
# Convention : Reuss Voigt Hill
#
# Bulk Modulus (GPa) = 28.70029 38.01646 33.35837
# Shear Modulus (GPa) = 26.63410 33.45839 30.04625
#
# Velocity S-wave (km/s) = 3.59166 4.02558 3.81480
# Velocity P-wave (km/s) = 5.57681 6.32614 5.96326
#
# Compressibility (1/GPa) = 0.03484285
#
# Stress axis : x y z
#
# Youngs Moduli (GPa) = 32.25269 102.60978 52.65101
#
# Poissons Ratio (x) = 0.30531 0.29192
# Poissons Ratio (y) = 0.09597 0.20695
# Poissons Ratio (z) = 0.17882 0.40331
#
# Static dielectric constant tensor:
#      x y z
#    x 1.742310 0.000000 -0.040170 
#    y 0.000000 1.739930 0.000000 
#    z -0.040170 0.000000 1.791800 
# 
# From -- ./inp_files/9176.got.cif
#   From: 2010.05.17/outbox.cif.g08.bks.cpg/sg9_5_cif.got.tgz:9176.got - 2010.06.03 20:04:27.
