data_PCOD9139469
_publ_section_title
;
Structure prediction by ZEFSAII (Michael W. Deem and Ramdas Pophale) SiO2 
 PCOD9139469
Probable space group: C C
;
_chemical_formula_sum "Si O2"
_cell_formula_units_Z 32
_cell_length_a 13.280651
_cell_length_b 4.927973
_cell_length_c 17.933347
_cell_angle_alpha 90.000000
_cell_angle_beta 87.013883
_cell_angle_gamma 90.000000
_cell_volume 1172.084558
_symmetry_space_group_name_H-M "C C"
_symmetry_group_IT_number 9
_symmetry_cell_setting 'monoclinic'
loop_
_space_group_symop_operation_xyz
x,y,z
x,-y,1/2+z
1/2+x,1/2+y,z
1/2+x,1/2-y,1/2+z
loop_
_atom_site_type_symbol
_atom_site_label
_atom_site_fract_x
_atom_site_fract_y
_atom_site_fract_z
Si Si1 0.932970 0.996780 0.345140
Si Si2 0.854125 0.733819 0.065193
Si Si3 0.059990 0.888599 0.211305
Si Si4 0.137548 0.019800 0.548531
Si Si5 0.402336 0.734535 0.150632
Si Si6 0.749351 0.852707 0.782356
Si Si7 0.129345 0.308809 0.390930
Si Si8 0.985243 0.336980 0.969813
O O1 0.842068 0.209084 0.334720
O O2 0.035016 0.152911 0.360575
O O3 0.910106 0.824503 0.419496
O O4 0.967488 0.811162 0.272460
O O5 0.738894 0.650196 0.058771
O O6 0.873519 0.048037 0.079762
O O7 0.889396 0.549346 0.134069
O O8 0.929127 0.605884 0.000775
O O9 0.101524 0.815669 0.124741
O O10 0.156750 0.829595 0.258905
O O11 0.007879 0.175503 0.188447
O O12 0.156489 0.187551 0.471112
O O13 0.046833 0.815089 0.532132
O O14 0.313392 0.623007 0.205658
O O15 0.708985 0.125569 0.823664
O O16 0.080505 0.596769 0.413218
#
# Coordination Sequence:
#
# PCOD9139469 Si02
#       8
#     4   4   4   4   4   4   4   4
#     4  10  25  46  70 106 148 198 253 309 383 449
#     4  12  26  45  72 111 150 194 255 309 380 452
#     4  11  22  48  72 107 144 194 253 310 373 449
#     4  11  25  43  73 103 148 195 251 304 384 440
#     4  11  27  45  73 111 149 198 247 320 376 448
#     4  11  24  47  75 106 152 194 258 306 385 451
#     4  11  25  46  72 105 147 200 247 314 378 455
#     4  11  24  46  69 103 150 197 248 318 371 458
#
# _framework density 27.301784999999999
#
# number of rings (size 3 to 8) (size 9 to 14) (size 15 to 20)
#    0.000    1.000    3.750    1.500    5.250    4.000 
#    2.250    0.000    0.000    0.000    0.000    0.000 
#    0.000    0.000    0.000    0.000    0.000    0.000 
#
# Total GULP energy -89197.652710 kJ/mol
# GULP energy per Si atom -5574.853294 kJ/mol
# Density = 2.723964 g / cm^3
# Si number density = 27.301785 Si / 1000 Ang^3
#
#
#
# Elastic Constant Matrix: (Units=GPa)
#
#
# Indices 1 2 3 4 5 6 
#
# 1 136.1726 16.3819 10.6981 0.0000 21.0162 0.0000
# 2 16.3819 41.3288 27.7995 0.0000 14.4629 0.0000
# 3 10.6981 27.7995 106.9134 0.0000 15.2812 0.0000
# 4 0.0000 0.0000 0.0000 27.2894 0.0000 5.6776
# 5 21.0162 14.4629 15.2812 0.0000 51.6921 0.0000
# 6 0.0000 0.0000 0.0000 5.6776 0.0000 26.1399
#
#
#
# Elastic Compliance Matrix: (Units=1/GPa)
#
#
# Indices 1 2 3 4 5 6 
#
# 1 0.008025 -0.002384 0.000196 0.000000 -0.002653 0.000000
# 2 -0.002384 0.032078 -0.007265 0.000000 -0.005858 0.000000
# 3 0.000196 -0.007265 0.011426 0.000000 -0.001425 0.000000
# 4 0.000000 0.000000 0.000000 0.038379 0.000000 -0.008336
# 5 -0.002653 -0.005858 -0.001425 0.000000 0.022484 0.000000
# 6 0.000000 0.000000 0.000000 -0.008336 0.000000 0.040066
#
#
# Mechanical properties :
#
#
# Convention : Reuss Voigt Hill
#
# Bulk Modulus (GPa) = 30.65314 43.79707 37.22510
# Shear Modulus (GPa) = 27.43655 36.32664 31.88159
#
# Velocity S-wave (km/s) = 3.17351 3.65164 3.42094
# Velocity P-wave (km/s) = 4.96791 5.81859 5.40999
#
# Compressibility (1/GPa) = 0.03262309
#
# Stress axis : x y z
#
# Youngs Moduli (GPa) = 124.61765 31.17392 87.51623
#
# Poissons Ratio (x) = 0.07432 -0.01717
# Poissons Ratio (y) = 0.29711 0.63581
# Poissons Ratio (z) = -0.02445 0.22648
#
# Static dielectric constant tensor:
#      x y z
#    x 2.119630 0.000000 -0.022220 
#    y 0.000000 2.129050 0.000000 
#    z -0.022220 0.000000 2.400490 
# 
# From -- ./inp_files/30474.got.cif
#   From: 2010.05.17/outbox.cif.g08.bks.cpg/sg9_16_cif.got.tgz:30474.got - 2010.06.03 20:04:27.
