data_PCOD9139432
_publ_section_title
;
Structure prediction by ZEFSAII (Michael W. Deem and Ramdas Pophale) SiO2 
 PCOD9139432
Probable space group: C C
;
_chemical_formula_sum "Si O2"
_cell_formula_units_Z 24
_cell_length_a 12.171175
_cell_length_b 22.371522
_cell_length_c 5.801523
_cell_angle_alpha 90.000000
_cell_angle_beta 41.220208
_cell_angle_gamma 90.000000
_cell_volume 1040.939953
_symmetry_space_group_name_H-M "C C"
_symmetry_group_IT_number 9
_symmetry_cell_setting 'monoclinic'
loop_
_space_group_symop_operation_xyz
x,y,z
x,-y,1/2+z
1/2+x,1/2+y,z
1/2+x,1/2-y,1/2+z
loop_
_atom_site_type_symbol
_atom_site_label
_atom_site_fract_x
_atom_site_fract_y
_atom_site_fract_z
Si Si1 0.153470 0.248179 0.794840
Si Si2 0.486208 0.764749 0.650634
Si Si3 0.445161 0.145560 0.847044
Si Si4 0.878565 0.971012 0.077648
Si Si5 0.576869 0.650528 0.215526
Si Si6 0.502111 0.012400 0.695056
O O1 0.346127 0.249554 0.562817
O O2 0.157397 0.263869 0.519255
O O3 0.097501 0.180244 0.930857
O O4 0.054763 0.302167 0.062418
O O5 0.441753 0.828407 0.611611
O O6 0.505465 0.708431 0.457195
O O7 0.535245 0.082827 0.669626
O O8 0.260432 0.138619 0.032883
O O9 0.928682 0.996093 0.255053
O O10 0.676153 0.975992 0.405342
O O11 0.957330 0.905536 0.927713
O O12 0.417372 0.004019 0.575886
#
# Coordination Sequence:
#
# PCOD9139432 Si02
#       6
#     4   4   4   4   4   4
#     4  11  24  42  71 104 140 187 231 296 362 426
#     4  11  24  42  71 104 140 187 231 296 362 426
#     4  11  25  43  68 105 143 183 242 295 358 430
#     4  10  25  45  69 102 136 192 241 291 354 421
#     4  11  25  43  68 105 143 183 242 295 358 430
#     4  10  25  45  69 102 136 192 241 291 354 421
#
# _framework density 23.056083000000001
#
# number of rings (size 3 to 8) (size 9 to 14) (size 15 to 20)
#    0.000    1.333    3.333    0.000    9.333    4.000 
#    0.000    0.000    0.000    0.000    0.000    0.000 
#    0.000    0.000    0.000    0.000    0.000    0.000 
#
# Total GULP energy -66828.445423 kJ/mol
# GULP energy per Si atom -5569.037119 kJ/mol
# Density = 2.300361 g / cm^3
# Si number density = 23.056083 Si / 1000 Ang^3
#
#
#
# Elastic Constant Matrix: (Units=GPa)
#
#
# Indices 1 2 3 4 5 6 
#
# 1 69.5346 15.8433 23.6237 0.0000 17.8927 0.0000
# 2 15.8433 72.9951 10.8511 0.0000 9.5509 0.0000
# 3 23.6237 10.8511 57.8177 0.0000 18.1552 0.0000
# 4 0.0000 0.0000 0.0000 28.1038 0.0000 -13.1634
# 5 17.8927 9.5509 18.1552 0.0000 48.4784 0.0000
# 6 0.0000 0.0000 0.0000 -13.1634 0.0000 19.6885
#
#
#
# Elastic Compliance Matrix: (Units=1/GPa)
#
#
# Indices 1 2 3 4 5 6 
#
# 1 0.017884 -0.002528 -0.005572 0.000000 -0.004016 0.000000
# 2 -0.002528 0.014627 -0.001247 0.000000 -0.001482 0.000000
# 3 -0.005572 -0.001247 0.021627 0.000000 -0.005797 0.000000
# 4 0.000000 0.000000 0.000000 0.051806 0.000000 0.034636
# 5 -0.004016 -0.001482 -0.005797 0.000000 0.024573 0.000000
# 6 0.000000 0.000000 0.000000 0.034636 0.000000 0.073948
#
#
# Mechanical properties :
#
#
# Convention : Reuss Voigt Hill
#
# Bulk Modulus (GPa) = 28.21303 33.44262 30.82782
# Shear Modulus (GPa) = 21.27909 29.25609 25.26759
#
# Velocity S-wave (km/s) = 3.04127 3.56604 3.31406
# Velocity P-wave (km/s) = 4.95940 5.61177 5.29564
#
# Compressibility (1/GPa) = 0.03544462
#
# Stress axis : x y z
#
# Youngs Moduli (GPa) = 55.91719 68.36443 46.23937
#
# Poissons Ratio (x) = 0.17282 0.25762
# Poissons Ratio (y) = 0.14135 0.05767
# Poissons Ratio (z) = 0.31155 0.08526
#
# Static dielectric constant tensor:
#      x y z
#    x 1.897680 0.000000 0.142110 
#    y 0.000000 1.767950 0.000000 
#    z 0.142110 0.000000 2.115190 
# 
# From -- ./inp_files/532.got.cif
#   From: 2010.05.17/outbox.cif.g08.bks.cpg/sg9_1_cif.got.tgz:532.got - 2010.06.03 20:04:27.
