data_PCOD9139322
_publ_section_title
;
Structure prediction by ZEFSAII (Michael W. Deem and Ramdas Pophale) SiO2 
 PCOD9139322
Probable space group: C C
;
_chemical_formula_sum "Si O2"
_cell_formula_units_Z 20
_cell_length_a 5.146887
_cell_length_b 17.174827
_cell_length_c 8.262842
_cell_angle_alpha 90.000000
_cell_angle_beta 95.430985
_cell_angle_gamma 90.000000
_cell_volume 727.130704
_symmetry_space_group_name_H-M "C C"
_symmetry_group_IT_number 9
_symmetry_cell_setting 'monoclinic'
loop_
_space_group_symop_operation_xyz
x,y,z
x,-y,1/2+z
1/2+x,1/2+y,z
1/2+x,1/2-y,1/2+z
loop_
_atom_site_type_symbol
_atom_site_label
_atom_site_fract_x
_atom_site_fract_y
_atom_site_fract_z
Si Si1 0.502770 0.431475 0.443810
Si Si2 0.899550 0.750900 0.011837
Si Si3 0.580712 0.844589 0.224064
Si Si4 0.787625 0.854173 0.724308
Si Si5 0.518860 0.997816 0.560724
O O1 0.360512 0.378841 0.302669
O O2 0.504668 0.380494 0.607581
O O3 0.287526 0.496682 0.476137
O O4 0.776655 0.471280 0.438498
O O5 0.928493 0.684637 0.874064
O O6 0.918573 0.827785 0.898960
O O7 0.117323 0.719548 0.148965
O O8 0.651438 0.775958 0.104561
O O9 0.458579 0.918153 0.128098
O O10 0.586091 0.927358 0.691652
#
# Coordination Sequence:
#
# PCOD9139322 Si02
#       5
#     4   4   4   4   4
#     4   9  24  48  80 116 157 215 281 340 407 487
#     4  11  26  47  77 121 166 216 272 348 420 499
#     4  11  27  49  85 122 168 219 279 347 421 501
#     4   9  25  45  77 115 162 214 271 338 415 490
#     4  10  24  49  81 114 165 208 289 333 411 493
#
# _framework density 27.505369999999999
#
# number of rings (size 3 to 8) (size 9 to 14) (size 15 to 20)
#    1.200    0.800    0.000    0.000    8.400    4.800 
#    0.000    0.000    0.000    0.000    0.000    0.000 
#    0.000    0.000    0.000    0.000    0.000    0.000 
#
# Total GULP energy -55855.405802 kJ/mol
# GULP energy per Si atom -5585.540580 kJ/mol
# Density = 2.744277 g / cm^3
# Si number density = 27.505370 Si / 1000 Ang^3
#
#
#
# Elastic Constant Matrix: (Units=GPa)
#
#
# Indices 1 2 3 4 5 6 
#
# 1 93.6867 85.5540 32.2066 0.0000 0.6895 0.0000
# 2 85.5540 151.3432 58.8556 0.0000 -0.7094 0.0000
# 3 32.2066 58.8556 85.8036 0.0000 -16.0233 0.0000
# 4 0.0000 0.0000 0.0000 69.2371 0.0000 8.7734
# 5 0.6895 -0.7094 -16.0233 0.0000 37.6000 0.0000
# 6 0.0000 0.0000 0.0000 8.7734 0.0000 34.5943
#
#
#
# Elastic Compliance Matrix: (Units=1/GPa)
#
#
# Indices 1 2 3 4 5 6 
#
# 1 0.022082 -0.012578 0.000238 0.000000 -0.000541 0.000000
# 2 -0.012578 0.016431 -0.007006 0.000000 -0.002445 0.000000
# 3 0.000238 -0.007006 0.017758 0.000000 0.007431 0.000000
# 4 0.000000 0.000000 0.000000 0.014923 0.000000 -0.003785
# 5 -0.000541 -0.002445 0.007431 0.000000 0.029726 0.000000
# 6 0.000000 0.000000 0.000000 -0.003785 0.000000 0.029866
#
#
# Mechanical properties :
#
#
# Convention : Reuss Voigt Hill
#
# Bulk Modulus (GPa) = 56.88307 76.00731 66.44519
# Shear Modulus (GPa) = 28.51619 38.56743 33.54181
#
# Velocity S-wave (km/s) = 3.22335 3.74863 3.49587
# Velocity P-wave (km/s) = 5.88039 6.81395 6.36431
#
# Compressibility (1/GPa) = 0.01757992
#
# Stress axis : x y z
#
# Youngs Moduli (GPa) = 45.28503 60.86047 56.31126
#
# Poissons Ratio (x) = 0.76552 -0.01341
# Poissons Ratio (y) = 0.56961 0.39451
# Poissons Ratio (z) = -0.01079 0.42638
#
# Static dielectric constant tensor:
#      x y z
#    x 2.124570 0.000000 -0.040780 
#    y 0.000000 2.194530 0.000000 
#    z -0.040780 0.000000 2.132360 
# 
# From -- ./inp_files/3720.got.cif
#   From: 2010.05.17/outbox.cif.g08.bks.cpg/sg9_2_cif.got.tgz:3720.got - 2010.06.03 20:04:27.
