data_PCOD9139207
_publ_section_title
;
Structure prediction by ZEFSAII (Michael W. Deem and Ramdas Pophale) SiO2 
 PCOD9139207
Probable space group: C C
;
_chemical_formula_sum "Si O2"
_cell_formula_units_Z 28
_cell_length_a 17.493851
_cell_length_b 7.886285
_cell_length_c 10.900039
_cell_angle_alpha 90.000000
_cell_angle_beta 128.230044
_cell_angle_gamma 90.000000
_cell_volume 1181.272538
_symmetry_space_group_name_H-M "C C"
_symmetry_group_IT_number 9
_symmetry_cell_setting 'monoclinic'
loop_
_space_group_symop_operation_xyz
x,y,z
x,-y,1/2+z
1/2+x,1/2+y,z
1/2+x,1/2-y,1/2+z
loop_
_atom_site_type_symbol
_atom_site_label
_atom_site_fract_x
_atom_site_fract_y
_atom_site_fract_z
Si Si1 0.746680 0.857759 0.233560
Si Si2 0.883206 0.636405 0.777036
Si Si3 0.611503 0.631655 0.947255
Si Si4 0.403600 0.764953 0.715112
Si Si5 0.209538 0.803601 0.953857
Si Si6 0.577819 0.695652 0.546717
Si Si7 0.258309 0.268830 0.846103
O O1 0.849592 0.790198 0.286243
O O2 0.705676 0.774118 0.316997
O O3 0.766590 0.052680 0.283519
O O4 0.668593 0.795684 0.053535
O O5 0.919767 0.464288 0.752899
O O6 0.819645 0.727104 0.609294
O O7 0.801365 0.618681 0.802319
O O8 0.969742 0.737331 0.926627
O O9 0.505366 0.674578 0.790978
O O10 0.682550 0.504537 0.940060
O O11 0.585498 0.505564 0.035788
O O12 0.326567 0.726615 0.531358
O O13 0.134059 0.732624 0.980202
O O14 0.641226 0.749915 0.726710
#
# Coordination Sequence:
#
# PCOD9139207 Si02
#       7
#     4   4   4   4   4   4   4
#     4  12  25  45  76 104 153 193 250 307 381 441
#     4  11  23  47  73 103 152 193 252 306 378 441
#     4  10  24  46  70 111 145 197 243 306 376 446
#     4  12  27  43  76 107 145 203 253 302 382 449
#     4   9  24  43  75 103 151 191 246 310 374 440
#     4   9  22  47  71  98 149 191 247 303 375 439
#     4  11  27  45  71 112 145 194 251 316 370 450
#
# _framework density 23.703251999999999
#
# number of rings (size 3 to 8) (size 9 to 14) (size 15 to 20)
#    0.857    0.571    1.429    1.714   10.000    4.571 
#    2.571    0.000    0.000    0.000    0.000    0.000 
#    0.000    0.000    0.000    0.000    0.000    0.000 
#
# Total GULP energy -78113.685432 kJ/mol
# GULP energy per Si atom -5579.548959 kJ/mol
# Density = 2.364930 g / cm^3
# Si number density = 23.703252 Si / 1000 Ang^3
#
#
#
# Elastic Constant Matrix: (Units=GPa)
#
#
# Indices 1 2 3 4 5 6 
#
# 1 91.6911 11.0644 43.8129 0.0000 15.6090 0.0000
# 2 11.0644 83.1932 35.5819 0.0000 7.5749 0.0000
# 3 43.8129 35.5819 150.4282 0.0000 28.4198 0.0000
# 4 0.0000 0.0000 0.0000 28.0886 0.0000 -5.3319
# 5 15.6090 7.5749 28.4198 0.0000 47.2720 0.0000
# 6 0.0000 0.0000 0.0000 -5.3319 0.0000 20.6767
#
#
#
# Elastic Compliance Matrix: (Units=1/GPa)
#
#
# Indices 1 2 3 4 5 6 
#
# 1 0.012879 -0.000095 -0.003303 0.000000 -0.002252 0.000000
# 2 -0.000095 0.013377 -0.003088 0.000000 -0.000256 0.000000
# 3 -0.003303 -0.003088 0.009071 0.000000 -0.003868 0.000000
# 4 0.000000 0.000000 0.000000 0.037434 0.000000 0.009653
# 5 -0.002252 -0.000256 -0.003868 0.000000 0.024264 0.000000
# 6 0.000000 0.000000 0.000000 0.009653 0.000000 0.050853
#
#
# Mechanical properties :
#
#
# Convention : Reuss Voigt Hill
#
# Bulk Modulus (GPa) = 44.73430 56.24786 50.49108
# Shear Modulus (GPa) = 29.70839 34.86434 32.28636
#
# Velocity S-wave (km/s) = 3.54410 3.83935 3.69468
# Velocity P-wave (km/s) = 5.97170 6.59057 6.28875
#
# Compressibility (1/GPa) = 0.02235421
#
# Stress axis : x y z
#
# Youngs Moduli (GPa) = 77.64350 74.75543 110.24127
#
# Poissons Ratio (x) = 0.00711 0.36416
# Poissons Ratio (y) = 0.00738 0.34045
# Poissons Ratio (z) = 0.25648 0.23086
#
# Static dielectric constant tensor:
#      x y z
#    x 1.972690 0.000000 -0.056690 
#    y 0.000000 1.927710 0.000000 
#    z -0.056690 0.000000 1.912150 
# 
# From -- ./inp_files/20075.got.cif
#   From: 2010.05.17/outbox.cif.g08.bks.cpg/sg9_11_cif.got.tgz:20075.got - 2010.06.03 20:04:27.
