data_PCOD9139984
_publ_section_title
;
Structure prediction by ZEFSAII (Michael W. Deem and Ramdas Pophale) SiO2 
 PCOD9139984
Probable space group: C C
;
_chemical_formula_sum "Si O2"
_cell_formula_units_Z 32
_cell_length_a 14.484061
_cell_length_b 12.137668
_cell_length_c 8.719794
_cell_angle_alpha 90.000000
_cell_angle_beta 64.477911
_cell_angle_gamma 90.000000
_cell_volume 1383.375795
_symmetry_space_group_name_H-M "C C"
_symmetry_group_IT_number 9
_symmetry_cell_setting 'monoclinic'
loop_
_space_group_symop_operation_xyz
x,y,z
x,-y,1/2+z
1/2+x,1/2+y,z
1/2+x,1/2-y,1/2+z
loop_
_atom_site_type_symbol
_atom_site_label
_atom_site_fract_x
_atom_site_fract_y
_atom_site_fract_z
Si Si1 0.877520 0.662428 0.960980
Si Si2 0.920672 0.104333 0.894141
Si Si3 0.581074 0.046651 0.793963
Si Si4 0.143902 0.357702 0.936158
Si Si5 0.185913 0.106396 0.897615
Si Si6 0.746872 0.785701 0.318289
Si Si7 0.889328 0.126920 0.275103
Si Si8 0.630230 0.392054 0.100620
O O1 0.793691 0.607619 0.909035
O O2 0.926384 0.762079 0.828342
O O3 0.970054 0.581981 0.936980
O O4 0.814681 0.721516 0.142537
O O5 0.822379 0.156106 0.883800
O O6 0.021497 0.149576 0.739457
O O7 0.923407 0.975256 0.852887
O O8 0.917889 0.120815 0.076978
O O9 0.586829 0.076858 0.611276
O O10 0.671428 0.122704 0.800980
O O11 0.607014 0.919479 0.809543
O O12 0.134511 0.226332 0.954852
O O13 0.265619 0.374240 0.866111
O O14 0.196086 0.089914 0.708343
O O15 0.122499 0.006938 0.015856
O O16 0.680977 0.695318 0.453407
#
# Coordination Sequence:
#
# PCOD9139984 Si02
#       8
#     4   4   4   4   4   4   4   4
#     4  11  26  46  73 109 149 202 247 317 388 451
#     4  12  25  41  76 107 144 199 258 313 376 459
#     4  12  26  45  78 106 150 196 254 305 391 455
#     4  11  25  47  72 108 151 197 243 317 380 445
#     4  11  26  51  71 109 153 195 256 320 377 456
#     4  12  24  48  72 110 155 193 256 321 376 458
#     4  11  22  44  71 106 149 188 255 317 376 440
#     4  12  28  46  77 105 151 204 255 310 394 444
#
# _framework density 23.131817999999999
#
# number of rings (size 3 to 8) (size 9 to 14) (size 15 to 20)
#    0.000    0.500    3.750    5.250    5.250    2.000 
#    2.250    0.000    0.000    0.000    0.000    0.000 
#    0.000    0.000    0.000    0.000    0.000    0.000 
#
# Total GULP energy -89650.129553 kJ/mol
# GULP energy per Si atom -5603.133097 kJ/mol
# Density = 2.307917 g / cm^3
# Si number density = 23.131818 Si / 1000 Ang^3
#
#
#
# Elastic Constant Matrix: (Units=GPa)
#
#
# Indices 1 2 3 4 5 6 
#
# 1 78.3992 23.6090 5.3760 0.0000 -12.7024 0.0000
# 2 23.6090 80.1768 27.4150 0.0000 -2.7227 0.0000
# 3 5.3760 27.4150 118.8674 0.0000 -0.1681 0.0000
# 4 0.0000 0.0000 0.0000 22.8929 0.0000 10.6467
# 5 -12.7024 -2.7227 -0.1681 0.0000 37.3853 0.0000
# 6 0.0000 0.0000 0.0000 10.6467 0.0000 32.8633
#
#
#
# Elastic Compliance Matrix: (Units=1/GPa)
#
#
# Indices 1 2 3 4 5 6 
#
# 1 0.014794 -0.004310 0.000332 0.000000 0.004714 0.000000
# 2 -0.004310 0.014831 -0.003226 0.000000 -0.000399 0.000000
# 3 0.000332 -0.003226 0.009142 0.000000 -0.000081 0.000000
# 4 0.000000 0.000000 0.000000 0.051431 0.000000 -0.016662
# 5 0.004714 -0.000399 -0.000081 0.000000 0.028321 0.000000
# 6 0.000000 0.000000 0.000000 -0.016662 0.000000 0.035827
#
#
# Mechanical properties :
#
#
# Convention : Reuss Voigt Hill
#
# Bulk Modulus (GPa) = 41.05375 43.36037 42.20706
# Shear Modulus (GPa) = 28.26882 33.36451 30.81667
#
# Velocity S-wave (km/s) = 3.49961 3.80197 3.65392
# Velocity P-wave (km/s) = 5.84089 6.16919 6.00728
#
# Compressibility (1/GPa) = 0.02435831
#
# Stress axis : x y z
#
# Youngs Moduli (GPa) = 67.59457 67.42617 109.38878
#
# Poissons Ratio (x) = 0.29058 -0.03626
# Poissons Ratio (y) = 0.29130 0.35291
# Poissons Ratio (z) = -0.02241 0.21753
#
# Static dielectric constant tensor:
#      x y z
#    x 1.855710 0.000000 -0.009210 
#    y 0.000000 1.851620 0.000000 
#    z -0.009210 0.000000 1.855270 
# 
# From -- ./inp_files/9231.got.cif
#   From: 2010.05.17/outbox.cif.g08.bks.cpg/sg9_5_cif.got.tgz:9231.got - 2010.06.03 20:04:27.
