data_PCOD9139110
_publ_section_title
;
Structure prediction by ZEFSAII (Michael W. Deem and Ramdas Pophale) SiO2 
 PCOD9139110
Probable space group: C C
;
_chemical_formula_sum "Si O2"
_cell_formula_units_Z 28
_cell_length_a 8.446229
_cell_length_b 7.130594
_cell_length_c 22.114038
_cell_angle_alpha 90.000000
_cell_angle_beta 128.785383
_cell_angle_gamma 90.000000
_cell_volume 1038.177242
_symmetry_space_group_name_H-M "C C"
_symmetry_group_IT_number 9
_symmetry_cell_setting 'monoclinic'
loop_
_space_group_symop_operation_xyz
x,y,z
x,-y,1/2+z
1/2+x,1/2+y,z
1/2+x,1/2-y,1/2+z
loop_
_atom_site_type_symbol
_atom_site_label
_atom_site_fract_x
_atom_site_fract_y
_atom_site_fract_z
Si Si1 0.136670 0.252102 0.284910
Si Si2 0.913261 0.252000 0.035108
Si Si3 0.712839 0.962286 0.909102
Si Si4 0.837086 0.462383 0.410914
Si Si5 0.524970 0.207232 0.159998
Si Si6 0.799618 0.135680 0.709755
Si Si7 0.250315 0.135640 0.610249
O O1 0.173032 0.428456 0.337195
O O2 0.214398 0.565067 0.210835
O O3 0.304538 0.240732 0.271347
O O4 0.935822 0.292965 0.197903
O O5 0.835535 0.565079 0.109140
O O6 0.114119 0.292841 0.122116
O O7 0.745400 0.240681 0.048676
O O8 0.876909 0.428350 0.982822
O O9 0.774959 0.749950 0.910009
O O10 0.524966 0.999963 0.910009
O O11 0.895622 0.076017 0.986172
O O12 0.654302 0.576111 0.333842
O O13 0.486273 0.334165 0.209133
O O14 0.563669 0.334216 0.110877
#
# Coordination Sequence:
#
# PCOD9139110 Si02
#       7
#     4   4   4   4   4   4   4
#     4   9  24  49  72 112 151 196 256 317 375 458
#     4   9  24  49  72 112 151 196 256 317 375 458
#     4  11  26  46  76 106 151 203 252 307 382 456
#     4  11  26  46  76 106 151 203 252 307 382 456
#     4  10  24  44  72 110 150 188 246 310 390 446
#     4  10  24  48  74 112 146 197 247 321 380 445
#     4  10  24  48  74 112 146 197 247 321 380 445
#
# _framework density 26.970348000000001
#
# number of rings (size 3 to 8) (size 9 to 14) (size 15 to 20)
#    0.000    2.286    0.000    0.000    8.000   17.143 
#    0.000    0.000    0.000    0.000    0.000    0.000 
#    0.000    0.000    0.000    0.000    0.000    0.000 
#
# Total GULP energy -78356.973280 kJ/mol
# GULP energy per Si atom -5596.926663 kJ/mol
# Density = 2.690896 g / cm^3
# Si number density = 26.970348 Si / 1000 Ang^3
#
#
#
# Elastic Constant Matrix: (Units=GPa)
#
#
# Indices 1 2 3 4 5 6 
#
# 1 189.8146 79.7481 62.0830 0.0000 -39.1222 0.0000
# 2 79.7481 198.5004 71.9511 0.0000 -28.7323 0.0000
# 3 62.0830 71.9511 156.1417 0.0000 -44.4003 0.0000
# 4 0.0000 0.0000 0.0000 5.1566 0.0000 -26.8908
# 5 -39.1222 -28.7323 -44.4003 0.0000 57.8011 0.0000
# 6 0.0000 0.0000 0.0000 -26.8908 0.0000 58.3056
#
#
#
# Elastic Compliance Matrix: (Units=1/GPa)
#
#
# Indices 1 2 3 4 5 6 
#
# 1 0.007076 -0.002039 -0.001024 0.000000 0.002989 0.000000
# 2 -0.002039 0.006691 -0.002200 0.000000 0.000256 0.000000
# 3 -0.001024 -0.002200 0.009362 0.000000 0.005405 0.000000
# 4 0.000000 0.000000 0.000000 -0.138017 0.000000 -0.063654
# 5 0.002989 0.000256 0.005405 0.000000 0.023603 0.000000
# 6 0.000000 0.000000 0.000000 -0.063654 0.000000 -0.012206
#
#
# Mechanical properties :
#
#
# Convention : Reuss Voigt Hill
#
# Bulk Modulus (GPa) = 79.33830 108.00235 93.67033
# Shear Modulus (GPa) = -56.32948 46.29764 -5.01592
#
# Velocity S-wave (km/s) = -4.57505 4.14770 -1.36522
# Velocity P-wave (km/s) = 1.25406 7.94164 5.68517
#
# Compressibility (1/GPa) = 0.01260425
#
# Stress axis : x y z
#
# Youngs Moduli (GPa) = 141.32426 149.44489 106.81212
#
# Poissons Ratio (x) = 0.30471 0.10936
# Poissons Ratio (y) = 0.28816 0.23497
# Poissons Ratio (z) = 0.14469 0.32876
#
# Static dielectric constant tensor:
#      x y z
#    x 2.416600 0.000000 0.186600 
#    y 0.000000 2.219580 0.000000 
#    z 0.186600 0.000000 2.126250 
# 
# From -- ./inp_files/34958.got.cif
#   From: 2010.05.17/outbox.cif.g08.bks.cpg/sg9_18_cif.got.tgz:34958.got - 2010.06.03 20:04:27.
