data_PCOD9139215
_publ_section_title
;
Structure prediction by ZEFSAII (Michael W. Deem and Ramdas Pophale) SiO2 
 PCOD9139215
Probable space group: C C
;
_chemical_formula_sum "Si O2"
_cell_formula_units_Z 32
_cell_length_a 27.337505
_cell_length_b 4.973852
_cell_length_c 25.344660
_cell_angle_alpha 90.000000
_cell_angle_beta 160.145567
_cell_angle_gamma 90.000000
_cell_volume 1170.432417
_symmetry_space_group_name_H-M "C C"
_symmetry_group_IT_number 9
_symmetry_cell_setting 'monoclinic'
loop_
_space_group_symop_operation_xyz
x,y,z
x,-y,1/2+z
1/2+x,1/2+y,z
1/2+x,1/2-y,1/2+z
loop_
_atom_site_type_symbol
_atom_site_label
_atom_site_fract_x
_atom_site_fract_y
_atom_site_fract_z
Si Si1 0.697340 0.738564 0.442170
Si Si2 0.102620 0.691922 0.622266
Si Si3 0.941630 0.885130 0.187831
Si Si4 0.287995 0.599478 0.716519
Si Si5 0.881598 0.495507 0.539429
Si Si6 0.878971 0.989596 0.465792
Si Si7 0.865923 0.445440 0.705131
Si Si8 0.032126 0.730919 0.968518
O O1 0.773930 0.026106 0.514065
O O2 0.531602 0.659543 0.278927
O O3 0.748717 0.575547 0.442274
O O4 0.769566 0.624151 0.568910
O O5 0.215583 0.766992 0.690103
O O6 0.218074 0.581558 0.782241
O O7 0.000815 0.911243 0.546454
O O8 0.013361 0.451356 0.502531
O O9 0.961864 0.733042 0.263137
O O10 0.976690 0.681850 0.176091
O O11 0.271662 0.745049 0.644963
O O12 0.453391 0.515758 0.891972
O O13 0.200943 0.318530 0.630278
O O14 0.921751 0.781837 0.555701
O O15 0.868228 0.291685 0.476650
O O16 0.960680 0.601645 0.843922
#
# Coordination Sequence:
#
# PCOD9139215 Si02
#       8
#     4   4   4   4   4   4   4   4
#     4  11  26  48  77 116 158 206 262 329 397 488
#     4  10  28  50  78 112 156 202 272 318 402 458
#     4  11  26  48  77 116 158 206 262 329 397 488
#     4  10  24  46  71 108 154 208 258 332 387 474
#     4  11  28  48  81 112 159 194 264 319 396 458
#     4  12  27  52  79 120 149 214 251 334 386 476
#     4  11  23  44  74 112 156 206 265 319 408 464
#     4  10  24  46  71 108 154 208 258 332 387 474
#
# _framework density 27.340322
#
# number of rings (size 3 to 8) (size 9 to 14) (size 15 to 20)
#    0.750    0.500    1.250    2.250    5.250    9.000 
#    6.750    0.000    0.000    0.000    0.000    0.000 
#    0.000    0.000    0.000    0.000    0.000    0.000 
#
# Total GULP energy -89518.789721 kJ/mol
# GULP energy per Si atom -5594.924358 kJ/mol
# Density = 2.727809 g / cm^3
# Si number density = 27.340322 Si / 1000 Ang^3
#
#
#
# Elastic Constant Matrix: (Units=GPa)
#
#
# Indices 1 2 3 4 5 6 
#
# 1 130.6831 22.6832 17.6299 -0.0016 -25.8535 -0.0008
# 2 22.6832 96.8242 -0.6372 -0.0011 -14.2558 0.0041
# 3 17.6299 -0.6372 108.3034 -0.0025 -6.7735 -0.0009
# 4 -0.0016 -0.0011 -0.0025 33.8740 -0.0009 -9.3042
# 5 -25.8535 -14.2558 -6.7735 -0.0009 32.9236 -0.0001
# 6 -0.0008 0.0041 -0.0009 -9.3042 -0.0001 45.8398
#
#
#
# Elastic Compliance Matrix: (Units=1/GPa)
#
#
# Indices 1 2 3 4 5 6 
#
# 1 0.009311 -0.001224 -0.001113 0.000001 0.006553 0.000000
# 2 -0.001224 0.011207 0.000515 0.000000 0.003997 -0.000001
# 3 -0.001113 0.000515 0.009499 0.000001 0.001303 0.000000
# 4 0.000001 0.000000 0.000001 0.031264 0.000002 0.006346
# 5 0.006553 0.003997 0.001303 0.000002 0.037518 0.000000
# 6 0.000000 -0.000001 0.000000 0.006346 0.000000 0.023103
#
#
# Mechanical properties :
#
#
# Convention : Reuss Voigt Hill
#
# Bulk Modulus (GPa) = 37.91731 46.12918 42.02324
# Shear Modulus (GPa) = 37.21998 42.26979 39.74489
#
# Velocity S-wave (km/s) = 3.69366 3.93626 3.81689
# Velocity P-wave (km/s) = 5.66477 6.12925 5.90158
#
# Compressibility (1/GPa) = 0.02637318
#
# Stress axis : x y z
#
# Youngs Moduli (GPa) = 107.39969 89.23275 105.27371
#
# Poissons Ratio (x) = 0.10921 0.11718
# Poissons Ratio (y) = 0.13144 -0.05423
# Poissons Ratio (z) = 0.11954 -0.04597
#
# Static dielectric constant tensor:
#      x y z
#    x 2.135950 0.000000 -0.001390 
#    y 0.000000 2.094140 0.000000 
#    z -0.001390 0.000000 2.121090 
# 
# From -- ./inp_files/37069.got.cif
#   From: 2010.05.17/outbox.cif.g08.bks.cpg/sg9_19_cif.got.tgz:37069.got - 2010.06.03 20:04:27.
