data_PCOD9139948
_publ_section_title
;
Structure prediction by ZEFSAII (Michael W. Deem and Ramdas Pophale) SiO2 
 PCOD9139948
Probable space group: C C
;
_chemical_formula_sum "Si O2"
_cell_formula_units_Z 32
_cell_length_a 12.921240
_cell_length_b 11.288647
_cell_length_c 9.235574
_cell_angle_alpha 90.000000
_cell_angle_beta 93.195976
_cell_angle_gamma 90.000000
_cell_volume 1345.036242
_symmetry_space_group_name_H-M "C C"
_symmetry_group_IT_number 9
_symmetry_cell_setting 'monoclinic'
loop_
_space_group_symop_operation_xyz
x,y,z
x,-y,1/2+z
1/2+x,1/2+y,z
1/2+x,1/2-y,1/2+z
loop_
_atom_site_type_symbol
_atom_site_label
_atom_site_fract_x
_atom_site_fract_y
_atom_site_fract_z
Si Si1 0.275720 0.219710 0.001370
Si Si2 0.166344 0.637090 0.975023
Si Si3 0.249039 0.114913 0.496626
Si Si4 0.739247 0.954752 0.177066
Si Si5 0.855428 0.527368 0.227915
Si Si6 0.961677 0.706030 0.803041
Si Si7 0.964004 0.941331 0.624542
Si Si8 0.090923 0.056427 0.862931
O O1 0.237310 0.332567 0.087191
O O2 0.342396 0.138890 0.120362
O O3 0.357839 0.243165 0.881120
O O4 0.176272 0.152368 0.923621
O O5 0.241466 0.746531 0.015808
O O6 0.215735 0.570683 0.841303
O O7 0.056594 0.688711 0.918905
O O8 0.157825 0.547486 0.106000
O O9 0.337974 0.072278 0.390349
O O10 0.262708 0.051880 0.651388
O O11 0.148807 0.065736 0.407202
O O12 0.850180 0.013496 0.153417
O O13 0.942940 0.425873 0.235004
O O14 0.983001 0.811233 0.693050
O O15 0.991308 0.932991 0.458932
O O16 0.042614 0.037573 0.701691
#
# Coordination Sequence:
#
# PCOD9139948 Si02
#       8
#     4   4   4   4   4   4   4   4
#     4  11  24  45  70 100 144 177 237 296 352 417
#     4  12  27  47  70 100 150 190 234 292 358 426
#     4  11  22  44  72 102 137 184 235 292 349 414
#     4  12  27  49  67 102 150 190 233 297 362 417
#     4  11  22  42  74  99 136 180 233 294 351 414
#     4  12  25  43  71 106 138 180 240 288 359 430
#     4  12  25  46  73 102 137 188 238 289 351 436
#     4  11  22  44  75 103 134 183 240 292 348 418
#
# _framework density 23.791179
#
# number of rings (size 3 to 8) (size 9 to 14) (size 15 to 20)
#    0.000    0.500    5.000    5.250    1.750    0.000 
#    2.250    0.000    0.000    0.000    0.000    0.000 
#    0.000    0.000    0.000    0.000    0.000    0.000 
#
# Total GULP energy -89476.032596 kJ/mol
# GULP energy per Si atom -5592.252037 kJ/mol
# Density = 2.373703 g / cm^3
# Si number density = 23.791179 Si / 1000 Ang^3
#
#
#
# Elastic Constant Matrix: (Units=GPa)
#
#
# Indices 1 2 3 4 5 6 
#
# 1 61.4092 -10.5991 -6.9445 0.0000 2.6240 0.0000
# 2 -10.5991 115.2409 18.5694 0.0000 11.0398 0.0000
# 3 -6.9445 18.5694 65.1259 0.0000 -4.0569 0.0000
# 4 0.0000 0.0000 0.0000 33.6336 0.0000 4.8646
# 5 2.6240 11.0398 -4.0569 0.0000 35.7194 0.0000
# 6 0.0000 0.0000 0.0000 4.8646 0.0000 27.3715
#
#
#
# Elastic Compliance Matrix: (Units=1/GPa)
#
#
# Indices 1 2 3 4 5 6 
#
# 1 0.016750 0.001485 0.001266 0.000000 -0.001545 0.000000
# 2 0.001485 0.009588 -0.002787 0.000000 -0.003389 0.000000
# 3 0.001266 -0.002787 0.016449 0.000000 0.002636 0.000000
# 4 0.000000 0.000000 0.000000 0.030517 0.000000 -0.005424
# 5 -0.001545 -0.003389 0.002636 0.000000 0.029456 0.000000
# 6 0.000000 0.000000 0.000000 -0.005424 0.000000 0.037498
#
#
# Mechanical properties :
#
#
# Convention : Reuss Voigt Hill
#
# Bulk Modulus (GPa) = 23.41102 27.09196 25.25149
# Shear Modulus (GPa) = 32.34851 35.39492 33.87171
#
# Velocity S-wave (km/s) = 3.69139 3.86130 3.77730
# Velocity P-wave (km/s) = 5.29434 5.59389 5.44618
#
# Compressibility (1/GPa) = 0.04271493
#
# Stress axis : x y z
#
# Youngs Moduli (GPa) = 59.70263 104.30078 60.79511
#
# Poissons Ratio (x) = -0.15483 -0.07700
# Poissons Ratio (y) = -0.08863 0.16941
# Poissons Ratio (z) = -0.07561 0.29064
#
# Static dielectric constant tensor:
#      x y z
#    x 1.940030 0.000000 0.005610 
#    y 0.000000 1.891120 0.000000 
#    z 0.005610 0.000000 1.891600 
# 
# From -- ./inp_files/9153.got.cif
#   From: 2010.05.17/outbox.cif.g08.bks.cpg/sg9_5_cif.got.tgz:9153.got - 2010.06.03 20:04:27.
