data_PCOD9139436
_publ_section_title
;
Structure prediction by ZEFSAII (Michael W. Deem and Ramdas Pophale) SiO2 
 PCOD9139436
Probable space group: C C
;
_chemical_formula_sum "Si O2"
_cell_formula_units_Z 28
_cell_length_a 13.009855
_cell_length_b 9.468082
_cell_length_c 14.047706
_cell_angle_alpha 90.000000
_cell_angle_beta 41.638068
_cell_angle_gamma 90.000000
_cell_volume 1149.699855
_symmetry_space_group_name_H-M "C C"
_symmetry_group_IT_number 9
_symmetry_cell_setting 'monoclinic'
loop_
_space_group_symop_operation_xyz
x,y,z
x,-y,1/2+z
1/2+x,1/2+y,z
1/2+x,1/2-y,1/2+z
loop_
_atom_site_type_symbol
_atom_site_label
_atom_site_fract_x
_atom_site_fract_y
_atom_site_fract_z
Si Si1 0.741100 0.454578 0.216320
Si Si2 0.986329 0.833771 0.968886
Si Si3 0.926965 0.471160 0.425890
Si Si4 0.232060 0.358382 0.754280
Si Si5 0.454448 0.071262 0.208995
Si Si6 0.811593 0.059882 0.003283
Si Si7 0.400973 0.613853 0.741599
O O1 0.621632 0.573532 0.330478
O O2 0.708813 0.306136 0.288838
O O3 0.907238 0.500642 0.143754
O O4 0.773993 0.467043 0.081503
O O5 0.983097 0.675236 0.933424
O O6 0.829268 0.901973 0.033131
O O7 0.991766 0.860123 0.078566
O O8 0.905305 0.466800 0.327816
O O9 0.066389 0.580709 0.340678
O O10 0.334282 0.355369 0.585743
O O11 0.303575 0.473021 0.777679
O O12 0.361353 0.218781 0.283068
O O13 0.639237 0.092675 0.085739
O O14 0.928737 0.081742 0.834695
#
# Coordination Sequence:
#
# PCOD9139436 Si02
#       7
#     4   4   4   4   4   4   4
#     4  12  26  45  72 107 140 188 240 292 359 418
#     4  11  27  46  72 104 143 194 235 293 366 426
#     4  11  25  47  70 102 148 184 239 293 359 425
#     4  10  25  45  70 102 146 184 237 297 355 424
#     4  11  25  42  74 102 134 185 239 287 355 428
#     4  10  25  46  70  99 140 186 237 293 351 421
#     4  11  23  45  72  98 141 187 235 289 361 418
#
# _framework density 24.354182000000002
#
# number of rings (size 3 to 8) (size 9 to 14) (size 15 to 20)
#    0.000    1.143    1.429    2.571   16.000    1.143 
#    0.000    0.000    0.000    0.000    0.000    0.000 
#    0.000    0.000    0.000    0.000    0.000    0.000 
#
# Total GULP energy -78014.780547 kJ/mol
# GULP energy per Si atom -5572.484325 kJ/mol
# Density = 2.429875 g / cm^3
# Si number density = 24.354182 Si / 1000 Ang^3
#
#
#
# Elastic Constant Matrix: (Units=GPa)
#
#
# Indices 1 2 3 4 5 6 
#
# 1 40.6447 24.7427 24.7393 0.0000 6.2510 0.0000
# 2 24.7427 148.8886 31.2613 0.0000 -11.2032 0.0000
# 3 24.7393 31.2613 130.9030 0.0000 25.3584 0.0000
# 4 0.0000 0.0000 0.0000 29.0919 0.0000 0.2196
# 5 6.2510 -11.2032 25.3584 0.0000 39.7792 0.0000
# 6 0.0000 0.0000 0.0000 0.2196 0.0000 30.2498
#
#
#
# Elastic Compliance Matrix: (Units=1/GPa)
#
#
# Indices 1 2 3 4 5 6 
#
# 1 0.030276 -0.004456 -0.003985 0.000000 -0.003472 0.000000
# 2 -0.004456 0.008181 -0.001932 0.000000 0.004236 0.000000
# 3 -0.003985 -0.001932 0.010083 0.000000 -0.006346 0.000000
# 4 0.000000 0.000000 0.000000 0.034376 0.000000 -0.000250
# 5 -0.003472 0.004236 -0.006346 0.000000 0.030923 0.000000
# 6 0.000000 0.000000 0.000000 -0.000250 0.000000 0.033060
#
#
# Mechanical properties :
#
#
# Convention : Reuss Voigt Hill
#
# Bulk Modulus (GPa) = 35.97944 53.54698 44.76321
# Shear Modulus (GPa) = 28.26306 35.80371 32.03339
#
# Velocity S-wave (km/s) = 3.41031 3.83838 3.63066
# Velocity P-wave (km/s) = 5.50567 6.45591 5.99963
#
# Compressibility (1/GPa) = 0.02779365
#
# Stress axis : x y z
#
# Youngs Moduli (GPa) = 33.02996 122.22862 99.17542
#
# Poissons Ratio (x) = 0.54463 0.39522
# Poissons Ratio (y) = 0.14718 0.19164
# Poissons Ratio (z) = 0.13163 0.23619
#
# Static dielectric constant tensor:
#      x y z
#    x 1.985260 0.000000 -0.027310 
#    y 0.000000 1.941170 0.000000 
#    z -0.027310 0.000000 1.995580 
# 
# From -- ./inp_files/17819.got.cif
#   From: 2010.05.17/outbox.cif.g08.bks.cpg/sg9_9_cif.got.tgz:17819.got - 2010.06.03 20:04:27.
