data_PCOD9139339
_publ_section_title
;
Structure prediction by ZEFSAII (Michael W. Deem and Ramdas Pophale) SiO2 
 PCOD9139339
Probable space group: C C
;
_chemical_formula_sum "Si O2"
_cell_formula_units_Z 28
_cell_length_a 14.628610
_cell_length_b 5.278956
_cell_length_c 16.171439
_cell_angle_alpha 90.000000
_cell_angle_beta 123.663914
_cell_angle_gamma 90.000000
_cell_volume 1039.396965
_symmetry_space_group_name_H-M "C C"
_symmetry_group_IT_number 9
_symmetry_cell_setting 'monoclinic'
loop_
_space_group_symop_operation_xyz
x,y,z
x,-y,1/2+z
1/2+x,1/2+y,z
1/2+x,1/2-y,1/2+z
loop_
_atom_site_type_symbol
_atom_site_label
_atom_site_fract_x
_atom_site_fract_y
_atom_site_fract_z
Si Si1 0.337050 0.936620 0.335230
Si Si2 0.704683 0.511662 0.437906
Si Si3 0.521213 0.006633 0.687077
Si Si4 0.621542 0.500323 0.176031
Si Si5 0.949602 0.881245 0.781145
Si Si6 0.747496 0.014137 0.565652
Si Si7 0.518308 0.163297 0.515734
O O1 0.261997 0.959626 0.378434
O O2 0.248162 0.974558 0.218550
O O3 0.438309 0.121609 0.400316
O O4 0.390043 0.671357 0.337927
O O5 0.571562 0.517270 0.359768
O O6 0.737944 0.274820 0.511037
O O7 0.738207 0.776152 0.498583
O O8 0.572440 0.732295 0.702254
O O9 0.360583 0.509991 0.675053
O O10 0.466398 0.104827 0.742971
O O11 0.459317 0.049232 0.568534
O O12 0.610409 0.768437 0.218229
O O13 0.549620 0.554369 0.058755
O O14 0.634210 0.017934 0.562003
#
# Coordination Sequence:
#
# PCOD9139339 Si02
#       7
#     4   4   4   4   4   4   4
#     4  12  26  53  88 121 169 233 290 362 438 523
#     4  12  30  57  80 130 171 226 295 360 433 537
#     4  10  24  51  78 114 169 209 280 354 427 513
#     4  10  25  47  76 117 165 211 279 350 429 504
#     4  12  28  56  90 126 173 235 293 366 445 531
#     4  12  30  54  84 124 176 221 290 359 444 515
#     4  10  25  50  78 120 165 217 281 349 432 521
#
# _framework density 26.938697999999999
#
# number of rings (size 3 to 8) (size 9 to 14) (size 15 to 20)
#    0.857    0.000    2.857    1.714    6.000    4.571 
#   10.286    0.000    0.000    0.000    0.000    0.000 
#    0.000    0.000    0.000    0.000    0.000    0.000 
#
# Total GULP energy -78269.524622 kJ/mol
# GULP energy per Si atom -5590.680330 kJ/mol
# Density = 2.687738 g / cm^3
# Si number density = 26.938698 Si / 1000 Ang^3
#
#
#
# Elastic Constant Matrix: (Units=GPa)
#
#
# Indices 1 2 3 4 5 6 
#
# 1 149.4058 50.6381 60.3870 0.0000 16.5480 0.0000
# 2 50.6381 175.0569 84.1197 0.0000 13.6271 0.0003
# 3 60.3870 84.1197 137.6441 0.0000 42.3880 0.0000
# 4 0.0000 0.0000 0.0000 40.8474 0.0000 -1.7846
# 5 16.5480 13.6271 42.3880 0.0000 62.7151 0.0000
# 6 0.0000 0.0003 0.0000 -1.7846 0.0000 44.7797
#
#
#
# Elastic Compliance Matrix: (Units=1/GPa)
#
#
# Indices 1 2 3 4 5 6 
#
# 1 0.008239 -0.000903 -0.003098 0.000000 0.000116 0.000000
# 2 -0.000903 0.008390 -0.005358 0.000000 0.002037 0.000000
# 3 -0.003098 -0.005358 0.014256 0.000000 -0.007654 0.000000
# 4 0.000000 0.000000 0.000000 0.024524 0.000000 0.000977
# 5 0.000116 0.002037 -0.007654 0.000000 0.020645 0.000000
# 6 0.000000 0.000000 0.000000 0.000977 0.000000 0.022371
#
#
# Mechanical properties :
#
#
# Convention : Reuss Voigt Hill
#
# Bulk Modulus (GPa) = 82.20550 94.71072 88.45811
# Shear Modulus (GPa) = 41.25436 47.46588 44.36012
#
# Velocity S-wave (km/s) = 3.91758 4.20217 4.06237
# Velocity P-wave (km/s) = 7.14459 7.66671 7.41025
#
# Compressibility (1/GPa) = 0.01216464
#
# Stress axis : x y z
#
# Youngs Moduli (GPa) = 121.37794 119.18823 70.14563
#
# Poissons Ratio (x) = 0.10769 0.21732
# Poissons Ratio (y) = 0.10966 0.37587
# Poissons Ratio (z) = 0.37605 0.63866
#
# Static dielectric constant tensor:
#      x y z
#    x 2.141840 0.000000 -0.050020 
#    y 0.000000 2.111110 0.000000 
#    z -0.050020 0.000000 2.211600 
# 
# From -- ./inp_files/30405.got.cif
#   From: 2010.05.17/outbox.cif.g08.bks.cpg/sg9_16_cif.got.tgz:30405.got - 2010.06.03 20:04:27.
