data_PCOD9139560
_publ_section_title
;
Structure prediction by ZEFSAII (Michael W. Deem and Ramdas Pophale) SiO2 
 PCOD9139560
Probable space group: C C
;
_chemical_formula_sum "Si O2"
_cell_formula_units_Z 24
_cell_length_a 5.386187
_cell_length_b 19.314418
_cell_length_c 12.855160
_cell_angle_alpha 90.000000
_cell_angle_beta 49.011343
_cell_angle_gamma 90.000000
_cell_volume 1009.473977
_symmetry_space_group_name_H-M "C C"
_symmetry_group_IT_number 9
_symmetry_cell_setting 'monoclinic'
loop_
_space_group_symop_operation_xyz
x,y,z
x,-y,1/2+z
1/2+x,1/2+y,z
1/2+x,1/2-y,1/2+z
loop_
_atom_site_type_symbol
_atom_site_label
_atom_site_fract_x
_atom_site_fract_y
_atom_site_fract_z
Si Si1 0.152700 0.622796 0.203220
Si Si2 0.240975 0.499958 0.026797
Si Si3 0.176596 0.741500 0.050527
Si Si4 0.350521 0.964939 0.955687
Si Si5 0.789020 0.115375 0.665454
Si Si6 0.313972 0.820642 0.459216
O O1 0.097830 0.559814 0.138243
O O2 0.023879 0.692819 0.184538
O O3 0.545109 0.635238 0.097939
O O4 0.007919 0.599701 0.352222
O O5 0.168678 0.422422 0.092217
O O6 0.634038 0.504131 0.929867
O O7 0.118916 0.506049 0.944228
O O8 0.566896 0.734964 0.970084
O O9 0.999844 0.814782 0.097245
O O10 0.079906 0.707712 0.967123
O O11 0.066751 0.942203 0.116088
O O12 0.500112 0.135821 0.821010
#
# Coordination Sequence:
#
# PCOD9139560 Si02
#       6
#     4   4   4   4   4   4
#     4  10  26  46  69 102 135 184 225 287 336 418
#     4  10  26  40  73  98 140 173 233 275 352 395
#     4  10  26  40  70  96 139 173 232 272 349 394
#     4  10  26  42  73  97 138 175 231 280 344 404
#     4  10  26  44  68 102 136 182 224 289 334 412
#     4  10  26  42  71  95 136 177 229 277 341 409
#
# _framework density 23.774757000000001
#
# number of rings (size 3 to 8) (size 9 to 14) (size 15 to 20)
#    2.000    0.000    0.000    0.000   14.000    1.333 
#    0.000    0.000    0.000    0.000    0.000    0.000 
#    0.000    0.000    0.000    0.000    0.000    0.000 
#
# Total GULP energy -66855.048093 kJ/mol
# GULP energy per Si atom -5571.254008 kJ/mol
# Density = 2.372064 g / cm^3
# Si number density = 23.774757 Si / 1000 Ang^3
#
#
#
# Elastic Constant Matrix: (Units=GPa)
#
#
# Indices 1 2 3 4 5 6 
#
# 1 121.9670 1.1882 18.9006 -0.0001 16.5568 -0.0001
# 2 1.1882 68.7681 12.3336 0.0000 -4.9615 0.0000
# 3 18.9006 12.3336 75.9959 -0.0001 -17.8036 -0.0002
# 4 -0.0001 0.0000 -0.0001 31.2692 0.0001 -3.9564
# 5 16.5568 -4.9615 -17.8036 0.0001 24.1220 0.0002
# 6 -0.0001 0.0000 -0.0002 -3.9564 0.0002 -13.6631
#
#
#
# Elastic Compliance Matrix: (Units=1/GPa)
#
#
# Indices 1 2 3 4 5 6 
#
# 1 0.010505 -0.000047 -0.005195 0.000000 -0.011054 0.000000
# 2 -0.000047 0.015026 -0.002050 0.000000 0.001610 0.000000
# 3 -0.005195 -0.002050 0.018764 0.000000 0.016993 0.000000
# 4 0.000000 0.000000 0.000000 0.030850 0.000000 -0.008933
# 5 -0.011054 0.001610 0.016993 0.000000 0.061916 0.000001
# 6 0.000000 0.000000 0.000000 -0.008933 0.000001 -0.070603
#
#
# Mechanical properties :
#
#
# Convention : Reuss Voigt Hill
#
# Bulk Modulus (GPa) = 33.65622 36.84177 35.24899
# Shear Modulus (GPa) = 54.97771 23.96620 39.47196
#
# Velocity S-wave (km/s) = 4.81400 3.17843 4.07903
# Velocity P-wave (km/s) = 6.71465 5.38514 6.08630
#
# Compressibility (1/GPa) = 0.02971219
#
# Stress axis : x y z
#
# Youngs Moduli (GPa) = 95.19320 66.55024 53.29310
#
# Poissons Ratio (x) = 0.00315 0.27684
# Poissons Ratio (y) = 0.00451 0.10923
# Poissons Ratio (z) = 0.49449 0.13640
#
# Static dielectric constant tensor:
#      x y z
#    x 1.941880 0.000000 -0.004270 
#    y 0.000000 1.949090 0.000000 
#    z -0.004270 0.000000 1.899680 
# 
# From -- ./inp_files/13256.got.cif
#   From: 2010.05.17/outbox.cif.g08.bks.cpg/sg9_7_cif.got.tgz:13256.got - 2010.06.03 20:04:27.
