data_PCOD9139364
_publ_section_title
;
Structure prediction by ZEFSAII (Michael W. Deem and Ramdas Pophale) SiO2 
 PCOD9139364
Probable space group: C C
;
_chemical_formula_sum "Si O2"
_cell_formula_units_Z 28
_cell_length_a 8.867094
_cell_length_b 17.597311
_cell_length_c 7.866519
_cell_angle_alpha 90.000000
_cell_angle_beta 106.794175
_cell_angle_gamma 90.000000
_cell_volume 1175.115217
_symmetry_space_group_name_H-M "C C"
_symmetry_group_IT_number 9
_symmetry_cell_setting 'monoclinic'
loop_
_space_group_symop_operation_xyz
x,y,z
x,-y,1/2+z
1/2+x,1/2+y,z
1/2+x,1/2-y,1/2+z
loop_
_atom_site_type_symbol
_atom_site_label
_atom_site_fract_x
_atom_site_fract_y
_atom_site_fract_z
Si Si1 0.855950 0.085078 0.621020
Si Si2 0.805750 0.157376 0.940217
Si Si3 0.315901 0.825465 0.988762
Si Si4 0.899700 0.470760 0.821680
Si Si5 0.223152 0.878901 0.311111
Si Si6 0.134817 0.872339 0.627123
Si Si7 0.209290 0.570511 0.214198
O O1 0.770753 0.140135 0.732682
O O2 0.811604 0.098974 0.409588
O O3 0.044727 0.091794 0.711525
O O4 0.788274 0.003469 0.655505
O O5 0.877752 0.241796 0.975128
O O6 0.957637 0.107120 0.035894
O O7 0.689969 0.132874 0.055840
O O8 0.408103 0.902198 0.963923
O O9 0.165265 0.830069 0.812780
O O10 0.272608 0.829255 0.169003
O O11 0.854542 0.554580 0.865841
O O12 0.738768 0.447924 0.673578
O O13 0.049217 0.540721 0.251155
O O14 0.207755 0.834259 0.483259
#
# Coordination Sequence:
#
# PCOD9139364 Si02
#       7
#     4   4   4   4   4   4   4
#     4  11  26  41  72 100 132 178 226 277 334 399
#     4  11  24  47  67  96 137 175 227 274 339 402
#     4  10  25  41  68  98 130 178 219 279 334 388
#     4  10  25  43  66 101 135 168 227 278 333 401
#     4  11  22  43  73  94 132 181 226 268 334 406
#     4   9  23  43  65  94 128 174 224 264 332 406
#     4  12  25  42  67 103 134 172 225 284 336 388
#
# _framework density 23.827449000000001
#
# number of rings (size 3 to 8) (size 9 to 14) (size 15 to 20)
#    0.857    0.571    1.429    2.571    8.000    4.571 
#    2.571    0.000    0.000    0.000    0.000    0.000 
#    0.000    0.000    0.000    0.000    0.000    0.000 
#
# Total GULP energy -78031.112009 kJ/mol
# GULP energy per Si atom -5573.650858 kJ/mol
# Density = 2.377322 g / cm^3
# Si number density = 23.827449 Si / 1000 Ang^3
#
#
#
# Elastic Constant Matrix: (Units=GPa)
#
#
# Indices 1 2 3 4 5 6 
#
# 1 55.2673 8.8113 -12.1742 0.0000 0.5400 0.0000
# 2 8.8113 71.3291 29.5076 0.0000 -17.2738 0.0000
# 3 -12.1742 29.5076 127.8804 0.0000 -17.9998 0.0000
# 4 0.0000 0.0000 0.0000 17.9756 0.0000 -7.6649
# 5 0.5400 -17.2738 -17.9998 0.0000 39.0005 0.0000
# 6 0.0000 0.0000 0.0000 -7.6649 0.0000 14.8182
#
#
#
# Elastic Compliance Matrix: (Units=1/GPa)
#
#
# Indices 1 2 3 4 5 6 
#
# 1 0.019241 -0.003603 0.002568 0.000000 -0.000677 0.000000
# 2 -0.003603 0.017397 -0.003493 0.000000 0.006143 0.000000
# 3 0.002568 -0.003493 0.009248 0.000000 0.002686 0.000000
# 4 0.000000 0.000000 0.000000 0.071373 0.000000 0.036919
# 5 -0.000677 0.006143 0.002686 0.000000 0.029611 0.000000
# 6 0.000000 0.000000 0.000000 0.036919 0.000000 0.086581
#
#
# Mechanical properties :
#
#
# Convention : Reuss Voigt Hill
#
# Bulk Modulus (GPa) = 27.15162 34.08515 30.61838
# Shear Modulus (GPa) = 19.62452 29.58100 24.60276
#
# Velocity S-wave (km/s) = 2.87297 3.52727 3.21680
# Velocity P-wave (km/s) = 4.73552 5.56101 5.16479
#
# Compressibility (1/GPa) = 0.03683022
#
# Stress axis : x y z
#
# Youngs Moduli (GPa) = 51.97358 57.48057 108.12921
#
# Poissons Ratio (x) = 0.20710 -0.27765
# Poissons Ratio (y) = 0.18726 0.37765
# Poissons Ratio (z) = -0.13346 0.20076
#
# Static dielectric constant tensor:
#      x y z
#    x 1.939220 0.000000 0.014630 
#    y 0.000000 1.965970 0.000000 
#    z 0.014630 0.000000 2.007740 
# 
# From -- ./inp_files/5251.got.cif
#   From: 2010.05.17/outbox.cif.g08.bks.cpg/sg9_3_cif.got.tgz:5251.got - 2010.06.03 20:04:27.
