data_PCOD9139043
_publ_section_title
;
Structure prediction by ZEFSAII (Michael W. Deem and Ramdas Pophale) SiO2 
 PCOD9139043
Probable space group: C C
;
_chemical_formula_sum "Si O2"
_cell_formula_units_Z 28
_cell_length_a 5.264357
_cell_length_b 22.062156
_cell_length_c 10.926545
_cell_angle_alpha 90.000000
_cell_angle_beta 123.660550
_cell_angle_gamma 90.000000
_cell_volume 1056.269641
_symmetry_space_group_name_H-M "C C"
_symmetry_group_IT_number 9
_symmetry_cell_setting 'monoclinic'
loop_
_space_group_symop_operation_xyz
x,y,z
x,-y,1/2+z
1/2+x,1/2+y,z
1/2+x,1/2-y,1/2+z
loop_
_atom_site_type_symbol
_atom_site_label
_atom_site_fract_x
_atom_site_fract_y
_atom_site_fract_z
Si Si1 0.263950 0.768185 0.881430
Si Si2 0.198964 0.574722 0.755998
Si Si3 0.647889 0.992236 0.985434
Si Si4 0.285010 0.027515 0.206581
Si Si5 0.857180 0.274548 0.633595
Si Si6 0.244493 0.182158 0.637758
Si Si7 0.869297 0.388928 0.518783
O O1 0.408536 0.788664 0.789683
O O2 0.966043 0.733436 0.755627
O O3 0.501011 0.721340 0.004993
O O4 0.201348 0.812167 0.979627
O O5 0.177276 0.552037 0.613445
O O6 0.929120 0.621497 0.715307
O O7 0.103304 0.512622 0.805248
O O8 0.531671 0.601563 0.872546
O O9 0.592078 0.062258 0.017716
O O10 0.295766 0.967224 0.853017
O O11 0.023768 0.993199 0.067700
O O12 0.342750 0.088275 0.151462
O O13 0.939223 0.204088 0.625504
O O14 0.988882 0.320996 0.567284
#
# Coordination Sequence:
#
# PCOD9139043 Si02
#       7
#     4   4   4   4   4   4   4
#     4  10  24  44  66  98 136 178 238 294 350 426
#     4  11  24  44  71 100 138 189 235 296 365 434
#     4  11  24  44  70 105 142 182 240 295 364 438
#     4  11  24  44  70 105 142 182 240 295 364 438
#     4  11  24  45  69 100 139 186 243 294 358 429
#     4  11  24  45  69 100 139 186 243 294 358 429
#     4  11  24  44  71 100 138 189 235 296 365 434
#
# _framework density 26.508386000000002
#
# number of rings (size 3 to 8) (size 9 to 14) (size 15 to 20)
#    0.000    1.143    4.286    0.857    2.000    6.857 
#    5.143    0.000    0.000    0.000    0.000    0.000 
#    0.000    0.000    0.000    0.000    0.000    0.000 
#
# Total GULP energy -78014.238387 kJ/mol
# GULP energy per Si atom -5572.445599 kJ/mol
# Density = 2.644805 g / cm^3
# Si number density = 26.508386 Si / 1000 Ang^3
#
#
#
# Elastic Constant Matrix: (Units=GPa)
#
#
# Indices 1 2 3 4 5 6 
#
# 1 61.3903 9.1428 28.2598 0.0000 2.9956 0.0000
# 2 9.1428 77.3246 40.7248 0.0000 7.3447 0.0000
# 3 28.2598 40.7248 217.4859 0.0000 7.8514 0.0000
# 4 0.0000 0.0000 0.0000 37.5535 0.0000 -1.0376
# 5 2.9956 7.3447 7.8514 0.0000 39.8079 0.0000
# 6 0.0000 0.0000 0.0000 -1.0376 0.0000 22.3364
#
#
#
# Elastic Compliance Matrix: (Units=1/GPa)
#
#
# Indices 1 2 3 4 5 6 
#
# 1 0.017411 -0.000900 -0.002067 0.000000 -0.000736 0.000000
# 2 -0.000900 0.014576 -0.002536 0.000000 -0.002121 0.000000
# 3 -0.002067 -0.002536 0.005357 0.000000 -0.000433 0.000000
# 4 0.000000 0.000000 0.000000 0.026663 0.000000 0.001239
# 5 -0.000736 -0.002121 -0.000433 0.000000 0.025653 0.000000
# 6 0.000000 0.000000 0.000000 0.001239 0.000000 0.044827
#
#
# Mechanical properties :
#
#
# Convention : Reuss Voigt Hill
#
# Bulk Modulus (GPa) = 37.96828 56.93954 47.45391
# Shear Modulus (GPa) = 32.41019 38.47780 35.44400
#
# Velocity S-wave (km/s) = 3.50042 3.81403 3.66059
# Velocity P-wave (km/s) = 5.53999 6.39705 5.98388
#
# Compressibility (1/GPa) = 0.02633777
#
# Stress axis : x y z
#
# Youngs Moduli (GPa) = 57.43567 68.60601 186.66823
#
# Poissons Ratio (x) = 0.06174 0.38589
# Poissons Ratio (y) = 0.05169 0.47337
# Poissons Ratio (z) = 0.11873 0.17398
#
# Static dielectric constant tensor:
#      x y z
#    x 2.279850 0.000000 -0.016120 
#    y 0.000000 2.151520 0.000000 
#    z -0.016120 0.000000 2.051920 
# 
# From -- ./inp_files/13868.got.cif
#   From: 2010.05.17/outbox.cif.g08.bks.cpg/sg9_7_cif.got.tgz:13868.got - 2010.06.03 20:04:27.
