data_PCOD9139303
_publ_section_title
;
Structure prediction by ZEFSAII (Michael W. Deem and Ramdas Pophale) SiO2 
 PCOD9139303
Probable space group: C C
;
_chemical_formula_sum "Si O2"
_cell_formula_units_Z 32
_cell_length_a 28.233182
_cell_length_b 8.296040
_cell_length_c 10.711991
_cell_angle_alpha 90.000000
_cell_angle_beta 32.000630
_cell_angle_gamma 90.000000
_cell_volume 1329.591451
_symmetry_space_group_name_H-M "C C"
_symmetry_group_IT_number 9
_symmetry_cell_setting 'monoclinic'
loop_
_space_group_symop_operation_xyz
x,y,z
x,-y,1/2+z
1/2+x,1/2+y,z
1/2+x,1/2-y,1/2+z
loop_
_atom_site_type_symbol
_atom_site_label
_atom_site_fract_x
_atom_site_fract_y
_atom_site_fract_z
Si Si1 0.928920 0.502430 0.099270
Si Si2 0.273648 0.226343 0.486506
Si Si3 0.503598 0.805097 0.164721
Si Si4 0.183521 0.589001 0.398485
Si Si5 0.598606 0.400152 0.266555
Si Si6 0.847896 0.085275 0.608394
Si Si7 0.475774 0.274137 0.320699
Si Si8 0.074064 0.730557 0.839819
O O1 0.834932 0.569436 0.352268
O O2 0.976038 0.408684 0.105996
O O3 0.929098 0.611094 0.477651
O O4 0.990916 0.660410 0.947334
O O5 0.238088 0.274500 0.701325
O O6 0.193526 0.181090 0.573203
O O7 0.324836 0.373842 0.304425
O O8 0.408688 0.733875 0.426012
O O9 0.588509 0.903693 0.036334
O O10 0.549152 0.642752 0.006965
O O11 0.156110 0.624078 0.604073
O O12 0.253797 0.442221 0.246136
O O13 0.544921 0.325042 0.272933
O O14 0.600002 0.589829 0.244111
O O15 0.904475 0.919503 0.468690
O O16 0.533639 0.241114 0.068089
#
# Coordination Sequence:
#
# PCOD9139303 Si02
#       8
#     4   4   4   4   4   4   4   4
#     4  11  27  46  76 109 153 198 259 327 398 473
#     4  11  27  48  72 114 154 198 266 327 390 486
#     4  10  24  50  75 108 153 203 254 325 400 472
#     4  11  28  46  76 110 152 202 265 317 393 480
#     4  10  24  48  73 107 149 204 249 325 395 472
#     4  12  26  48  79 111 155 210 261 333 398 476
#     4  11  26  48  76 111 147 207 264 314 410 463
#     4  12  26  46  79 104 153 204 254 324 392 482
#
# _framework density 24.067543000000001
#
# number of rings (size 3 to 8) (size 9 to 14) (size 15 to 20)
#    0.000    1.000    1.250    3.000   15.750    1.000 
#    2.250    0.000    0.000    0.000    0.000    0.000 
#    0.000    0.000    0.000    0.000    0.000    0.000 
#
# Total GULP energy -89318.304836 kJ/mol
# GULP energy per Si atom -5582.394052 kJ/mol
# Density = 2.401276 g / cm^3
# Si number density = 24.067543 Si / 1000 Ang^3
#
#
#
# Elastic Constant Matrix: (Units=GPa)
#
#
# Indices 1 2 3 4 5 6 
#
# 1 88.1910 28.5409 53.2014 0.0000 -14.0139 0.0000
# 2 28.5409 83.0313 36.2465 0.0000 -4.1917 0.0000
# 3 53.2014 36.2465 145.2741 0.0000 6.5623 0.0000
# 4 0.0000 0.0000 0.0000 41.8419 0.0000 -4.5018
# 5 -14.0139 -4.1917 6.5623 0.0000 32.8893 0.0000
# 6 0.0000 0.0000 0.0000 -4.5018 0.0000 28.3911
#
#
#
# Elastic Compliance Matrix: (Units=1/GPa)
#
#
# Indices 1 2 3 4 5 6 
#
# 1 0.017137 -0.002897 -0.005919 0.000000 0.008114 0.000000
# 2 -0.002897 0.014199 -0.002531 0.000000 0.001080 0.000000
# 3 -0.005919 -0.002531 0.009900 0.000000 -0.004820 0.000000
# 4 0.000000 0.000000 0.000000 0.024314 0.000000 0.003855
# 5 0.008114 0.001080 -0.004820 0.000000 0.034962 0.000000
# 6 0.000000 0.000000 0.000000 0.003855 0.000000 0.035834
#
#
# Mechanical properties :
#
#
# Convention : Reuss Voigt Hill
#
# Bulk Modulus (GPa) = 53.93122 61.38598 57.65860
# Shear Modulus (GPa) = 30.26271 33.85830 32.06050
#
# Velocity S-wave (km/s) = 3.54984 3.75481 3.65376
# Velocity P-wave (km/s) = 6.26568 6.66027 6.46599
#
# Compressibility (1/GPa) = 0.01854214
#
# Stress axis : x y z
#
# Youngs Moduli (GPa) = 58.35403 70.42939 101.00554
#
# Poissons Ratio (x) = 0.20402 0.59790
# Poissons Ratio (y) = 0.16904 0.25560
# Poissons Ratio (z) = 0.34542 0.17822
#
# Static dielectric constant tensor:
#      x y z
#    x 1.977750 0.000000 0.085810 
#    y 0.000000 1.922560 0.000000 
#    z 0.085810 0.000000 2.013640 
# 
# From -- ./inp_files/21457.got.cif
#   From: 2010.05.17/outbox.cif.g08.bks.cpg/sg9_11_cif.got.tgz:21457.got - 2010.06.03 20:04:27.
