data_PCOD9139725
_publ_section_title
;
Structure prediction by ZEFSAII (Michael W. Deem and Ramdas Pophale) SiO2 
 PCOD9139725
Probable space group: C C
;
_chemical_formula_sum "Si O2"
_cell_formula_units_Z 32
_cell_length_a 5.395707
_cell_length_b 21.017378
_cell_length_c 12.089186
_cell_angle_alpha 90.000000
_cell_angle_beta 94.955687
_cell_angle_gamma 90.000000
_cell_volume 1365.832475
_symmetry_space_group_name_H-M "C C"
_symmetry_group_IT_number 9
_symmetry_cell_setting 'monoclinic'
loop_
_space_group_symop_operation_xyz
x,y,z
x,-y,1/2+z
1/2+x,1/2+y,z
1/2+x,1/2-y,1/2+z
loop_
_atom_site_type_symbol
_atom_site_label
_atom_site_fract_x
_atom_site_fract_y
_atom_site_fract_z
Si Si1 0.475710 0.880373 0.764600
Si Si2 0.651851 0.697296 0.716207
Si Si3 0.400982 0.572734 0.697689
Si Si4 0.682862 0.527534 0.096344
Si Si5 0.653272 0.264899 0.749062
Si Si6 0.776314 0.084383 0.940385
Si Si7 0.263632 0.302374 0.589451
Si Si8 0.046337 0.550540 0.492670
O O1 0.377020 0.933704 0.676560
O O2 0.257207 0.832028 0.796559
O O3 0.667358 0.839403 0.697076
O O4 0.569294 0.913862 0.878350
O O5 0.628885 0.622302 0.709888
O O6 0.394862 0.720436 0.761645
O O7 0.644895 0.732583 0.595893
O O8 0.906691 0.726128 0.777174
O O9 0.493793 0.501377 0.679433
O O10 0.271174 0.579566 0.809882
O O11 0.210999 0.585660 0.590936
O O12 0.550661 0.573086 0.003085
O O13 0.777013 0.465381 0.033290
O O14 0.554797 0.287139 0.622423
O O15 0.634608 0.022490 0.979176
O O16 0.698541 0.151914 0.987463
#
# Coordination Sequence:
#
# PCOD9139725 Si02
#       8
#     4   4   4   4   4   4   4   4
#     4  11  20  41  70  99 135 180 241 294 351 428
#     4   9  21  44  68 100 135 178 237 287 351 414
#     4  11  26  42  64 100 149 181 232 297 362 422
#     4  11  22  40  64 102 134 184 231 296 358 427
#     4   9  20  40  74  94 129 179 232 289 339 415
#     4  11  22  41  66 102 136 184 238 291 361 426
#     4   9  20  40  72  96 129 179 240 288 341 422
#     4  11  25  38  64 101 141 185 227 292 365 426
#
# _framework density 23.428936
#
# number of rings (size 3 to 8) (size 9 to 14) (size 15 to 20)
#    0.750    1.000    2.500    1.500    3.500    2.000 
#    0.000    6.250    0.000    0.000    0.000    0.000 
#    0.000    0.000    0.000    0.000    0.000    0.000 
#
# Total GULP energy -89162.161231 kJ/mol
# GULP energy per Si atom -5572.635077 kJ/mol
# Density = 2.337561 g / cm^3
# Si number density = 23.428936 Si / 1000 Ang^3
#
#
#
# Elastic Constant Matrix: (Units=GPa)
#
#
# Indices 1 2 3 4 5 6 
#
# 1 81.7548 8.2314 19.1547 0.0000 4.3302 0.0000
# 2 8.2314 55.0382 21.6296 0.0000 -0.7537 0.0000
# 3 19.1547 21.6296 120.1539 0.0000 2.7282 0.0000
# 4 0.0000 0.0000 0.0000 20.7725 0.0000 3.4162
# 5 4.3302 -0.7537 2.7282 0.0000 19.4145 0.0000
# 6 0.0000 0.0000 0.0000 3.4162 0.0000 31.4830
#
#
#
# Elastic Compliance Matrix: (Units=1/GPa)
#
#
# Indices 1 2 3 4 5 6 
#
# 1 0.012916 -0.001273 -0.001769 0.000000 -0.002682 0.000000
# 2 -0.001273 0.019709 -0.003379 0.000000 0.001524 0.000000
# 3 -0.001769 -0.003379 0.009237 0.000000 -0.001035 0.000000
# 4 0.000000 0.000000 0.000000 0.049015 0.000000 -0.005319
# 5 -0.002682 0.001524 -0.001035 0.000000 0.052311 0.000000
# 6 0.000000 0.000000 0.000000 -0.005319 0.000000 0.032340
#
#
# Mechanical properties :
#
#
# Convention : Reuss Voigt Hill
#
# Bulk Modulus (GPa) = 34.46138 39.44205 36.95171
# Shear Modulus (GPa) = 25.24691 28.19607 26.72149
#
# Velocity S-wave (km/s) = 3.28624 3.47287 3.38084
# Velocity P-wave (km/s) = 5.39814 5.74042 5.57191
#
# Compressibility (1/GPa) = 0.02901799
#
# Stress axis : x y z
#
# Youngs Moduli (GPa) = 77.42098 50.73927 108.26578
#
# Poissons Ratio (x) = 0.06460 0.19152
# Poissons Ratio (y) = 0.09858 0.36588
# Poissons Ratio (z) = 0.13696 0.17147
#
# Static dielectric constant tensor:
#      x y z
#    x 2.023540 0.000000 -0.030210 
#    y 0.000000 1.908660 0.000000 
#    z -0.030210 0.000000 1.854720 
# 
# From -- ./inp_files/13642.got.cif
#   From: 2010.05.17/outbox.cif.g08.bks.cpg/sg9_7_cif.got.tgz:13642.got - 2010.06.03 20:04:27.
