data_PCOD9139541
_publ_section_title
;
Structure prediction by ZEFSAII (Michael W. Deem and Ramdas Pophale) SiO2 
 PCOD9139541
Probable space group: C C
;
_chemical_formula_sum "Si O2"
_cell_formula_units_Z 32
_cell_length_a 14.508986
_cell_length_b 7.661390
_cell_length_c 12.145190
_cell_angle_alpha 90.000000
_cell_angle_beta 117.535090
_cell_angle_gamma 90.000000
_cell_volume 1197.124466
_symmetry_space_group_name_H-M "C C"
_symmetry_group_IT_number 9
_symmetry_cell_setting 'monoclinic'
loop_
_space_group_symop_operation_xyz
x,y,z
x,-y,1/2+z
1/2+x,1/2+y,z
1/2+x,1/2-y,1/2+z
loop_
_atom_site_type_symbol
_atom_site_label
_atom_site_fract_x
_atom_site_fract_y
_atom_site_fract_z
Si Si1 0.296050 0.764196 0.497140
Si Si2 0.858701 0.119246 0.978264
Si Si3 0.739495 0.472688 0.249948
Si Si4 0.949950 0.665464 0.370339
Si Si5 0.031463 0.339686 0.682682
Si Si6 0.673453 0.289325 0.986524
Si Si7 0.645533 0.078273 0.588563
Si Si8 0.051697 0.930715 0.725629
O O1 0.322533 0.577364 0.462023
O O2 0.237736 0.869577 0.367827
O O3 0.408566 0.858448 0.579546
O O4 0.230964 0.705719 0.572710
O O5 0.771491 0.258627 0.961451
O O6 0.942497 0.137005 0.123693
O O7 0.894917 0.154705 0.873038
O O8 0.858663 0.528874 0.308739
O O9 0.711900 0.386039 0.117611
O O10 0.655317 0.630161 0.217867
O O11 0.022798 0.651270 0.307560
O O12 0.029596 0.650510 0.512834
O O13 0.123217 0.467554 0.690980
O O14 0.049866 0.131304 0.678477
O O15 0.645309 0.095683 0.009904
O O16 0.580838 0.384272 0.867670
#
# Coordination Sequence:
#
# PCOD9139541 Si02
#       8
#     4   4   4   4   4   4   4   4
#     4  10  25  50  76 108 157 207 258 325 399 478
#     4  10  26  49  73 110 149 203 257 317 398 469
#     4  12  25  45  78 108 153 199 258 324 393 472
#     4  12  27  44  76 110 151 200 260 331 390 480
#     4  11  25  47  73 115 152 204 265 328 396 471
#     4  11  26  47  73 110 149 207 256 322 394 472
#     4  11  25  47  73 108 151 201 262 323 396 471
#     4  11  25  47  76 107 154 197 260 322 398 471
#
# _framework density 26.730719000000001
#
# number of rings (size 3 to 8) (size 9 to 14) (size 15 to 20)
#    0.000    1.000    3.750    0.750    7.000    4.000 
#    4.500    0.000    0.000    0.000    0.000    0.000 
#    0.000    0.000    0.000    0.000    0.000    0.000 
#
# Total GULP energy -89183.288222 kJ/mol
# GULP energy per Si atom -5573.955514 kJ/mol
# Density = 2.666988 g / cm^3
# Si number density = 26.730719 Si / 1000 Ang^3
#
#
#
# Elastic Constant Matrix: (Units=GPa)
#
#
# Indices 1 2 3 4 5 6 
#
# 1 112.8367 37.6695 30.2949 0.0000 -7.7138 0.0000
# 2 37.6695 41.6664 18.8796 0.0000 -13.6404 0.0000
# 3 30.2949 18.8796 113.0063 0.0000 12.3409 0.0000
# 4 0.0000 0.0000 0.0000 -54.9940 0.0000 36.0038
# 5 -7.7138 -13.6404 12.3409 0.0000 59.3086 0.0000
# 6 0.0000 0.0000 0.0000 36.0038 0.0000 31.9010
#
#
#
# Elastic Compliance Matrix: (Units=1/GPa)
#
#
# Indices 1 2 3 4 5 6 
#
# 1 0.012986 -0.011229 -0.001543 0.000000 -0.000572 0.000000
# 2 -0.011229 0.038899 -0.004406 0.000000 0.008403 0.000000
# 3 -0.001543 -0.004406 0.010367 0.000000 -0.003371 0.000000
# 4 0.000000 0.000000 0.000000 -0.010457 0.000000 0.011802
# 5 -0.000572 0.008403 -0.003371 0.000000 0.019421 0.000000
# 6 0.000000 0.000000 0.000000 0.011802 0.000000 0.018027
#
#
# Mechanical properties :
#
#
# Convention : Reuss Voigt Hill
#
# Bulk Modulus (GPa) = 35.84665 49.02194 42.43429
# Shear Modulus (GPa) = 37.62322 19.28747 28.45534
#
# Velocity S-wave (km/s) = 3.75572 2.68908 3.26624
# Velocity P-wave (km/s) = 5.67861 5.29344 5.48941
#
# Compressibility (1/GPa) = 0.02789661
#
# Stress axis : x y z
#
# Youngs Moduli (GPa) = 77.00579 25.70763 96.46029
#
# Poissons Ratio (x) = 0.28866 0.14883
# Poissons Ratio (y) = 0.86467 0.42502
# Poissons Ratio (z) = 0.11881 0.11327
#
# Static dielectric constant tensor:
#      x y z
#    x 2.222940 0.000000 -0.025210 
#    y 0.000000 2.551260 0.000000 
#    z -0.025210 0.000000 2.172140 
# 
# From -- ./inp_files/17958.got.cif
#   From: 2010.05.17/outbox.cif.g08.bks.cpg/sg9_9_cif.got.tgz:17958.got - 2010.06.03 20:04:27.
