data_PCOD9139697
_publ_section_title
;
Structure prediction by ZEFSAII (Michael W. Deem and Ramdas Pophale) SiO2 
 PCOD9139697
Probable space group: C C
;
_chemical_formula_sum "Si O2"
_cell_formula_units_Z 32
_cell_length_a 11.606454
_cell_length_b 19.036405
_cell_length_c 14.859678
_cell_angle_alpha 90.000000
_cell_angle_beta 149.852578
_cell_angle_gamma 90.000000
_cell_volume 1648.897357
_symmetry_space_group_name_H-M "C C"
_symmetry_group_IT_number 9
_symmetry_cell_setting 'monoclinic'
loop_
_space_group_symop_operation_xyz
x,y,z
x,-y,1/2+z
1/2+x,1/2+y,z
1/2+x,1/2-y,1/2+z
loop_
_atom_site_type_symbol
_atom_site_label
_atom_site_fract_x
_atom_site_fract_y
_atom_site_fract_z
Si Si1 0.188090 0.657362 0.946970
Si Si2 0.572109 0.427921 0.301414
Si Si3 0.019446 0.892257 0.061550
Si Si4 0.737167 0.688090 0.554129
Si Si5 0.053032 0.452299 0.690388
Si Si6 0.431179 0.022225 0.793345
Si Si7 0.128263 0.097472 0.312683
Si Si8 0.609257 0.065007 0.574282
O O1 0.010261 0.670267 0.744653
O O2 0.061620 0.593147 0.911941
O O3 0.200155 0.731623 0.004213
O O4 0.448419 0.628970 0.119220
O O5 0.543545 0.392553 0.184916
O O6 0.578649 0.513847 0.291028
O O7 0.363459 0.407930 0.226072
O O8 0.820357 0.412204 0.509263
O O9 0.132806 0.829803 0.081250
O O10 0.164839 0.960683 0.126337
O O11 0.758583 0.902805 0.858006
O O12 0.611509 0.638272 0.396361
O O13 0.123322 0.500075 0.653178
O O14 0.995375 0.503747 0.735123
O O15 0.520031 0.962306 0.917832
O O16 0.393002 0.109074 0.463586
#
# Coordination Sequence:
#
# PCOD9139697 Si02
#       8
#     4   4   4   4   4   4   4   4
#     4  11  21  39  58  84 121 153 198 252 292 351
#     4  11  21  37  56  88 125 155 189 247 301 362
#     4  11  21  35  55  88 121 156 196 239 302 363
#     4  11  24  37  61  90 116 159 203 242 304 353
#     4  11  21  35  57  85 128 157 192 244 304 359
#     4  11  21  36  59  86 123 156 195 244 303 356
#     4  11  21  38  57  87 123 155 197 248 298 355
#     4  11  20  35  57  88 121 157 190 246 302 357
#
# _framework density 19.406908000000001
#
# number of rings (size 3 to 8) (size 9 to 14) (size 15 to 20)
#    0.000    1.000    6.250    4.500    0.000    0.000 
#    2.250    0.000    0.000    0.000    6.500    0.000 
#    0.000    0.000    0.000    0.000    0.000    0.000 
#
# Total GULP energy -89225.270683 kJ/mol
# GULP energy per Si atom -5576.579418 kJ/mol
# Density = 1.936274 g / cm^3
# Si number density = 19.406908 Si / 1000 Ang^3
#
#
#
# Elastic Constant Matrix: (Units=GPa)
#
#
# Indices 1 2 3 4 5 6 
#
# 1 83.1491 -1.2801 22.7028 0.0013 5.0070 0.0010
# 2 -1.2801 31.7096 14.0884 0.0008 -4.0622 0.0010
# 3 22.7028 14.0884 130.6543 0.0040 11.9152 0.0028
# 4 0.0013 0.0008 0.0040 15.1868 0.0021 -1.6279
# 5 5.0070 -4.0622 11.9152 0.0021 32.4747 0.0014
# 6 0.0010 0.0010 0.0028 -1.6279 0.0014 9.9923
#
#
#
# Elastic Compliance Matrix: (Units=1/GPa)
#
#
# Indices 1 2 3 4 5 6 
#
# 1 0.012727 0.001403 -0.002276 -0.000001 -0.000952 -0.000001
# 2 0.001403 0.034308 -0.004464 -0.000002 0.005713 -0.000004
# 3 -0.002276 -0.004464 0.008846 -0.000002 -0.003453 -0.000002
# 4 -0.000001 -0.000002 -0.000002 0.067017 -0.000004 0.010918
# 5 -0.000952 0.005713 -0.003453 -0.000004 0.032921 -0.000005
# 6 -0.000001 -0.000004 -0.000002 0.010918 -0.000005 0.101855
#
#
# Mechanical properties :
#
#
# Convention : Reuss Voigt Hill
#
# Bulk Modulus (GPa) = 22.12081 35.17058 28.64569
# Shear Modulus (GPa) = 17.64183 25.53092 21.58637
#
# Velocity S-wave (km/s) = 3.01831 3.63100 3.33874
# Velocity P-wave (km/s) = 4.85491 5.97837 5.44569
#
# Compressibility (1/GPa) = 0.04520630
#
# Stress axis : x y z
#
# Youngs Moduli (GPa) = 78.57362 29.14762 113.05134
#
# Poissons Ratio (x) = -0.04090 0.25730
# Poissons Ratio (y) = -0.11024 0.50469
# Poissons Ratio (z) = 0.17883 0.13012
#
# Static dielectric constant tensor:
#      x y z
#    x 1.696060 0.000000 0.033110 
#    y 0.000000 1.659840 0.000000 
#    z 0.033110 0.000000 1.741340 
# 
# From -- ./inp_files/25055.got.cif
#   From: 2010.05.17/outbox.cif.g08.bks.cpg/sg9_13_cif.got.tgz:25055.got - 2010.06.03 20:04:27.
