data_PCOD9139192
_publ_section_title
;
Structure prediction by ZEFSAII (Michael W. Deem and Ramdas Pophale) SiO2 
 PCOD9139192
Probable space group: C C
;
_chemical_formula_sum "Si O2"
_cell_formula_units_Z 32
_cell_length_a 7.448753
_cell_length_b 14.346152
_cell_length_c 14.136527
_cell_angle_alpha 90.000000
_cell_angle_beta 113.566582
_cell_angle_gamma 90.000000
_cell_volume 1384.649086
_symmetry_space_group_name_H-M "C C"
_symmetry_group_IT_number 9
_symmetry_cell_setting 'monoclinic'
loop_
_space_group_symop_operation_xyz
x,y,z
x,-y,1/2+z
1/2+x,1/2+y,z
1/2+x,1/2-y,1/2+z
loop_
_atom_site_type_symbol
_atom_site_label
_atom_site_fract_x
_atom_site_fract_y
_atom_site_fract_z
Si Si1 0.723950 0.772475 0.448320
Si Si2 0.486923 0.723771 0.729671
Si Si3 0.241449 0.167827 0.620658
Si Si4 0.182273 0.098896 0.303383
Si Si5 0.123680 0.416460 0.836980
Si Si6 0.044983 0.018277 0.454166
Si Si7 0.658139 0.890280 0.270864
Si Si8 0.127577 0.834521 0.581731
O O1 0.660839 0.755439 0.542621
O O2 0.661985 0.693236 0.361259
O O3 0.666357 0.867502 0.385107
O O4 0.957071 0.765920 0.511984
O O5 0.626040 0.662685 0.693813
O O6 0.614049 0.807695 0.803493
O O7 0.349755 0.659757 0.767502
O O8 0.330286 0.780908 0.633256
O O9 0.469692 0.161957 0.690713
O O10 0.194433 0.084097 0.540680
O O11 0.411872 0.073078 0.342090
O O12 0.101623 0.119726 0.181531
O O13 0.073771 0.026162 0.347585
O O14 0.328456 0.440402 0.931687
O O15 0.128999 0.498280 0.757420
O O16 0.101092 0.917548 0.502758
#
# Coordination Sequence:
#
# PCOD9139192 Si02
#       8
#     4   4   4   4   4   4   4   4
#     4  11  21  43  71  94 143 192 233 302 370 434
#     4  11  26  45  72 102 145 188 244 305 364 451
#     4  11  26  42  71 104 135 192 243 290 375 449
#     4  10  24  46  68  98 152 184 238 318 354 447
#     4  11  25  43  73 102 139 194 237 298 376 431
#     4  11  26  44  71 106 142 186 246 301 366 450
#     4  12  24  48  67 104 146 191 239 310 370 437
#     4  11  22  47  69 102 142 189 236 302 373 425
#
# _framework density 23.110548999999999
#
# number of rings (size 3 to 8) (size 9 to 14) (size 15 to 20)
#    0.000    1.000    5.000    1.500    7.000    3.000 
#    0.000    0.000    0.000    0.000    0.000    0.000 
#    0.000    0.000    0.000    0.000    0.000    0.000 
#
# Total GULP energy -89247.728398 kJ/mol
# GULP energy per Si atom -5577.983025 kJ/mol
# Density = 2.305795 g / cm^3
# Si number density = 23.110549 Si / 1000 Ang^3
#
#
#
# Elastic Constant Matrix: (Units=GPa)
#
#
# Indices 1 2 3 4 5 6 
#
# 1 61.8887 20.3096 29.2224 0.0000 -15.2378 0.0000
# 2 20.3096 61.0753 25.1200 0.0000 -10.3374 0.0000
# 3 29.2224 25.1200 90.8599 0.0000 9.5581 0.0000
# 4 0.0000 0.0000 0.0000 37.8151 0.0000 10.2432
# 5 -15.2378 -10.3374 9.5581 0.0000 36.5174 0.0000
# 6 0.0000 0.0000 0.0000 10.2432 0.0000 20.5080
#
#
#
# Elastic Compliance Matrix: (Units=1/GPa)
#
#
# Indices 1 2 3 4 5 6 
#
# 1 0.023570 -0.002643 -0.008027 0.000000 0.011188 0.000000
# 2 -0.002643 0.020545 -0.005477 0.000000 0.006147 0.000000
# 3 -0.008027 -0.005477 0.016059 0.000000 -0.009103 0.000000
# 4 0.000000 0.000000 0.000000 0.030582 0.000000 -0.015275
# 5 0.011188 0.006147 -0.009103 0.000000 0.036175 0.000000
# 6 0.000000 0.000000 0.000000 -0.015275 0.000000 0.056391
#
#
# Mechanical properties :
#
#
# Convention : Reuss Voigt Hill
#
# Bulk Modulus (GPa) = 35.86590 40.34753 38.10671
# Shear Modulus (GPa) = 22.23119 28.24624 25.23872
#
# Velocity S-wave (km/s) = 3.10490 3.49982 3.30826
# Velocity P-wave (km/s) = 5.32980 5.81619 5.57830
#
# Compressibility (1/GPa) = 0.02788164
#
# Stress axis : x y z
#
# Youngs Moduli (GPa) = 42.42667 48.67381 62.26904
#
# Poissons Ratio (x) = 0.12863 0.49983
# Poissons Ratio (y) = 0.11212 0.34103
# Poissons Ratio (z) = 0.34056 0.26657
#
# Static dielectric constant tensor:
#      x y z
#    x 1.883290 0.000000 -0.034550 
#    y 0.000000 1.968690 0.000000 
#    z -0.034550 0.000000 1.855210 
# 
# From -- ./inp_files/23287.got.cif
#   From: 2010.05.17/outbox.cif.g08.bks.cpg/sg9_12_cif.got.tgz:23287.got - 2010.06.03 20:04:27.
