data_PCOD9139336
_publ_section_title
;
Structure prediction by ZEFSAII (Michael W. Deem and Ramdas Pophale) SiO2 
 PCOD9139336
Probable space group: C C
;
_chemical_formula_sum "Si O2"
_cell_formula_units_Z 24
_cell_length_a 12.817589
_cell_length_b 8.391292
_cell_length_c 24.709980
_cell_angle_alpha 90.000000
_cell_angle_beta 22.632311
_cell_angle_gamma 90.000000
_cell_volume 1022.728991
_symmetry_space_group_name_H-M "C C"
_symmetry_group_IT_number 9
_symmetry_cell_setting 'monoclinic'
loop_
_space_group_symop_operation_xyz
x,y,z
x,-y,1/2+z
1/2+x,1/2+y,z
1/2+x,1/2-y,1/2+z
loop_
_atom_site_type_symbol
_atom_site_label
_atom_site_fract_x
_atom_site_fract_y
_atom_site_fract_z
Si Si1 0.673840 0.425435 0.004970
Si Si2 0.361905 0.946405 0.111365
Si Si3 0.442585 0.597998 0.501307
Si Si4 0.504126 0.735491 0.143478
Si Si5 0.810575 0.816836 0.364817
Si Si6 0.453649 0.757363 0.959573
O O1 0.453814 0.432528 0.061133
O O2 0.673818 0.600133 0.030673
O O3 0.900992 0.331034 0.860067
O O4 0.695676 0.315335 0.048053
O O5 0.429174 0.871534 0.136567
O O6 0.038480 0.950182 0.257088
O O7 0.442024 0.826367 0.025079
O O8 0.538705 0.102965 0.018596
O O9 0.696631 0.718313 0.368566
O O10 0.471435 0.432455 0.456153
O O11 0.177895 0.687385 0.608042
O O12 0.224746 0.672073 0.302503
#
# Coordination Sequence:
#
# PCOD9139336 Si02
#       6
#     4   4   4   4   4   4
#     4  10  24  51  67 110 148 198 251 310 369 448
#     4  12  25  48  76 115 152 200 256 314 376 464
#     4  10  25  48  73 112 144 201 245 312 379 441
#     4  12  25  48  77 110 149 201 255 313 381 444
#     4  10  25  49  74 110 154 196 251 315 374 448
#     4  12  26  46  79 105 153 198 252 314 379 451
#
# _framework density 23.466626999999999
#
# number of rings (size 3 to 8) (size 9 to 14) (size 15 to 20)
#    1.000    0.000    3.333    2.000    7.000    1.333 
#    3.000    0.000    0.000    0.000    0.000    0.000 
#    0.000    0.000    0.000    0.000    0.000    0.000 
#
# Total GULP energy -66809.761958 kJ/mol
# GULP energy per Si atom -5567.480163 kJ/mol
# Density = 2.341322 g / cm^3
# Si number density = 23.466627 Si / 1000 Ang^3
#
#
#
# Elastic Constant Matrix: (Units=GPa)
#
#
# Indices 1 2 3 4 5 6 
#
# 1 153.3070 20.4557 5.4505 -0.0042 -16.4620 0.0055
# 2 20.4557 89.1799 6.0456 0.0016 -14.7637 0.0017
# 3 5.4505 6.0456 20.2076 -0.0517 -0.0083 0.0174
# 4 -0.0042 0.0016 -0.0517 22.8322 -0.0092 -0.2140
# 5 -16.4620 -14.7637 -0.0083 -0.0092 25.1351 0.0034
# 6 0.0055 0.0017 0.0174 -0.2140 0.0034 30.0725
#
#
#
# Elastic Compliance Matrix: (Units=1/GPa)
#
#
# Indices 1 2 3 4 5 6 
#
# 1 0.007143 -0.000831 -0.001676 -0.000001 0.004190 -0.000001
# 2 -0.000831 0.012803 -0.003603 -0.000006 0.006974 0.000001
# 3 -0.001676 -0.003603 0.051015 0.000114 -0.003197 -0.000028
# 4 -0.000001 -0.000006 0.000114 0.043801 0.000012 0.000312
# 5 0.004190 0.006974 -0.003197 0.000012 0.046624 -0.000005
# 6 -0.000001 0.000001 -0.000028 0.000312 -0.000005 0.033255
#
#
# Mechanical properties :
#
#
# Convention : Reuss Voigt Hill
#
# Bulk Modulus (GPa) = 17.02420 36.28867 26.65643
# Shear Modulus (GPa) = 22.08055 30.99080 26.53568
#
# Velocity S-wave (km/s) = 3.07079 3.63799 3.36636
# Velocity P-wave (km/s) = 4.45459 5.75710 5.14721
#
# Compressibility (1/GPa) = 0.05873993
#
# Stress axis : x y z
#
# Youngs Moduli (GPa) = 139.99228 78.10768 19.60195
#
# Poissons Ratio (x) = 0.06493 0.03286
# Poissons Ratio (y) = 0.11637 0.07063
# Poissons Ratio (z) = 0.23467 0.28144
#
# Static dielectric constant tensor:
#      x y z
#    x 1.922490 0.000000 -0.035300 
#    y 0.000000 1.887630 0.000000 
#    z -0.035300 0.000000 1.958110 
# 
# From -- ./inp_files/35287.got.cif
#   From: 2010.05.17/outbox.cif.g08.bks.cpg/sg9_18_cif.got.tgz:35287.got - 2010.06.03 20:04:27.
