data_PCOD9139840
_publ_section_title
;
Structure prediction by ZEFSAII (Michael W. Deem and Ramdas Pophale) SiO2 
 PCOD9139840
Probable space group: C C
;
_chemical_formula_sum "Si O2"
_cell_formula_units_Z 32
_cell_length_a 19.212556
_cell_length_b 12.209939
_cell_length_c 14.461041
_cell_angle_alpha 90.000000
_cell_angle_beta 153.317362
_cell_angle_gamma 90.000000
_cell_volume 1523.320269
_symmetry_space_group_name_H-M "C C"
_symmetry_group_IT_number 9
_symmetry_cell_setting 'monoclinic'
loop_
_space_group_symop_operation_xyz
x,y,z
x,-y,1/2+z
1/2+x,1/2+y,z
1/2+x,1/2-y,1/2+z
loop_
_atom_site_type_symbol
_atom_site_label
_atom_site_fract_x
_atom_site_fract_y
_atom_site_fract_z
Si Si1 0.791030 0.391778 0.922210
Si Si2 0.151923 0.331660 0.312265
Si Si3 0.649503 0.027759 0.630601
Si Si4 0.821518 0.363795 0.484178
Si Si5 0.624940 0.840107 0.740551
Si Si6 0.589279 0.376165 0.504728
Si Si7 0.390282 0.174610 0.265191
Si Si8 0.293929 0.483765 0.099380
O O1 0.703778 0.293875 0.870971
O O2 0.694203 0.414443 0.713919
O O3 0.792082 0.509527 0.972003
O O4 0.967935 0.354398 0.109241
O O5 0.200573 0.386310 0.271192
O O6 0.241190 0.399568 0.497192
O O7 0.474434 0.065802 0.400735
O O8 0.734075 0.033077 0.632911
O O9 0.663482 0.910249 0.695293
O O10 0.676274 0.285406 0.294608
O O11 0.906942 0.316714 0.675605
O O12 0.944167 0.355616 0.547290
O O13 0.716200 0.898368 0.934578
O O14 0.478674 0.279113 0.410480
O O15 0.711650 0.326140 0.578661
O O16 0.477186 0.462944 0.323498
#
# Coordination Sequence:
#
# PCOD9139840 Si02
#       8
#     4   4   4   4   4   4   4   4
#     4  12  24  45  68 104 140 180 232 287 350 418
#     4  11  25  45  71 103 141 183 232 291 352 416
#     4  11  21  44  72  94 141 187 224 292 347 406
#     4  12  24  44  68 103 140 182 229 288 350 421
#     4  11  24  43  68 102 138 179 229 285 350 411
#     4  12  23  38  65 105 133 178 242 286 341 414
#     4  12  21  38  65  99 136 179 234 288 340 408
#     4  11  24  45  69 102 141 184 234 287 354 410
#
# _framework density 21.006744000000001
#
# number of rings (size 3 to 8) (size 9 to 14) (size 15 to 20)
#    0.000    0.500    7.500    1.500    1.750    2.000 
#    0.000    6.250    0.000    0.000    0.000    0.000 
#    0.000    0.000    0.000    0.000    0.000    0.000 
#
# Total GULP energy -89397.298062 kJ/mol
# GULP energy per Si atom -5587.331129 kJ/mol
# Density = 2.095893 g / cm^3
# Si number density = 21.006744 Si / 1000 Ang^3
#
#
#
# Elastic Constant Matrix: (Units=GPa)
#
#
# Indices 1 2 3 4 5 6 
#
# 1 70.5696 13.1492 19.2788 0.0000 0.7906 0.0000
# 2 13.1492 122.0947 25.6355 0.0000 6.9672 0.0000
# 3 19.2788 25.6355 94.5079 0.0000 9.3982 0.0000
# 4 0.0000 0.0000 0.0000 39.8866 0.0000 0.3418
# 5 0.7906 6.9672 9.3982 0.0000 24.1435 0.0000
# 6 0.0000 0.0000 0.0000 0.3418 0.0000 20.3575
#
#
#
# Elastic Compliance Matrix: (Units=1/GPa)
#
#
# Indices 1 2 3 4 5 6 
#
# 1 0.015151 -0.001078 -0.002892 0.000000 0.000941 0.000000
# 2 -0.001078 0.008826 -0.002002 0.000000 -0.001732 0.000000
# 3 -0.002892 -0.002002 0.012116 0.000000 -0.004044 0.000000
# 4 0.000000 0.000000 0.000000 0.025075 0.000000 -0.000421
# 5 0.000941 -0.001732 -0.004044 0.000000 0.043462 0.000000
# 6 0.000000 0.000000 0.000000 -0.000421 0.000000 0.049129
#
#
# Mechanical properties :
#
#
# Convention : Reuss Voigt Hill
#
# Bulk Modulus (GPa) = 41.40925 44.81103 43.11014
# Shear Modulus (GPa) = 28.77668 32.15142 30.46405
#
# Velocity S-wave (km/s) = 3.70520 3.91644 3.81228
# Velocity P-wave (km/s) = 6.16927 6.46756 6.32018
#
# Compressibility (1/GPa) = 0.02414919
#
# Stress axis : x y z
#
# Youngs Moduli (GPa) = 66.00338 113.30623 82.53455
#
# Poissons Ratio (x) = 0.12217 0.23866
# Poissons Ratio (y) = 0.07117 0.16521
# Poissons Ratio (z) = 0.19086 0.22681
#
# Static dielectric constant tensor:
#      x y z
#    x 1.773360 0.000000 0.009230 
#    y 0.000000 1.769970 0.000000 
#    z 0.009230 0.000000 1.757600 
# 
# From -- ./inp_files/26832.got.cif
#   From: 2010.05.17/outbox.cif.g08.bks.cpg/sg9_14_cif.got.tgz:26832.got - 2010.06.03 20:04:27.
