data_PCOD9139741
_publ_section_title
;
Structure prediction by ZEFSAII (Michael W. Deem and Ramdas Pophale) SiO2 
 PCOD9139741
Probable space group: C C
;
_chemical_formula_sum "Si O2"
_cell_formula_units_Z 24
_cell_length_a 17.714329
_cell_length_b 9.130546
_cell_length_c 8.749516
_cell_angle_alpha 90.000000
_cell_angle_beta 60.427710
_cell_angle_gamma 90.000000
_cell_volume 1230.812192
_symmetry_space_group_name_H-M "C C"
_symmetry_group_IT_number 9
_symmetry_cell_setting 'monoclinic'
loop_
_space_group_symop_operation_xyz
x,y,z
x,-y,1/2+z
1/2+x,1/2+y,z
1/2+x,1/2-y,1/2+z
loop_
_atom_site_type_symbol
_atom_site_label
_atom_site_fract_x
_atom_site_fract_y
_atom_site_fract_z
Si Si1 0.816370 0.600683 0.132490
Si Si2 0.324244 0.796265 0.278915
Si Si3 0.428092 0.441801 0.825762
Si Si4 0.482421 0.702201 0.555893
Si Si5 0.673350 0.196960 0.910666
Si Si6 0.247323 0.559197 0.144937
O O1 0.832506 0.430985 0.154464
O O2 0.732610 0.664038 0.304789
O O3 0.802779 0.635481 0.966497
O O4 0.901707 0.689090 0.104931
O O5 0.406882 0.692678 0.233114
O O6 0.259780 0.679222 0.265929
O O7 0.455765 0.583692 0.707527
O O8 0.494882 0.384879 0.884465
O O9 0.339546 0.513201 0.503786
O O10 0.571706 0.773915 0.515866
O O11 0.691636 0.073312 0.765804
O O12 0.707833 0.135368 0.036460
#
# Coordination Sequence:
#
# PCOD9139741 Si02
#       6
#     4   4   4   4   4   4
#     4  11  23  42  63 103 135 174 231 288 339 400
#     4  11  22  39  74  91 131 186 222 281 346 405
#     4  11  20  45  69  92 131 190 223 273 347 410
#     4  11  25  41  68 100 134 177 236 281 336 413
#     4  12  24  42  69 101 135 178 236 280 343 411
#     4  12  20  45  71  91 134 189 226 273 349 411
#
# _framework density 19.499317999999999
#
# number of rings (size 3 to 8) (size 9 to 14) (size 15 to 20)
#    0.000    0.667    8.333    1.000    0.000    5.333 
#    0.000    3.333    0.000    0.000    0.000    0.000 
#    0.000    0.000    0.000    0.000    0.000    0.000 
#
# Total GULP energy -67026.735793 kJ/mol
# GULP energy per Si atom -5585.561316 kJ/mol
# Density = 1.945494 g / cm^3
# Si number density = 19.499318 Si / 1000 Ang^3
#
#
#
# Elastic Constant Matrix: (Units=GPa)
#
#
# Indices 1 2 3 4 5 6 
#
# 1 52.1376 5.2291 1.3222 0.0000 4.5850 0.0000
# 2 5.2291 106.3581 18.0278 0.0000 -9.6178 0.0000
# 3 1.3222 18.0278 38.8060 0.0000 2.9996 0.0000
# 4 0.0000 0.0000 0.0000 43.2336 0.0000 6.3454
# 5 4.5850 -9.6178 2.9996 0.0000 22.1147 0.0000
# 6 0.0000 0.0000 0.0000 6.3454 0.0000 25.8635
#
#
#
# Elastic Compliance Matrix: (Units=1/GPa)
#
#
# Indices 1 2 3 4 5 6 
#
# 1 0.019738 -0.001467 0.000379 0.000000 -0.004782 0.000000
# 2 -0.001467 0.010927 -0.005474 0.000000 0.005799 0.000000
# 3 0.000379 -0.005474 0.028791 0.000000 -0.006365 0.000000
# 4 0.000000 0.000000 0.000000 0.023994 0.000000 -0.005887
# 5 -0.004782 0.005799 -0.006365 0.000000 0.049595 0.000000
# 6 0.000000 0.000000 0.000000 -0.005887 0.000000 0.040109
#
#
# Mechanical properties :
#
#
# Convention : Reuss Voigt Hill
#
# Bulk Modulus (GPa) = 21.58401 27.38445 24.48423
# Shear Modulus (GPa) = 24.78642 29.75720 27.27181
#
# Velocity S-wave (km/s) = 3.56918 3.91072 3.74385
# Velocity P-wave (km/s) = 5.29892 5.87077 5.59216
#
# Compressibility (1/GPa) = 0.04633059
#
# Stress axis : x y z
#
# Youngs Moduli (GPa) = 50.66359 91.51981 34.73257
#
# Poissons Ratio (x) = 0.13426 -0.01315
# Poissons Ratio (y) = 0.07432 0.19014
# Poissons Ratio (z) = -0.01918 0.50101
#
# Static dielectric constant tensor:
#      x y z
#    x 1.669450 0.000000 0.004750 
#    y 0.000000 1.688290 0.000000 
#    z 0.004750 0.000000 1.708180 
# 
# From -- ./inp_files/10281.got.cif
#   From: 2010.05.17/outbox.cif.g08.bks.cpg/sg9_6_cif.got.tgz:10281.got - 2010.06.03 20:04:27.
