data_PCOD9139457
_publ_section_title
;
Structure prediction by ZEFSAII (Michael W. Deem and Ramdas Pophale) SiO2 
 PCOD9139457
Probable space group: C C
;
_chemical_formula_sum "Si O2"
_cell_formula_units_Z 32
_cell_length_a 23.507976
_cell_length_b 5.240714
_cell_length_c 14.483363
_cell_angle_alpha 90.000000
_cell_angle_beta 130.864905
_cell_angle_gamma 90.000000
_cell_volume 1349.407166
_symmetry_space_group_name_H-M "C C"
_symmetry_group_IT_number 9
_symmetry_cell_setting 'monoclinic'
loop_
_space_group_symop_operation_xyz
x,y,z
x,-y,1/2+z
1/2+x,1/2+y,z
1/2+x,1/2-y,1/2+z
loop_
_atom_site_type_symbol
_atom_site_label
_atom_site_fract_x
_atom_site_fract_y
_atom_site_fract_z
Si Si1 0.371100 0.155388 0.169560
Si Si2 0.360271 0.771523 0.868632
Si Si3 0.094487 0.634702 0.253868
Si Si4 0.925509 0.211626 0.532326
Si Si5 0.028870 0.546414 0.865434
Si Si6 0.704050 0.540180 0.466090
Si Si7 0.598606 0.484653 0.520615
Si Si8 0.192704 0.716650 0.765525
O O1 0.370649 0.271347 0.270875
O O2 0.389262 0.309304 0.096181
O O3 0.441004 0.962316 0.249149
O O4 0.288934 0.043601 0.070383
O O5 0.272520 0.722545 0.799997
O O6 0.409873 0.555676 0.968503
O O7 0.387089 0.049385 0.936044
O O8 0.070635 0.432534 0.310168
O O9 0.150042 0.828958 0.363189
O O10 0.139897 0.529404 0.214501
O O11 0.013969 0.743482 0.139252
O O12 0.058927 0.277362 0.940655
O O13 0.042353 0.781681 0.947592
O O14 0.666562 0.577523 0.525447
O O15 0.709041 0.748475 0.391215
O O16 0.637731 0.418889 0.658381
#
# Coordination Sequence:
#
# PCOD9139457 Si02
#       8
#     4   4   4   4   4   4   4   4
#     4  11  25  50  75 110 158 196 245 316 376 452
#     4  12  28  48  77 115 148 203 250 306 387 448
#     4  10  25  45  76 103 147 199 247 311 367 440
#     4  11  28  50  77 111 153 196 256 310 377 449
#     4  10  25  47  72 105 145 192 248 301 375 434
#     4  11  23  48  70 106 149 194 242 306 374 442
#     4  11  25  46  71 108 142 192 248 305 364 442
#     4  12  25  44  78 106 150 194 250 305 370 445
#
# _framework density 23.714119
#
# number of rings (size 3 to 8) (size 9 to 14) (size 15 to 20)
#    0.000    1.000    3.750    0.750    5.250    5.000 
#    4.500    0.000    0.000    0.000    0.000    0.000 
#    0.000    0.000    0.000    0.000    0.000    0.000 
#
# Total GULP energy -89458.201583 kJ/mol
# GULP energy per Si atom -5591.137599 kJ/mol
# Density = 2.366014 g / cm^3
# Si number density = 23.714119 Si / 1000 Ang^3
#
#
#
# Elastic Constant Matrix: (Units=GPa)
#
#
# Indices 1 2 3 4 5 6 
#
# 1 82.1659 -1.3562 27.9592 0.0000 9.6370 0.0000
# 2 -1.3562 68.0572 7.1062 0.0000 -4.2031 0.0001
# 3 27.9592 7.1062 105.4392 0.0001 4.9871 0.0000
# 4 0.0000 0.0000 0.0001 14.6800 0.0000 3.0906
# 5 9.6370 -4.2031 4.9871 0.0000 54.4842 0.0000
# 6 0.0000 0.0001 0.0000 3.0906 0.0000 15.5480
#
#
#
# Elastic Compliance Matrix: (Units=1/GPa)
#
#
# Indices 1 2 3 4 5 6 
#
# 1 0.013627 0.000516 -0.003552 0.000000 -0.002045 0.000000
# 2 0.000516 0.014901 -0.001196 0.000000 0.001168 0.000000
# 3 -0.003552 -0.001196 0.010527 0.000000 -0.000428 0.000000
# 4 0.000000 0.000000 0.000000 0.071095 0.000000 -0.014132
# 5 -0.002045 0.001168 -0.000428 0.000000 0.018845 0.000000
# 6 0.000000 0.000000 0.000000 -0.014132 0.000000 0.067126
#
#
# Mechanical properties :
#
#
# Convention : Reuss Voigt Hill
#
# Bulk Modulus (GPa) = 32.68901 35.89785 34.29343
# Shear Modulus (GPa) = 23.27938 31.73932 27.50935
#
# Velocity S-wave (km/s) = 3.13656 3.66240 3.40963
# Velocity P-wave (km/s) = 5.18959 5.74934 5.47662
#
# Compressibility (1/GPa) = 0.03059132
#
# Stress axis : x y z
#
# Youngs Moduli (GPa) = 73.38124 67.11036 94.99589
#
# Poissons Ratio (x) = -0.03463 0.33739
# Poissons Ratio (y) = -0.03787 0.11365
# Poissons Ratio (z) = 0.26062 0.08029
#
# Static dielectric constant tensor:
#      x y z
#    x 1.985600 0.000000 -0.055650 
#    y 0.000000 1.979580 0.000000 
#    z -0.055650 0.000000 1.899310 
# 
# From -- ./inp_files/27614.got.cif
#   From: 2010.05.17/outbox.cif.g08.bks.cpg/sg9_14_cif.got.tgz:27614.got - 2010.06.03 20:04:27.
