data_PCOD9139960
_publ_section_title
;
Structure prediction by ZEFSAII (Michael W. Deem and Ramdas Pophale) SiO2 
 PCOD9139960
Probable space group: C C
;
_chemical_formula_sum "Si O2"
_cell_formula_units_Z 32
_cell_length_a 13.004964
_cell_length_b 8.273666
_cell_length_c 22.619341
_cell_angle_alpha 90.000000
_cell_angle_beta 33.312528
_cell_angle_gamma 90.000000
_cell_volume 1336.663260
_symmetry_space_group_name_H-M "C C"
_symmetry_group_IT_number 9
_symmetry_cell_setting 'monoclinic'
loop_
_space_group_symop_operation_xyz
x,y,z
x,-y,1/2+z
1/2+x,1/2+y,z
1/2+x,1/2-y,1/2+z
loop_
_atom_site_type_symbol
_atom_site_label
_atom_site_fract_x
_atom_site_fract_y
_atom_site_fract_z
Si Si1 0.266100 0.816611 0.745610
Si Si2 0.242452 0.575035 0.850637
Si Si3 0.511076 0.333634 0.026738
Si Si4 0.960790 0.686153 0.450462
Si Si5 0.844180 0.209645 0.485736
Si Si6 0.639523 0.492066 0.149315
Si Si7 0.720398 0.346419 0.238799
Si Si8 0.561505 0.682383 0.030980
O O1 0.335985 0.719121 0.768327
O O2 0.357451 0.732587 0.645564
O O3 0.042271 0.789982 0.855887
O O4 0.307151 0.005624 0.733841
O O5 0.079959 0.480867 0.894055
O O6 0.423319 0.462701 0.765303
O O7 0.142753 0.677967 0.949878
O O8 0.612377 0.493143 0.003527
O O9 0.412506 0.388263 0.011829
O O10 0.031959 0.788403 0.360871
O O11 0.032335 0.759909 0.478123
O O12 0.741071 0.649387 0.561317
O O13 0.740845 0.354756 0.571371
O O14 0.698421 0.198033 0.501231
O O15 0.696170 0.433391 0.187519
O O16 0.862645 0.200513 0.159936
#
# Coordination Sequence:
#
# PCOD9139960 Si02
#       8
#     4   4   4   4   4   4   4   4
#     4  11  22  43  70  97 141 189 235 300 362 445
#     4  11  24  44  72  97 142 189 235 305 363 449
#     4  11  22  47  68 102 141 187 247 292 374 447
#     4  11  22  45  64 100 143 174 242 300 364 441
#     4  11  23  43  71 102 139 194 242 299 371 439
#     4  11  23  43  68 103 138 184 240 296 367 434
#     4  11  24  44  69 103 144 187 235 310 365 437
#     4  11  26  43  70 104 144 186 246 308 368 448
#
# _framework density 23.94021
#
# number of rings (size 3 to 8) (size 9 to 14) (size 15 to 20)
#    0.000    1.000    3.750    4.500    1.750    3.000 
#    9.000    0.000    0.000    0.000    0.000    0.000 
#    0.000    0.000    0.000    0.000    0.000    0.000 
#
# Total GULP energy -89070.457878 kJ/mol
# GULP energy per Si atom -5566.903617 kJ/mol
# Density = 2.388572 g / cm^3
# Si number density = 23.940210 Si / 1000 Ang^3
#
#
#
# Elastic Constant Matrix: (Units=GPa)
#
#
# Indices 1 2 3 4 5 6 
#
# 1 36.6093 -10.3684 12.9300 0.0000 4.5152 0.0000
# 2 -10.3684 72.0277 15.8316 0.0000 12.9093 0.0000
# 3 12.9300 15.8316 152.4058 0.0000 11.5809 0.0000
# 4 0.0000 0.0000 0.0000 28.2084 0.0000 12.5442
# 5 4.5152 12.9093 11.5809 0.0000 42.1370 0.0000
# 6 0.0000 0.0000 0.0000 12.5442 0.0000 15.5130
#
#
#
# Elastic Compliance Matrix: (Units=1/GPa)
#
#
# Indices 1 2 3 4 5 6 
#
# 1 0.030488 0.005780 -0.002864 0.000000 -0.004251 0.000000
# 2 0.005780 0.016008 -0.001770 0.000000 -0.005037 0.000000
# 3 -0.002864 -0.001770 0.007071 0.000000 -0.001094 0.000000
# 4 0.000000 0.000000 0.000000 0.055356 0.000000 -0.044762
# 5 -0.004251 -0.005037 -0.001094 0.000000 0.026031 0.000000
# 6 0.000000 0.000000 0.000000 -0.044762 0.000000 0.100658
#
#
# Mechanical properties :
#
#
# Convention : Reuss Voigt Hill
#
# Bulk Modulus (GPa) = 17.90236 33.09215 25.49725
# Shear Modulus (GPa) = 19.84587 33.34831 26.59709
#
# Velocity S-wave (km/s) = 2.88232 3.73632 3.33675
# Velocity P-wave (km/s) = 4.30943 5.69792 5.05161
#
# Compressibility (1/GPa) = 0.05585856
#
# Stress axis : x y z
#
# Youngs Moduli (GPa) = 32.79946 62.47067 141.41325
#
# Poissons Ratio (x) = -0.36109 0.40501
# Poissons Ratio (y) = -0.18959 0.25037
# Poissons Ratio (z) = 0.09394 0.11060
#
# Static dielectric constant tensor:
#      x y z
#    x 2.038580 0.000000 -0.018000 
#    y 0.000000 2.029300 0.000000 
#    z -0.018000 0.000000 1.913650 
# 
# From -- ./inp_files/25668.got.cif
#   From: 2010.05.17/outbox.cif.g08.bks.cpg/sg9_13_cif.got.tgz:25668.got - 2010.06.03 20:04:27.
