data_PCOD9139872
_publ_section_title
;
Structure prediction by ZEFSAII (Michael W. Deem and Ramdas Pophale) SiO2 
 PCOD9139872
Probable space group: C C
;
_chemical_formula_sum "Si O2"
_cell_formula_units_Z 20
_cell_length_a 9.155696
_cell_length_b 11.078419
_cell_length_c 6.962740
_cell_angle_alpha 90.000000
_cell_angle_beta 70.120040
_cell_angle_gamma 90.000000
_cell_volume 664.148565
_symmetry_space_group_name_H-M "C C"
_symmetry_group_IT_number 9
_symmetry_cell_setting 'monoclinic'
loop_
_space_group_symop_operation_xyz
x,y,z
x,-y,1/2+z
1/2+x,1/2+y,z
1/2+x,1/2-y,1/2+z
loop_
_atom_site_type_symbol
_atom_site_label
_atom_site_fract_x
_atom_site_fract_y
_atom_site_fract_z
Si Si1 0.761970 0.140985 0.932060
Si Si2 0.302588 0.983546 0.421180
Si Si3 0.061453 0.009069 0.777282
Si Si4 0.509153 0.245330 0.796551
Si Si5 0.607191 0.113376 0.375200
O O1 0.666044 0.235622 0.853140
O O2 0.678490 0.012861 0.919709
O O3 0.723491 0.168384 0.168670
O O4 0.942635 0.120792 0.814991
O O5 0.258307 0.016604 0.689157
O O6 0.378944 0.850889 0.412406
O O7 0.105997 0.987979 0.508629
O O8 0.445484 0.077628 0.345732
O O9 0.965965 0.883538 0.834449
O O10 0.566901 0.201138 0.564614
#
# Coordination Sequence:
#
# PCOD9139872 Si02
#       5
#     4   4   4   4   4
#     4  11  23  46  76 105 148 193 242 309 367 437
#     4  11  23  48  72 104 148 189 244 307 363 438
#     4  12  27  47  74 111 147 188 253 313 359 440
#     4  11  26  49  76 104 151 198 244 299 381 443
#     4  11  21  48  76  98 150 200 231 302 380 430
#
# _framework density 30.113744000000001
#
# number of rings (size 3 to 8) (size 9 to 14) (size 15 to 20)
#    0.000    0.800    6.000    2.400    2.800    0.000 
#   10.800    0.000    0.000    0.000    0.000    0.000 
#    0.000    0.000    0.000    0.000    0.000    0.000 
#
# Total GULP energy -56168.847712 kJ/mol
# GULP energy per Si atom -5616.884771 kJ/mol
# Density = 3.004520 g / cm^3
# Si number density = 30.113744 Si / 1000 Ang^3
#
#
#
# Elastic Constant Matrix: (Units=GPa)
#
#
# Indices 1 2 3 4 5 6 
#
# 1 219.8801 30.1311 48.1813 0.0000 6.1216 0.0000
# 2 30.1311 98.5146 -6.3555 0.0000 -13.9966 0.0000
# 3 48.1813 -6.3555 211.1445 0.0000 -16.2139 0.0000
# 4 0.0000 0.0000 0.0000 47.5609 0.0000 -7.2428
# 5 6.1216 -13.9966 -16.2139 0.0000 67.8215 0.0000
# 6 0.0000 0.0000 0.0000 -7.2428 0.0000 49.5065
#
#
#
# Elastic Compliance Matrix: (Units=1/GPa)
#
#
# Indices 1 2 3 4 5 6 
#
# 1 0.005115 -0.001812 -0.001310 0.000000 -0.001149 0.000000
# 2 -0.001812 0.011149 0.000956 0.000000 0.002693 0.000000
# 3 -0.001310 0.000956 0.005183 0.000000 0.001555 0.000000
# 4 0.000000 0.000000 0.000000 0.021505 0.000000 0.003146
# 5 -0.001149 0.002693 0.001555 0.000000 0.015776 0.000000
# 6 0.000000 0.000000 0.000000 0.003146 0.000000 0.020660
#
#
# Mechanical properties :
#
#
# Convention : Reuss Voigt Hill
#
# Bulk Modulus (GPa) = 58.42794 74.82812 66.62803
# Shear Modulus (GPa) = 55.91226 63.48329 59.69777
#
# Velocity S-wave (km/s) = 4.31362 4.59640 4.45726
# Velocity P-wave (km/s) = 6.65239 7.28503 6.97589
#
# Compressibility (1/GPa) = 0.01711510
#
# Stress axis : x y z
#
# Youngs Moduli (GPa) = 195.49077 89.69121 192.93134
#
# Poissons Ratio (x) = 0.16255 0.25275
# Poissons Ratio (y) = 0.35429 -0.18443
# Poissons Ratio (z) = 0.25610 -0.08574
#
# Static dielectric constant tensor:
#      x y z
#    x 2.364320 0.000000 0.308550 
#    y 0.000000 2.066370 0.000000 
#    z 0.308550 0.000000 2.640100 
# 
# From -- ./inp_files/4746.got.cif
#   From: 2010.05.17/outbox.cif.g08.bks.cpg/sg9_3_cif.got.tgz:4746.got - 2010.06.03 20:04:27.
