data_PCOD9139998
_publ_section_title
;
Structure prediction by ZEFSAII (Michael W. Deem and Ramdas Pophale) SiO2 
 PCOD9139998
Probable space group: C C
;
_chemical_formula_sum "Si O2"
_cell_formula_units_Z 32
_cell_length_a 16.820584
_cell_length_b 14.651855
_cell_length_c 10.854389
_cell_angle_alpha 90.000000
_cell_angle_beta 32.341978
_cell_angle_gamma 90.000000
_cell_volume 1431.099080
_symmetry_space_group_name_H-M "C C"
_symmetry_group_IT_number 9
_symmetry_cell_setting 'monoclinic'
loop_
_space_group_symop_operation_xyz
x,y,z
x,-y,1/2+z
1/2+x,1/2+y,z
1/2+x,1/2-y,1/2+z
loop_
_atom_site_type_symbol
_atom_site_label
_atom_site_fract_x
_atom_site_fract_y
_atom_site_fract_z
Si Si1 0.412940 0.351580 0.060510
Si Si2 0.648367 0.057179 0.586788
Si Si3 0.686863 0.438367 0.575352
Si Si4 0.457693 0.755240 0.735742
Si Si5 0.436669 0.794079 0.319377
Si Si6 0.977466 0.113903 0.126494
Si Si7 0.102150 0.569076 0.922111
Si Si8 0.669290 0.354641 0.140153
O O1 0.401102 0.322414 0.216644
O O2 0.277282 0.411305 0.193055
O O3 0.562995 0.406552 0.837190
O O4 0.402646 0.260822 0.989260
O O5 0.596729 0.160576 0.629592
O O6 0.827555 0.055384 0.343275
O O7 0.577733 0.034893 0.813946
O O8 0.581317 0.998532 0.563422
O O9 0.823584 0.373315 0.430163
O O10 0.606115 0.416354 0.552294
O O11 0.721976 0.545651 0.525596
O O12 0.524391 0.836159 0.562662
O O13 0.584226 0.709270 0.653167
O O14 0.315697 0.798907 0.990664
O O15 0.438314 0.717136 0.214588
O O16 0.047585 0.119095 0.900956
#
# Coordination Sequence:
#
# PCOD9139998 Si02
#       8
#     4   4   4   4   4   4   4   4
#     4  11  22  44  77 100 139 186 242 282 359 440
#     4  12  26  45  76 107 147 186 244 300 361 431
#     4  11  25  45  73 106 138 188 240 298 351 434
#     4  12  27  48  71 103 145 195 239 295 372 430
#     4  11  23  45  75 102 137 189 235 297 353 433
#     4  11  26  45  72 106 142 189 242 292 369 425
#     4  12  25  46  73 111 141 191 241 300 361 430
#     4  12  30  46  71 105 147 192 239 308 358 435
#
# _framework density 22.360437000000001
#
# number of rings (size 3 to 8) (size 9 to 14) (size 15 to 20)
#    0.000    0.500    5.000    3.750    7.000    1.000 
#    4.500    0.000    0.000    0.000    0.000    0.000 
#    0.000    0.000    0.000    0.000    0.000    0.000 
#
# Total GULP energy -89414.186452 kJ/mol
# GULP energy per Si atom -5588.386653 kJ/mol
# Density = 2.230954 g / cm^3
# Si number density = 22.360437 Si / 1000 Ang^3
#
#
#
# Elastic Constant Matrix: (Units=GPa)
#
#
# Indices 1 2 3 4 5 6 
#
# 1 61.6484 45.6337 35.6498 0.0000 5.2200 0.0000
# 2 45.6337 110.5543 21.3099 0.0000 2.3943 0.0000
# 3 35.6498 21.3099 56.5026 0.0000 0.9334 0.0000
# 4 0.0000 0.0000 0.0000 20.2344 0.0000 -0.0210
# 5 5.2200 2.3943 0.9334 0.0000 40.6203 0.0000
# 6 0.0000 0.0000 0.0000 -0.0210 0.0000 23.4194
#
#
#
# Elastic Compliance Matrix: (Units=1/GPa)
#
#
# Indices 1 2 3 4 5 6 
#
# 1 0.034896 -0.010888 -0.017854 0.000000 -0.003432 0.000000
# 2 -0.010888 0.013162 0.001896 0.000000 0.000580 0.000000
# 3 -0.017854 0.001896 0.028223 0.000000 0.001534 0.000000
# 4 0.000000 0.000000 0.000000 0.049421 0.000000 0.000044
# 5 -0.003432 0.000580 0.001534 0.000000 0.024990 0.000000
# 6 0.000000 0.000000 0.000000 0.000044 0.000000 0.042700
#
#
# Mechanical properties :
#
#
# Convention : Reuss Voigt Hill
#
# Bulk Modulus (GPa) = 44.27082 48.21024 46.24053
# Shear Modulus (GPa) = 19.63771 25.26227 22.44999
#
# Velocity S-wave (km/s) = 2.96672 3.36486 3.17204
# Velocity P-wave (km/s) = 5.61934 6.05836 5.84297
#
# Compressibility (1/GPa) = 0.02258824
#
# Stress axis : x y z
#
# Youngs Moduli (GPa) = 28.65656 75.97853 35.43261
#
# Poissons Ratio (x) = 0.82728 0.63262
# Poissons Ratio (y) = 0.31202 -0.06719
# Poissons Ratio (z) = 0.51164 -0.14409
#
# Static dielectric constant tensor:
#      x y z
#    x 1.821670 0.000000 0.041800 
#    y 0.000000 1.882530 0.000000 
#    z 0.041800 0.000000 1.854420 
# 
# From -- ./inp_files/7529.got.cif
#   From: 2010.05.17/outbox.cif.g08.bks.cpg/sg9_4_cif.got.tgz:7529.got - 2010.06.03 20:04:27.
