data_PCOD9139127
_publ_section_title
;
Structure prediction by ZEFSAII (Michael W. Deem and Ramdas Pophale) SiO2 
 PCOD9139127
Probable space group: C C
;
_chemical_formula_sum "Si O2"
_cell_formula_units_Z 28
_cell_length_a 12.538365
_cell_length_b 7.379325
_cell_length_c 14.225868
_cell_angle_alpha 90.000000
_cell_angle_beta 65.746176
_cell_angle_gamma 90.000000
_cell_volume 1200.065005
_symmetry_space_group_name_H-M "C C"
_symmetry_group_IT_number 9
_symmetry_cell_setting 'monoclinic'
loop_
_space_group_symop_operation_xyz
x,y,z
x,-y,1/2+z
1/2+x,1/2+y,z
1/2+x,1/2-y,1/2+z
loop_
_atom_site_type_symbol
_atom_site_label
_atom_site_fract_x
_atom_site_fract_y
_atom_site_fract_z
Si Si1 0.381920 0.925132 0.613310
Si Si2 0.350765 0.019401 0.344292
Si Si3 0.922328 0.023898 0.616427
Si Si4 0.375837 0.598608 0.336106
Si Si5 0.994658 0.180383 0.903984
Si Si6 0.174007 0.015321 0.056344
Si Si7 0.631191 0.887149 0.987065
O O1 0.370686 0.710836 0.598517
O O2 0.278289 0.016857 0.590993
O O3 0.358511 0.952157 0.731413
O O4 0.513187 0.996943 0.542894
O O5 0.385546 0.811553 0.352691
O O6 0.224154 0.041499 0.436755
O O7 0.429933 0.163885 0.369359
O O8 0.863824 0.937900 0.729362
O O9 0.938167 0.886355 0.523931
O O10 0.050551 0.079602 0.610348
O O11 0.485969 0.494530 0.341070
O O12 0.257922 0.523071 0.429471
O O13 0.112966 0.274156 0.896470
O O14 0.142133 0.230363 0.062176
#
# Coordination Sequence:
#
# PCOD9139127 Si02
#       7
#     4   4   4   4   4   4   4
#     4  12  24  46  72 105 141 190 228 293 352 417
#     4  11  23  45  73 101 143 184 235 286 356 407
#     4  11  25  44  72 103 144 187 234 285 359 410
#     4  11  25  48  67 109 140 183 239 287 348 427
#     4  11  23  47  67 103 142 178 238 291 336 422
#     4  10  24  45  66 103 138 183 236 291 337 425
#     4  10  24  45  73 100 142 183 236 285 352 414
#
# _framework density 23.332072
#
# number of rings (size 3 to 8) (size 9 to 14) (size 15 to 20)
#    0.000    1.143    2.857    3.429    2.000    3.429 
#    7.714    1.429    0.000    0.000    0.000    0.000 
#    0.000    0.000    0.000    0.000    0.000    0.000 
#
# Total GULP energy -78191.294029 kJ/mol
# GULP energy per Si atom -5585.092431 kJ/mol
# Density = 2.327897 g / cm^3
# Si number density = 23.332072 Si / 1000 Ang^3
#
#
#
# Elastic Constant Matrix: (Units=GPa)
#
#
# Indices 1 2 3 4 5 6 
#
# 1 101.9009 13.7349 30.0515 0.0000 9.7955 0.0000
# 2 13.7349 90.0061 2.4924 0.0000 6.5527 0.0000
# 3 30.0515 2.4924 97.8063 0.0000 19.4943 0.0000
# 4 0.0000 0.0000 0.0000 29.2666 0.0000 3.6423
# 5 9.7955 6.5527 19.4943 0.0000 29.7482 0.0000
# 6 0.0000 0.0000 0.0000 3.6423 0.0000 37.3538
#
#
#
# Elastic Compliance Matrix: (Units=1/GPa)
#
#
# Indices 1 2 3 4 5 6 
#
# 1 0.011055 -0.001508 -0.003104 0.000000 -0.001274 0.000000
# 2 -0.001508 0.011502 0.000663 0.000000 -0.002471 0.000000
# 3 -0.003104 0.000663 0.012637 0.000000 -0.007405 0.000000
# 4 0.000000 0.000000 0.000000 0.034588 0.000000 -0.003373
# 5 -0.001274 -0.002471 -0.007405 0.000000 0.039432 0.000000
# 6 0.000000 0.000000 0.000000 -0.003373 0.000000 0.027100
#
#
# Mechanical properties :
#
#
# Convention : Reuss Voigt Hill
#
# Bulk Modulus (GPa) = 36.63741 42.47455 39.55598
# Shear Modulus (GPa) = 32.61333 35.50270 34.05802
#
# Velocity S-wave (km/s) = 3.74276 3.90503 3.82476
# Velocity P-wave (km/s) = 5.86637 6.21098 6.04113
#
# Compressibility (1/GPa) = 0.02729451
#
# Stress axis : x y z
#
# Youngs Moduli (GPa) = 90.45953 86.94079 79.13171
#
# Poissons Ratio (x) = 0.13113 0.24565
# Poissons Ratio (y) = 0.13644 -0.05246
# Poissons Ratio (z) = 0.28082 -0.05763
#
# Static dielectric constant tensor:
#      x y z
#    x 1.886850 0.000000 -0.003090 
#    y 0.000000 1.905570 0.000000 
#    z -0.003090 0.000000 1.899860 
# 
# From -- ./inp_files/24142.got.cif
#   From: 2010.05.17/outbox.cif.g08.bks.cpg/sg9_13_cif.got.tgz:24142.got - 2010.06.03 20:04:27.
