data_PCOD9139810
_publ_section_title
;
Structure prediction by ZEFSAII (Michael W. Deem and Ramdas Pophale) SiO2 
 PCOD9139810
Probable space group: C C
;
_chemical_formula_sum "Si O2"
_cell_formula_units_Z 32
_cell_length_a 12.255317
_cell_length_b 14.920114
_cell_length_c 9.316299
_cell_angle_alpha 90.000000
_cell_angle_beta 52.982054
_cell_angle_gamma 90.000000
_cell_volume 1360.148064
_symmetry_space_group_name_H-M "C C"
_symmetry_group_IT_number 9
_symmetry_cell_setting 'monoclinic'
loop_
_space_group_symop_operation_xyz
x,y,z
x,-y,1/2+z
1/2+x,1/2+y,z
1/2+x,1/2-y,1/2+z
loop_
_atom_site_type_symbol
_atom_site_label
_atom_site_fract_x
_atom_site_fract_y
_atom_site_fract_z
Si Si1 0.376090 0.324262 0.448050
Si Si2 0.130946 0.718383 0.768875
Si Si3 0.552399 0.549364 0.611277
Si Si4 0.628853 0.062949 0.197981
Si Si5 0.012097 0.852804 0.637340
Si Si6 0.853766 0.911000 0.020463
Si Si7 0.271962 0.161843 0.367087
Si Si8 0.476135 0.944791 0.519029
O O1 0.434819 0.407195 0.305937
O O2 0.219957 0.346951 0.621313
O O3 0.467163 0.320796 0.517825
O O4 0.374184 0.232340 0.358908
O O5 0.083590 0.776120 0.672195
O O6 0.282568 0.678739 0.632305
O O7 0.150966 0.780300 0.890382
O O8 0.028621 0.637048 0.878186
O O9 0.594100 0.445509 0.575069
O O10 0.488292 0.564671 0.502980
O O11 0.688763 0.602138 0.543949
O O12 0.744944 0.988389 0.134624
O O13 0.507120 0.035916 0.404814
O O14 0.571858 0.050128 0.083568
O O15 0.882429 0.889351 0.832290
O O16 0.336859 0.093997 0.198801
#
# Coordination Sequence:
#
# PCOD9139810 Si02
#       8
#     4   4   4   4   4   4   4   4
#     4  12  24  42  73 110 142 191 251 307 357 433
#     4  11  23  42  74  98 143 190 236 295 369 438
#     4  12  23  44  75 105 142 194 247 299 370 437
#     4  11  21  44  73 105 138 188 251 302 352 443
#     4  12  24  42  68 111 138 184 249 300 355 429
#     4  11  21  42  72 103 136 185 246 299 360 433
#     4  12  25  44  71 101 154 190 234 302 379 441
#     4  11  25  46  72 105 143 196 242 296 376 436
#
# _framework density 23.52685
#
# number of rings (size 3 to 8) (size 9 to 14) (size 15 to 20)
#    0.000    0.500    6.250    3.000    0.000    2.000 
#    4.500    0.000    0.000    0.000    0.000    0.000 
#    0.000    0.000    0.000    0.000    0.000    0.000 
#
# Total GULP energy -89319.428604 kJ/mol
# GULP energy per Si atom -5582.464288 kJ/mol
# Density = 2.347330 g / cm^3
# Si number density = 23.526850 Si / 1000 Ang^3
#
#
#
# Elastic Constant Matrix: (Units=GPa)
#
#
# Indices 1 2 3 4 5 6 
#
# 1 64.7740 24.5771 11.6523 0.0000 24.8939 0.0000
# 2 24.5771 69.3157 27.1556 0.0000 0.5736 0.0000
# 3 11.6523 27.1556 65.1926 0.0000 5.6819 0.0000
# 4 0.0000 0.0000 0.0000 20.1921 0.0000 -9.9936
# 5 24.8939 0.5736 5.6819 0.0000 44.2967 0.0000
# 6 0.0000 0.0000 0.0000 -9.9936 0.0000 31.5719
#
#
#
# Elastic Compliance Matrix: (Units=1/GPa)
#
#
# Indices 1 2 3 4 5 6 
#
# 1 0.023654 -0.008452 0.000447 0.000000 -0.013241 0.000000
# 2 -0.008452 0.020282 -0.007412 0.000000 0.005438 0.000000
# 3 0.000447 -0.007412 0.018568 0.000000 -0.002537 0.000000
# 4 0.000000 0.000000 0.000000 0.058724 0.000000 0.018588
# 5 -0.013241 0.005438 -0.002537 0.000000 0.030271 0.000000
# 6 0.000000 0.000000 0.000000 0.018588 0.000000 0.037557
#
#
# Mechanical properties :
#
#
# Convention : Reuss Voigt Hill
#
# Bulk Modulus (GPa) = 31.57612 36.22804 33.90208
# Shear Modulus (GPa) = 21.69699 28.27196 24.98448
#
# Velocity S-wave (km/s) = 3.04011 3.47030 3.26230
# Velocity P-wave (km/s) = 5.07676 5.61154 5.35083
#
# Compressibility (1/GPa) = 0.03166951
#
# Stress axis : x y z
#
# Youngs Moduli (GPa) = 42.27689 49.30398 53.85706
#
# Poissons Ratio (x) = 0.41673 -0.02407
# Poissons Ratio (y) = 0.35734 0.39917
# Poissons Ratio (z) = -0.01890 0.36543
#
# Static dielectric constant tensor:
#      x y z
#    x 1.833820 0.000000 -0.060980 
#    y 0.000000 2.061300 0.000000 
#    z -0.060980 0.000000 1.989250 
# 
# From -- ./inp_files/7573.got.cif
#   From: 2010.05.17/outbox.cif.g08.bks.cpg/sg9_4_cif.got.tgz:7573.got - 2010.06.03 20:04:27.
