data_PCOD9139264
_publ_section_title
;
Structure prediction by ZEFSAII (Michael W. Deem and Ramdas Pophale) SiO2 
 PCOD9139264
Probable space group: C C
;
_chemical_formula_sum "Si O2"
_cell_formula_units_Z 32
_cell_length_a 5.018755
_cell_length_b 15.606704
_cell_length_c 17.459307
_cell_angle_alpha 90.000000
_cell_angle_beta 108.157596
_cell_angle_gamma 90.000000
_cell_volume 1299.423042
_symmetry_space_group_name_H-M "C C"
_symmetry_group_IT_number 9
_symmetry_cell_setting 'monoclinic'
loop_
_space_group_symop_operation_xyz
x,y,z
x,-y,1/2+z
1/2+x,1/2+y,z
1/2+x,1/2-y,1/2+z
loop_
_atom_site_type_symbol
_atom_site_label
_atom_site_fract_x
_atom_site_fract_y
_atom_site_fract_z
Si Si1 0.972520 0.260614 0.090240
Si Si2 0.439842 0.470815 0.597191
Si Si3 0.059750 0.726033 0.191668
Si Si4 0.736892 0.849747 0.448993
Si Si5 0.376780 0.944635 0.053723
Si Si6 0.811503 0.489974 0.385591
Si Si7 0.835119 0.880256 0.282139
Si Si8 0.975458 0.542152 0.245357
O O1 0.814894 0.246600 0.157032
O O2 0.273902 0.215796 0.117469
O O3 0.036914 0.358356 0.082144
O O4 0.767167 0.233511 0.002930
O O5 0.430435 0.412822 0.519106
O O6 0.116231 0.482774 0.591670
O O7 0.596090 0.553963 0.578379
O O8 0.658034 0.446102 0.682955
O O9 0.971005 0.805517 0.240980
O O10 0.117519 0.632780 0.234421
O O11 0.446566 0.900196 0.424264
O O12 0.793183 0.840889 0.363754
O O13 0.283814 0.954807 0.958086
O O14 0.994755 0.538150 0.339153
O O15 0.546273 0.458624 0.315522
O O16 0.571558 0.942304 0.234576
#
# Coordination Sequence:
#
# PCOD9139264 Si02
#       8
#     4   4   4   4   4   4   4   4
#     4  12  28  48  74 113 150 195 253 325 382 455
#     4  11  23  45  74 104 139 192 247 312 365 459
#     4  12  30  49  75 117 151 198 259 318 393 460
#     4  10  24  47  73 103 152 200 250 312 383 455
#     4  11  25  45  74 105 144 191 257 301 378 455
#     4  10  25  46  72 108 144 210 252 308 393 459
#     4  11  26  50  75 109 158 206 252 323 390 468
#     4  11  27  46  77 109 152 200 256 313 398 457
#
# _framework density 24.626315000000002
#
# number of rings (size 3 to 8) (size 9 to 14) (size 15 to 20)
#    0.000    1.000    2.500    1.500   17.500    0.000 
#    2.250    0.000    0.000    0.000    0.000    0.000 
#    0.000    0.000    0.000    0.000    0.000    0.000 
#
# Total GULP energy -89179.479317 kJ/mol
# GULP energy per Si atom -5573.717457 kJ/mol
# Density = 2.457026 g / cm^3
# Si number density = 24.626315 Si / 1000 Ang^3
#
#
#
# Elastic Constant Matrix: (Units=GPa)
#
#
# Indices 1 2 3 4 5 6 
#
# 1 89.9682 14.2295 13.3837 0.0000 -1.4858 0.0000
# 2 14.2295 90.7897 21.2026 0.0000 -9.3137 0.0000
# 3 13.3837 21.2026 83.5280 0.0000 -6.0305 0.0000
# 4 0.0000 0.0000 0.0000 53.1374 0.0000 5.5164
# 5 -1.4858 -9.3137 -6.0305 0.0000 42.2369 0.0000
# 6 0.0000 0.0000 0.0000 5.5164 0.0000 16.5093
#
#
#
# Elastic Compliance Matrix: (Units=1/GPa)
#
#
# Indices 1 2 3 4 5 6 
#
# 1 0.011568 -0.001479 -0.001488 0.000000 -0.000132 0.000000
# 2 -0.001479 0.012100 -0.002673 0.000000 0.002234 0.000000
# 3 -0.001488 -0.002673 0.012976 0.000000 0.001211 0.000000
# 4 0.000000 0.000000 0.000000 0.019495 0.000000 -0.006514
# 5 -0.000132 0.002234 0.001211 0.000000 0.024337 0.000000
# 6 0.000000 0.000000 0.000000 -0.006514 0.000000 0.062749
#
#
# Mechanical properties :
#
#
# Convention : Reuss Voigt Hill
#
# Bulk Modulus (GPa) = 39.42507 40.21307 39.81907
# Shear Modulus (GPa) = 30.68243 36.74140 33.71192
#
# Velocity S-wave (km/s) = 3.53359 3.86678 3.70393
# Velocity P-wave (km/s) = 5.71773 6.02501 5.87338
#
# Compressibility (1/GPa) = 0.02536457
#
# Stress axis : x y z
#
# Youngs Moduli (GPa) = 86.44453 82.64619 77.06327
#
# Poissons Ratio (x) = 0.12225 0.11464
# Poissons Ratio (y) = 0.12787 0.20599
# Poissons Ratio (z) = 0.12859 0.22092
#
# Static dielectric constant tensor:
#      x y z
#    x 2.049370 0.000000 -0.025880 
#    y 0.000000 2.048440 0.000000 
#    z -0.025880 0.000000 1.983600 
# 
# From -- ./inp_files/28598.got.cif
#   From: 2010.05.17/outbox.cif.g08.bks.cpg/sg9_15_cif.got.tgz:28598.got - 2010.06.03 20:04:27.
