data_PCOD9139249
_publ_section_title
;
Structure prediction by ZEFSAII (Michael W. Deem and Ramdas Pophale) SiO2 
 PCOD9139249
Probable space group: C C
;
_chemical_formula_sum "Si O2"
_cell_formula_units_Z 28
_cell_length_a 9.359727
_cell_length_b 10.655721
_cell_length_c 18.930404
_cell_angle_alpha 90.000000
_cell_angle_beta 146.154650
_cell_angle_gamma 90.000000
_cell_volume 1051.537066
_symmetry_space_group_name_H-M "C C"
_symmetry_group_IT_number 9
_symmetry_cell_setting 'monoclinic'
loop_
_space_group_symop_operation_xyz
x,y,z
x,-y,1/2+z
1/2+x,1/2+y,z
1/2+x,1/2-y,1/2+z
loop_
_atom_site_type_symbol
_atom_site_label
_atom_site_fract_x
_atom_site_fract_y
_atom_site_fract_z
Si Si1 0.125000 0.486817 0.982080
Si Si2 0.863825 0.198200 0.683583
Si Si3 0.505068 0.171544 0.052222
Si Si4 0.303311 0.292469 0.457983
Si Si5 0.665236 0.074036 0.256043
Si Si6 0.677528 0.401373 0.030353
Si Si7 0.437755 0.726386 0.868972
O O1 0.234725 0.581699 0.970104
O O2 0.970910 0.570681 0.975553
O O3 0.237304 0.820372 0.984077
O O4 0.338343 0.414884 0.117675
O O5 0.096625 0.292847 0.766006
O O6 0.604816 0.277777 0.567098
O O7 0.843057 0.165327 0.757202
O O8 0.600756 0.301686 0.058903
O O9 0.240892 0.190076 0.986011
O O10 0.703086 0.115866 0.190393
O O11 0.419252 0.525219 0.399852
O O12 0.225996 0.286007 0.344433
O O13 0.962149 0.620819 0.377070
O O14 0.413657 0.986772 0.151188
#
# Coordination Sequence:
#
# PCOD9139249 Si02
#       7
#     4   4   4   4   4   4   4
#     4  10  24  47  68 106 157 201 265 328 393 473
#     4  11  24  44  74 113 155 207 261 328 399 476
#     4  11  24  48  76 112 156 210 268 328 396 484
#     4  10  24  49  74 110 154 203 268 327 400 472
#     4  12  25  50  83 114 163 208 269 335 405 483
#     4  11  28  52  81 122 155 214 271 334 406 488
#     4  11  23  46  74 113 152 205 268 322 397 474
#
# _framework density 26.627687999999999
#
# number of rings (size 3 to 8) (size 9 to 14) (size 15 to 20)
#    0.000    1.143    4.286    1.714    2.000    5.714 
#   12.857    0.000    0.000    0.000    0.000    0.000 
#    0.000    0.000    0.000    0.000    0.000    0.000 
#
# Total GULP energy -78364.925594 kJ/mol
# GULP energy per Si atom -5597.494685 kJ/mol
# Density = 2.656708 g / cm^3
# Si number density = 26.627688 Si / 1000 Ang^3
#
#
#
# Elastic Constant Matrix: (Units=GPa)
#
#
# Indices 1 2 3 4 5 6 
#
# 1 142.9281 51.6418 26.2806 -0.0006 -16.5230 -0.0006
# 2 51.6418 130.4746 25.5278 -0.0003 7.9561 -0.0003
# 3 26.2806 25.5278 83.7213 -0.0009 15.9856 -0.0008
# 4 -0.0006 -0.0003 -0.0009 40.3873 -0.0004 -13.5807
# 5 -16.5230 7.9561 15.9856 -0.0004 47.3002 -0.0003
# 6 -0.0006 -0.0003 -0.0008 -13.5807 -0.0003 42.3468
#
#
#
# Elastic Compliance Matrix: (Units=1/GPa)
#
#
# Indices 1 2 3 4 5 6 
#
# 1 0.009297 -0.003426 -0.002784 0.000000 0.004765 0.000000
# 2 -0.003426 0.009427 -0.001355 0.000000 -0.002324 0.000000
# 3 -0.002784 -0.001355 0.014296 0.000000 -0.005576 0.000000
# 4 0.000000 0.000000 0.000000 0.027753 0.000000 0.008900
# 5 0.004765 -0.002324 -0.005576 0.000000 0.025081 0.000000
# 6 0.000000 0.000000 0.000000 0.008900 0.000000 0.026469
#
#
# Mechanical properties :
#
#
# Convention : Reuss Voigt Hill
#
# Bulk Modulus (GPa) = 55.89396 62.66937 59.28166
# Shear Modulus (GPa) = 37.47675 42.91846 40.19760
#
# Velocity S-wave (km/s) = 3.75565 4.01908 3.88959
# Velocity P-wave (km/s) = 6.31213 6.71743 6.51793
#
# Compressibility (1/GPa) = 0.01789102
#
# Stress axis : x y z
#
# Youngs Moduli (GPa) = 107.56325 106.07730 69.94924
#
# Poissons Ratio (x) = 0.36338 0.19471
# Poissons Ratio (y) = 0.36847 0.09480
# Poissons Ratio (z) = 0.29941 0.14377
#
# Static dielectric constant tensor:
#      x y z
#    x 2.063090 0.000000 -0.096330 
#    y 0.000000 2.166680 0.000000 
#    z -0.096330 0.000000 2.485010 
# 
# From -- ./inp_files/29964.got.cif
#   From: 2010.05.17/outbox.cif.g08.bks.cpg/sg9_15_cif.got.tgz:29964.got - 2010.06.03 20:04:27.
