data_PCOD9139618
_publ_section_title
;
Structure prediction by ZEFSAII (Michael W. Deem and Ramdas Pophale) SiO2 
 PCOD9139618
Probable space group: C C
;
_chemical_formula_sum "Si O2"
_cell_formula_units_Z 32
_cell_length_a 7.839772
_cell_length_b 5.943996
_cell_length_c 29.877066
_cell_angle_alpha 90.000000
_cell_angle_beta 118.003993
_cell_angle_gamma 90.000000
_cell_volume 1229.245763
_symmetry_space_group_name_H-M "C C"
_symmetry_group_IT_number 9
_symmetry_cell_setting 'monoclinic'
loop_
_space_group_symop_operation_xyz
x,y,z
x,-y,1/2+z
1/2+x,1/2+y,z
1/2+x,1/2-y,1/2+z
loop_
_atom_site_type_symbol
_atom_site_label
_atom_site_fract_x
_atom_site_fract_y
_atom_site_fract_z
Si Si1 0.952790 0.273168 0.268020
Si Si2 0.079261 0.498404 0.198388
Si Si3 0.463141 0.018788 0.352753
Si Si4 0.882053 0.219248 0.568220
Si Si5 0.130068 0.056833 0.864322
Si Si6 0.120867 0.097096 0.512260
Si Si7 0.167158 0.801911 0.625310
Si Si8 0.287036 0.300299 0.447570
O O1 0.944240 0.495010 0.297438
O O2 0.072156 0.325517 0.238632
O O3 0.749184 0.174409 0.227944
O O4 0.045439 0.107361 0.315975
O O5 0.100778 0.368473 0.154911
O O6 0.876488 0.622501 0.169099
O O7 0.311430 0.851757 0.357520
O O8 0.665717 0.966198 0.401201
O O9 0.459540 0.285387 0.360166
O O10 0.812775 0.485787 0.557258
O O11 0.708553 0.171833 0.583232
O O12 0.960978 0.193880 0.526737
O O13 0.036241 0.028575 0.605849
O O14 0.241618 0.935472 0.918166
O O15 0.005038 0.885779 0.476555
O O16 0.193800 0.277913 0.485373
#
# Coordination Sequence:
#
# PCOD9139618 Si02
#       8
#     4   4   4   4   4   4   4   4
#     4  11  26  42  66 111 136 190 238 288 346 415
#     4  12  26  44  76 104 142 184 240 292 348 435
#     4  11  24  43  69  95 151 186 233 289 348 411
#     4  10  26  48  72 103 140 181 230 297 368 422
#     4  11  24  43  69  95 151 186 233 289 348 411
#     4  11  26  43  74 102 138 182 238 291 348 434
#     4  11  26  48  72 104 140 182 230 297 368 421
#     4  11  26  43  66 110 136 189 238 289 346 415
#
# _framework density 26.032223999999999
#
# number of rings (size 3 to 8) (size 9 to 14) (size 15 to 20)
#    0.000    1.000    0.000    4.500   10.500   10.000 
#    0.000    0.000    0.000    0.000    0.000    0.000 
#    0.000    0.000    0.000    0.000    0.000    0.000 
#
# Total GULP energy -89219.265645 kJ/mol
# GULP energy per Si atom -5576.204103 kJ/mol
# Density = 2.597297 g / cm^3
# Si number density = 26.032224 Si / 1000 Ang^3
#
#
#
# Elastic Constant Matrix: (Units=GPa)
#
#
# Indices 1 2 3 4 5 6 
#
# 1 137.4732 49.8107 67.2351 0.0000 -14.9193 0.0000
# 2 49.8107 65.0696 28.2769 0.0000 6.5828 0.0000
# 3 67.2351 28.2769 92.8449 0.0000 -12.1639 0.0000
# 4 0.0000 0.0000 0.0000 23.0780 0.0000 16.2120
# 5 -14.9193 6.5828 -12.1639 0.0000 50.4775 0.0000
# 6 0.0000 0.0000 0.0000 16.2120 0.0000 41.6238
#
#
#
# Elastic Compliance Matrix: (Units=1/GPa)
#
#
# Indices 1 2 3 4 5 6 
#
# 1 0.014134 -0.007971 -0.007356 0.000000 0.003444 0.000000
# 2 -0.007971 0.022914 -0.001969 0.000000 -0.005819 0.000000
# 3 -0.007356 -0.001969 0.016982 0.000000 0.002175 0.000000
# 4 0.000000 0.000000 0.000000 0.059653 0.000000 -0.023234
# 5 0.003444 -0.005819 0.002175 0.000000 0.022112 0.000000
# 6 0.000000 0.000000 0.000000 -0.023234 0.000000 0.033074
#
#
# Mechanical properties :
#
#
# Convention : Reuss Voigt Hill
#
# Bulk Modulus (GPa) = 51.44510 65.11479 58.27995
# Shear Modulus (GPa) = 23.81618 33.04019 28.42818
#
# Velocity S-wave (km/s) = 3.02797 3.56645 3.30819
# Velocity P-wave (km/s) = 5.65949 6.48282 6.08509
#
# Compressibility (1/GPa) = 0.01943820
#
# Stress axis : x y z
#
# Youngs Moduli (GPa) = 70.75148 43.64104 58.88445
#
# Poissons Ratio (x) = 0.34787 0.43318
# Poissons Ratio (y) = 0.56397 0.11592
# Poissons Ratio (z) = 0.52048 0.08591
#
# Static dielectric constant tensor:
#      x y z
#    x 2.099820 0.000000 -0.045210 
#    y 0.000000 2.133880 0.000000 
#    z -0.045210 0.000000 2.043370 
# 
# From -- ./inp_files/37133.got.cif
#   From: 2010.05.17/outbox.cif.g08.bks.cpg/sg9_19_cif.got.tgz:37133.got - 2010.06.03 20:04:27.
