data_PCOD9139574
_publ_section_title
;
Structure prediction by ZEFSAII (Michael W. Deem and Ramdas Pophale) SiO2 
 PCOD9139574
Probable space group: C C
;
_chemical_formula_sum "Si O2"
_cell_formula_units_Z 28
_cell_length_a 6.760669
_cell_length_b 21.609581
_cell_length_c 13.109512
_cell_angle_alpha 90.000000
_cell_angle_beta 136.495278
_cell_angle_gamma 90.000000
_cell_volume 1318.476710
_symmetry_space_group_name_H-M "C C"
_symmetry_group_IT_number 9
_symmetry_cell_setting 'monoclinic'
loop_
_space_group_symop_operation_xyz
x,y,z
x,-y,1/2+z
1/2+x,1/2+y,z
1/2+x,1/2-y,1/2+z
loop_
_atom_site_type_symbol
_atom_site_label
_atom_site_fract_x
_atom_site_fract_y
_atom_site_fract_z
Si Si1 0.695510 0.676185 0.264080
Si Si2 0.249698 0.425916 0.669575
Si Si3 0.338192 0.874767 0.111037
Si Si4 0.865325 0.630837 0.848976
Si Si5 0.271654 0.438917 0.119970
Si Si6 0.178653 0.409460 0.869935
Si Si7 0.734470 0.243272 0.973998
O O1 0.506553 0.623831 0.252061
O O2 0.735492 0.730713 0.360372
O O3 0.498632 0.698146 0.097135
O O4 0.994074 0.649975 0.334587
O O5 0.366783 0.494611 0.696067
O O6 0.099623 0.425918 0.724713
O O7 0.024209 0.406252 0.497725
O O8 0.471704 0.882892 0.273426
O O9 0.529334 0.909098 0.099744
O O10 0.287345 0.802997 0.064357
O O11 0.019418 0.901692 0.991218
O O12 0.533645 0.610157 0.721273
O O13 0.949298 0.703426 0.893387
O O14 0.148993 0.450941 0.959998
#
# Coordination Sequence:
#
# PCOD9139574 Si02
#       7
#     4   4   4   4   4   4   4
#     4  11  24  46  69 105 136 187 227 295 348 407
#     4  11  26  45  70 105 140 178 240 283 346 426
#     4  11  23  45  67 101 139 182 230 285 340 417
#     4  10  26  43  69 108 134 184 229 293 343 411
#     4  11  26  44  73 100 142 185 232 283 357 407
#     4  11  24  44  69 101 136 185 229 282 354 396
#     4  11  21  45  71  98 143 171 237 281 340 424
#
# _framework density 21.236628
#
# number of rings (size 3 to 8) (size 9 to 14) (size 15 to 20)
#    0.000    1.143    4.286    0.000    6.000    4.571 
#    5.143    0.000    0.000    0.000    0.000    0.000 
#    0.000    0.000    0.000    0.000    0.000    0.000 
#
# Total GULP energy -78115.759289 kJ/mol
# GULP energy per Si atom -5579.697092 kJ/mol
# Density = 2.118829 g / cm^3
# Si number density = 21.236628 Si / 1000 Ang^3
#
#
#
# Elastic Constant Matrix: (Units=GPa)
#
#
# Indices 1 2 3 4 5 6 
#
# 1 118.3568 41.4162 50.6251 0.0000 -17.3044 0.0000
# 2 41.4162 95.2679 25.6395 0.0000 -10.1138 0.0000
# 3 50.6251 25.6395 119.8993 0.0000 -28.9417 0.0000
# 4 0.0000 0.0000 0.0000 22.9844 0.0000 -2.9681
# 5 -17.3044 -10.1138 -28.9417 0.0000 34.8464 0.0000
# 6 0.0000 0.0000 0.0000 -2.9681 0.0000 18.8873
#
#
#
# Elastic Compliance Matrix: (Units=1/GPa)
#
#
# Indices 1 2 3 4 5 6 
#
# 1 0.011621 -0.003891 -0.003695 0.000000 0.001573 0.000000
# 2 -0.003891 0.012509 -0.000778 0.000000 0.001052 0.000000
# 3 -0.003695 -0.000778 0.011969 0.000000 0.007880 0.000000
# 4 0.000000 0.000000 0.000000 0.044409 0.000000 0.006979
# 5 0.001573 0.001052 0.007880 0.000000 0.036328 0.000000
# 6 0.000000 0.000000 0.000000 0.006979 0.000000 0.054042
#
#
# Mechanical properties :
#
#
# Convention : Reuss Voigt Hill
#
# Bulk Modulus (GPa) = 51.62289 63.20951 57.41620
# Shear Modulus (GPa) = 25.76470 29.73318 27.74894
#
# Velocity S-wave (km/s) = 3.48691 3.74584 3.61869
# Velocity P-wave (km/s) = 6.36966 6.96688 6.67495
#
# Compressibility (1/GPa) = 0.01937125
#
# Stress axis : x y z
#
# Youngs Moduli (GPa) = 86.05185 79.94083 83.54866
#
# Poissons Ratio (x) = 0.31102 0.30872
# Poissons Ratio (y) = 0.33479 0.06503
# Poissons Ratio (z) = 0.31797 0.06222
#
# Static dielectric constant tensor:
#      x y z
#    x 1.748310 0.000000 -0.034150 
#    y 0.000000 1.762360 0.000000 
#    z -0.034150 0.000000 1.820200 
# 
# From -- ./inp_files/13707.got.cif
#   From: 2010.05.17/outbox.cif.g08.bks.cpg/sg9_7_cif.got.tgz:13707.got - 2010.06.03 20:04:27.
