data_PCOD9139743
_publ_section_title
;
Structure prediction by ZEFSAII (Michael W. Deem and Ramdas Pophale) SiO2 
 PCOD9139743
Probable space group: C C
;
_chemical_formula_sum "Si O2"
_cell_formula_units_Z 28
_cell_length_a 14.191799
_cell_length_b 15.597270
_cell_length_c 9.187092
_cell_angle_alpha 90.000000
_cell_angle_beta 138.987440
_cell_angle_gamma 90.000000
_cell_volume 1334.493671
_symmetry_space_group_name_H-M "C C"
_symmetry_group_IT_number 9
_symmetry_cell_setting 'monoclinic'
loop_
_space_group_symop_operation_xyz
x,y,z
x,-y,1/2+z
1/2+x,1/2+y,z
1/2+x,1/2-y,1/2+z
loop_
_atom_site_type_symbol
_atom_site_label
_atom_site_fract_x
_atom_site_fract_y
_atom_site_fract_z
Si Si1 0.149840 0.431290 0.829100
Si Si2 0.213225 0.955874 0.639827
Si Si3 0.957512 0.328331 0.807566
Si Si4 0.407524 0.361338 0.304351
Si Si5 0.598957 0.098679 0.941209
Si Si6 0.778052 0.605146 0.513833
Si Si7 0.715289 0.204295 0.836133
O O1 0.091724 0.519793 0.822261
O O2 0.155508 0.429192 0.663304
O O3 0.044943 0.358903 0.769890
O O4 0.299021 0.418652 0.085832
O O5 0.330948 0.894962 0.696775
O O6 0.274192 0.960909 0.874060
O O7 0.060879 0.907205 0.474019
O O8 0.201498 0.048934 0.550187
O O9 0.903915 0.232123 0.726078
O O10 0.072722 0.319758 0.075598
O O11 0.343974 0.338381 0.391483
O O12 0.434635 0.128369 0.758337
O O13 0.699690 0.165497 0.977656
O O14 0.725025 0.693930 0.377167
#
# Coordination Sequence:
#
# PCOD9139743 Si02
#       7
#     4   4   4   4   4   4   4
#     4  11  25  42  72  99 140 191 240 296 354 437
#     4  12  24  43  72 105 144 180 239 299 363 423
#     4  11  20  45  74  99 136 191 236 283 362 440
#     4  11  23  44  71 105 138 188 240 295 359 427
#     4  12  24  46  70 102 138 192 247 291 359 439
#     4  12  25  43  72 109 138 191 236 306 352 437
#     4  11  23  45  77  97 140 189 248 286 365 433
#
# _framework density 20.981739000000001
#
# number of rings (size 3 to 8) (size 9 to 14) (size 15 to 20)
#    0.000    0.571    5.714    3.429    0.000    3.429 
#    2.571    0.000    0.000    0.000    0.000    0.000 
#    0.000    0.000    0.000    0.000    0.000    0.000 
#
# Total GULP energy -78160.192776 kJ/mol
# GULP energy per Si atom -5582.870913 kJ/mol
# Density = 2.093398 g / cm^3
# Si number density = 20.981739 Si / 1000 Ang^3
#
#
#
# Elastic Constant Matrix: (Units=GPa)
#
#
# Indices 1 2 3 4 5 6 
#
# 1 109.3598 49.6644 53.8206 0.0000 -3.1397 0.0000
# 2 49.6644 75.4529 33.7450 0.0000 -8.4723 0.0000
# 3 53.8206 33.7450 83.5800 0.0000 -2.5099 0.0000
# 4 0.0000 0.0000 0.0000 29.7002 0.0000 -5.2474
# 5 -3.1397 -8.4723 -2.5099 0.0000 47.2480 0.0000
# 6 0.0000 0.0000 0.0000 -5.2474 0.0000 39.7820
#
#
#
# Elastic Compliance Matrix: (Units=1/GPa)
#
#
# Indices 1 2 3 4 5 6 
#
# 1 0.016127 -0.007364 -0.007431 0.000000 -0.000644 0.000000
# 2 -0.007364 0.019851 -0.003186 0.000000 0.002901 0.000000
# 3 -0.007431 -0.003186 0.018033 0.000000 -0.000107 0.000000
# 4 0.000000 0.000000 0.000000 0.034473 0.000000 0.004547
# 5 -0.000644 0.002901 -0.000107 0.000000 0.021637 0.000000
# 6 0.000000 0.000000 0.000000 0.004547 0.000000 0.025737
#
#
# Mechanical properties :
#
#
# Convention : Reuss Voigt Hill
#
# Bulk Modulus (GPa) = 55.40356 60.31697 57.86027
# Shear Modulus (GPa) = 28.11599 32.09022 30.10311
#
# Velocity S-wave (km/s) = 3.66460 3.91504 3.79189
# Velocity P-wave (km/s) = 6.66098 7.01759 6.84161
#
# Compressibility (1/GPa) = 0.01804938
#
# Stress axis : x y z
#
# Youngs Moduli (GPa) = 62.00774 50.37574 55.45486
#
# Poissons Ratio (x) = 0.37096 0.41209
# Poissons Ratio (y) = 0.45662 0.17666
# Poissons Ratio (z) = 0.46078 0.16048
#
# Static dielectric constant tensor:
#      x y z
#    x 1.800760 0.000000 0.024320 
#    y 0.000000 1.820880 0.000000 
#    z 0.024320 0.000000 1.760700 
# 
# From -- ./inp_files/7533.got.cif
#   From: 2010.05.17/outbox.cif.g08.bks.cpg/sg9_4_cif.got.tgz:7533.got - 2010.06.03 20:04:27.
