data_PCOD9139292
_publ_section_title
;
Structure prediction by ZEFSAII (Michael W. Deem and Ramdas Pophale) SiO2 
 PCOD9139292
Probable space group: C C
;
_chemical_formula_sum "Si O2"
_cell_formula_units_Z 32
_cell_length_a 15.290455
_cell_length_b 12.823888
_cell_length_c 10.639405
_cell_angle_alpha 90.000000
_cell_angle_beta 138.509120
_cell_angle_gamma 90.000000
_cell_volume 1382.114076
_symmetry_space_group_name_H-M "C C"
_symmetry_group_IT_number 9
_symmetry_cell_setting 'monoclinic'
loop_
_space_group_symop_operation_xyz
x,y,z
x,-y,1/2+z
1/2+x,1/2+y,z
1/2+x,1/2-y,1/2+z
loop_
_atom_site_type_symbol
_atom_site_label
_atom_site_fract_x
_atom_site_fract_y
_atom_site_fract_z
Si Si1 0.083910 0.637020 0.842740
Si Si2 0.420309 0.055493 0.199122
Si Si3 0.350678 0.256083 0.735604
Si Si4 0.685147 0.769044 0.232374
Si Si5 0.454632 0.364118 0.507798
Si Si6 0.003154 0.918395 0.070520
Si Si7 0.531503 0.717513 0.836935
Si Si8 0.781956 0.538227 0.786892
O O1 0.105301 0.637931 0.714670
O O2 0.048279 0.520075 0.846420
O O3 0.963004 0.707012 0.765309
O O4 0.219042 0.690202 0.037859
O O5 0.454770 0.176628 0.222157
O O6 0.337503 0.035263 0.236801
O O7 0.344064 0.018589 0.990983
O O8 0.311804 0.156697 0.777715
O O9 0.418691 0.343574 0.893337
O O10 0.837820 0.785517 0.417804
O O11 0.602125 0.673541 0.204259
O O12 0.654927 0.756604 0.053046
O O13 0.424962 0.478143 0.527445
O O14 0.455484 0.353839 0.357133
O O15 0.058718 0.850762 0.245031
O O16 0.125004 0.966365 0.125694
#
# Coordination Sequence:
#
# PCOD9139292 Si02
#       8
#     4   4   4   4   4   4   4   4
#     4  11  24  45  77 109 154 197 262 318 393 470
#     4  11  25  48  79 114 151 212 255 323 396 472
#     4  11  24  46  72 113 152 204 251 324 386 465
#     4  10  24  48  70 111 146 198 245 322 385 456
#     4  10  27  44  74 107 146 198 252 311 390 455
#     4  12  26  47  75 112 152 202 260 319 393 460
#     4  10  26  46  76 105 154 194 258 314 384 465
#     4  11  26  46  79 111 157 205 263 315 401 473
#
# _framework density 23.152937000000001
#
# number of rings (size 3 to 8) (size 9 to 14) (size 15 to 20)
#    0.750    0.500    2.500    1.500    7.000    4.000 
#    2.250    0.000    0.000    0.000    0.000    0.000 
#    0.000    0.000    0.000    0.000    0.000    0.000 
#
# Total GULP energy -89322.315919 kJ/mol
# GULP energy per Si atom -5582.644745 kJ/mol
# Density = 2.310024 g / cm^3
# Si number density = 23.152937 Si / 1000 Ang^3
#
#
#
# Elastic Constant Matrix: (Units=GPa)
#
#
# Indices 1 2 3 4 5 6 
#
# 1 95.9223 37.0702 43.6462 0.0000 2.0329 0.0000
# 2 37.0702 104.7632 37.3082 0.0000 2.1641 0.0000
# 3 43.6462 37.3082 97.8100 0.0000 -1.8420 0.0000
# 4 0.0000 0.0000 0.0000 36.3312 0.0000 -1.2680
# 5 2.0329 2.1641 -1.8420 0.0000 31.4095 0.0000
# 6 0.0000 0.0000 0.0000 -1.2680 0.0000 22.5845
#
#
#
# Elastic Compliance Matrix: (Units=1/GPa)
#
#
# Indices 1 2 3 4 5 6 
#
# 1 0.013950 -0.003116 -0.005055 0.000000 -0.000985 0.000000
# 2 -0.003116 0.011774 -0.003115 0.000000 -0.000792 0.000000
# 3 -0.005055 -0.003115 0.013693 0.000000 0.001345 0.000000
# 4 0.000000 0.000000 0.000000 0.027579 0.000000 0.001548
# 5 -0.000985 -0.000792 0.001345 0.000000 0.032035 0.000000
# 6 0.000000 0.000000 0.000000 0.001548 0.000000 0.044365
#
#
# Mechanical properties :
#
#
# Convention : Reuss Voigt Hill
#
# Bulk Modulus (GPa) = 59.36623 59.39383 59.38003
# Shear Modulus (GPa) = 29.14037 30.09643 29.61840
#
# Velocity S-wave (km/s) = 3.55153 3.60932 3.58054
# Velocity P-wave (km/s) = 6.52031 6.56339 6.54188
#
# Compressibility (1/GPa) = 0.01684459
#
# Stress axis : x y z
#
# Youngs Moduli (GPa) = 71.68328 84.93535 73.02792
#
# Poissons Ratio (x) = 0.26463 0.36917
# Poissons Ratio (y) = 0.22334 0.22752
# Poissons Ratio (z) = 0.36237 0.26462
#
# Static dielectric constant tensor:
#      x y z
#    x 1.906230 0.000000 -0.023580 
#    y 0.000000 1.941350 0.000000 
#    z -0.023580 0.000000 1.885040 
# 
# From -- ./inp_files/19320.got.cif
#   From: 2010.05.17/outbox.cif.g08.bks.cpg/sg9_10_cif.got.tgz:19320.got - 2010.06.03 20:04:27.
