data_PCOD9139504
_publ_section_title
;
Structure prediction by ZEFSAII (Michael W. Deem and Ramdas Pophale) SiO2 
 PCOD9139504
Probable space group: C C
;
_chemical_formula_sum "Si O2"
_cell_formula_units_Z 28
_cell_length_a 27.845768
_cell_length_b 5.374226
_cell_length_c 22.838392
_cell_angle_alpha 90.000000
_cell_angle_beta 160.294462
_cell_angle_gamma 90.000000
_cell_volume 1152.419274
_symmetry_space_group_name_H-M "C C"
_symmetry_group_IT_number 9
_symmetry_cell_setting 'monoclinic'
loop_
_space_group_symop_operation_xyz
x,y,z
x,-y,1/2+z
1/2+x,1/2+y,z
1/2+x,1/2-y,1/2+z
loop_
_atom_site_type_symbol
_atom_site_label
_atom_site_fract_x
_atom_site_fract_y
_atom_site_fract_z
Si Si1 0.508000 0.012122 0.376950
Si Si2 0.040227 0.498693 0.289286
Si Si3 0.752276 0.777937 0.951753
Si Si4 0.682399 0.261311 0.176301
Si Si5 0.940526 0.953586 0.461936
Si Si6 0.762827 0.353237 0.669989
Si Si7 0.604735 0.744502 0.249875
O O1 0.530964 0.872065 0.342112
O O2 0.604471 0.256035 0.476383
O O3 0.345667 0.042029 0.209367
O O4 0.581100 0.900824 0.518287
O O5 0.186290 0.635563 0.438634
O O6 0.021986 0.308532 0.214895
O O7 0.914693 0.700067 0.143012
O O8 0.673474 0.527925 0.838021
O O9 0.714521 0.024339 0.871202
O O10 0.815783 0.103298 0.351411
O O11 0.749848 0.457835 0.208725
O O12 0.578763 0.388668 0.103131
O O13 0.866709 0.858950 0.317111
O O14 0.001008 0.749034 0.575291
#
# Coordination Sequence:
#
# PCOD9139504 Si02
#       7
#     4   4   4   4   4   4   4
#     4  11  23  43  73 105 147 191 244 310 371 448
#     4  10  25  47  73 108 149 200 251 309 374 452
#     4  10  25  48  71 109 143 194 250 297 381 432
#     4  11  24  44  72 108 143 195 249 306 380 445
#     4  11  25  47  71 105 148 196 250 313 375 445
#     4  11  23  43  67 110 142 192 242 308 375 439
#     4  10  27  46  75 107 148 196 248 307 370 445
#
# _framework density 24.296713
#
# number of rings (size 3 to 8) (size 9 to 14) (size 15 to 20)
#    0.857    0.571    2.857    0.857    4.000    4.571 
#    0.000    0.000    0.000    0.000    0.000    0.000 
#    0.000    0.000    0.000    0.000    0.000    0.000 
#
# Total GULP energy -78213.845099 kJ/mol
# GULP energy per Si atom -5586.703221 kJ/mol
# Density = 2.424141 g / cm^3
# Si number density = 24.296713 Si / 1000 Ang^3
#
#
#
# Elastic Constant Matrix: (Units=GPa)
#
#
# Indices 1 2 3 4 5 6 
#
# 1 87.7935 8.3842 22.6228 0.0005 2.8558 0.0000
# 2 8.3842 69.3944 9.7365 0.0017 8.7083 0.0002
# 3 22.6228 9.7365 61.2052 0.0002 15.1120 0.0001
# 4 0.0005 0.0017 0.0002 11.1878 0.0001 0.9851
# 5 2.8558 8.7083 15.1120 0.0001 33.0583 0.0000
# 6 0.0000 0.0002 0.0001 0.9851 0.0000 26.9118
#
#
#
# Elastic Compliance Matrix: (Units=1/GPa)
#
#
# Indices 1 2 3 4 5 6 
#
# 1 0.012699 -0.001026 -0.004877 0.000000 0.001403 0.000000
# 2 -0.001026 0.015123 -0.001200 -0.000002 -0.003346 0.000000
# 3 -0.004877 -0.001200 0.020459 0.000000 -0.008615 0.000000
# 4 0.000000 -0.000002 0.000000 0.089672 0.000000 -0.003282
# 5 0.001403 -0.003346 -0.008615 0.000000 0.034948 0.000000
# 6 0.000000 0.000000 0.000000 -0.003282 0.000000 0.037279
#
#
# Mechanical properties :
#
#
# Convention : Reuss Voigt Hill
#
# Bulk Modulus (GPa) = 29.34740 33.32003 31.33371
# Shear Modulus (GPa) = 21.20933 26.07489 23.64211
#
# Velocity S-wave (km/s) = 2.95774 3.27951 3.12277
# Velocity P-wave (km/s) = 4.87538 5.29941 5.09181
#
# Compressibility (1/GPa) = 0.03407456
#
# Stress axis : x y z
#
# Youngs Moduli (GPa) = 78.74344 66.12581 48.87772
#
# Poissons Ratio (x) = 0.06785 0.23838
# Poissons Ratio (y) = 0.08080 0.05866
# Poissons Ratio (z) = 0.38404 0.07937
#
# Static dielectric constant tensor:
#      x y z
#    x 1.932620 0.000000 -0.027760 
#    y 0.000000 2.020340 0.000000 
#    z -0.027760 0.000000 1.969420 
# 
# From -- ./inp_files/36191.got.cif
#   From: 2010.05.17/outbox.cif.g08.bks.cpg/sg9_19_cif.got.tgz:36191.got - 2010.06.03 20:04:27.
