data_PCOD9139423
_publ_section_title
;
Structure prediction by ZEFSAII (Michael W. Deem and Ramdas Pophale) SiO2 
 PCOD9139423
Probable space group: C C
;
_chemical_formula_sum "Si O2"
_cell_formula_units_Z 32
_cell_length_a 13.755390
_cell_length_b 4.997909
_cell_length_c 17.448653
_cell_angle_alpha 90.000000
_cell_angle_beta 87.971152
_cell_angle_gamma 90.000000
_cell_volume 1198.811296
_symmetry_space_group_name_H-M "C C"
_symmetry_group_IT_number 9
_symmetry_cell_setting 'monoclinic'
loop_
_space_group_symop_operation_xyz
x,y,z
x,-y,1/2+z
1/2+x,1/2+y,z
1/2+x,1/2-y,1/2+z
loop_
_atom_site_type_symbol
_atom_site_label
_atom_site_fract_x
_atom_site_fract_y
_atom_site_fract_z
Si Si1 0.986360 0.587130 0.713440
Si Si2 0.244683 0.920844 0.539223
Si Si3 0.647808 0.293919 0.925620
Si Si4 0.963345 0.973723 0.843810
Si Si5 0.054133 0.578277 0.538333
Si Si6 0.380818 0.038907 0.435392
Si Si7 0.173819 0.577925 0.287080
Si Si8 0.768544 0.433205 0.710763
O O1 0.975673 0.875497 0.755146
O O2 0.882904 0.451179 0.709542
O O3 0.029002 0.599437 0.627309
O O4 0.063089 0.423438 0.762186
O O5 0.253613 0.102349 0.457209
O O6 0.348501 0.815302 0.515912
O O7 0.238583 0.022701 0.625111
O O8 0.151832 0.750579 0.524410
O O9 0.572998 0.470806 0.878505
O O10 0.672637 0.043224 0.871838
O O11 0.592603 0.205766 0.004286
O O12 0.913348 0.709717 0.881364
O O13 0.894790 0.219653 0.867790
O O14 0.965866 0.666188 0.487949
O O15 0.225379 0.857174 0.272302
O O16 0.226887 0.357117 0.231713
#
# Coordination Sequence:
#
# PCOD9139423 Si02
#       8
#     4   4   4   4   4   4   4   4
#     4  11  25  49  74 106 152 191 236 309 360 440
#     4  12  25  43  74 102 140 191 236 299 356 428
#     4  10  25  44  76 101 143 190 239 300 363 421
#     4  10  25  46  70 104 139 187 232 292 365 415
#     4  11  23  49  67 105 144 187 236 297 364 429
#     4  11  25  45  69 104 138 181 242 288 349 433
#     4  11  28  49  74 107 150 188 248 302 362 436
#     4  12  28  47  74 111 142 199 243 293 375 434
#
# _framework density 26.693109
#
# number of rings (size 3 to 8) (size 9 to 14) (size 15 to 20)
#    0.000    1.000    3.750    0.750    7.000    4.000 
#    4.500    0.000    0.000    0.000    0.000    0.000 
#    0.000    0.000    0.000    0.000    0.000    0.000 
#
# Total GULP energy -89426.183551 kJ/mol
# GULP energy per Si atom -5589.136472 kJ/mol
# Density = 2.663235 g / cm^3
# Si number density = 26.693109 Si / 1000 Ang^3
#
#
#
# Elastic Constant Matrix: (Units=GPa)
#
#
# Indices 1 2 3 4 5 6 
#
# 1 177.8237 38.4103 46.2266 0.0000 -11.5088 0.0000
# 2 38.4103 111.6649 22.0344 0.0000 -14.4386 0.0000
# 3 46.2266 22.0344 170.9599 0.0000 -12.9170 0.0000
# 4 0.0000 0.0000 0.0000 28.0139 0.0000 -8.2938
# 5 -11.5088 -14.4386 -12.9170 0.0000 61.8484 0.0000
# 6 0.0000 0.0000 0.0000 -8.2938 0.0000 31.9241
#
#
#
# Elastic Compliance Matrix: (Units=1/GPa)
#
#
# Indices 1 2 3 4 5 6 
#
# 1 0.006437 -0.001866 -0.001466 0.000000 0.000456 0.000000
# 2 -0.001866 0.009962 -0.000640 0.000000 0.001845 0.000000
# 3 -0.001466 -0.000640 0.006397 0.000000 0.000914 0.000000
# 4 0.000000 0.000000 0.000000 0.038671 0.000000 0.010047
# 5 0.000456 0.001845 0.000914 0.000000 0.016875 0.000000
# 6 0.000000 0.000000 0.000000 0.010047 0.000000 0.033934
#
#
# Mechanical properties :
#
#
# Convention : Reuss Voigt Hill
#
# Bulk Modulus (GPa) = 67.32643 74.86569 71.09606
# Shear Modulus (GPa) = 39.94535 47.94242 43.94388
#
# Velocity S-wave (km/s) = 3.87262 4.24259 4.06182
# Velocity P-wave (km/s) = 6.72855 7.21853 6.97784
#
# Compressibility (1/GPa) = 0.01485301
#
# Stress axis : x y z
#
# Youngs Moduli (GPa) = 155.34870 100.38075 156.31952
#
# Poissons Ratio (x) = 0.18732 0.22910
# Poissons Ratio (y) = 0.28989 0.10005
# Poissons Ratio (z) = 0.22768 0.06425
#
# Static dielectric constant tensor:
#      x y z
#    x 2.131270 0.000000 0.054600 
#    y 0.000000 2.250890 0.000000 
#    z 0.054600 0.000000 2.236100 
# 
# From -- ./inp_files/30473.got.cif
#   From: 2010.05.17/outbox.cif.g08.bks.cpg/sg9_16_cif.got.tgz:30473.got - 2010.06.03 20:04:27.
