data_PCOD9139724
_publ_section_title
;
Structure prediction by ZEFSAII (Michael W. Deem and Ramdas Pophale) SiO2 
 PCOD9139724
Probable space group: C C
;
_chemical_formula_sum "Si O2"
_cell_formula_units_Z 32
_cell_length_a 18.880078
_cell_length_b 6.554241
_cell_length_c 13.429470
_cell_angle_alpha 90.000000
_cell_angle_beta 48.487590
_cell_angle_gamma 90.000000
_cell_volume 1244.394163
_symmetry_space_group_name_H-M "C C"
_symmetry_group_IT_number 9
_symmetry_cell_setting 'monoclinic'
loop_
_space_group_symop_operation_xyz
x,y,z
x,-y,1/2+z
1/2+x,1/2+y,z
1/2+x,1/2-y,1/2+z
loop_
_atom_site_type_symbol
_atom_site_label
_atom_site_fract_x
_atom_site_fract_y
_atom_site_fract_z
Si Si1 0.452490 0.122214 0.294870
Si Si2 0.894518 0.236734 0.243019
Si Si3 0.733633 0.034117 0.924959
Si Si4 0.383992 0.922669 0.057434
Si Si5 0.647244 0.886492 0.697807
Si Si6 0.294232 0.322225 0.160395
Si Si7 0.994678 0.210735 0.542106
Si Si8 0.101526 0.821981 0.450715
O O1 0.549212 0.026437 0.247138
O O2 0.477239 0.254938 0.175947
O O3 0.406940 0.204304 0.438446
O O4 0.390818 0.937866 0.312127
O O5 0.835699 0.064967 0.353234
O O6 0.844618 0.293629 0.185125
O O7 0.722352 0.949288 0.163665
O O8 0.001488 0.201075 0.105330
O O9 0.668258 0.837203 0.952621
O O10 0.754078 0.168051 0.809127
O O11 0.694178 0.178384 0.048851
O O12 0.307246 0.095385 0.107604
O O13 0.475048 0.059473 0.014501
O O14 0.620559 0.750228 0.818363
O O15 0.403797 0.393593 0.073623
O O16 0.086960 0.069930 0.446757
#
# Coordination Sequence:
#
# PCOD9139724 Si02
#       8
#     4   4   4   4   4   4   4   4
#     4  11  21  41  72  98 137 191 235 295 358 430
#     4  11  20  41  70  98 146 184 236 298 357 422
#     4  11  23  42  71 104 141 190 235 295 359 432
#     4   9  20  42  67 101 136 191 233 287 362 426
#     4  11  23  41  72 103 139 190 240 292 360 436
#     4   9  21  43  68  98 142 186 226 297 357 422
#     4   9  22  44  69 102 140 188 234 300 360 432
#     4  11  22  46  69 100 147 188 239 300 363 424
#
# _framework density 25.715326000000001
#
# number of rings (size 3 to 8) (size 9 to 14) (size 15 to 20)
#    0.750    1.000    3.750    0.750    0.000    0.000 
#   13.500    0.000    2.750    0.000    0.000    0.000 
#    0.000    0.000    0.000    0.000    0.000    0.000 
#
# Total GULP energy -89087.053050 kJ/mol
# GULP energy per Si atom -5567.940816 kJ/mol
# Density = 2.565680 g / cm^3
# Si number density = 25.715326 Si / 1000 Ang^3
#
#
#
# Elastic Constant Matrix: (Units=GPa)
#
#
# Indices 1 2 3 4 5 6 
#
# 1 98.0075 26.5165 11.1278 -0.0014 -5.3525 0.0006
# 2 26.5165 77.2808 31.8351 -0.0025 -6.1232 0.0031
# 3 11.1278 31.8351 167.4036 -0.0009 11.4064 0.0018
# 4 -0.0014 -0.0025 -0.0009 41.2127 0.0012 -17.8029
# 5 -5.3525 -6.1232 11.4064 0.0012 37.1188 -0.0010
# 6 0.0006 0.0031 0.0018 -17.8029 -0.0010 35.3712
#
#
#
# Elastic Compliance Matrix: (Units=1/GPa)
#
#
# Indices 1 2 3 4 5 6 
#
# 1 0.011286 -0.003745 -0.000109 0.000000 0.001043 0.000000
# 2 -0.003745 0.015665 -0.002931 0.000000 0.002945 -0.000001
# 3 -0.000109 -0.002931 0.006713 0.000000 -0.002562 0.000000
# 4 0.000000 0.000000 0.000000 0.031006 -0.000001 0.015606
# 5 0.001043 0.002945 -0.002562 -0.000001 0.028364 0.000000
# 6 0.000000 -0.000001 0.000000 0.015606 0.000000 0.036126
#
#
# Mechanical properties :
#
#
# Convention : Reuss Voigt Hill
#
# Bulk Modulus (GPa) = 49.76475 53.51673 51.64074
# Shear Modulus (GPa) = 33.46107 40.95473 37.20790
#
# Velocity S-wave (km/s) = 3.61114 3.99509 3.80796
# Velocity P-wave (km/s) = 6.06476 6.49133 6.28167
#
# Compressibility (1/GPa) = 0.02009454
#
# Stress axis : x y z
#
# Youngs Moduli (GPa) = 88.60666 63.83512 148.97004
#
# Poissons Ratio (x) = 0.23905 0.01626
# Poissons Ratio (y) = 0.33181 0.43660
# Poissons Ratio (z) = 0.00967 0.18709
#
# Static dielectric constant tensor:
#      x y z
#    x 2.090450 0.000000 -0.040990 
#    y 0.000000 2.125410 0.000000 
#    z -0.040990 0.000000 2.028630 
# 
# From -- ./inp_files/20711.got.cif
#   From: 2010.05.17/outbox.cif.g08.bks.cpg/sg9_11_cif.got.tgz:20711.got - 2010.06.03 20:04:27.
