data_PCOD9139798
_publ_section_title
;
Structure prediction by ZEFSAII (Michael W. Deem and Ramdas Pophale) SiO2 
 PCOD9139798
Probable space group: C C
;
_chemical_formula_sum "Si O2"
_cell_formula_units_Z 24
_cell_length_a 9.403696
_cell_length_b 22.679261
_cell_length_c 9.188239
_cell_angle_alpha 90.000000
_cell_angle_beta 149.739102
_cell_angle_gamma 90.000000
_cell_volume 987.500008
_symmetry_space_group_name_H-M "C C"
_symmetry_group_IT_number 9
_symmetry_cell_setting 'monoclinic'
loop_
_space_group_symop_operation_xyz
x,y,z
x,-y,1/2+z
1/2+x,1/2+y,z
1/2+x,1/2-y,1/2+z
loop_
_atom_site_type_symbol
_atom_site_label
_atom_site_fract_x
_atom_site_fract_y
_atom_site_fract_z
Si Si1 0.348280 0.782922 0.911190
Si Si2 0.522958 0.672581 0.364306
Si Si3 0.196403 0.066975 0.999750
Si Si4 0.992692 0.376292 0.495274
Si Si5 0.191257 0.484627 0.496087
Si Si6 0.755966 0.112439 0.838841
O O1 0.078980 0.766804 0.578134
O O2 0.211361 0.777009 0.953370
O O3 0.517311 0.843761 0.067576
O O4 0.756182 0.638004 0.665221
O O5 0.405929 0.640294 0.114867
O O6 0.237922 0.673674 0.209339
O O7 0.992121 0.099508 0.930109
O O8 0.330348 0.110622 0.999955
O O9 0.994611 0.015681 0.755772
O O10 0.456242 0.034344 0.305122
O O11 0.152212 0.436883 0.590094
O O12 0.137999 0.448346 0.300492
#
# Coordination Sequence:
#
# PCOD9139798 Si02
#       6
#     4   4   4   4   4   4
#     4  12  23  41  72 101 117 163 227 276 324 371
#     4  11  21  42  64  89 125 163 209 271 319 367
#     4  12  25  37  62  98 133 179 212 250 328 383
#     4  11  22  39  60  88 131 174 207 263 315 370
#     4  11  22  38  60  93 135 177 220 253 301 386
#     4  11  25  41  68  95 137 164 223 269 309 383
#
# _framework density 24.303795000000001
#
# number of rings (size 3 to 8) (size 9 to 14) (size 15 to 20)
#    0.000    0.667    5.000    5.000    2.333    0.000 
#    0.000    0.000    0.000    6.000    0.000    0.000 
#    0.000    0.000    0.000    0.000    0.000    0.000 
#
# Total GULP energy -67047.843538 kJ/mol
# GULP energy per Si atom -5587.320295 kJ/mol
# Density = 2.424848 g / cm^3
# Si number density = 24.303795 Si / 1000 Ang^3
#
#
#
# Elastic Constant Matrix: (Units=GPa)
#
#
# Indices 1 2 3 4 5 6 
#
# 1 142.1599 23.9412 12.1481 0.0000 38.0847 -0.0001
# 2 23.9412 46.8808 21.3291 0.0000 8.3020 0.0000
# 3 12.1481 21.3291 116.7302 0.0000 40.0358 -0.0001
# 4 0.0000 0.0000 0.0000 40.2565 0.0000 43.7121
# 5 38.0847 8.3020 40.0358 0.0000 40.2522 -0.0001
# 6 -0.0001 0.0000 -0.0001 43.7121 -0.0001 -24.7108
#
#
#
# Elastic Compliance Matrix: (Units=1/GPa)
#
#
# Indices 1 2 3 4 5 6 
#
# 1 0.011393 -0.005428 0.004734 0.000000 -0.014369 0.000000
# 2 -0.005428 0.025870 -0.006213 0.000000 0.005979 0.000000
# 3 0.004734 -0.006213 0.015642 0.000000 -0.018756 0.000000
# 4 0.000000 0.000000 0.000000 0.008505 0.000000 0.015045
# 5 -0.014369 0.005979 -0.018756 0.000000 0.055861 0.000000
# 6 0.000000 0.000000 0.000000 0.015045 0.000000 -0.013855
#
#
# Mechanical properties :
#
#
# Convention : Reuss Voigt Hill
#
# Bulk Modulus (GPa) = 25.57980 46.73420 36.15700
# Shear Modulus (GPa) = 38.38461 27.71640 33.05050
#
# Velocity S-wave (km/s) = 3.97844 3.38067 3.69167
# Velocity P-wave (km/s) = 5.62599 5.87448 5.75158
#
# Compressibility (1/GPa) = 0.03909335
#
# Stress axis : x y z
#
# Youngs Moduli (GPa) = 87.77001 38.65424 63.92943
#
# Poissons Ratio (x) = 0.20981 -0.30267
# Poissons Ratio (y) = 0.47640 0.39719
# Poissons Ratio (z) = -0.41554 0.24016
#
# Static dielectric constant tensor:
#      x y z
#    x 1.943920 0.000000 0.000390 
#    y 0.000000 2.255100 0.000000 
#    z 0.000390 0.000000 1.971240 
# 
# From -- ./inp_files/6342.got.cif
#   From: 2010.05.17/outbox.cif.g08.bks.cpg/sg9_4_cif.got.tgz:6342.got - 2010.06.03 20:04:27.
