data_PCOD9139082
_publ_section_title
;
Structure prediction by ZEFSAII (Michael W. Deem and Ramdas Pophale) SiO2 
 PCOD9139082
Probable space group: C C
;
_chemical_formula_sum "Si O2"
_cell_formula_units_Z 28
_cell_length_a 10.966510
_cell_length_b 19.956583
_cell_length_c 8.028360
_cell_angle_alpha 90.000000
_cell_angle_beta 44.896065
_cell_angle_gamma 90.000000
_cell_volume 1240.158567
_symmetry_space_group_name_H-M "C C"
_symmetry_group_IT_number 9
_symmetry_cell_setting 'monoclinic'
loop_
_space_group_symop_operation_xyz
x,y,z
x,-y,1/2+z
1/2+x,1/2+y,z
1/2+x,1/2-y,1/2+z
loop_
_atom_site_type_symbol
_atom_site_label
_atom_site_fract_x
_atom_site_fract_y
_atom_site_fract_z
Si Si1 0.757010 0.519821 0.409030
Si Si2 0.509906 0.507556 0.403834
Si Si3 0.494840 0.108275 0.650053
Si Si4 0.287800 0.636978 0.595172
Si Si5 0.370490 0.157789 0.449799
Si Si6 0.738820 0.789407 0.479920
Si Si7 0.859641 0.128941 0.164615
O O1 0.696447 0.536951 0.281116
O O2 0.561536 0.503505 0.660527
O O3 0.887707 0.458658 0.278516
O O4 0.829770 0.582640 0.435271
O O5 0.359167 0.562172 0.566310
O O6 0.476205 0.431411 0.490887
O O7 0.586919 0.134533 0.728936
O O8 0.385649 0.157882 0.636866
O O9 0.667681 0.096378 0.371639
O O10 0.389178 0.655778 0.324468
O O11 0.306276 0.683776 0.737405
O O12 0.550361 0.180442 0.194329
O O13 0.235265 0.209869 0.505116
O O14 0.850242 0.816336 0.529371
#
# Coordination Sequence:
#
# PCOD9139082 Si02
#       7
#     4   4   4   4   4   4   4
#     4  12  24  40  68 109 138 178 231 302 354 400
#     4  12  23  39  69 107 143 173 232 303 343 417
#     4   9  23  44  69  99 139 182 233 294 354 410
#     4  10  24  44  69 106 134 187 236 283 358 425
#     4  11  27  46  67 100 142 189 233 296 348 426
#     4  11  26  47  69  97 142 190 237 280 356 425
#     4   9  23  44  69  98 138 189 228 286 353 425
#
# _framework density 22.577759
#
# number of rings (size 3 to 8) (size 9 to 14) (size 15 to 20)
#    0.857    0.571    2.857    0.857   12.000    0.000 
#    2.571    0.000    0.000    0.000    0.000    0.000 
#    0.000    0.000    0.000    0.000    0.000    0.000 
#
# Total GULP energy -77990.024387 kJ/mol
# GULP energy per Si atom -5570.716028 kJ/mol
# Density = 2.252637 g / cm^3
# Si number density = 22.577759 Si / 1000 Ang^3
#
#
#
# Elastic Constant Matrix: (Units=GPa)
#
#
# Indices 1 2 3 4 5 6 
#
# 1 69.7750 27.6770 6.1511 0.0000 19.1260 0.0000
# 2 27.6770 81.1446 34.1754 0.0000 12.4832 0.0000
# 3 6.1511 34.1754 72.8564 0.0000 9.9385 0.0000
# 4 0.0000 0.0000 0.0000 19.9302 0.0000 0.5393
# 5 19.1260 12.4832 9.9385 0.0000 23.4946 0.0000
# 6 0.0000 0.0000 0.0000 0.5393 0.0000 26.8497
#
#
#
# Elastic Compliance Matrix: (Units=1/GPa)
#
#
# Indices 1 2 3 4 5 6 
#
# 1 0.020508 -0.006029 0.003117 0.000000 -0.014810 0.000000
# 2 -0.006029 0.017811 -0.007667 0.000000 -0.001312 0.000000
# 3 0.003117 -0.007667 0.017881 0.000000 -0.006028 0.000000
# 4 0.000000 0.000000 0.000000 0.050202 0.000000 -0.001008
# 5 -0.014810 -0.001312 -0.006028 0.000000 0.057866 0.000000
# 6 0.000000 0.000000 0.000000 -0.001008 0.000000 0.037265
#
#
# Mechanical properties :
#
#
# Convention : Reuss Voigt Hill
#
# Bulk Modulus (GPa) = 28.53720 39.97587 34.25654
# Shear Modulus (GPa) = 21.33358 24.43972 22.88665
#
# Velocity S-wave (km/s) = 3.07725 3.29366 3.18729
# Velocity P-wave (km/s) = 5.02920 5.67526 5.36197
#
# Compressibility (1/GPa) = 0.03504198
#
# Stress axis : x y z
#
# Youngs Moduli (GPa) = 48.76110 56.14498 55.92510
#
# Poissons Ratio (x) = 0.33852 -0.17432
# Poissons Ratio (y) = 0.29400 0.42876
# Poissons Ratio (z) = -0.15199 0.43045
#
# Static dielectric constant tensor:
#      x y z
#    x 1.940960 0.000000 0.050970 
#    y 0.000000 1.788990 0.000000 
#    z 0.050970 0.000000 1.927450 
# 
# From -- ./inp_files/8249.got.cif
#   From: 2010.05.17/outbox.cif.g08.bks.cpg/sg9_5_cif.got.tgz:8249.got - 2010.06.03 20:04:27.
