data_PCOD9139887
_publ_section_title
;
Structure prediction by ZEFSAII (Michael W. Deem and Ramdas Pophale) SiO2 
 PCOD9139887
Probable space group: C C
;
_chemical_formula_sum "Si O2"
_cell_formula_units_Z 32
_cell_length_a 7.378622
_cell_length_b 22.770404
_cell_length_c 10.736247
_cell_angle_alpha 90.000000
_cell_angle_beta 44.025968
_cell_angle_gamma 90.000000
_cell_volume 1253.641907
_symmetry_space_group_name_H-M "C C"
_symmetry_group_IT_number 9
_symmetry_cell_setting 'monoclinic'
loop_
_space_group_symop_operation_xyz
x,y,z
x,-y,1/2+z
1/2+x,1/2+y,z
1/2+x,1/2-y,1/2+z
loop_
_atom_site_type_symbol
_atom_site_label
_atom_site_fract_x
_atom_site_fract_y
_atom_site_fract_z
Si Si1 0.358100 0.548440 0.504800
Si Si2 0.431914 0.287467 0.463928
Si Si3 0.678734 0.602920 0.142544
Si Si4 0.297515 0.028391 0.842171
Si Si5 0.756245 0.164330 0.688296
Si Si6 0.456808 0.792617 0.539195
Si Si7 0.666766 0.830491 0.830930
Si Si8 0.676301 0.382836 0.185548
O O1 0.508633 0.554669 0.300819
O O2 0.590805 0.522777 0.474118
O O3 0.261128 0.614725 0.581916
O O4 0.093047 0.511560 0.656604
O O5 0.568625 0.229127 0.443816
O O6 0.216145 0.312692 0.663907
O O7 0.640848 0.331919 0.306898
O O8 0.245969 0.273600 0.438618
O O9 0.848932 0.645715 0.150527
O O10 0.454390 0.648742 0.217766
O O11 0.803973 0.568304 0.963910
O O12 0.181271 0.061909 0.777013
O O13 0.826425 0.229562 0.608359
O O14 0.946973 0.133580 0.699323
O O15 0.485165 0.179399 0.888615
O O16 0.445473 0.877066 0.976231
#
# Coordination Sequence:
#
# PCOD9139887 Si02
#       8
#     4   4   4   4   4   4   4   4
#     4  12  30  52  79 109 154 199 272 323 393 451
#     4  11  22  39  67 111 150 202 235 305 373 480
#     4  12  28  47  78 112 150 207 255 323 391 447
#     4  12  29  55  75 113 149 207 268 328 377 460
#     4  11  24  45  77 115 151 203 242 321 387 469
#     4  11  23  44  74 114 164 189 250 308 395 466
#     4  12  22  40  70 103 154 193 249 297 387 454
#     4  11  24  44  72 105 152 190 255 301 385 453
#
# _framework density 25.52563
#
# number of rings (size 3 to 8) (size 9 to 14) (size 15 to 20)
#    0.000    0.500    6.250    1.500    3.500    7.000 
#    0.000    0.000    0.000    0.000    0.000    0.000 
#    0.000    0.000    0.000    0.000    0.000    0.000 
#
# Total GULP energy -89180.340556 kJ/mol
# GULP energy per Si atom -5573.771285 kJ/mol
# Density = 2.546753 g / cm^3
# Si number density = 25.525630 Si / 1000 Ang^3
#
#
#
# Elastic Constant Matrix: (Units=GPa)
#
#
# Indices 1 2 3 4 5 6 
#
# 1 58.8787 9.6031 6.2934 0.0000 -9.8110 0.0000
# 2 9.6031 94.4183 28.5876 0.0000 -10.5313 0.0000
# 3 6.2934 28.5876 120.2376 0.0000 -10.7068 0.0000
# 4 0.0000 0.0000 0.0000 17.5939 0.0000 -9.4122
# 5 -9.8110 -10.5313 -10.7068 0.0000 39.4179 0.0000
# 6 0.0000 0.0000 0.0000 -9.4122 0.0000 38.6710
#
#
#
# Elastic Compliance Matrix: (Units=1/GPa)
#
#
# Indices 1 2 3 4 5 6 
#
# 1 0.017896 -0.001288 -0.000271 0.000000 0.004036 0.000000
# 2 -0.001288 0.011726 -0.002531 0.000000 0.002125 0.000000
# 3 -0.000271 -0.002531 0.009086 0.000000 0.001724 0.000000
# 4 0.000000 0.000000 0.000000 0.065346 0.000000 0.015905
# 5 0.004036 0.002125 0.001724 0.000000 0.027410 0.000000
# 6 0.000000 0.000000 0.000000 0.015905 0.000000 0.029730
#
#
# Mechanical properties :
#
#
# Convention : Reuss Voigt Hill
#
# Bulk Modulus (GPa) = 32.75751 40.27809 36.51780
# Shear Modulus (GPa) = 27.84734 34.40658 31.12696
#
# Velocity S-wave (km/s) = 3.30655 3.67539 3.49584
# Velocity P-wave (km/s) = 5.23820 5.81593 5.53461
#
# Compressibility (1/GPa) = 0.03052735
#
# Stress axis : x y z
#
# Youngs Moduli (GPa) = 55.87937 85.28402 110.05425
#
# Poissons Ratio (x) = 0.10983 0.02983
# Poissons Ratio (y) = 0.07196 0.27857
# Poissons Ratio (z) = 0.01515 0.21587
#
# Static dielectric constant tensor:
#      x y z
#    x 2.157900 0.000000 0.052250 
#    y 0.000000 2.214990 0.000000 
#    z 0.052250 0.000000 2.120400 
# 
# From -- ./inp_files/15639.got.cif
#   From: 2010.05.17/outbox.cif.g08.bks.cpg/sg9_8_cif.got.tgz:15639.got - 2010.06.03 20:04:27.
