data_PCOD9139464
_publ_section_title
;
Structure prediction by ZEFSAII (Michael W. Deem and Ramdas Pophale) SiO2 
 PCOD9139464
Probable space group: C C
;
_chemical_formula_sum "Si O2"
_cell_formula_units_Z 32
_cell_length_a 15.948013
_cell_length_b 9.241415
_cell_length_c 11.442621
_cell_angle_alpha 90.000000
_cell_angle_beta 123.926065
_cell_angle_gamma 90.000000
_cell_volume 1399.336821
_symmetry_space_group_name_H-M "C C"
_symmetry_group_IT_number 9
_symmetry_cell_setting 'monoclinic'
loop_
_space_group_symop_operation_xyz
x,y,z
x,-y,1/2+z
1/2+x,1/2+y,z
1/2+x,1/2-y,1/2+z
loop_
_atom_site_type_symbol
_atom_site_label
_atom_site_fract_x
_atom_site_fract_y
_atom_site_fract_z
Si Si1 0.102000 0.898554 0.952630
Si Si2 0.194022 0.239237 0.729930
Si Si3 0.608905 0.042703 0.343174
Si Si4 0.883789 0.931929 0.857339
Si Si5 0.611737 0.728931 0.054587
Si Si6 0.942424 0.657769 0.601932
Si Si7 0.331985 0.440893 0.564665
Si Si8 0.231710 0.912600 0.831051
O O1 0.146308 0.877646 0.860128
O O2 0.989896 0.866172 0.905293
O O3 0.164570 0.783086 0.074720
O O4 0.106571 0.071144 0.987870
O O5 0.120972 0.343943 0.745213
O O6 0.301672 0.311569 0.818980
O O7 0.200126 0.075240 0.775828
O O8 0.608989 0.144093 0.457664
O O9 0.511675 0.943939 0.238589
O O10 0.714797 0.955989 0.437145
O O11 0.850223 0.012323 0.708262
O O12 0.888895 0.007189 0.989451
O O13 0.519775 0.770372 0.069296
O O14 0.711507 0.703188 0.212211
O O15 0.879254 0.782530 0.617751
O O16 0.847682 0.581810 0.462587
#
# Coordination Sequence:
#
# PCOD9139464 Si02
#       8
#     4   4   4   4   4   4   4   4
#     4  11  23  46  78 104 153 200 258 320 388 472
#     4  10  25  46  68 114 148 197 253 319 389 461
#     4  11  27  48  78 108 158 202 259 320 392 478
#     4  11  25  45  76 106 148 203 254 315 387 472
#     4  11  25  47  73 109 155 204 257 320 395 464
#     4  12  26  47  74 116 148 203 260 324 391 463
#     4  11  26  47  74 114 149 200 259 324 388 465
#     4  11  25  46  75 111 157 199 252 326 384 467
#
# _framework density 22.867974
#
# number of rings (size 3 to 8) (size 9 to 14) (size 15 to 20)
#    0.000    1.000    2.500    2.250    8.750    4.000 
#    2.250    0.000    0.000    0.000    0.000    0.000 
#    0.000    0.000    0.000    0.000    0.000    0.000 
#
# Total GULP energy -89224.809255 kJ/mol
# GULP energy per Si atom -5576.550578 kJ/mol
# Density = 2.281593 g / cm^3
# Si number density = 22.867974 Si / 1000 Ang^3
#
#
#
# Elastic Constant Matrix: (Units=GPa)
#
#
# Indices 1 2 3 4 5 6 
#
# 1 86.5272 47.4022 41.1410 0.0000 -1.4247 0.0000
# 2 47.4022 104.7606 49.0816 0.0000 -7.5378 0.0000
# 3 41.1410 49.0816 172.3963 0.0000 13.2239 0.0000
# 4 0.0000 0.0000 0.0000 36.2647 0.0000 -20.0292
# 5 -1.4247 -7.5378 13.2239 0.0000 53.3716 0.0000
# 6 0.0000 0.0000 0.0000 -20.0292 0.0000 1.6395
#
#
#
# Elastic Compliance Matrix: (Units=1/GPa)
#
#
# Indices 1 2 3 4 5 6 
#
# 1 0.015954 -0.006266 -0.002027 0.000000 0.000043 0.000000
# 2 -0.006266 0.013780 -0.002614 0.000000 0.002427 0.000000
# 3 -0.002027 -0.002614 0.007198 0.000000 -0.002207 0.000000
# 4 0.000000 0.000000 0.000000 -0.004798 0.000000 -0.058614
# 5 0.000043 0.002427 -0.002207 0.000000 0.019627 0.000000
# 6 0.000000 0.000000 0.000000 -0.058614 0.000000 -0.106127
#
#
# Mechanical properties :
#
#
# Convention : Reuss Voigt Hill
#
# Bulk Modulus (GPa) = 66.14520 70.99263 68.56892
# Shear Modulus (GPa) = -181.74007 33.32578 -74.20715
#
# Velocity S-wave (km/s) = -8.92447 3.82162 -5.70269
# Velocity P-wave (km/s) = 8.78677 7.11231 3.64844
#
# Compressibility (1/GPa) = 0.01511825
#
# Stress axis : x y z
#
# Youngs Moduli (GPa) = 62.67907 72.56742 138.93342
#
# Poissons Ratio (x) = 0.45474 0.28156
# Poissons Ratio (y) = 0.39277 0.36317
# Poissons Ratio (z) = 0.12703 0.18969
#
# Static dielectric constant tensor:
#      x y z
#    x 1.810280 0.000000 -0.052260 
#    y 0.000000 1.868940 0.000000 
#    z -0.052260 0.000000 2.012150 
# 
# From -- ./inp_files/17993.got.cif
#   From: 2010.05.17/outbox.cif.g08.bks.cpg/sg9_9_cif.got.tgz:17993.got - 2010.06.03 20:04:27.
