data_PCOD9139900
_publ_section_title
;
Structure prediction by ZEFSAII (Michael W. Deem and Ramdas Pophale) SiO2 
 PCOD9139900
Probable space group: C C
;
_chemical_formula_sum "Si O2"
_cell_formula_units_Z 32
_cell_length_a 11.573095
_cell_length_b 15.326714
_cell_length_c 9.384387
_cell_angle_alpha 90.000000
_cell_angle_beta 61.558342
_cell_angle_gamma 90.000000
_cell_volume 1463.668758
_symmetry_space_group_name_H-M "C C"
_symmetry_group_IT_number 9
_symmetry_cell_setting 'monoclinic'
loop_
_space_group_symop_operation_xyz
x,y,z
x,-y,1/2+z
1/2+x,1/2+y,z
1/2+x,1/2-y,1/2+z
loop_
_atom_site_type_symbol
_atom_site_label
_atom_site_fract_x
_atom_site_fract_y
_atom_site_fract_z
Si Si1 0.071510 0.389199 0.517910
Si Si2 0.523048 0.593498 0.571366
Si Si3 0.672346 0.977733 0.720449
Si Si4 0.346286 0.244924 0.084930
Si Si5 0.253419 0.299661 0.828167
Si Si6 0.437736 0.478035 0.399130
Si Si7 0.738128 0.280011 0.929087
Si Si8 0.966058 0.777115 0.466836
O O1 0.063504 0.447344 0.666816
O O2 0.127666 0.446236 0.353721
O O3 0.173329 0.312777 0.506317
O O4 0.944949 0.337408 0.533572
O O5 0.424392 0.673803 0.607861
O O6 0.537864 0.543186 0.415069
O O7 0.460736 0.525111 0.717802
O O8 0.657472 0.639554 0.538820
O O9 0.719351 0.897265 0.793087
O O10 0.795346 0.002403 0.545624
O O11 0.231158 0.219736 0.262079
O O12 0.297661 0.279903 0.962894
O O13 0.373794 0.266697 0.659368
O O14 0.115174 0.250888 0.890946
O O15 0.462164 0.378430 0.428506
O O16 0.887282 0.277478 0.893575
#
# Coordination Sequence:
#
# PCOD9139900 Si02
#       8
#     4   4   4   4   4   4   4   4
#     4  11  24  43  69 103 139 179 239 295 354 409
#     4  11  25  40  69 102 138 177 234 293 347 407
#     4  11  23  41  70 106 138 182 238 298 346 425
#     4  11  25  43  67  99 140 186 228 289 354 428
#     4  11  26  41  69 102 140 179 238 287 351 420
#     4  11  22  40  67 101 134 173 233 288 342 407
#     4  11  22  45  70  94 140 187 226 281 362 422
#     4  11  23  45  67  99 137 185 230 285 350 428
#
# _framework density 21.862871999999999
#
# number of rings (size 3 to 8) (size 9 to 14) (size 15 to 20)
#    0.000    1.000    3.750    3.000   10.500    0.000 
#    0.000    6.250    0.000    0.000    0.000    0.000 
#    0.000    0.000    0.000    0.000    0.000    0.000 
#
# Total GULP energy -89417.779264 kJ/mol
# GULP energy per Si atom -5588.611204 kJ/mol
# Density = 2.181311 g / cm^3
# Si number density = 21.862872 Si / 1000 Ang^3
#
#
#
# Elastic Constant Matrix: (Units=GPa)
#
#
# Indices 1 2 3 4 5 6 
#
# 1 70.3731 24.3770 15.1066 0.0000 12.9836 0.0000
# 2 24.3770 77.2710 26.1678 0.0000 2.0566 0.0000
# 3 15.1066 26.1678 109.7111 0.0000 20.4535 0.0000
# 4 0.0000 0.0000 0.0000 36.2852 0.0000 -5.6443
# 5 12.9836 2.0566 20.4535 0.0000 33.3000 0.0000
# 6 0.0000 0.0000 0.0000 -5.6443 0.0000 25.5692
#
#
#
# Elastic Compliance Matrix: (Units=1/GPa)
#
#
# Indices 1 2 3 4 5 6 
#
# 1 0.017211 -0.005289 0.000093 0.000000 -0.006441 0.000000
# 2 -0.005289 0.015758 -0.003651 0.000000 0.003332 0.000000
# 3 0.000093 -0.003651 0.011223 0.000000 -0.006704 0.000000
# 4 0.000000 0.000000 0.000000 0.028539 0.000000 0.006300
# 5 -0.006441 0.003332 -0.006704 0.000000 0.036453 0.000000
# 6 0.000000 0.000000 0.000000 0.006300 0.000000 0.040500
#
#
# Mechanical properties :
#
#
# Convention : Reuss Voigt Hill
#
# Bulk Modulus (GPa) = 37.74313 43.18423 40.46368
# Shear Modulus (GPa) = 28.37487 31.81113 30.09300
#
# Velocity S-wave (km/s) = 3.60649 3.81862 3.71407
# Velocity P-wave (km/s) = 5.88586 6.26400 6.07787
#
# Compressibility (1/GPa) = 0.02649489
#
# Stress axis : x y z
#
# Youngs Moduli (GPa) = 58.10365 63.45988 89.10422
#
# Poissons Ratio (x) = 0.33567 -0.00824
# Poissons Ratio (y) = 0.30733 0.32535
# Poissons Ratio (z) = -0.00538 0.23171
#
# Static dielectric constant tensor:
#      x y z
#    x 1.828770 0.000000 0.002490 
#    y 0.000000 1.779100 0.000000 
#    z 0.002490 0.000000 1.882030 
# 
# From -- ./inp_files/7406.got.cif
#   From: 2010.05.17/outbox.cif.g08.bks.cpg/sg9_4_cif.got.tgz:7406.got - 2010.06.03 20:04:27.
