data_PCOD9139243
_publ_section_title
;
Structure prediction by ZEFSAII (Michael W. Deem and Ramdas Pophale) SiO2 
 PCOD9139243
Probable space group: C C
;
_chemical_formula_sum "Si O2"
_cell_formula_units_Z 28
_cell_length_a 13.425280
_cell_length_b 5.410950
_cell_length_c 17.805547
_cell_angle_alpha 90.000000
_cell_angle_beta 54.226700
_cell_angle_gamma 90.000000
_cell_volume 1049.429124
_symmetry_space_group_name_H-M "C C"
_symmetry_group_IT_number 9
_symmetry_cell_setting 'monoclinic'
loop_
_space_group_symop_operation_xyz
x,y,z
x,-y,1/2+z
1/2+x,1/2+y,z
1/2+x,1/2-y,1/2+z
loop_
_atom_site_type_symbol
_atom_site_label
_atom_site_fract_x
_atom_site_fract_y
_atom_site_fract_z
Si Si1 0.224000 0.124877 0.531900
Si Si2 0.389564 0.444542 0.548186
Si Si3 0.970046 0.505915 0.870512
Si Si4 0.595433 0.187553 0.949924
Si Si5 0.657909 0.744052 0.177524
Si Si6 0.448740 0.179844 0.670335
Si Si7 0.376873 0.692597 0.781291
O O1 0.318000 0.339041 0.509488
O O2 0.112964 0.222960 0.530044
O O3 0.323197 0.934716 0.448756
O O4 0.184341 0.026334 0.631620
O O5 0.504210 0.594568 0.467474
O O6 0.287868 0.623412 0.632232
O O7 0.428714 0.245943 0.593377
O O8 0.960853 0.281554 0.814474
O O9 0.034306 0.475392 0.923539
O O10 0.062084 0.697019 0.786311
O O11 0.736608 0.177879 0.867381
O O12 0.589129 0.852151 0.133881
O O13 0.410028 0.427864 0.732374
O O14 0.382819 0.930827 0.724001
#
# Coordination Sequence:
#
# PCOD9139243 Si02
#       7
#     4   4   4   4   4   4   4
#     4  11  26  47  72 112 157 207 275 333 402 486
#     4  12  27  43  78 109 152 212 260 331 409 475
#     4  10  24  46  77 108 156 207 263 330 401 469
#     4  11  24  49  70 112 154 205 266 329 399 477
#     4  11  25  48  75 113 156 202 267 332 397 487
#     4  11  26  50  79 113 154 206 263 331 399 472
#     4  10  26  49  77 115 153 203 270 324 395 482
#
# _framework density 26.681173000000001
#
# number of rings (size 3 to 8) (size 9 to 14) (size 15 to 20)
#    0.000    1.143    2.857    0.857    8.000    8.000 
#    0.000    0.000    0.000    0.000    0.000    0.000 
#    0.000    0.000    0.000    0.000    0.000    0.000 
#
# Total GULP energy -78136.188403 kJ/mol
# GULP energy per Si atom -5581.156314 kJ/mol
# Density = 2.662045 g / cm^3
# Si number density = 26.681173 Si / 1000 Ang^3
#
#
#
# Elastic Constant Matrix: (Units=GPa)
#
#
# Indices 1 2 3 4 5 6 
#
# 1 153.2654 32.0805 29.4635 0.0004 34.3063 0.0075
# 2 32.0805 102.8642 65.7786 0.0034 25.8297 0.0112
# 3 29.4635 65.7786 147.5483 -0.0001 13.9652 0.0007
# 4 0.0004 0.0034 -0.0001 40.0964 -0.0006 14.8959
# 5 34.3063 25.8297 13.9652 -0.0006 25.1137 0.0002
# 6 0.0075 0.0112 0.0007 14.8959 0.0002 50.9958
#
#
#
# Elastic Compliance Matrix: (Units=1/GPa)
#
#
# Indices 1 2 3 4 5 6 
#
# 1 0.009545 0.001168 -0.001139 0.000000 -0.013607 -0.000002
# 2 0.001168 0.017569 -0.006549 0.000000 -0.016024 -0.000004
# 3 -0.001139 -0.006549 0.009647 0.000000 0.002927 0.000001
# 4 0.000000 0.000000 0.000000 0.027976 0.000001 -0.008172
# 5 -0.013607 -0.016024 0.002927 0.000001 0.073259 0.000005
# 6 -0.000002 -0.000004 0.000001 -0.008172 0.000005 0.021996
#
#
# Mechanical properties :
#
#
# Convention : Reuss Voigt Hill
#
# Bulk Modulus (GPa) = 42.15561 73.14702 57.65131
# Shear Modulus (GPa) = 27.63363 41.66486 34.64925
#
# Velocity S-wave (km/s) = 3.22172 3.95597 3.60757
# Velocity P-wave (km/s) = 5.44732 6.95277 6.24557
#
# Compressibility (1/GPa) = 0.02372164
#
# Stress axis : x y z
#
# Youngs Moduli (GPa) = 104.77010 56.91923 103.65413
#
# Poissons Ratio (x) = -0.06650 0.11806
# Poissons Ratio (y) = -0.12240 0.67883
# Poissons Ratio (z) = 0.11933 0.37276
#
# Static dielectric constant tensor:
#      x y z
#    x 2.042050 0.000000 0.033700 
#    y 0.000000 2.204850 0.000000 
#    z 0.033700 0.000000 2.288640 
# 
# From -- ./inp_files/32948.got.cif
#   From: 2010.05.17/outbox.cif.g08.bks.cpg/sg9_17_cif.got.tgz:32948.got - 2010.06.03 20:04:27.
