data_PCOD9139914
_publ_section_title
;
Structure prediction by ZEFSAII (Michael W. Deem and Ramdas Pophale) SiO2 
 PCOD9139914
Probable space group: C C
;
_chemical_formula_sum "Si O2"
_cell_formula_units_Z 32
_cell_length_a 9.108758
_cell_length_b 18.533190
_cell_length_c 9.145384
_cell_angle_alpha 90.000000
_cell_angle_beta 83.065460
_cell_angle_gamma 90.000000
_cell_volume 1532.578161
_symmetry_space_group_name_H-M "C C"
_symmetry_group_IT_number 9
_symmetry_cell_setting 'monoclinic'
loop_
_space_group_symop_operation_xyz
x,y,z
x,-y,1/2+z
1/2+x,1/2+y,z
1/2+x,1/2-y,1/2+z
loop_
_atom_site_type_symbol
_atom_site_label
_atom_site_fract_x
_atom_site_fract_y
_atom_site_fract_z
Si Si1 0.012690 0.651310 0.973950
Si Si2 0.705235 0.958277 0.616864
Si Si3 0.251375 0.982459 0.346015
Si Si4 0.998203 0.881294 0.526466
Si Si5 0.392493 0.144451 0.666890
Si Si6 0.778388 0.246567 0.979192
Si Si7 0.042725 0.553529 0.441772
Si Si8 0.233674 0.857819 0.722133
O O1 0.111024 0.718484 0.006172
O O2 0.975274 0.656138 0.808412
O O3 0.126278 0.587724 0.998879
O O4 0.868860 0.641551 0.090786
O O5 0.874456 0.936691 0.600296
O O6 0.628976 0.942873 0.779819
O O7 0.654153 0.034643 0.561753
O O8 0.304965 0.929922 0.209208
O O9 0.120950 0.933767 0.433894
O O10 0.399002 0.001997 0.424610
O O11 0.209644 0.061854 0.292576
O O12 0.901725 0.818362 0.455834
O O13 0.087604 0.841996 0.645167
O O14 0.299750 0.212759 0.630547
O O15 0.483028 0.129127 0.508377
O O16 0.774153 0.300273 0.841238
#
# Coordination Sequence:
#
# PCOD9139914 Si02
#       8
#     4   4   4   4   4   4   4   4
#     4  11  22  43  68  96 144 189 243 297 356 445
#     4  11  22  41  64 104 142 180 233 304 357 423
#     4  12  23  42  75 104 139 191 242 299 359 438
#     4  11  27  45  69 106 151 181 243 315 361 422
#     4  12  22  42  74 102 135 192 247 287 371 433
#     4  11  27  44  70 104 143 196 246 298 367 444
#     4  12  21  42  73 102 139 191 239 289 366 445
#     4  12  24  47  71 104 149 192 241 301 371 434
#
# _framework density 20.879847999999999
#
# number of rings (size 3 to 8) (size 9 to 14) (size 15 to 20)
#    0.000    0.500    6.250    1.500    3.500    0.000 
#    0.000    1.250    0.000    0.000    0.000    0.000 
#    0.000    0.000    0.000    0.000    0.000    0.000 
#
# Total GULP energy -89134.784763 kJ/mol
# GULP energy per Si atom -5570.924048 kJ/mol
# Density = 2.083232 g / cm^3
# Si number density = 20.879848 Si / 1000 Ang^3
#
#
#
# Elastic Constant Matrix: (Units=GPa)
#
#
# Indices 1 2 3 4 5 6 
#
# 1 119.7695 36.8144 50.8221 0.0000 5.3997 0.0000
# 2 36.8144 77.7542 30.5516 0.0000 4.0012 0.0000
# 3 50.8221 30.5516 100.0139 0.0000 5.1865 0.0000
# 4 0.0000 0.0000 0.0000 38.7116 0.0000 5.9183
# 5 5.3997 4.0012 5.1865 0.0000 16.6097 0.0000
# 6 0.0000 0.0000 0.0000 5.9183 0.0000 17.9321
#
#
#
# Elastic Compliance Matrix: (Units=1/GPa)
#
#
# Indices 1 2 3 4 5 6 
#
# 1 0.011485 -0.003523 -0.004686 0.000000 -0.001422 0.000000
# 2 -0.003523 0.015773 -0.002938 0.000000 -0.001737 0.000000
# 3 -0.004686 -0.002938 0.013378 0.000000 -0.001946 0.000000
# 4 0.000000 0.000000 0.000000 0.027205 0.000000 -0.008979
# 5 -0.001422 -0.001737 -0.001946 0.000000 0.061694 0.000000
# 6 0.000000 0.000000 0.000000 -0.008979 0.000000 0.058729
#
#
# Mechanical properties :
#
#
# Convention : Reuss Voigt Hill
#
# Bulk Modulus (GPa) = 54.52052 59.32376 56.92214
# Shear Modulus (GPa) = 23.07632 26.60730 24.84181
#
# Velocity S-wave (km/s) = 3.32805 3.57361 3.45302
# Velocity P-wave (km/s) = 6.39814 6.74546 6.57409
#
# Compressibility (1/GPa) = 0.01834172
#
# Stress axis : x y z
#
# Youngs Moduli (GPa) = 87.07081 63.39967 74.74870
#
# Poissons Ratio (x) = 0.22338 0.35028
# Poissons Ratio (y) = 0.30678 0.21959
# Poissons Ratio (z) = 0.40802 0.18625
#
# Static dielectric constant tensor:
#      x y z
#    x 1.792020 0.000000 0.019410 
#    y 0.000000 2.114470 0.000000 
#    z 0.019410 0.000000 1.747040 
# 
# From -- ./inp_files/5787.got.cif
#   From: 2010.05.17/outbox.cif.g08.bks.cpg/sg9_3_cif.got.tgz:5787.got - 2010.06.03 20:04:27.
