data_PCOD9139952
_publ_section_title
;
Structure prediction by ZEFSAII (Michael W. Deem and Ramdas Pophale) SiO2 
 PCOD9139952
Probable space group: C C
;
_chemical_formula_sum "Si O2"
_cell_formula_units_Z 32
_cell_length_a 17.165965
_cell_length_b 9.870495
_cell_length_c 10.395555
_cell_angle_alpha 90.000000
_cell_angle_beta 55.405233
_cell_angle_gamma 90.000000
_cell_volume 1449.953208
_symmetry_space_group_name_H-M "C C"
_symmetry_group_IT_number 9
_symmetry_cell_setting 'monoclinic'
loop_
_space_group_symop_operation_xyz
x,y,z
x,-y,1/2+z
1/2+x,1/2+y,z
1/2+x,1/2-y,1/2+z
loop_
_atom_site_type_symbol
_atom_site_label
_atom_site_fract_x
_atom_site_fract_y
_atom_site_fract_z
Si Si1 0.177550 0.643005 0.989240
Si Si2 0.670378 0.443154 0.481098
Si Si3 0.625474 0.143058 0.479785
Si Si4 0.785047 0.911841 0.626713
Si Si5 0.009335 0.851377 0.168322
Si Si6 0.793441 0.492246 0.609810
Si Si7 0.835540 0.188736 0.635564
Si Si8 0.440905 0.770308 0.003135
O O1 0.135312 0.492412 0.054259
O O2 0.238860 0.667953 0.805496
O O3 0.254133 0.667325 0.028880
O O4 0.090115 0.741684 0.064398
O O5 0.664372 0.281292 0.503076
O O6 0.565791 0.508145 0.592833
O O7 0.732741 0.502702 0.537532
O O8 0.723482 0.476362 0.296620
O O9 0.690928 0.099914 0.298828
O O10 0.523482 0.181519 0.519283
O O11 0.865153 0.834268 0.632409
O O12 0.826921 0.058581 0.550512
O O13 0.923089 0.834311 0.150248
O O14 0.978710 0.811815 0.342519
O O15 0.834026 0.339655 0.583010
O O16 0.879619 0.597549 0.525831
#
# Coordination Sequence:
#
# PCOD9139952 Si02
#       8
#     4   4   4   4   4   4   4   4
#     4  11  22  43  65  93 136 179 227 284 349 413
#     4  12  25  46  70 103 144 186 234 294 354 415
#     4  11  24  41  66  98 134 179 229 286 347 416
#     4  11  22  43  65  93 136 179 227 284 349 413
#     4  12  23  43  70  98 134 186 232 280 354 426
#     4  12  25  46  70 103 144 186 234 294 354 415
#     4  11  24  41  66  98 134 179 229 286 347 416
#     4  12  23  43  70  98 134 186 232 280 354 426
#
# _framework density 22.069680000000002
#
# number of rings (size 3 to 8) (size 9 to 14) (size 15 to 20)
#    0.000    0.500    5.000    4.500    0.000    0.000 
#    0.000    2.500    0.000    0.000    0.000    0.000 
#    0.000    0.000    0.000    0.000    0.000    0.000 
#
# Total GULP energy -89380.846072 kJ/mol
# GULP energy per Si atom -5586.302879 kJ/mol
# Density = 2.201945 g / cm^3
# Si number density = 22.069680 Si / 1000 Ang^3
#
#
#
# Elastic Constant Matrix: (Units=GPa)
#
#
# Indices 1 2 3 4 5 6 
#
# 1 81.1656 -0.8769 8.4596 0.0000 -8.5004 0.0000
# 2 -0.8769 133.2364 -7.6774 0.0000 -11.2177 0.0000
# 3 8.4596 -7.6774 42.8687 0.0000 0.8367 0.0000
# 4 0.0000 0.0000 0.0000 22.3315 0.0000 -7.3143
# 5 -8.5004 -11.2177 0.8367 0.0000 23.8815 0.0000
# 6 0.0000 0.0000 0.0000 -7.3143 0.0000 41.4613
#
#
#
# Elastic Compliance Matrix: (Units=1/GPa)
#
#
# Indices 1 2 3 4 5 6 
#
# 1 0.013113 0.000350 -0.002621 0.000000 0.004924 0.000000
# 2 0.000350 0.007900 0.001272 0.000000 0.003791 0.000000
# 3 -0.002621 0.001272 0.024095 0.000000 -0.001180 0.000000
# 4 0.000000 0.000000 0.000000 0.047526 0.000000 0.008384
# 5 0.004924 0.003791 -0.001180 0.000000 0.045448 0.000000
# 6 0.000000 0.000000 0.000000 0.008384 0.000000 0.025598
#
#
# Mechanical properties :
#
#
# Convention : Reuss Voigt Hill
#
# Bulk Modulus (GPa) = 23.19678 28.56457 25.88067
# Shear Modulus (GPa) = 27.77024 34.69257 31.23140
#
# Velocity S-wave (km/s) = 3.55110 3.96909 3.76590
# Velocity P-wave (km/s) = 5.22946 5.82889 5.53729
#
# Compressibility (1/GPa) = 0.04310943
#
# Stress axis : x y z
#
# Youngs Moduli (GPa) = 76.25956 126.57888 41.50220
#
# Poissons Ratio (x) = -0.04428 0.10878
# Poissons Ratio (y) = -0.02668 -0.05278
# Poissons Ratio (z) = 0.19989 -0.16099
#
# Static dielectric constant tensor:
#      x y z
#    x 1.767350 0.000000 -0.006690 
#    y 0.000000 1.920570 0.000000 
#    z -0.006690 0.000000 1.860620 
# 
# From -- ./inp_files/19131.got.cif
#   From: 2010.05.17/outbox.cif.g08.bks.cpg/sg9_10_cif.got.tgz:19131.got - 2010.06.03 20:04:27.
