data_PCOD9139806
_publ_section_title
;
Structure prediction by ZEFSAII (Michael W. Deem and Ramdas Pophale) SiO2 
 PCOD9139806
Probable space group: C C
;
_chemical_formula_sum "Si O2"
_cell_formula_units_Z 28
_cell_length_a 8.877376
_cell_length_b 11.619508
_cell_length_c 10.739509
_cell_angle_alpha 90.000000
_cell_angle_beta 95.286986
_cell_angle_gamma 90.000000
_cell_volume 1103.075401
_symmetry_space_group_name_H-M "C C"
_symmetry_group_IT_number 9
_symmetry_cell_setting 'monoclinic'
loop_
_space_group_symop_operation_xyz
x,y,z
x,-y,1/2+z
1/2+x,1/2+y,z
1/2+x,1/2-y,1/2+z
loop_
_atom_site_type_symbol
_atom_site_label
_atom_site_fract_x
_atom_site_fract_y
_atom_site_fract_z
Si Si1 0.497630 0.434468 0.380510
Si Si2 0.792290 0.246733 0.764386
Si Si3 0.084434 0.558340 0.433961
Si Si4 0.462788 0.812897 0.140696
Si Si5 0.808699 0.870594 0.768319
Si Si6 0.813261 0.521286 0.804345
Si Si7 0.892249 0.887149 0.037075
O O1 0.377134 0.331701 0.373238
O O2 0.953267 0.467292 0.410581
O O3 0.414195 0.517277 0.272413
O O4 0.663924 0.414614 0.340784
O O5 0.617741 0.211279 0.728858
O O6 0.790613 0.383362 0.788439
O O7 0.884393 0.202390 0.647978
O O8 0.020209 0.663883 0.507495
O O9 0.142156 0.592406 0.299551
O O10 0.237947 0.534344 0.521111
O O11 0.345562 0.711679 0.159916
O O12 0.374813 0.924272 0.182810
O O13 0.869465 0.816725 0.904938
O O14 0.013544 0.015792 0.504896
#
# Coordination Sequence:
#
# PCOD9139806 Si02
#       7
#     4   4   4   4   4   4   4
#     4   9  21  39  60  94 124 166 208 264 317 382
#     4  11  21  43  65  91 131 167 215 268 319 389
#     4   8  21  40  59  97 128 163 222 258 321 385
#     4  11  21  42  69  89 133 175 210 274 324 375
#     4   8  18  42  62  88 128 171 211 263 321 373
#     4  12  24  38  64  99 126 168 221 260 324 388
#     4   7  18  40  63  86 124 170 209 257 328 364
#
# _framework density 25.383576999999999
#
# number of rings (size 3 to 8) (size 9 to 14) (size 15 to 20)
#    1.714    0.571    1.429    1.714    2.000    2.286 
#    2.571    1.429    0.000    0.000    0.000    0.000 
#    0.000    0.000    0.000    0.000    0.000    0.000 
#
# Total GULP energy -77963.115076 kJ/mol
# GULP energy per Si atom -5568.793934 kJ/mol
# Density = 2.532580 g / cm^3
# Si number density = 25.383577 Si / 1000 Ang^3
#
#
#
# Elastic Constant Matrix: (Units=GPa)
#
#
# Indices 1 2 3 4 5 6 
#
# 1 113.4525 18.4752 16.3934 0.0000 -21.2102 0.0000
# 2 18.4752 90.6742 -8.8965 0.0000 -0.1100 0.0000
# 3 16.3934 -8.8965 41.7729 0.0000 -13.3054 0.0000
# 4 0.0000 0.0000 0.0000 15.9544 0.0000 4.2381
# 5 -21.2102 -0.1100 -13.3054 0.0000 28.8746 0.0000
# 6 0.0000 0.0000 0.0000 4.2381 0.0000 27.0941
#
#
#
# Elastic Compliance Matrix: (Units=1/GPa)
#
#
# Indices 1 2 3 4 5 6 
#
# 1 0.010858 -0.002463 -0.002635 0.000000 0.006753 0.000000
# 2 -0.002463 0.011867 0.003436 0.000000 -0.000180 0.000000
# 3 -0.002635 0.003436 0.029409 0.000000 0.011629 0.000000
# 4 0.000000 0.000000 0.000000 0.065396 0.000000 -0.010229
# 5 0.006753 -0.000180 0.011629 0.000000 0.044951 0.000000
# 6 0.000000 0.000000 0.000000 -0.010229 0.000000 0.038508
#
#
# Mechanical properties :
#
#
# Convention : Reuss Voigt Hill
#
# Bulk Modulus (GPa) = 20.48677 33.09376 26.79027
# Shear Modulus (GPa) = 22.66718 29.04646 25.85682
#
# Velocity S-wave (km/s) = 2.99153 3.38642 3.19508
# Velocity P-wave (km/s) = 4.47445 5.32506 4.91818
#
# Compressibility (1/GPa) = 0.04881199
#
# Stress axis : x y z
#
# Youngs Moduli (GPa) = 92.09390 84.26553 34.00325
#
# Poissons Ratio (x) = 0.20753 0.08960
# Poissons Ratio (y) = 0.22681 -0.11685
# Poissons Ratio (z) = 0.24267 -0.28958
#
# Static dielectric constant tensor:
#      x y z
#    x 2.012050 0.000000 0.040510 
#    y 0.000000 2.026030 0.000000 
#    z 0.040510 0.000000 2.096100 
# 
# From -- ./inp_files/24169.got.cif
#   From: 2010.05.17/outbox.cif.g08.bks.cpg/sg9_13_cif.got.tgz:24169.got - 2010.06.03 20:04:27.
