data_PCOD9139613
_publ_section_title
;
Structure prediction by ZEFSAII (Michael W. Deem and Ramdas Pophale) SiO2 
 PCOD9139613
Probable space group: C C
;
_chemical_formula_sum "Si O2"
_cell_formula_units_Z 20
_cell_length_a 7.829190
_cell_length_b 6.893610
_cell_length_c 15.609631
_cell_angle_alpha 90.000000
_cell_angle_beta 83.119309
_cell_angle_gamma 90.000000
_cell_volume 836.405680
_symmetry_space_group_name_H-M "C C"
_symmetry_group_IT_number 9
_symmetry_cell_setting 'monoclinic'
loop_
_space_group_symop_operation_xyz
x,y,z
x,-y,1/2+z
1/2+x,1/2+y,z
1/2+x,1/2-y,1/2+z
loop_
_atom_site_type_symbol
_atom_site_label
_atom_site_fract_x
_atom_site_fract_y
_atom_site_fract_z
Si Si1 0.441350 0.038536 0.500000
Si Si2 0.966296 0.403006 0.678917
Si Si3 0.361614 0.686580 0.148924
Si Si4 0.239322 0.756672 0.388385
Si Si5 0.966705 0.057586 0.776520
O O1 0.368737 0.234333 0.551252
O O2 0.623739 0.117811 0.456559
O O3 0.442344 0.883544 0.578257
O O4 0.338914 0.927153 0.432639
O O5 0.901195 0.617551 0.698234
O O6 0.875209 0.253420 0.747545
O O7 0.171845 0.391436 0.678781
O O8 0.501851 0.537394 0.179466
O O9 0.361671 0.603558 0.333253
O O10 0.109287 0.862912 0.331523
#
# Coordination Sequence:
#
# PCOD9139613 Si02
#       5
#     4   4   4   4   4
#     4  10  30  48  76 108 152 194 248 300 374 438
#     4  10  26  47  78 104 143 202 250 289 359 460
#     4  10  26  47  78 104 143 202 250 289 359 460
#     4  12  30  44  76 114 152 186 242 324 372 414
#     4  12  28  50  78 110 152 194 250 304 374 434
#
# _framework density 23.911840000000002
#
# number of rings (size 3 to 8) (size 9 to 14) (size 15 to 20)
#    1.200    0.000    2.000    0.000   14.000    4.800 
#    0.000    0.000    0.000    0.000    0.000    0.000 
#    0.000    0.000    0.000    0.000    0.000    0.000 
#
# Total GULP energy -55738.953895 kJ/mol
# GULP energy per Si atom -5573.895390 kJ/mol
# Density = 2.385742 g / cm^3
# Si number density = 23.911840 Si / 1000 Ang^3
#
#
#
# Elastic Constant Matrix: (Units=GPa)
#
#
# Indices 1 2 3 4 5 6 
#
# 1 65.5443 26.6715 23.0865 0.0000 -2.8792 0.0000
# 2 26.6715 87.9367 22.4073 0.0000 12.0179 0.0000
# 3 23.0865 22.4073 69.6177 0.0000 1.4347 0.0000
# 4 0.0000 0.0000 0.0000 52.5644 0.0000 14.7383
# 5 -2.8792 12.0179 1.4347 0.0000 42.0817 0.0000
# 6 0.0000 0.0000 0.0000 14.7383 0.0000 53.4257
#
#
#
# Elastic Compliance Matrix: (Units=1/GPa)
#
#
# Indices 1 2 3 4 5 6 
#
# 1 0.019092 -0.004964 -0.004793 0.000000 0.002887 0.000000
# 2 -0.004964 0.014186 -0.002831 0.000000 -0.004294 0.000000
# 3 -0.004793 -0.002831 0.016867 0.000000 -0.000094 0.000000
# 4 0.000000 0.000000 0.000000 0.020619 0.000000 -0.005688
# 5 0.002887 -0.004294 -0.000094 0.000000 0.025190 0.000000
# 6 0.000000 0.000000 0.000000 -0.005688 0.000000 0.020287
#
#
# Mechanical properties :
#
#
# Convention : Reuss Voigt Hill
#
# Bulk Modulus (GPa) = 40.05111 40.82547 40.43829
# Shear Modulus (GPa) = 33.39126 39.67656 36.53391
#
# Velocity S-wave (km/s) = 3.74094 4.07785 3.91302
# Velocity P-wave (km/s) = 5.95360 6.26755 6.11259
#
# Compressibility (1/GPa) = 0.02496810
#
# Stress axis : x y z
#
# Youngs Moduli (GPa) = 52.37836 70.49351 59.28798
#
# Poissons Ratio (x) = 0.34992 0.28417
# Poissons Ratio (y) = 0.26000 0.16786
# Poissons Ratio (z) = 0.25105 0.19958
#
# Static dielectric constant tensor:
#      x y z
#    x 1.932790 0.000000 -0.015850 
#    y 0.000000 1.918620 0.000000 
#    z -0.015850 0.000000 2.029090 
# 
# From -- ./inp_files/28397.got.cif
#   From: 2010.05.17/outbox.cif.g08.bks.cpg/sg9_15_cif.got.tgz:28397.got - 2010.06.03 20:04:27.
