data_PCOD9139506
_publ_section_title
;
Structure prediction by ZEFSAII (Michael W. Deem and Ramdas Pophale) SiO2 
 PCOD9139506
Probable space group: C C
;
_chemical_formula_sum "Si O2"
_cell_formula_units_Z 24
_cell_length_a 5.622740
_cell_length_b 16.578230
_cell_length_c 12.182810
_cell_angle_alpha 90.000000
_cell_angle_beta 55.786438
_cell_angle_gamma 90.000000
_cell_volume 939.099425
_symmetry_space_group_name_H-M "C C"
_symmetry_group_IT_number 9
_symmetry_cell_setting 'monoclinic'
loop_
_space_group_symop_operation_xyz
x,y,z
x,-y,1/2+z
1/2+x,1/2+y,z
1/2+x,1/2-y,1/2+z
loop_
_atom_site_type_symbol
_atom_site_label
_atom_site_fract_x
_atom_site_fract_y
_atom_site_fract_z
Si Si1 0.877090 0.821385 0.168500
Si Si2 0.702288 0.093921 0.308485
Si Si3 0.650367 0.968859 0.486709
Si Si4 0.642720 0.524799 0.721071
Si Si5 0.741406 0.174775 0.086675
Si Si6 0.324334 0.256209 0.933048
O O1 0.597640 0.784433 0.301443
O O2 0.983257 0.907084 0.189045
O O3 0.134738 0.763375 0.136314
O O4 0.862117 0.800993 0.041573
O O5 0.598677 0.122137 0.219211
O O6 0.716263 0.171177 0.382231
O O7 0.548186 0.017940 0.405511
O O8 0.025169 0.060131 0.205260
O O9 0.629371 0.873350 0.509660
O O10 0.995166 0.976252 0.379263
O O11 0.484147 0.020957 0.621692
O O12 0.081153 0.187066 0.000874
#
# Coordination Sequence:
#
# PCOD9139506 Si02
#       6
#     4   4   4   4   4   4
#     4  12  28  46  83 109 156 199 260 320 394 461
#     4  10  26  45  73 111 149 191 262 312 382 454
#     4  10  25  47  74 106 150 198 250 317 383 451
#     4  10  25  47  74 110 146 198 252 314 391 452
#     4  12  27  50  76 111 156 199 263 319 382 470
#     4  12  27  49  76 115 149 209 255 320 388 466
#
# _framework density 25.556398999999999
#
# number of rings (size 3 to 8) (size 9 to 14) (size 15 to 20)
#    1.000    0.000    1.667    3.000   11.667    1.333 
#    3.000    0.000    0.000    0.000    0.000    0.000 
#    0.000    0.000    0.000    0.000    0.000    0.000 
#
# Total GULP energy -66847.137706 kJ/mol
# GULP energy per Si atom -5570.594809 kJ/mol
# Density = 2.549823 g / cm^3
# Si number density = 25.556399 Si / 1000 Ang^3
#
#
#
# Elastic Constant Matrix: (Units=GPa)
#
#
# Indices 1 2 3 4 5 6 
#
# 1 48.9445 19.2167 37.7303 0.0000 5.7959 0.0000
# 2 19.2167 116.7200 44.2976 0.0000 8.4323 0.0000
# 3 37.7303 44.2976 165.4691 0.0000 -20.5651 0.0000
# 4 0.0000 0.0000 0.0000 41.4297 0.0000 6.7378
# 5 5.7959 8.4323 -20.5651 0.0000 35.8415 0.0000
# 6 0.0000 0.0000 0.0000 6.7378 0.0000 37.1591
#
#
#
# Elastic Compliance Matrix: (Units=1/GPa)
#
#
# Indices 1 2 3 4 5 6 
#
# 1 0.027164 -0.001296 -0.006843 0.000000 -0.008014 0.000000
# 2 -0.001296 0.010160 -0.002902 0.000000 -0.003846 0.000000
# 3 -0.006843 -0.002902 0.009264 0.000000 0.007105 0.000000
# 4 0.000000 0.000000 0.000000 0.024871 0.000000 -0.004510
# 5 -0.008014 -0.003846 0.007105 0.000000 0.034178 0.000000
# 6 0.000000 0.000000 0.000000 -0.004510 0.000000 0.027729
#
#
# Mechanical properties :
#
#
# Convention : Reuss Voigt Hill
#
# Bulk Modulus (GPa) = 40.80801 59.29144 50.04972
# Shear Modulus (GPa) = 30.55898 38.21200 34.38549
#
# Velocity S-wave (km/s) = 3.46171 3.87098 3.67205
# Velocity P-wave (km/s) = 5.65512 6.57495 6.13230
#
# Compressibility (1/GPa) = 0.02450500
#
# Stress axis : x y z
#
# Youngs Moduli (GPa) = 36.81289 98.42203 107.94715
#
# Poissons Ratio (x) = 0.12758 0.73868
# Poissons Ratio (y) = 0.04772 0.31331
# Poissons Ratio (z) = 0.25191 0.28566
#
# Static dielectric constant tensor:
#      x y z
#    x 1.996510 0.000000 -0.024930 
#    y 0.000000 2.044930 0.000000 
#    z -0.024930 0.000000 2.197560 
# 
# From -- ./inp_files/21817.got.cif
#   From: 2010.05.17/outbox.cif.g08.bks.cpg/sg9_11_cif.got.tgz:21817.got - 2010.06.03 20:04:27.
