data_PCOD9139885
_publ_section_title
;
Structure prediction by ZEFSAII (Michael W. Deem and Ramdas Pophale) SiO2 
 PCOD9139885
Probable space group: C C
;
_chemical_formula_sum "Si O2"
_cell_formula_units_Z 32
_cell_length_a 14.223651
_cell_length_b 21.087055
_cell_length_c 13.758782
_cell_angle_alpha 90.000000
_cell_angle_beta 160.011900
_cell_angle_gamma 90.000000
_cell_volume 1410.622442
_symmetry_space_group_name_H-M "C C"
_symmetry_group_IT_number 9
_symmetry_cell_setting 'monoclinic'
loop_
_space_group_symop_operation_xyz
x,y,z
x,-y,1/2+z
1/2+x,1/2+y,z
1/2+x,1/2-y,1/2+z
loop_
_atom_site_type_symbol
_atom_site_label
_atom_site_fract_x
_atom_site_fract_y
_atom_site_fract_z
Si Si1 0.557100 0.548882 0.131330
Si Si2 0.321862 0.608196 0.707002
Si Si3 0.824506 0.586140 0.704199
Si Si4 0.259161 0.356155 0.472900
Si Si5 0.471640 0.707631 0.352161
Si Si6 0.554348 0.030911 0.124840
Si Si7 0.211426 0.710318 0.734445
Si Si8 0.322805 0.049847 0.112262
O O1 0.455170 0.587968 0.124778
O O2 0.877847 0.534343 0.441909
O O3 0.460709 0.584834 0.941882
O O4 0.375492 0.484604 0.948942
O O5 0.079710 0.565653 0.430325
O O6 0.187217 0.673902 0.609220
O O7 0.576435 0.600045 0.882025
O O8 0.728073 0.519788 0.560234
O O9 0.588098 0.638609 0.494879
O O10 0.038970 0.617272 0.835990
O O11 0.976912 0.570124 0.953802
O O12 0.122800 0.328333 0.243580
O O13 0.439731 0.303493 0.704532
O O14 0.177023 0.737856 0.088312
O O15 0.436031 0.052750 0.113098
O O16 0.530352 0.727071 0.056292
#
# Coordination Sequence:
#
# PCOD9139885 Si02
#       8
#     4   4   4   4   4   4   4   4
#     4  11  22  39  62 100 137 176 216 274 335 413
#     4  11  23  43  67  97 143 172 224 281 347 399
#     4  12  26  42  71  96 142 183 225 281 356 402
#     4  11  25  40  69 101 142 179 219 280 348 412
#     4  12  26  43  63  93 132 181 229 273 334 411
#     4  12  25  39  65  98 137 175 232 266 340 416
#     4  11  25  43  71 105 137 178 226 280 345 419
#     4  12  24  43  68 102 138 180 223 289 341 418
#
# _framework density 22.685020999999999
#
# number of rings (size 3 to 8) (size 9 to 14) (size 15 to 20)
#    0.000    0.500    5.000    3.000    5.250    2.000 
#    0.000    0.000    0.000    4.500    0.000    0.000 
#    0.000    0.000    0.000    0.000    0.000    0.000 
#
# Total GULP energy -89419.653952 kJ/mol
# GULP energy per Si atom -5588.728372 kJ/mol
# Density = 2.263339 g / cm^3
# Si number density = 22.685021 Si / 1000 Ang^3
#
#
#
# Elastic Constant Matrix: (Units=GPa)
#
#
# Indices 1 2 3 4 5 6 
#
# 1 101.8697 32.1146 3.9893 0.0002 1.5682 0.0011
# 2 32.1146 62.8973 13.9637 -0.0021 -4.4037 0.0008
# 3 3.9893 13.9637 75.1759 -0.0028 2.8168 0.0019
# 4 0.0002 -0.0021 -0.0028 40.0494 -0.0015 -3.5259
# 5 1.5682 -4.4037 2.8168 -0.0015 25.8580 0.0006
# 6 0.0011 0.0008 0.0019 -3.5259 0.0006 34.3532
#
#
#
# Elastic Compliance Matrix: (Units=1/GPa)
#
#
# Indices 1 2 3 4 5 6 
#
# 1 0.011805 -0.006293 0.000612 0.000000 -0.001854 0.000000
# 2 -0.006293 0.020201 -0.003576 0.000001 0.004212 0.000000
# 3 0.000612 -0.003576 0.014015 0.000001 -0.002173 -0.000001
# 4 0.000000 0.000001 0.000001 0.025197 0.000002 0.002586
# 5 -0.001854 0.004212 -0.002173 0.000002 0.039739 0.000000
# 6 0.000000 0.000000 -0.000001 0.002586 0.000000 0.029375
#
#
# Mechanical properties :
#
#
# Convention : Reuss Voigt Hill
#
# Bulk Modulus (GPa) = 36.35488 37.78645 37.07066
# Shear Modulus (GPa) = 29.75915 32.71047 31.23481
#
# Velocity S-wave (km/s) = 3.62586 3.80141 3.71467
# Velocity P-wave (km/s) = 5.79568 5.99673 5.89706
#
# Compressibility (1/GPa) = 0.02750663
#
# Stress axis : x y z
#
# Youngs Moduli (GPa) = 84.70996 49.50263 71.35047
#
# Poissons Ratio (x) = 0.31153 -0.04366
# Poissons Ratio (y) = 0.53310 0.25516
# Poissons Ratio (z) = -0.05184 0.17703
#
# Static dielectric constant tensor:
#      x y z
#    x 1.849170 0.000000 0.005460 
#    y 0.000000 1.908340 0.000000 
#    z 0.005460 0.000000 1.833730 
# 
# From -- ./inp_files/26163.got.cif
#   From: 2010.05.17/outbox.cif.g08.bks.cpg/sg9_14_cif.got.tgz:26163.got - 2010.06.03 20:04:27.
