data_PCOD9139964
_publ_section_title
;
Structure prediction by ZEFSAII (Michael W. Deem and Ramdas Pophale) SiO2 
 PCOD9139964
Probable space group: C C
;
_chemical_formula_sum "Si O2"
_cell_formula_units_Z 32
_cell_length_a 11.807489
_cell_length_b 8.827293
_cell_length_c 29.450208
_cell_angle_alpha 90.000000
_cell_angle_beta 26.517620
_cell_angle_gamma 90.000000
_cell_volume 1370.467267
_symmetry_space_group_name_H-M "C C"
_symmetry_group_IT_number 9
_symmetry_cell_setting 'monoclinic'
loop_
_space_group_symop_operation_xyz
x,y,z
x,-y,1/2+z
1/2+x,1/2+y,z
1/2+x,1/2-y,1/2+z
loop_
_atom_site_type_symbol
_atom_site_label
_atom_site_fract_x
_atom_site_fract_y
_atom_site_fract_z
Si Si1 0.532220 0.654309 0.384690
Si Si2 0.546429 0.802029 0.163986
Si Si3 0.299569 0.058695 0.011542
Si Si4 0.486257 0.533196 0.032971
Si Si5 0.499535 0.006849 0.097781
Si Si6 0.364932 0.927621 0.313388
Si Si7 0.248858 0.143416 0.605297
Si Si8 0.781149 0.793985 0.217384
O O1 0.489573 0.810929 0.426845
O O2 0.284489 0.549036 0.482687
O O3 0.780838 0.570454 0.313598
O O4 0.564864 0.695644 0.320273
O O5 0.619447 0.650665 0.111503
O O6 0.381862 0.795721 0.268977
O O7 0.426094 0.909489 0.168528
O O8 0.802284 0.893854 0.086662
O O9 0.150365 0.011168 0.019603
O O10 0.392818 0.918612 0.008338
O O11 0.330990 0.689709 0.091500
O O12 0.667156 0.565695 0.925155
O O13 0.458269 0.181135 0.125090
O O14 0.320154 0.965420 0.120662
O O15 0.637433 0.919948 0.240002
O O16 0.959266 0.146404 0.693282
#
# Coordination Sequence:
#
# PCOD9139964 Si02
#       8
#     4   4   4   4   4   4   4   4
#     4  11  22  45  70  99 138 190 226 284 354 418
#     4  11  22  43  71  98 135 186 227 287 353 414
#     4  11  24  44  67  98 138 180 229 287 349 411
#     4  12  22  45  72  96 141 184 229 291 352 411
#     4  11  22  44  73  97 138 185 231 284 353 414
#     4  12  22  41  74  99 134 186 237 282 352 423
#     4  12  24  43  71 101 138 183 229 290 348 414
#     4  12  24  43  70 104 140 182 234 291 349 413
#
# _framework density 23.349699999999999
#
# number of rings (size 3 to 8) (size 9 to 14) (size 15 to 20)
#    0.000    0.500    8.750    1.500    0.000    0.000 
#    6.750    0.000    2.750    0.000    0.000    0.000 
#    0.000    0.000    0.000    0.000    0.000    0.000 
#
# Total GULP energy -89405.093492 kJ/mol
# GULP energy per Si atom -5587.818343 kJ/mol
# Density = 2.329655 g / cm^3
# Si number density = 23.349700 Si / 1000 Ang^3
#
#
#
# Elastic Constant Matrix: (Units=GPa)
#
#
# Indices 1 2 3 4 5 6 
#
# 1 174.4202 21.7399 21.1969 -0.0020 8.8413 -0.0014
# 2 21.7399 70.8396 16.4665 -0.0010 -4.2503 -0.0004
# 3 21.1969 16.4665 93.9202 0.0038 23.0208 0.0000
# 4 -0.0020 -0.0010 0.0038 30.3556 0.0008 1.1608
# 5 8.8413 -4.2503 23.0208 0.0008 35.7258 0.0010
# 6 -0.0014 -0.0004 0.0000 1.1608 0.0010 34.6493
#
#
#
# Elastic Compliance Matrix: (Units=1/GPa)
#
#
# Indices 1 2 3 4 5 6 
#
# 1 0.006109 -0.001770 -0.000767 0.000000 -0.001228 0.000000
# 2 -0.001770 0.015741 -0.003475 0.000001 0.004550 0.000000
# 3 -0.000767 -0.003475 0.013639 -0.000002 -0.009012 0.000000
# 4 0.000000 0.000001 -0.000002 0.032985 0.000000 -0.001105
# 5 -0.001228 0.004550 -0.009012 0.000000 0.034643 -0.000001
# 6 0.000000 0.000000 0.000000 -0.001105 -0.000001 0.028898
#
#
# Mechanical properties :
#
#
# Convention : Reuss Voigt Hill
#
# Bulk Modulus (GPa) = 42.62129 50.88739 46.75434
# Shear Modulus (GPa) = 32.92461 38.79791 35.86126
#
# Velocity S-wave (km/s) = 3.75916 4.08070 3.92322
# Velocity P-wave (km/s) = 6.09383 6.63654 6.37097
#
# Compressibility (1/GPa) = 0.02346245
#
# Stress axis : x y z
#
# Youngs Moduli (GPa) = 163.68113 63.53022 73.32009
#
# Poissons Ratio (x) = 0.11246 0.05627
# Poissons Ratio (y) = 0.28975 0.25482
# Poissons Ratio (z) = 0.12562 0.22080
#
# Static dielectric constant tensor:
#      x y z
#    x 1.856400 0.000000 0.017000 
#    y 0.000000 1.925740 0.000000 
#    z 0.017000 0.000000 1.947100 
# 
# From -- ./inp_files/37296.got.cif
#   From: 2010.05.17/outbox.cif.g08.bks.cpg/sg9_19_cif.got.tgz:37296.got - 2010.06.03 20:04:27.
