data_PCOD9139269
_publ_section_title
;
Structure prediction by ZEFSAII (Michael W. Deem and Ramdas Pophale) SiO2 
 PCOD9139269
Probable space group: C C
;
_chemical_formula_sum "Si O2"
_cell_formula_units_Z 28
_cell_length_a 14.583011
_cell_length_b 9.662069
_cell_length_c 13.505305
_cell_angle_alpha 90.000000
_cell_angle_beta 146.981677
_cell_angle_gamma 90.000000
_cell_volume 1036.917705
_symmetry_space_group_name_H-M "C C"
_symmetry_group_IT_number 9
_symmetry_cell_setting 'monoclinic'
loop_
_space_group_symop_operation_xyz
x,y,z
x,-y,1/2+z
1/2+x,1/2+y,z
1/2+x,1/2-y,1/2+z
loop_
_atom_site_type_symbol
_atom_site_label
_atom_site_fract_x
_atom_site_fract_y
_atom_site_fract_z
Si Si1 0.157800 0.885065 0.776800
Si Si2 0.084960 0.521143 0.468994
Si Si3 0.437066 0.395799 0.191439
Si Si4 0.767973 0.174049 0.360633
Si Si5 0.576241 0.699829 0.521750
Si Si6 0.041187 0.585258 0.654502
Si Si7 0.215766 0.069240 0.093226
O O1 0.113502 0.726696 0.763187
O O2 0.172105 0.897282 0.669237
O O3 0.341351 0.924515 0.984327
O O4 0.014467 0.981750 0.693481
O O5 0.269020 0.553960 0.594546
O O6 0.062139 0.354771 0.467001
O O7 0.073219 0.589242 0.566053
O O8 0.916266 0.576170 0.262278
O O9 0.584748 0.356043 0.401499
O O10 0.369746 0.285477 0.049996
O O11 0.671705 0.291821 0.213998
O O12 0.898478 0.134701 0.391589
O O13 0.646524 0.049239 0.279740
O O14 0.669978 0.592945 0.538291
#
# Coordination Sequence:
#
# PCOD9139269 Si02
#       7
#     4   4   4   4   4   4   4
#     4  11  25  47  75 102 155 197 243 307 380 446
#     4  10  25  46  73 111 145 191 256 307 368 447
#     4  12  27  45  75 116 147 193 253 310 363 451
#     4  11  24  44  75 108 147 192 253 302 374 442
#     4  11  21  47  77 100 147 202 243 306 375 444
#     4  10  24  47  74 103 145 202 241 301 381 445
#     4  11  24  46  73 106 150 199 245 305 379 441
#
# _framework density 27.003107
#
# number of rings (size 3 to 8) (size 9 to 14) (size 15 to 20)
#    0.000    1.143    2.857    2.571    4.000    2.286 
#    2.571    0.000    0.000    0.000    0.000    0.000 
#    0.000    0.000    0.000    0.000    0.000    0.000 
#
# Total GULP energy -78461.932277 kJ/mol
# GULP energy per Si atom -5604.423734 kJ/mol
# Density = 2.694165 g / cm^3
# Si number density = 27.003107 Si / 1000 Ang^3
#
#
#
# Elastic Constant Matrix: (Units=GPa)
#
#
# Indices 1 2 3 4 5 6 
#
# 1 145.7321 20.2314 76.9566 0.0000 33.1204 0.0000
# 2 20.2314 106.6128 39.4088 0.0000 14.8225 0.0000
# 3 76.9566 39.4088 211.2094 0.0000 10.4976 0.0000
# 4 0.0000 0.0000 0.0000 43.1384 0.0000 7.4100
# 5 33.1204 14.8225 10.4976 0.0000 73.2614 0.0000
# 6 0.0000 0.0000 0.0000 7.4100 0.0000 35.7191
#
#
#
# Elastic Compliance Matrix: (Units=1/GPa)
#
#
# Indices 1 2 3 4 5 6 
#
# 1 0.009444 -0.000067 -0.003240 0.000000 -0.003792 0.000000
# 2 -0.000067 0.010311 -0.001810 0.000000 -0.001796 0.000000
# 3 -0.003240 -0.001810 0.006206 0.000000 0.000942 0.000000
# 4 0.000000 0.000000 0.000000 0.024038 0.000000 -0.004987
# 5 -0.003792 -0.001796 0.000942 0.000000 0.015592 0.000000
# 6 0.000000 0.000000 0.000000 -0.004987 0.000000 0.029031
#
#
# Mechanical properties :
#
#
# Convention : Reuss Voigt Hill
#
# Bulk Modulus (GPa) = 63.58708 81.86087 72.72397
# Shear Modulus (GPa) = 45.41352 52.22092 48.81722
#
# Velocity S-wave (km/s) = 4.10541 4.40237 4.25648
# Velocity P-wave (km/s) = 6.78761 7.49815 7.15171
#
# Compressibility (1/GPa) = 0.01572647
#
# Stress axis : x y z
#
# Youngs Moduli (GPa) = 105.88852 96.98017 161.13167
#
# Poissons Ratio (x) = 0.00653 0.52206
# Poissons Ratio (y) = 0.00713 0.29167
# Poissons Ratio (z) = 0.34308 0.17555
#
# Static dielectric constant tensor:
#      x y z
#    x 2.113970 0.000000 -0.039420 
#    y 0.000000 2.046590 0.000000 
#    z -0.039420 0.000000 2.127110 
# 
# From -- ./inp_files/25931.got.cif
#   From: 2010.05.17/outbox.cif.g08.bks.cpg/sg9_13_cif.got.tgz:25931.got - 2010.06.03 20:04:27.
