data_PCOD9139406
_publ_section_title
;
Structure prediction by ZEFSAII (Michael W. Deem and Ramdas Pophale) SiO2 
 PCOD9139406
Probable space group: C C
;
_chemical_formula_sum "Si O2"
_cell_formula_units_Z 28
_cell_length_a 8.755656
_cell_length_b 17.416736
_cell_length_c 10.042388
_cell_angle_alpha 90.000000
_cell_angle_beta 135.244144
_cell_angle_gamma 90.000000
_cell_volume 1078.248768
_symmetry_space_group_name_H-M "C C"
_symmetry_group_IT_number 9
_symmetry_cell_setting 'monoclinic'
loop_
_space_group_symop_operation_xyz
x,y,z
x,-y,1/2+z
1/2+x,1/2+y,z
1/2+x,1/2-y,1/2+z
loop_
_atom_site_type_symbol
_atom_site_label
_atom_site_fract_x
_atom_site_fract_y
_atom_site_fract_z
Si Si1 0.282050 0.860762 0.495760
Si Si2 0.630870 0.657344 0.629454
Si Si3 0.664839 0.884682 0.917402
Si Si4 0.614091 0.695033 0.333232
Si Si5 0.958148 0.096557 0.020270
Si Si6 0.845495 0.483201 0.317836
Si Si7 0.091372 0.651727 0.649960
O O1 0.209631 0.812722 0.321736
O O2 0.503292 0.848055 0.710653
O O3 0.095683 0.858375 0.491584
O O4 0.322932 0.945738 0.451974
O O5 0.405028 0.612316 0.509023
O O6 0.595747 0.708576 0.478938
O O7 0.819259 0.594592 0.715110
O O8 0.547474 0.962841 0.901878
O O9 0.689739 0.834356 0.065223
O O10 0.438835 0.643832 0.146135
O O11 0.625272 0.774317 0.262730
O O12 0.837802 0.647715 0.458599
O O13 0.124800 0.029277 0.154209
O O14 0.729211 0.084532 0.806175
#
# Coordination Sequence:
#
# PCOD9139406 Si02
#       7
#     4   4   4   4   4   4   4
#     4   9  21  44  68 110 142 181 237 297 355 445
#     4  10  25  44  69 107 151 180 238 305 369 426
#     4  11  22  45  75 104 144 199 238 289 374 428
#     4  12  26  45  69 105 143 187 249 304 352 428
#     4  11  22  41  73 100 142 186 235 293 358 430
#     4   9  22  40  71 106 147 176 238 293 361 443
#     4  12  24  45  73 100 137 199 249 291 357 420
#
# _framework density 25.968033999999999
#
# number of rings (size 3 to 8) (size 9 to 14) (size 15 to 20)
#    0.857    0.571    5.714    0.000    4.000    3.429 
#    2.571    2.857    0.000    0.000    0.000    0.000 
#    0.000    0.000    0.000    0.000    0.000    0.000 
#
# Total GULP energy -78135.864770 kJ/mol
# GULP energy per Si atom -5581.133198 kJ/mol
# Density = 2.590893 g / cm^3
# Si number density = 25.968034 Si / 1000 Ang^3
#
#
#
# Elastic Constant Matrix: (Units=GPa)
#
#
# Indices 1 2 3 4 5 6 
#
# 1 95.1147 18.8070 37.5847 0.0000 2.1012 0.0000
# 2 18.8070 65.1939 32.6998 0.0000 -16.0739 0.0000
# 3 37.5847 32.6998 219.0041 0.0000 -20.0523 0.0000
# 4 0.0000 0.0000 0.0000 40.9545 0.0000 0.2955
# 5 2.1012 -16.0739 -20.0523 0.0000 64.0621 0.0000
# 6 0.0000 0.0000 0.0000 0.2955 0.0000 19.8313
#
#
#
# Elastic Compliance Matrix: (Units=1/GPa)
#
#
# Indices 1 2 3 4 5 6 
#
# 1 0.011822 -0.002949 -0.001742 0.000000 -0.001673 0.000000
# 2 -0.002949 0.018108 -0.001825 0.000000 0.004069 0.000000
# 3 -0.001742 -0.001825 0.005251 0.000000 0.001243 0.000000
# 4 0.000000 0.000000 0.000000 0.024420 0.000000 -0.000364
# 5 -0.001673 0.004069 0.001243 0.000000 0.017075 0.000000
# 6 0.000000 0.000000 0.000000 -0.000364 0.000000 0.050431
#
#
# Mechanical properties :
#
#
# Convention : Reuss Voigt Hill
#
# Bulk Modulus (GPa) = 45.14752 61.94398 53.54575
# Shear Modulus (GPa) = 33.89319 44.31766 39.10542
#
# Velocity S-wave (km/s) = 3.61666 4.13561 3.88481
# Velocity P-wave (km/s) = 5.90456 6.83448 6.38647
#
# Compressibility (1/GPa) = 0.02214961
#
# Stress axis : x y z
#
# Youngs Moduli (GPa) = 84.58837 55.22326 190.42797
#
# Poissons Ratio (x) = 0.16287 0.33166
# Poissons Ratio (y) = 0.24947 0.34754
# Poissons Ratio (z) = 0.14732 0.10079
#
# Static dielectric constant tensor:
#      x y z
#    x 2.051600 0.000000 -0.031990 
#    y 0.000000 2.091680 0.000000 
#    z -0.031990 0.000000 2.005250 
# 
# From -- ./inp_files/6114.got.cif
#   From: 2010.05.17/outbox.cif.g08.bks.cpg/sg9_4_cif.got.tgz:6114.got - 2010.06.03 20:04:27.
