data_PCOD9139756
_publ_section_title
;
Structure prediction by ZEFSAII (Michael W. Deem and Ramdas Pophale) SiO2 
 PCOD9139756
Probable space group: C C
;
_chemical_formula_sum "Si O2"
_cell_formula_units_Z 32
_cell_length_a 9.555293
_cell_length_b 10.595949
_cell_length_c 16.096182
_cell_angle_alpha 90.000000
_cell_angle_beta 119.826192
_cell_angle_gamma 90.000000
_cell_volume 1413.823961
_symmetry_space_group_name_H-M "C C"
_symmetry_group_IT_number 9
_symmetry_cell_setting 'monoclinic'
loop_
_space_group_symop_operation_xyz
x,y,z
x,-y,1/2+z
1/2+x,1/2+y,z
1/2+x,1/2-y,1/2+z
loop_
_atom_site_type_symbol
_atom_site_label
_atom_site_fract_x
_atom_site_fract_y
_atom_site_fract_z
Si Si1 0.940110 0.261969 0.710850
Si Si2 0.770834 0.992545 0.860304
Si Si3 0.079574 0.148479 0.916241
Si Si4 0.669480 0.902917 0.662806
Si Si5 0.937366 0.779199 0.823909
Si Si6 0.614400 0.862303 0.058977
Si Si7 0.436698 0.990249 0.827259
Si Si8 0.276609 0.900136 0.949471
O O1 0.777787 0.185414 0.649971
O O2 0.046456 0.186534 0.810727
O O3 0.043083 0.297806 0.658724
O O4 0.894893 0.394844 0.740824
O O5 0.631951 0.996200 0.886066
O O6 0.910881 0.094173 0.902473
O O7 0.677932 0.999971 0.744076
O O8 0.854807 0.855155 0.876208
O O9 0.204810 0.032725 0.961928
O O10 0.120662 0.272104 0.980129
O O11 0.850176 0.846601 0.719716
O O12 0.627368 0.984524 0.570645
O O13 0.890529 0.635066 0.805253
O O14 0.125681 0.808228 0.889415
O O15 0.432503 0.843871 0.042534
O O16 0.353752 0.934364 0.883576
#
# Coordination Sequence:
#
# PCOD9139756 Si02
#       8
#     4   4   4   4   4   4   4   4
#     4  11  22  40  67 100 134 180 221 279 337 399
#     4   8  19  39  64  89 126 173 212 270 332 389
#     4  11  21  42  69  97 134 178 227 274 339 402
#     4   9  20  40  66  92 132 179 219 275 333 389
#     4   9  20  40  65  90 128 165 227 266 327 403
#     4  12  22  38  67 104 137 170 232 278 330 407
#     4  11  21  36  69  95 119 175 222 266 342 393
#     4  11  23  37  67  99 126 178 218 282 336 386
#
# _framework density 22.633652000000001
#
# number of rings (size 3 to 8) (size 9 to 14) (size 15 to 20)
#    0.750    1.000    2.500    2.250    0.000    0.000 
#    0.000    0.000   33.000    0.000    0.000    0.000 
#    0.000    0.000    0.000    0.000    0.000    0.000 
#
# Total GULP energy -89121.264453 kJ/mol
# GULP energy per Si atom -5570.079028 kJ/mol
# Density = 2.258214 g / cm^3
# Si number density = 22.633652 Si / 1000 Ang^3
#
#
#
# Elastic Constant Matrix: (Units=GPa)
#
#
# Indices 1 2 3 4 5 6 
#
# 1 104.1974 13.3828 27.6352 0.0000 21.2002 0.0000
# 2 13.3828 80.2230 1.7873 0.0000 5.4584 0.0000
# 3 27.6352 1.7873 49.3533 0.0000 24.5533 0.0000
# 4 0.0000 0.0000 0.0000 -3.3578 0.0000 11.7899
# 5 21.2002 5.4584 24.5533 0.0000 33.1164 0.0000
# 6 0.0000 0.0000 0.0000 11.7899 0.0000 34.7538
#
#
#
# Elastic Compliance Matrix: (Units=1/GPa)
#
#
# Indices 1 2 3 4 5 6 
#
# 1 0.011820 -0.001606 -0.004638 0.000000 -0.003863 0.000000
# 2 -0.001606 0.012851 0.001547 0.000000 -0.002237 0.000000
# 3 -0.004638 0.001547 0.033991 0.000000 -0.022487 0.000000
# 4 0.000000 0.000000 0.000000 -0.135918 0.000000 0.046109
# 5 -0.003863 -0.002237 -0.022487 0.000000 0.049711 0.000000
# 6 0.000000 0.000000 0.000000 0.046109 0.000000 0.013132
#
#
# Mechanical properties :
#
#
# Convention : Reuss Voigt Hill
#
# Bulk Modulus (GPa) = 20.29790 35.48714 27.89252
# Shear Modulus (GPa) = 438.52319 25.63371 232.07845
#
# Velocity S-wave (km/s) = 13.93445 3.36899 10.13704
# Velocity P-wave (km/s) = 16.36702 5.55395 12.22141
#
# Compressibility (1/GPa) = 0.04926618
#
# Stress axis : x y z
#
# Youngs Moduli (GPa) = 84.60582 77.81597 29.41985
#
# Poissons Ratio (x) = 0.12494 0.13646
# Poissons Ratio (y) = 0.13584 -0.04550
# Poissons Ratio (z) = 0.39243 -0.12034
#
# Static dielectric constant tensor:
#      x y z
#    x 1.866690 0.000000 -0.015280 
#    y 0.000000 1.851680 0.000000 
#    z -0.015280 0.000000 1.992140 
# 
# From -- ./inp_files/32583.got.cif
#   From: 2010.05.17/outbox.cif.g08.bks.cpg/sg9_17_cif.got.tgz:32583.got - 2010.06.03 20:04:27.
