data_PCOD9139644
_publ_section_title
;
Structure prediction by ZEFSAII (Michael W. Deem and Ramdas Pophale) SiO2 
 PCOD9139644
Probable space group: C C
;
_chemical_formula_sum "Si O2"
_cell_formula_units_Z 20
_cell_length_a 9.288163
_cell_length_b 21.522088
_cell_length_c 4.975056
_cell_angle_alpha 90.000000
_cell_angle_beta 53.201986
_cell_angle_gamma 90.000000
_cell_volume 796.361598
_symmetry_space_group_name_H-M "C C"
_symmetry_group_IT_number 9
_symmetry_cell_setting 'monoclinic'
loop_
_space_group_symop_operation_xyz
x,y,z
x,-y,1/2+z
1/2+x,1/2+y,z
1/2+x,1/2-y,1/2+z
loop_
_atom_site_type_symbol
_atom_site_label
_atom_site_fract_x
_atom_site_fract_y
_atom_site_fract_z
Si Si1 0.036330 0.216491 0.235590
Si Si2 0.219031 0.112870 0.750756
Si Si3 0.526270 0.039822 0.623255
Si Si4 0.533285 0.850999 0.507277
Si Si5 0.374917 0.656068 0.939055
O O1 0.912544 0.211356 0.108364
O O2 0.051948 0.283549 0.350727
O O3 0.949683 0.175835 0.567453
O O4 0.206102 0.175332 0.947180
O O5 0.315823 0.058325 0.805842
O O6 0.342396 0.130613 0.355805
O O7 0.011207 0.103315 0.896936
O O8 0.573963 0.015650 0.274509
O O9 0.591416 0.099438 0.716898
O O10 0.668572 0.853697 0.608562
#
# Coordination Sequence:
#
# PCOD9139644 Si02
#       5
#     4   4   4   4   4
#     4  10  27  45  71 121 152 191 248 313 392 454
#     4  10  26  52  74 111 156 200 256 313 379 459
#     4  12  27  48  80 110 148 210 263 311 377 445
#     4  12  27  49  81 108 162 203 251 319 377 468
#     4  10  27  46  72 114 154 194 250 306 395 454
#
# _framework density 25.114217
#
# number of rings (size 3 to 8) (size 9 to 14) (size 15 to 20)
#    1.200    0.000    2.000    1.200   11.200    0.000 
#    3.600    2.000    0.000    0.000    0.000    0.000 
#    0.000    0.000    0.000    0.000    0.000    0.000 
#
# Total GULP energy -55806.198049 kJ/mol
# GULP energy per Si atom -5580.619805 kJ/mol
# Density = 2.505706 g / cm^3
# Si number density = 25.114217 Si / 1000 Ang^3
#
#
#
# Elastic Constant Matrix: (Units=GPa)
#
#
# Indices 1 2 3 4 5 6 
#
# 1 140.8620 -7.7086 20.4167 0.0000 20.3685 0.0000
# 2 -7.7086 63.3712 13.9621 0.0000 15.3124 0.0000
# 3 20.4167 13.9621 100.4321 0.0000 49.1257 0.0000
# 4 0.0000 0.0000 0.0000 28.5310 0.0000 6.8019
# 5 20.3685 15.3124 49.1257 0.0000 39.3548 0.0000
# 6 0.0000 0.0000 0.0000 6.8019 0.0000 36.9859
#
#
#
# Elastic Compliance Matrix: (Units=1/GPa)
#
#
# Indices 1 2 3 4 5 6 
#
# 1 0.008000 0.002298 0.001327 0.000000 -0.006691 0.000000
# 2 0.002298 0.018286 0.002703 0.000000 -0.011678 0.000000
# 3 0.001327 0.002703 0.026095 0.000000 -0.034312 0.000000
# 4 0.000000 0.000000 0.000000 0.036657 0.000000 -0.006741
# 5 -0.006691 -0.011678 -0.034312 0.000000 0.076248 0.000000
# 6 0.000000 0.000000 0.000000 -0.006741 0.000000 0.028277
#
#
# Mechanical properties :
#
#
# Convention : Reuss Voigt Hill
#
# Bulk Modulus (GPa) = 15.37601 39.77844 27.57722
# Shear Modulus (GPa) = 24.68087 39.50737 32.09412
#
# Velocity S-wave (km/s) = 3.13828 3.97054 3.57869
# Velocity P-wave (km/s) = 4.38947 6.07402 5.29911
#
# Compressibility (1/GPa) = 0.06503638
#
# Stress axis : x y z
#
# Youngs Moduli (GPa) = 124.99942 54.68748 38.32136
#
# Poissons Ratio (x) = -0.12565 -0.05086
# Poissons Ratio (y) = -0.28719 -0.10358
# Poissons Ratio (z) = -0.16590 -0.14782
#
# Static dielectric constant tensor:
#      x y z
#    x 2.064430 0.000000 -0.065020 
#    y 0.000000 2.014650 0.000000 
#    z -0.065020 0.000000 1.983920 
# 
# From -- ./inp_files/753.got.cif
#   From: 2010.05.17/outbox.cif.g08.bks.cpg/sg9_1_cif.got.tgz:753.got - 2010.06.03 20:04:27.
