data_PCOD9139990
_publ_section_title
;
Structure prediction by ZEFSAII (Michael W. Deem and Ramdas Pophale) SiO2 
 PCOD9139990
Probable space group: C C
;
_chemical_formula_sum "Si O2"
_cell_formula_units_Z 28
_cell_length_a 20.157119
_cell_length_b 5.252916
_cell_length_c 11.079767
_cell_angle_alpha 90.000000
_cell_angle_beta 78.615656
_cell_angle_gamma 90.000000
_cell_volume 1150.084332
_symmetry_space_group_name_H-M "C C"
_symmetry_group_IT_number 9
_symmetry_cell_setting 'monoclinic'
loop_
_space_group_symop_operation_xyz
x,y,z
x,-y,1/2+z
1/2+x,1/2+y,z
1/2+x,1/2-y,1/2+z
loop_
_atom_site_type_symbol
_atom_site_label
_atom_site_fract_x
_atom_site_fract_y
_atom_site_fract_z
Si Si1 0.259160 0.884170 0.276600
Si Si2 0.340406 0.404981 0.925995
Si Si3 0.710977 0.921103 0.588577
Si Si4 0.652569 0.428374 0.497269
Si Si5 0.959185 0.873684 0.243442
Si Si6 0.392970 0.051865 0.102203
Si Si7 0.003655 0.845631 0.487979
O O1 0.301807 0.829071 0.380890
O O2 0.232399 0.630277 0.218693
O O3 0.192026 0.000515 0.358639
O O4 0.315413 0.998027 0.167145
O O5 0.386791 0.507430 0.802779
O O6 0.282252 0.595620 0.990017
O O7 0.384577 0.300141 0.020455
O O8 0.659839 0.693858 0.568619
O O9 0.685316 0.202936 0.566864
O O10 0.582593 0.295249 0.482895
O O11 0.937283 0.592821 0.208177
O O12 0.001709 0.923785 0.347834
O O13 0.991451 0.983416 0.111174
O O14 0.440256 0.852566 0.014595
#
# Coordination Sequence:
#
# PCOD9139990 Si02
#       7
#     4   4   4   4   4   4   4
#     4  11  22  44  73 109 144 201 252 325 391 460
#     4  11  22  44  73 115 146 199 258 327 394 468
#     4  11  25  48  72 108 150 200 255 321 388 472
#     4  11  29  47  73 107 154 204 261 319 396 479
#     4  12  25  48  74 111 156 198 261 325 392 473
#     4  12  24  46  80 112 156 203 267 331 397 479
#     4  12  29  47  75 114 152 211 260 322 402 469
#
# _framework density 24.346039000000001
#
# number of rings (size 3 to 8) (size 9 to 14) (size 15 to 20)
#    0.000    0.571    2.857    5.143    4.000    3.429 
#    0.000    0.000    0.000    0.000    0.000    0.000 
#    0.000    0.000    0.000    0.000    0.000    0.000 
#
# Total GULP energy -78009.996975 kJ/mol
# GULP energy per Si atom -5572.142641 kJ/mol
# Density = 2.429063 g / cm^3
# Si number density = 24.346039 Si / 1000 Ang^3
#
#
#
# Elastic Constant Matrix: (Units=GPa)
#
#
# Indices 1 2 3 4 5 6 
#
# 1 86.7204 2.5447 23.8692 0.0000 13.4720 0.0000
# 2 2.5447 71.4458 9.8863 0.0000 11.8895 0.0000
# 3 23.8692 9.8863 105.1532 0.0000 26.9605 0.0000
# 4 0.0000 0.0000 0.0000 23.8415 0.0000 9.0738
# 5 13.4720 11.8895 26.9605 0.0000 32.7991 0.0000
# 6 0.0000 0.0000 0.0000 9.0738 0.0000 21.4443
#
#
#
# Elastic Compliance Matrix: (Units=1/GPa)
#
#
# Indices 1 2 3 4 5 6 
#
# 1 0.012637 0.000444 -0.001949 0.000000 -0.003749 0.000000
# 2 0.000444 0.014911 -0.000089 0.000000 -0.005514 0.000000
# 3 -0.001949 -0.000089 0.012350 0.000000 -0.009319 0.000000
# 4 0.000000 0.000000 0.000000 0.049995 0.000000 -0.021154
# 5 -0.003749 -0.005514 -0.009319 0.000000 0.041687 0.000000
# 6 0.000000 0.000000 0.000000 -0.021154 0.000000 0.055584
#
#
# Mechanical properties :
#
#
# Convention : Reuss Voigt Hill
#
# Bulk Modulus (GPa) = 27.24083 37.32443 32.28263
# Shear Modulus (GPa) = 24.68056 30.75160 27.71608
#
# Velocity S-wave (km/s) = 3.18738 3.55787 3.37771
# Velocity P-wave (km/s) = 4.97586 5.67821 5.33860
#
# Compressibility (1/GPa) = 0.03670960
#
# Stress axis : x y z
#
# Youngs Moduli (GPa) = 79.13141 67.06565 80.97204
#
# Poissons Ratio (x) = -0.02975 0.15781
# Poissons Ratio (y) = -0.03510 0.00719
# Poissons Ratio (z) = 0.15422 0.00595
#
# Static dielectric constant tensor:
#      x y z
#    x 1.984480 0.000000 -0.032930 
#    y 0.000000 1.993170 0.000000 
#    z -0.032930 0.000000 1.957690 
# 
# From -- ./inp_files/19552.got.cif
#   From: 2010.05.17/outbox.cif.g08.bks.cpg/sg9_10_cif.got.tgz:19552.got - 2010.06.03 20:04:27.
