data_PCOD9139986
_publ_section_title
;
Structure prediction by ZEFSAII (Michael W. Deem and Ramdas Pophale) SiO2 
 PCOD9139986
Probable space group: C C
;
_chemical_formula_sum "Si O2"
_cell_formula_units_Z 28
_cell_length_a 9.325261
_cell_length_b 19.279200
_cell_length_c 9.454611
_cell_angle_alpha 90.000000
_cell_angle_beta 137.351521
_cell_angle_gamma 90.000000
_cell_volume 1151.601021
_symmetry_space_group_name_H-M "C C"
_symmetry_group_IT_number 9
_symmetry_cell_setting 'monoclinic'
loop_
_space_group_symop_operation_xyz
x,y,z
x,-y,1/2+z
1/2+x,1/2+y,z
1/2+x,1/2-y,1/2+z
loop_
_atom_site_type_symbol
_atom_site_label
_atom_site_fract_x
_atom_site_fract_y
_atom_site_fract_z
Si Si1 0.833110 0.117131 0.419810
Si Si2 0.895102 0.144248 0.147216
Si Si3 0.408833 0.039293 0.157109
Si Si4 0.778741 0.693709 0.271535
Si Si5 0.624334 0.503072 0.211703
Si Si6 0.605720 0.893234 0.198840
Si Si7 0.978816 0.838361 0.315873
O O1 0.847446 0.150519 0.276650
O O2 0.593562 0.096251 0.285091
O O3 0.947463 0.161177 0.625387
O O4 0.960001 0.044697 0.509644
O O5 0.066899 0.198189 0.213072
O O6 0.685653 0.144285 0.899699
O O7 0.008500 0.069595 0.195491
O O8 0.308899 0.024391 0.237414
O O9 0.514834 0.966475 0.181672
O O10 0.223580 0.044812 0.906359
O O11 0.879725 0.765565 0.297928
O O12 0.941371 0.650167 0.485331
O O13 0.693597 0.658830 0.063341
O O14 0.819133 0.897288 0.259513
#
# Coordination Sequence:
#
# PCOD9139986 Si02
#       7
#     4   4   4   4   4   4   4
#     4  12  27  45  69 114 158 189 246 317 376 454
#     4  11  25  44  72 106 153 188 245 312 374 447
#     4  12  25  39  71 107 150 198 243 298 388 450
#     4  11  23  48  76 101 137 200 262 298 367 439
#     4  12  24  41  67 110 149 197 239 304 379 454
#     4  11  22  44  72 103 140 191 248 301 369 446
#     4  11  26  43  77 101 143 199 253 312 359 438
#
# _framework density 24.313976
#
# number of rings (size 3 to 8) (size 9 to 14) (size 15 to 20)
#    0.000    0.571    5.714    1.714    6.000    0.000 
#    0.000    2.857    0.000    0.000    0.000    0.000 
#    0.000    0.000    0.000    0.000    0.000    0.000 
#
# Total GULP energy -78409.643072 kJ/mol
# GULP energy per Si atom -5600.688791 kJ/mol
# Density = 2.425864 g / cm^3
# Si number density = 24.313976 Si / 1000 Ang^3
#
#
#
# Elastic Constant Matrix: (Units=GPa)
#
#
# Indices 1 2 3 4 5 6 
#
# 1 128.4209 22.1787 80.8871 0.0000 -25.7705 0.0000
# 2 22.1787 67.1798 40.5872 0.0000 -4.6855 0.0000
# 3 80.8871 40.5872 224.1651 0.0000 -25.1677 0.0000
# 4 0.0000 0.0000 0.0000 41.0409 0.0000 1.1629
# 5 -25.7705 -4.6855 -25.1677 0.0000 57.7098 0.0000
# 6 0.0000 0.0000 0.0000 1.1629 0.0000 22.7107
#
#
#
# Elastic Compliance Matrix: (Units=1/GPa)
#
#
# Indices 1 2 3 4 5 6 
#
# 1 0.010727 -0.001344 -0.003262 0.000000 0.003259 0.000000
# 2 -0.001344 0.016882 -0.002613 0.000000 -0.000369 0.000000
# 3 -0.003262 -0.002613 0.006229 0.000000 0.001048 0.000000
# 4 0.000000 0.000000 0.000000 0.024401 0.000000 -0.001250
# 5 0.003259 -0.000369 0.001048 0.000000 0.019210 0.000000
# 6 0.000000 0.000000 0.000000 -0.001250 0.000000 0.044096
#
#
# Mechanical properties :
#
#
# Convention : Reuss Voigt Hill
#
# Bulk Modulus (GPa) = 51.54387 78.56355 65.05371
# Shear Modulus (GPa) = 35.10007 42.69980 38.89994
#
# Velocity S-wave (km/s) = 3.80362 4.19523 4.00421
# Velocity P-wave (km/s) = 6.36673 7.47321 6.94205
#
# Compressibility (1/GPa) = 0.01940095
#
# Stress axis : x y z
#
# Youngs Moduli (GPa) = 93.22029 59.23438 160.54709
#
# Poissons Ratio (x) = 0.07959 0.52365
# Poissons Ratio (y) = 0.12526 0.41955
# Poissons Ratio (z) = 0.30405 0.15479
#
# Static dielectric constant tensor:
#      x y z
#    x 1.936480 0.000000 0.044380 
#    y 0.000000 2.029470 0.000000 
#    z 0.044380 0.000000 1.994330 
# 
# From -- ./inp_files/5884.got.cif
#   From: 2010.05.17/outbox.cif.g08.bks.cpg/sg9_3_cif.got.tgz:5884.got - 2010.06.03 20:04:27.
