data_PCOD9139791
_publ_section_title
;
Structure prediction by ZEFSAII (Michael W. Deem and Ramdas Pophale) SiO2 
 PCOD9139791
Probable space group: C C
;
_chemical_formula_sum "Si O2"
_cell_formula_units_Z 28
_cell_length_a 5.540295
_cell_length_b 16.936779
_cell_length_c 14.284136
_cell_angle_alpha 90.000000
_cell_angle_beta 56.574826
_cell_angle_gamma 90.000000
_cell_volume 1118.662673
_symmetry_space_group_name_H-M "C C"
_symmetry_group_IT_number 9
_symmetry_cell_setting 'monoclinic'
loop_
_space_group_symop_operation_xyz
x,y,z
x,-y,1/2+z
1/2+x,1/2+y,z
1/2+x,1/2-y,1/2+z
loop_
_atom_site_type_symbol
_atom_site_label
_atom_site_fract_x
_atom_site_fract_y
_atom_site_fract_z
Si Si1 0.201290 0.742946 0.564120
Si Si2 0.353213 0.372224 0.719958
Si Si3 0.449245 0.001971 0.842935
Si Si4 0.720712 0.159071 0.864686
Si Si5 0.314160 0.993620 0.154054
Si Si6 0.371902 0.574579 0.006409
Si Si7 0.124269 0.828742 0.117966
O O1 0.419683 0.800286 0.460191
O O2 0.427001 0.685504 0.569105
O O3 0.013751 0.788336 0.685269
O O4 0.948273 0.707145 0.553606
O O5 0.596837 0.433702 0.699736
O O6 0.305969 0.384926 0.618883
O O7 0.071574 0.412827 0.826612
O O8 0.647076 0.073354 0.837086
O O9 0.401705 0.020520 0.742816
O O10 0.144299 0.018255 0.955662
O O11 0.898695 0.139998 0.920726
O O12 0.924660 0.203524 0.747234
O O13 0.180967 0.918835 0.132639
O O14 0.599467 0.020986 0.039791
#
# Coordination Sequence:
#
# PCOD9139791 Si02
#       7
#     4   4   4   4   4   4   4
#     4  12  28  48  75 109 155 196 244 312 378 457
#     4  11  23  42  73 110 138 187 255 314 358 440
#     4  11  21  40  76 105 140 191 255 304 369 448
#     4  12  24  48  74 104 142 216 238 298 404 454
#     4  11  23  42  73 110 138 187 255 314 358 440
#     4  11  21  40  76 105 140 191 255 304 369 448
#     4  12  28  48  75 109 155 196 244 312 378 457
#
# _framework density 25.029889000000001
#
# number of rings (size 3 to 8) (size 9 to 14) (size 15 to 20)
#    0.000    0.571    5.714    1.714    4.000    0.000 
#    2.571    2.857    0.000    0.000    0.000    0.000 
#    0.000    0.000    0.000    0.000    0.000    0.000 
#
# Total GULP energy -78285.023133 kJ/mol
# GULP energy per Si atom -5591.787367 kJ/mol
# Density = 2.497292 g / cm^3
# Si number density = 25.029889 Si / 1000 Ang^3
#
#
#
# Elastic Constant Matrix: (Units=GPa)
#
#
# Indices 1 2 3 4 5 6 
#
# 1 133.5635 31.1327 15.7768 0.0000 -3.5750 0.0000
# 2 31.1327 30.5378 4.7988 0.0000 4.5432 0.0000
# 3 15.7768 4.7988 37.9366 0.0000 2.9800 0.0000
# 4 0.0000 0.0000 0.0000 37.9904 0.0000 -3.6465
# 5 -3.5750 4.5432 2.9800 0.0000 55.1918 0.0000
# 6 0.0000 0.0000 0.0000 -3.6465 0.0000 49.6545
#
#
#
# Elastic Compliance Matrix: (Units=1/GPa)
#
#
# Indices 1 2 3 4 5 6 
#
# 1 0.010289 -0.010250 -0.003114 0.000000 0.001678 0.000000
# 2 -0.010250 0.043977 -0.000968 0.000000 -0.004232 0.000000
# 3 -0.003114 -0.000968 0.027905 0.000000 -0.001629 0.000000
# 4 0.000000 0.000000 0.000000 0.026509 0.000000 0.001947
# 5 0.001678 -0.004232 -0.001629 0.000000 0.018664 0.000000
# 6 0.000000 0.000000 0.000000 0.001947 0.000000 0.020282
#
#
# Mechanical properties :
#
#
# Convention : Reuss Voigt Hill
#
# Bulk Modulus (GPa) = 18.68881 33.93937 26.31409
# Shear Modulus (GPa) = 25.75641 38.58930 32.17286
#
# Velocity S-wave (km/s) = 3.21132 3.93075 3.58911
# Velocity P-wave (km/s) = 4.60792 5.84722 5.26417
#
# Compressibility (1/GPa) = 0.05350795
#
# Stress axis : x y z
#
# Youngs Moduli (GPa) = 97.19123 22.73896 35.83552
#
# Poissons Ratio (x) = 0.23307 0.11160
# Poissons Ratio (y) = 0.99618 0.03469
# Poissons Ratio (z) = 0.30267 0.02201
#
# Static dielectric constant tensor:
#      x y z
#    x 1.985590 0.000000 -0.015710 
#    y 0.000000 2.007490 0.000000 
#    z -0.015710 0.000000 2.053930 
# 
# From -- ./inp_files/21888.got.cif
#   From: 2010.05.17/outbox.cif.g08.bks.cpg/sg9_11_cif.got.tgz:21888.got - 2010.06.03 20:04:27.
