data_PCOD9139351
_publ_section_title
;
Structure prediction by ZEFSAII (Michael W. Deem and Ramdas Pophale) SiO2 
 PCOD9139351
Probable space group: C C
;
_chemical_formula_sum "Si O2"
_cell_formula_units_Z 24
_cell_length_a 26.755251
_cell_length_b 4.890071
_cell_length_c 11.206257
_cell_angle_alpha 90.000000
_cell_angle_beta 141.922042
_cell_angle_gamma 90.000000
_cell_volume 904.236480
_symmetry_space_group_name_H-M "C C"
_symmetry_group_IT_number 9
_symmetry_cell_setting 'monoclinic'
loop_
_space_group_symop_operation_xyz
x,y,z
x,-y,1/2+z
1/2+x,1/2+y,z
1/2+x,1/2-y,1/2+z
loop_
_atom_site_type_symbol
_atom_site_label
_atom_site_fract_x
_atom_site_fract_y
_atom_site_fract_z
Si Si1 0.420240 0.092773 0.688540
Si Si2 0.288385 0.026906 0.633791
Si Si3 0.521789 0.418850 0.453332
Si Si4 0.617669 0.826798 0.317395
Si Si5 0.652489 0.059923 0.635618
Si Si6 0.323693 0.529450 0.846235
O O1 0.336875 0.055842 0.603563
O O2 0.481540 0.290429 0.874044
O O3 0.395903 0.288113 0.533164
O O4 0.463422 0.798380 0.775727
O O5 0.197332 0.136692 0.462918
O O6 0.334102 0.223926 0.816916
O O7 0.291532 0.713019 0.676696
O O8 0.538277 0.327848 0.620671
O O9 0.611173 0.363764 0.564240
O O10 0.632483 0.035370 0.233202
O O11 0.612663 0.936692 0.441272
O O12 0.747601 0.030335 0.793454
#
# Coordination Sequence:
#
# PCOD9139351 Si02
#       6
#     4   4   4   4   4   4
#     4  12  23  46  63 104 136 178 224 282 347 410
#     4  11  24  43  70  97 133 181 232 283 335 410
#     4  10  25  38  71  96 144 178 222 280 345 416
#     4   9  21  46  69 103 134 186 231 285 335 407
#     4   9  21  46  69 103 134 186 231 285 335 407
#     4  11  24  43  70  97 133 181 232 283 335 410
#
# _framework density 26.541729
#
# number of rings (size 3 to 8) (size 9 to 14) (size 15 to 20)
#    1.000    0.667    1.667    2.000    0.000    9.333 
#    3.000    0.000    0.000    0.000    0.000    0.000 
#    0.000    0.000    0.000    0.000    0.000    0.000 
#
# Total GULP energy -67050.911383 kJ/mol
# GULP energy per Si atom -5587.575949 kJ/mol
# Density = 2.648132 g / cm^3
# Si number density = 26.541729 Si / 1000 Ang^3
#
#
#
# Elastic Constant Matrix: (Units=GPa)
#
#
# Indices 1 2 3 4 5 6 
#
# 1 101.2350 5.9286 -5.2770 0.0000 -9.9074 0.0000
# 2 5.9286 122.1512 14.5724 0.0002 -7.0987 0.0001
# 3 -5.2770 14.5724 114.9121 0.0000 -23.8136 0.0000
# 4 0.0000 0.0002 0.0000 35.5914 0.0000 -3.8230
# 5 -9.9074 -7.0987 -23.8136 0.0000 34.2425 -0.0001
# 6 0.0000 0.0001 0.0000 -3.8230 -0.0001 18.5609
#
#
#
# Elastic Compliance Matrix: (Units=1/GPa)
#
#
# Indices 1 2 3 4 5 6 
#
# 1 0.010347 -0.000438 0.001323 0.000000 0.003823 0.000000
# 2 -0.000438 0.008370 -0.000874 0.000000 0.001001 0.000000
# 3 0.001323 -0.000874 0.010417 0.000000 0.007446 0.000000
# 4 0.000000 0.000000 0.000000 0.028732 0.000000 0.005918
# 5 0.003823 0.001001 0.007446 0.000000 0.035695 0.000000
# 6 0.000000 0.000000 0.000000 0.005918 0.000000 0.055095
#
#
# Mechanical properties :
#
#
# Convention : Reuss Voigt Hill
#
# Bulk Modulus (GPa) = 34.29870 40.97183 37.63527
# Shear Modulus (GPa) = 31.57486 39.21725 35.39606
#
# Velocity S-wave (km/s) = 3.45284 3.84809 3.65581
# Velocity P-wave (km/s) = 5.37092 5.93414 5.65954
#
# Compressibility (1/GPa) = 0.02915562
#
# Stress axis : x y z
#
# Youngs Moduli (GPa) = 96.64886 119.47051 95.99735
#
# Poissons Ratio (x) = 0.05231 -0.12699
# Poissons Ratio (y) = 0.04232 0.08392
# Poissons Ratio (z) = -0.12786 0.10444
#
# Static dielectric constant tensor:
#      x y z
#    x 2.052460 0.000000 -0.016990 
#    y 0.000000 2.055630 0.000000 
#    z -0.016990 0.000000 2.198730 
# 
# From -- ./inp_files/21317.got.cif
#   From: 2010.05.17/outbox.cif.g08.bks.cpg/sg9_11_cif.got.tgz:21317.got - 2010.06.03 20:04:27.
