data_PCOD9139529
_publ_section_title
;
Structure prediction by ZEFSAII (Michael W. Deem and Ramdas Pophale) SiO2 
 PCOD9139529
Probable space group: C C
;
_chemical_formula_sum "Si O2"
_cell_formula_units_Z 24
_cell_length_a 4.968388
_cell_length_b 14.273405
_cell_length_c 13.628764
_cell_angle_alpha 90.000000
_cell_angle_beta 68.619858
_cell_angle_gamma 90.000000
_cell_volume 899.982863
_symmetry_space_group_name_H-M "C C"
_symmetry_group_IT_number 9
_symmetry_cell_setting 'monoclinic'
loop_
_space_group_symop_operation_xyz
x,y,z
x,-y,1/2+z
1/2+x,1/2+y,z
1/2+x,1/2-y,1/2+z
loop_
_atom_site_type_symbol
_atom_site_label
_atom_site_fract_x
_atom_site_fract_y
_atom_site_fract_z
Si Si1 0.561180 0.150102 0.533780
Si Si2 0.131291 0.134997 0.244920
Si Si3 0.128905 0.227539 0.744920
Si Si4 0.412695 0.032167 0.364912
Si Si5 0.638900 0.349898 0.456060
Si Si6 0.152678 0.467833 0.624928
O O1 0.280119 0.170318 0.638264
O O2 0.350212 0.218715 0.244920
O O3 0.714423 0.250000 0.494920
O O4 0.719899 0.068816 0.572344
O O5 0.129252 0.069554 0.342567
O O6 0.860903 0.192925 0.244920
O O7 0.324545 0.069554 0.147274
O O8 0.867813 0.106442 0.049188
O O9 0.066808 0.170317 0.851575
O O10 0.476349 0.106443 0.440652
O O11 0.374748 0.931184 0.417496
O O12 0.643340 0.023512 0.244920
#
# Coordination Sequence:
#
# PCOD9139529 Si02
#       6
#     4   4   4   4   4   4
#     4  12  25  48  79 117 165 222 274 348 415 496
#     4  10  25  50  79 112 166 218 275 342 411 498
#     4  12  25  52  81 120 162 222 279 342 427 492
#     4  10  25  49  74 118 162 221 277 344 413 500
#     4  12  25  48  79 117 165 222 274 348 415 496
#     4  10  25  49  74 118 162 221 277 344 413 500
#
# _framework density 26.667176000000001
#
# number of rings (size 3 to 8) (size 9 to 14) (size 15 to 20)
#    1.000    0.000    5.000    0.000    4.667    2.667 
#    3.000    0.000    0.000    0.000    0.000    0.000 
#    0.000    0.000    0.000    0.000    0.000    0.000 
#
# Total GULP energy -67233.175299 kJ/mol
# GULP energy per Si atom -5602.764608 kJ/mol
# Density = 2.660648 g / cm^3
# Si number density = 26.667176 Si / 1000 Ang^3
#
#
#
# Elastic Constant Matrix: (Units=GPa)
#
#
# Indices 1 2 3 4 5 6 
#
# 1 68.5849 33.8608 39.8543 0.0000 -6.3195 0.0000
# 2 33.8608 207.3793 87.4874 0.0000 -7.8220 0.0000
# 3 39.8543 87.4874 241.3807 0.0000 -18.8843 0.0000
# 4 0.0000 0.0000 0.0000 66.2761 0.0000 -6.4688
# 5 -6.3195 -7.8220 -18.8843 0.0000 37.8610 0.0000
# 6 0.0000 0.0000 0.0000 -6.4688 0.0000 21.9270
#
#
#
# Elastic Compliance Matrix: (Units=1/GPa)
#
#
# Indices 1 2 3 4 5 6 
#
# 1 0.016780 -0.001847 -0.001990 0.000000 0.001427 0.000000
# 2 -0.001847 0.005897 -0.001833 0.000000 -0.000004 0.000000
# 3 -0.001990 -0.001833 0.005286 0.000000 0.001926 0.000000
# 4 0.000000 0.000000 0.000000 0.015536 0.000000 0.004583
# 5 0.001427 -0.000004 0.001926 0.000000 0.027610 0.000000
# 6 0.000000 0.000000 0.000000 0.004583 0.000000 0.046958
#
#
# Mechanical properties :
#
#
# Convention : Reuss Voigt Hill
#
# Bulk Modulus (GPa) = 60.15053 93.30554 76.72804
# Shear Modulus (GPa) = 37.05190 48.95565 43.00377
#
# Velocity S-wave (km/s) = 3.73154 4.28927 4.02009
# Velocity P-wave (km/s) = 6.41645 7.71980 7.09810
#
# Compressibility (1/GPa) = 0.01662496
#
# Stress axis : x y z
#
# Youngs Moduli (GPa) = 59.59555 169.59013 189.17083
#
# Poissons Ratio (x) = 0.31317 0.37637
# Poissons Ratio (y) = 0.11005 0.34668
# Poissons Ratio (z) = 0.11857 0.31079
#
# Static dielectric constant tensor:
#      x y z
#    x 2.207190 0.000000 0.011600 
#    y 0.000000 2.062810 0.000000 
#    z 0.011600 0.000000 2.127650 
# 
# From -- ./inp_files/13053.got.cif
#   From: 2010.05.17/outbox.cif.g08.bks.cpg/sg9_7_cif.got.tgz:13053.got - 2010.06.03 20:04:27.
