data_PCOD9139877
_publ_section_title
;
Structure prediction by ZEFSAII (Michael W. Deem and Ramdas Pophale) SiO2 
 PCOD9139877
Probable space group: C C
;
_chemical_formula_sum "Si O2"
_cell_formula_units_Z 32
_cell_length_a 15.236108
_cell_length_b 12.859957
_cell_length_c 13.077998
_cell_angle_alpha 90.000000
_cell_angle_beta 30.867833
_cell_angle_gamma 90.000000
_cell_volume 1314.687414
_symmetry_space_group_name_H-M "C C"
_symmetry_group_IT_number 9
_symmetry_cell_setting 'monoclinic'
loop_
_space_group_symop_operation_xyz
x,y,z
x,-y,1/2+z
1/2+x,1/2+y,z
1/2+x,1/2-y,1/2+z
loop_
_atom_site_type_symbol
_atom_site_label
_atom_site_fract_x
_atom_site_fract_y
_atom_site_fract_z
Si Si1 0.656520 0.140126 0.591910
Si Si2 0.743218 0.413904 0.945158
Si Si3 0.753002 0.591597 0.216380
Si Si4 0.754777 0.864451 0.661372
Si Si5 0.747066 0.640124 0.001364
Si Si6 0.650588 0.091598 0.818793
Si Si7 0.660372 0.086095 0.028004
Si Si8 0.648817 0.364450 0.267332
O O1 0.701791 0.250001 0.499251
O O2 0.451793 0.133566 0.802819
O O3 0.729139 0.134042 0.635293
O O4 0.711907 0.035600 0.481130
O O5 0.679757 0.374810 0.898804
O O6 0.691680 0.535599 0.001356
O O7 0.951795 0.406895 0.740185
O O8 0.674272 0.366003 0.118528
O O9 0.747205 0.465609 0.210583
O O10 0.674449 0.634040 0.189983
O O11 0.951795 0.622180 0.018868
O O12 0.656389 0.965610 0.801397
O O13 0.729320 0.866004 0.563480
O O14 0.701796 0.750001 0.750530
O O15 0.951797 0.881719 0.488490
O O16 0.723834 0.125189 0.854727
#
# Coordination Sequence:
#
# PCOD9139877 Si02
#       8
#     4   4   4   4   4   4   4   4
#     4   9  18  32  51  75 103 133 165 207 258 310
#     4   9  19  37  57  77 104 138 177 222 269 314
#     4   9  19  37  57  77 104 138 177 222 269 314
#     4  11  22  36  55  79 109 143 181 223 266 318
#     4   9  18  32  51  75 103 133 165 207 258 310
#     4   9  19  37  57  77 104 138 177 222 269 314
#     4   9  19  37  57  77 104 138 177 222 269 314
#     4  11  22  36  55  79 109 143 181 223 266 318
#
# _framework density 24.340387
#
# number of rings (size 3 to 8) (size 9 to 14) (size 15 to 20)
#    0.000    2.500    0.000    3.750    0.000    7.000 
#    0.000    5.000    0.000    0.000    0.000    0.000 
#    0.000    0.000    0.000    0.000    0.000    0.000 
#
# Total GULP energy -89396.223897 kJ/mol
# GULP energy per Si atom -5587.263994 kJ/mol
# Density = 2.428499 g / cm^3
# Si number density = 24.340387 Si / 1000 Ang^3
#
#
#
# Elastic Constant Matrix: (Units=GPa)
#
#
# Indices 1 2 3 4 5 6 
#
# 1 70.1865 -9.4034 24.6442 0.0001 29.1366 0.0000
# 2 -9.4034 120.6900 -13.6001 0.0001 4.2576 -0.0001
# 3 24.6442 -13.6001 38.0868 0.0003 3.4151 -0.0002
# 4 0.0001 0.0001 0.0003 9.2425 -0.0001 -18.0485
# 5 29.1366 4.2576 3.4151 -0.0001 34.4865 0.0001
# 6 0.0000 -0.0001 -0.0002 -18.0485 0.0001 -8.5569
#
#
#
# Elastic Compliance Matrix: (Units=1/GPa)
#
#
# Indices 1 2 3 4 5 6 
#
# 1 0.030472 0.001304 -0.017080 0.000000 -0.024214 0.000000
# 2 0.001304 0.008755 0.002501 0.000000 -0.002430 0.000000
# 3 -0.017080 0.002501 0.037265 0.000000 0.010432 0.000000
# 4 0.000000 0.000000 0.000000 0.021137 0.000000 -0.044582
# 5 -0.024214 -0.002430 0.010432 0.000000 0.048722 0.000000
# 6 0.000000 0.000000 0.000000 -0.044582 0.000000 -0.022830
#
#
# Mechanical properties :
#
#
# Convention : Reuss Voigt Hill
#
# Bulk Modulus (GPa) = 20.02414 25.80496 22.91455
# Shear Modulus (GPa) = 29.99066 22.18926 26.08996
#
# Velocity S-wave (km/s) = 3.51399 3.02259 3.27751
# Velocity P-wave (km/s) = 4.97079 4.77557 4.87416
#
# Compressibility (1/GPa) = 0.04993972
#
# Stress axis : x y z
#
# Youngs Moduli (GPa) = 32.81718 114.22367 26.83470
#
# Poissons Ratio (x) = -0.14891 0.45834
# Poissons Ratio (y) = -0.04278 -0.06710
# Poissons Ratio (z) = 0.56052 -0.28562
#
# Static dielectric constant tensor:
#      x y z
#    x 1.945900 0.000000 0.040930 
#    y 0.000000 1.930010 0.000000 
#    z 0.040930 0.000000 1.905530 
# 
# From -- ./inp_files/10733.got.cif
#   From: 2010.05.17/outbox.cif.g08.bks.cpg/sg9_6_cif.got.tgz:10733.got - 2010.06.03 20:04:27.
