data_PCOD9139112
_publ_section_title
;
Structure prediction by ZEFSAII (Michael W. Deem and Ramdas Pophale) SiO2 
 PCOD9139112
Probable space group: C C
;
_chemical_formula_sum "Si O2"
_cell_formula_units_Z 28
_cell_length_a 14.000796
_cell_length_b 10.013495
_cell_length_c 11.773953
_cell_angle_alpha 90.000000
_cell_angle_beta 135.829445
_cell_angle_gamma 90.000000
_cell_volume 1150.182412
_symmetry_space_group_name_H-M "C C"
_symmetry_group_IT_number 9
_symmetry_cell_setting 'monoclinic'
loop_
_space_group_symop_operation_xyz
x,y,z
x,-y,1/2+z
1/2+x,1/2+y,z
1/2+x,1/2-y,1/2+z
loop_
_atom_site_type_symbol
_atom_site_label
_atom_site_fract_x
_atom_site_fract_y
_atom_site_fract_z
Si Si1 0.041000 0.187903 0.480610
Si Si2 0.299449 0.642821 0.148307
Si Si3 0.657203 0.993033 0.199493
Si Si4 0.340270 0.021332 0.397150
Si Si5 0.158614 0.775213 0.318964
Si Si6 0.609334 0.613960 0.023868
Si Si7 0.357998 0.300563 0.467523
O O1 0.157517 0.277445 0.523740
O O2 0.049984 0.190141 0.625056
O O3 0.894949 0.231275 0.310538
O O4 0.061599 0.036762 0.457435
O O5 0.257677 0.511219 0.178761
O O6 0.378679 0.620412 0.101044
O O7 0.683976 0.119035 0.307744
O O8 0.712619 0.858109 0.300695
O O9 0.502863 0.999208 0.022711
O O10 0.339119 0.146231 0.482743
O O11 0.272163 0.888854 0.389011
O O12 0.250764 0.083205 0.215793
O O13 0.123800 0.800180 0.420996
O O14 0.486814 0.676524 0.995558
#
# Coordination Sequence:
#
# PCOD9139112 Si02
#       7
#     4   4   4   4   4   4   4
#     4  10  24  44  73 106 142 202 246 300 371 445
#     4  11  26  44  75 102 154 191 254 299 368 457
#     4  11  27  48  73 114 149 195 250 313 374 442
#     4  11  27  48  73 110 151 197 252 302 387 443
#     4  10  26  47  78 105 147 193 251 307 369 445
#     4  11  25  46  75 106 150 192 248 310 376 435
#     4  12  27  47  75 109 151 200 245 307 381 445
#
# _framework density 24.343966000000002
#
# number of rings (size 3 to 8) (size 9 to 14) (size 15 to 20)
#    0.000    1.143    1.429    1.714   20.000    4.571 
#    0.000    0.000    0.000    0.000    0.000    0.000 
#    0.000    0.000    0.000    0.000    0.000    0.000 
#
# Total GULP energy -78165.186712 kJ/mol
# GULP energy per Si atom -5583.227622 kJ/mol
# Density = 2.428856 g / cm^3
# Si number density = 24.343966 Si / 1000 Ang^3
#
#
#
# Elastic Constant Matrix: (Units=GPa)
#
#
# Indices 1 2 3 4 5 6 
#
# 1 139.8623 17.4524 68.2785 0.0000 -17.7780 0.0000
# 2 17.4524 102.0494 2.8671 0.0000 7.2259 0.0000
# 3 68.2785 2.8671 110.1532 0.0000 22.9439 0.0000
# 4 0.0000 0.0000 0.0000 26.4960 0.0000 17.3952
# 5 -17.7780 7.2259 22.9439 0.0000 42.9974 0.0000
# 6 0.0000 0.0000 0.0000 17.3952 0.0000 10.8962
#
#
#
# Elastic Compliance Matrix: (Units=1/GPa)
#
#
# Indices 1 2 3 4 5 6 
#
# 1 0.015088 -0.003176 -0.012016 0.000000 0.013184 0.000000
# 2 -0.003176 0.010587 0.002630 0.000000 -0.004496 0.000000
# 3 -0.012016 0.002630 0.019783 0.000000 -0.015967 0.000000
# 4 0.000000 0.000000 0.000000 -0.784572 0.000000 1.252530
# 5 0.013184 -0.004496 -0.015967 0.000000 0.037984 0.000000
# 6 0.000000 0.000000 0.000000 1.252530 0.000000 -1.907825
#
#
# Mechanical properties :
#
#
# Convention : Reuss Voigt Hill
#
# Bulk Modulus (GPa) = 49.17950 58.80677 53.99313
# Shear Modulus (GPa) = -1.94020 33.64237 15.85108
#
# Velocity S-wave (km/s) = -0.89371 3.72150 2.55449
# Velocity P-wave (km/s) = 4.37959 6.53262 5.56129
#
# Compressibility (1/GPa) = 0.02033368
#
# Stress axis : x y z
#
# Youngs Moduli (GPa) = 66.27836 94.45700 50.54731
#
# Poissons Ratio (x) = 0.30002 0.60736
# Poissons Ratio (y) = 0.21052 -0.13292
# Poissons Ratio (z) = 0.79638 -0.24839
#
# Static dielectric constant tensor:
#      x y z
#    x 1.929560 0.000000 -0.034390 
#    y 0.000000 2.023030 0.000000 
#    z -0.034390 0.000000 2.039160 
# 
# From -- ./inp_files/16527.got.cif
#   From: 2010.05.17/outbox.cif.g08.bks.cpg/sg9_9_cif.got.tgz:16527.got - 2010.06.03 20:04:27.
