data_PCOD9139931
_publ_section_title
;
Structure prediction by ZEFSAII (Michael W. Deem and Ramdas Pophale) SiO2 
 PCOD9139931
Probable space group: C C
;
_chemical_formula_sum "Si O2"
_cell_formula_units_Z 32
_cell_length_a 6.500853
_cell_length_b 18.887370
_cell_length_c 12.591925
_cell_angle_alpha 90.000000
_cell_angle_beta 86.427413
_cell_angle_gamma 90.000000
_cell_volume 1543.082541
_symmetry_space_group_name_H-M "C C"
_symmetry_group_IT_number 9
_symmetry_cell_setting 'monoclinic'
loop_
_space_group_symop_operation_xyz
x,y,z
x,-y,1/2+z
1/2+x,1/2+y,z
1/2+x,1/2-y,1/2+z
loop_
_atom_site_type_symbol
_atom_site_label
_atom_site_fract_x
_atom_site_fract_y
_atom_site_fract_z
Si Si1 0.194880 0.509099 0.990430
Si Si2 0.430098 0.571163 0.171188
Si Si3 0.910903 0.301834 0.180458
Si Si4 0.406140 0.877967 0.394596
Si Si5 0.387586 0.119744 0.468358
Si Si6 0.596540 0.180473 0.259317
Si Si7 0.238603 0.810107 0.594343
Si Si8 0.609457 0.491370 0.858001
O O1 0.377502 0.500358 0.901945
O O2 0.071566 0.578822 0.958548
O O3 0.052442 0.440666 0.993001
O O4 0.301086 0.521027 0.099483
O O5 0.261196 0.616480 0.241759
O O6 0.568990 0.627282 0.103410
O O7 0.593319 0.528353 0.235789
O O8 0.975667 0.350204 0.277870
O O9 0.733594 0.249829 0.231754
O O10 0.109492 0.258466 0.132550
O O11 0.826801 0.342062 0.079198
O O12 0.330246 0.814394 0.473077
O O13 0.233595 0.937460 0.376903
O O14 0.486724 0.172171 0.377101
O O15 0.208585 0.075054 0.416491
O O16 0.419033 0.176550 0.174716
#
# Coordination Sequence:
#
# PCOD9139931 Si02
#       8
#     4   4   4   4   4   4   4   4
#     4  11  24  40  71  99 133 168 209 281 329 396
#     4  11  22  42  68 100 128 173 218 260 346 385
#     4  11  28  42  66  96 130 179 222 270 312 393
#     4  11  25  44  65 102 133 168 223 268 333 388
#     4  11  25  44  65 102 133 168 223 268 333 388
#     4  11  23  45  66  90 133 181 217 269 320 390
#     4  11  23  45  66  90 133 181 217 269 320 390
#     4  11  24  40  71  99 133 168 209 281 329 396
#
# _framework density 20.737711000000001
#
# number of rings (size 3 to 8) (size 9 to 14) (size 15 to 20)
#    0.000    1.000    5.000    0.750    3.500    3.000 
#    0.000    0.000    0.000    0.000    0.000    0.000 
#    0.000    0.000    0.000    0.000    0.000    0.000 
#
# Total GULP energy -89398.798014 kJ/mol
# GULP energy per Si atom -5587.424876 kJ/mol
# Density = 2.069051 g / cm^3
# Si number density = 20.737711 Si / 1000 Ang^3
#
#
#
# Elastic Constant Matrix: (Units=GPa)
#
#
# Indices 1 2 3 4 5 6 
#
# 1 49.3245 13.0933 -2.5523 0.0000 17.2531 0.0000
# 2 13.0933 67.8733 39.7484 0.0000 3.7335 0.0000
# 3 -2.5523 39.7484 124.4512 0.0000 13.5556 0.0000
# 4 0.0000 0.0000 0.0000 18.9570 0.0000 -6.1300
# 5 17.2531 3.7335 13.5556 0.0000 40.2824 0.0000
# 6 0.0000 0.0000 0.0000 -6.1300 0.0000 -3.6089
#
#
#
# Elastic Compliance Matrix: (Units=1/GPa)
#
#
# Indices 1 2 3 4 5 6 
#
# 1 0.026519 -0.006815 0.004037 0.000000 -0.012085 0.000000
# 2 -0.006815 0.019878 -0.006857 0.000000 0.003384 0.000000
# 3 0.004037 -0.006857 0.010824 0.000000 -0.004736 0.000000
# 4 0.000000 0.000000 0.000000 0.034049 0.000000 -0.057836
# 5 -0.012085 0.003384 -0.004736 0.000000 0.031281 0.000000
# 6 0.000000 0.000000 0.000000 -0.057836 0.000000 -0.178856
#
#
# Mechanical properties :
#
#
# Convention : Reuss Voigt Hill
#
# Bulk Modulus (GPa) = 26.35044 38.02531 32.18788
# Shear Modulus (GPa) = -205.04832 23.88340 -90.58246
#
# Velocity S-wave (km/s) = -9.95448 3.39734 -6.61626
# Velocity P-wave (km/s) = 10.92649 5.81079 6.54304
#
# Compressibility (1/GPa) = 0.03795002
#
# Stress axis : x y z
#
# Youngs Moduli (GPa) = 37.70876 50.30802 92.38739
#
# Poissons Ratio (x) = 0.34285 -0.37296
# Poissons Ratio (y) = 0.25699 0.63351
# Poissons Ratio (z) = -0.15223 0.34496
#
# Static dielectric constant tensor:
#      x y z
#    x 1.714990 0.000000 -0.018950 
#    y 0.000000 1.767210 0.000000 
#    z -0.018950 0.000000 1.781170 
# 
# From -- ./inp_files/13365.got.cif
#   From: 2010.05.17/outbox.cif.g08.bks.cpg/sg9_7_cif.got.tgz:13365.got - 2010.06.03 20:04:27.
