data_PCOD9139657
_publ_section_title
;
Structure prediction by ZEFSAII (Michael W. Deem and Ramdas Pophale) SiO2 
 PCOD9139657
Probable space group: C C
;
_chemical_formula_sum "Si O2"
_cell_formula_units_Z 32
_cell_length_a 4.798057
_cell_length_b 14.199579
_cell_length_c 17.225512
_cell_angle_alpha 90.000000
_cell_angle_beta 98.669856
_cell_angle_gamma 90.000000
_cell_volume 1160.170720
_symmetry_space_group_name_H-M "C C"
_symmetry_group_IT_number 9
_symmetry_cell_setting 'monoclinic'
loop_
_space_group_symop_operation_xyz
x,y,z
x,-y,1/2+z
1/2+x,1/2+y,z
1/2+x,1/2-y,1/2+z
loop_
_atom_site_type_symbol
_atom_site_label
_atom_site_fract_x
_atom_site_fract_y
_atom_site_fract_z
Si Si1 0.127320 0.758992 0.144490
Si Si2 0.920961 0.413579 0.897021
Si Si3 0.693340 0.012789 0.108827
Si Si4 0.068511 0.228731 0.286460
Si Si5 0.673355 0.625794 0.064806
Si Si6 0.933588 0.900993 0.245062
Si Si7 0.958656 0.867032 0.999518
Si Si8 0.842806 0.381847 0.395490
O O1 0.318711 0.703199 0.215721
O O2 0.824773 0.706899 0.120841
O O3 0.144816 0.859839 0.189324
O O4 0.150523 0.791483 0.054897
O O5 0.761922 0.359510 0.819997
O O6 0.681535 0.416421 0.953041
O O7 0.030651 0.522326 0.899189
O O8 0.185212 0.349504 0.933540
O O9 0.366404 0.035530 0.092413
O O10 0.859609 0.102151 0.079006
O O11 0.776716 0.986483 0.199250
O O12 0.797951 0.928464 0.058541
O O13 0.246683 0.309513 0.251691
O O14 0.971484 0.290028 0.358550
O O15 0.724823 0.640363 0.975789
O O16 0.092129 0.918416 0.330308
#
# Coordination Sequence:
#
# PCOD9139657 Si02
#       8
#     4   4   4   4   4   4   4   4
#     4  10  27  45  73 103 151 195 256 315 388 459
#     4  12  27  46  77 108 151 198 257 316 392 464
#     4  11  25  47  73 105 146 190 250 310 378 452
#     4  11  28  49  73 112 156 208 260 317 402 474
#     4  12  26  45  77 113 140 194 261 312 377 459
#     4  10  27  47  71 101 156 202 243 319 389 455
#     4  11  24  49  71 106 145 194 247 319 383 452
#     4  11  26  48  73 114 149 201 254 328 385 459
#
# _framework density 27.582148
#
# number of rings (size 3 to 8) (size 9 to 14) (size 15 to 20)
#    0.000    1.000    2.500    0.750   21.000    0.000 
#    0.000    0.000    0.000    0.000    0.000    0.000 
#    0.000    0.000    0.000    0.000    0.000    0.000 
#
# Total GULP energy -89423.858988 kJ/mol
# GULP energy per Si atom -5588.991187 kJ/mol
# Density = 2.751937 g / cm^3
# Si number density = 27.582148 Si / 1000 Ang^3
#
#
#
# Elastic Constant Matrix: (Units=GPa)
#
#
# Indices 1 2 3 4 5 6 
#
# 1 67.0062 8.5185 24.0221 0.0000 5.9274 0.0000
# 2 8.5185 119.0618 38.8672 0.0000 -1.8736 0.0000
# 3 24.0221 38.8672 175.7950 0.0000 29.1384 0.0000
# 4 0.0000 0.0000 0.0000 58.2671 0.0000 6.8498
# 5 5.9274 -1.8736 29.1384 0.0000 42.4849 0.0000
# 6 0.0000 0.0000 0.0000 6.8498 0.0000 45.1011
#
#
#
# Elastic Compliance Matrix: (Units=1/GPa)
#
#
# Indices 1 2 3 4 5 6 
#
# 1 0.015748 -0.000527 -0.001881 0.000000 -0.000930 0.000000
# 2 -0.000527 0.009223 -0.002309 0.000000 0.002064 0.000000
# 3 -0.001881 -0.002309 0.007254 0.000000 -0.004815 0.000000
# 4 0.000000 0.000000 0.000000 0.017474 0.000000 -0.002654
# 5 -0.000930 0.002064 -0.004815 0.000000 0.027061 0.000000
# 6 0.000000 0.000000 0.000000 -0.002654 0.000000 0.022575
#
#
# Mechanical properties :
#
#
# Convention : Reuss Voigt Hill
#
# Bulk Modulus (GPa) = 43.87973 56.07541 49.97757
# Shear Modulus (GPa) = 42.96744 48.53431 45.75088
#
# Velocity S-wave (km/s) = 3.95118 4.19934 4.07715
# Velocity P-wave (km/s) = 6.06292 6.62473 6.35004
#
# Compressibility (1/GPa) = 0.02278957
#
# Stress axis : x y z
#
# Youngs Moduli (GPa) = 63.50128 108.42408 137.85307
#
# Poissons Ratio (x) = 0.05717 0.25932
# Poissons Ratio (y) = 0.03348 0.31834
# Poissons Ratio (z) = 0.11946 0.25038
#
# Static dielectric constant tensor:
#      x y z
#    x 2.235310 0.000000 -0.033170 
#    y 0.000000 2.402680 0.000000 
#    z -0.033170 0.000000 2.201490 
# 
# From -- ./inp_files/28654.got.cif
#   From: 2010.05.17/outbox.cif.g08.bks.cpg/sg9_15_cif.got.tgz:28654.got - 2010.06.03 20:04:27.
