data_PCOD9139398
_publ_section_title
;
Structure prediction by ZEFSAII (Michael W. Deem and Ramdas Pophale) SiO2 
 PCOD9139398
Probable space group: C C
;
_chemical_formula_sum "Si O2"
_cell_formula_units_Z 24
_cell_length_a 7.242498
_cell_length_b 14.184406
_cell_length_c 9.393852
_cell_angle_alpha 90.000000
_cell_angle_beta 103.451655
_cell_angle_gamma 90.000000
_cell_volume 938.561164
_symmetry_space_group_name_H-M "C C"
_symmetry_group_IT_number 9
_symmetry_cell_setting 'monoclinic'
loop_
_space_group_symop_operation_xyz
x,y,z
x,-y,1/2+z
1/2+x,1/2+y,z
1/2+x,1/2-y,1/2+z
loop_
_atom_site_type_symbol
_atom_site_label
_atom_site_fract_x
_atom_site_fract_y
_atom_site_fract_z
Si Si1 0.800210 0.192590 0.271360
Si Si2 0.634812 0.828021 0.427275
Si Si3 0.992165 0.827156 0.286129
Si Si4 0.163173 0.992352 0.709497
Si Si5 0.323843 0.425209 0.018480
Si Si6 0.419050 0.019872 0.479147
O O1 0.627626 0.239314 0.329436
O O2 0.826607 0.090659 0.350348
O O3 0.988506 0.253230 0.332494
O O4 0.728544 0.195237 0.097435
O O5 0.813279 0.836547 0.354133
O O6 0.513764 0.923990 0.431045
O O7 0.921468 0.834862 0.109932
O O8 0.125218 0.919793 0.309924
O O9 0.282770 0.928044 0.839106
O O10 0.957558 0.988664 0.595863
O O11 0.304884 0.009367 0.604237
O O12 0.114208 0.426502 0.041637
#
# Coordination Sequence:
#
# PCOD9139398 Si02
#       6
#     4   4   4   4   4   4
#     4  12  25  47  71 107 144 198 243 300 370 437
#     4  12  26  43  77 107 146 196 247 298 370 436
#     4  10  25  45  72 100 150 180 244 308 353 426
#     4  10  25  44  67 105 145 187 241 305 359 436
#     4  10  25  45  72 105 146 189 246 307 359 441
#     4  12  24  46  75 102 149 194 245 304 375 430
#
# _framework density 25.571055999999999
#
# number of rings (size 3 to 8) (size 9 to 14) (size 15 to 20)
#    1.000    0.000    3.333    2.000    4.667    2.667 
#    0.000    0.000    0.000    0.000    0.000    0.000 
#    0.000    0.000    0.000    0.000    0.000    0.000 
#
# Total GULP energy -66988.763769 kJ/mol
# GULP energy per Si atom -5582.396981 kJ/mol
# Density = 2.551285 g / cm^3
# Si number density = 25.571056 Si / 1000 Ang^3
#
#
#
# Elastic Constant Matrix: (Units=GPa)
#
#
# Indices 1 2 3 4 5 6 
#
# 1 207.0011 43.1213 66.5547 0.0000 -9.5299 0.0000
# 2 43.1213 47.2590 14.2878 0.0000 4.1681 0.0000
# 3 66.5547 14.2878 153.4874 0.0000 15.0714 0.0000
# 4 0.0000 0.0000 0.0000 25.3979 0.0000 2.1550
# 5 -9.5299 4.1681 15.0714 0.0000 54.9368 0.0000
# 6 0.0000 0.0000 0.0000 2.1550 0.0000 34.1071
#
#
#
# Elastic Compliance Matrix: (Units=1/GPa)
#
#
# Indices 1 2 3 4 5 6 
#
# 1 0.007033 -0.005800 -0.002747 0.000000 0.002414 0.000000
# 2 -0.005800 0.026624 0.000343 0.000000 -0.003120 0.000000
# 3 -0.002747 0.000343 0.007938 0.000000 -0.002680 0.000000
# 4 0.000000 0.000000 0.000000 0.039586 0.000000 -0.002501
# 5 0.002414 -0.003120 -0.002680 0.000000 0.019593 0.000000
# 6 0.000000 0.000000 0.000000 -0.002501 0.000000 0.029477
#
#
# Mechanical properties :
#
#
# Convention : Reuss Voigt Hill
#
# Bulk Modulus (GPa) = 39.70328 72.85279 56.27803
# Shear Modulus (GPa) = 32.24673 41.80728 37.02700
#
# Velocity S-wave (km/s) = 3.55500 4.04783 3.80939
# Velocity P-wave (km/s) = 5.69307 7.09921 6.43466
#
# Compressibility (1/GPa) = 0.02518684
#
# Stress axis : x y z
#
# Youngs Moduli (GPa) = 142.17817 37.56054 125.98369
#
# Poissons Ratio (x) = 0.21785 0.34607
# Poissons Ratio (y) = 0.82464 -0.04322
# Poissons Ratio (z) = 0.39055 -0.01288
#
# Static dielectric constant tensor:
#      x y z
#    x 1.982110 0.000000 0.085770 
#    y 0.000000 2.047680 0.000000 
#    z 0.085770 0.000000 2.042590 
# 
# From -- ./inp_files/13224.got.cif
#   From: 2010.05.17/outbox.cif.g08.bks.cpg/sg9_7_cif.got.tgz:13224.got - 2010.06.03 20:04:27.
