data_PCOD9139105
_publ_section_title
;
Structure prediction by ZEFSAII (Michael W. Deem and Ramdas Pophale) SiO2 
 PCOD9139105
Probable space group: C C
;
_chemical_formula_sum "Si O2"
_cell_formula_units_Z 28
_cell_length_a 7.212298
_cell_length_b 17.169930
_cell_length_c 9.015898
_cell_angle_alpha 90.000000
_cell_angle_beta 111.232728
_cell_angle_gamma 90.000000
_cell_volume 1040.690633
_symmetry_space_group_name_H-M "C C"
_symmetry_group_IT_number 9
_symmetry_cell_setting 'monoclinic'
loop_
_space_group_symop_operation_xyz
x,y,z
x,-y,1/2+z
1/2+x,1/2+y,z
1/2+x,1/2-y,1/2+z
loop_
_atom_site_type_symbol
_atom_site_label
_atom_site_fract_x
_atom_site_fract_y
_atom_site_fract_z
Si Si1 0.513170 0.565839 0.150420
Si Si2 0.303702 0.571595 0.769108
Si Si3 0.386984 0.865638 0.473063
Si Si4 0.320380 0.824765 0.121519
Si Si5 0.752538 0.826533 0.727543
Si Si6 0.351614 0.990852 0.098908
Si Si7 0.201635 0.286612 0.049125
O O1 0.419634 0.492033 0.206889
O O2 0.742167 0.548219 0.182191
O O3 0.462600 0.643508 0.229182
O O4 0.394170 0.573263 0.959504
O O5 0.072296 0.543112 0.694042
O O6 0.319336 0.657815 0.699281
O O7 0.413258 0.833569 0.315268
O O8 0.314948 0.954543 0.445208
O O9 0.264425 0.802619 0.534822
O O10 0.182441 0.751868 0.120700
O O11 0.477268 0.796674 0.044300
O O12 0.233305 0.908722 0.057768
O O13 0.589495 0.884077 0.617374
O O14 0.731176 0.823226 0.895488
#
# Coordination Sequence:
#
# PCOD9139105 Si02
#       7
#     4   4   4   4   4   4   4
#     4  12  26  46  76 105 151 193 246 307 375 436
#     4  11  26  46  73 110 146 193 249 308 361 452
#     4  11  24  44  72 104 146 195 246 306 371 443
#     4  10  25  47  68 105 146 192 252 305 367 449
#     4  11  23  45  72 106 145 197 248 305 374 445
#     4  11  26  44  75 106 147 196 243 307 370 439
#     4  10  24  44  72 102 149 194 246 306 376 436
#
# _framework density 26.905211999999999
#
# number of rings (size 3 to 8) (size 9 to 14) (size 15 to 20)
#    0.000    1.143    1.429    3.429    4.000    4.571 
#    0.000    0.000    0.000    0.000    0.000    0.000 
#    0.000    0.000    0.000    0.000    0.000    0.000 
#
# Total GULP energy -78275.113519 kJ/mol
# GULP energy per Si atom -5591.079537 kJ/mol
# Density = 2.684397 g / cm^3
# Si number density = 26.905212 Si / 1000 Ang^3
#
#
#
# Elastic Constant Matrix: (Units=GPa)
#
#
# Indices 1 2 3 4 5 6 
#
# 1 109.3775 26.9178 35.2987 0.0000 -26.4751 0.0000
# 2 26.9178 159.0278 61.5629 0.0000 -15.0434 0.0000
# 3 35.2987 61.5629 156.0018 0.0000 -21.6201 0.0000
# 4 0.0000 0.0000 0.0000 47.7086 0.0000 -20.4994
# 5 -26.4751 -15.0434 -21.6201 0.0000 44.7891 0.0000
# 6 0.0000 0.0000 0.0000 -20.4994 0.0000 42.8647
#
#
#
# Elastic Compliance Matrix: (Units=1/GPa)
#
#
# Indices 1 2 3 4 5 6 
#
# 1 0.011167 -0.000804 -0.001428 0.000000 0.005642 0.000000
# 2 -0.000804 0.007536 -0.002687 0.000000 0.000759 0.000000
# 3 -0.001428 -0.002687 0.008093 0.000000 0.002160 0.000000
# 4 0.000000 0.000000 0.000000 0.026382 0.000000 0.012617
# 5 0.005642 0.000759 0.002160 0.000000 0.026959 0.000000
# 6 0.000000 0.000000 0.000000 0.012617 0.000000 0.029363
#
#
# Mechanical properties :
#
#
# Convention : Reuss Voigt Hill
#
# Bulk Modulus (GPa) = 58.96514 74.66289 66.81401
# Shear Modulus (GPa) = 40.00328 47.11433 43.55881
#
# Velocity S-wave (km/s) = 3.86012 4.18918 4.02801
# Velocity P-wave (km/s) = 6.46767 7.15609 6.82057
#
# Compressibility (1/GPa) = 0.01695917
#
# Stress axis : x y z
#
# Youngs Moduli (GPa) = 89.55140 132.69217 123.56447
#
# Poissons Ratio (x) = 0.10666 0.17641
# Poissons Ratio (y) = 0.07198 0.33201
# Poissons Ratio (z) = 0.12785 0.35654
#
# Static dielectric constant tensor:
#      x y z
#    x 2.152930 0.000000 -0.048730 
#    y 0.000000 2.167740 0.000000 
#    z -0.048730 0.000000 2.058420 
# 
# From -- ./inp_files/5355.got.cif
#   From: 2010.05.17/outbox.cif.g08.bks.cpg/sg9_3_cif.got.tgz:5355.got - 2010.06.03 20:04:27.
