data_PCOD9139021
_publ_section_title
;
Structure prediction by ZEFSAII (Michael W. Deem and Ramdas Pophale) SiO2 
 PCOD9139021
Probable space group: C C
;
_chemical_formula_sum "Si O2"
_cell_formula_units_Z 24
_cell_length_a 10.747396
_cell_length_b 10.097736
_cell_length_c 9.702933
_cell_angle_alpha 90.000000
_cell_angle_beta 57.168058
_cell_angle_gamma 90.000000
_cell_volume 884.802413
_symmetry_space_group_name_H-M "C C"
_symmetry_group_IT_number 9
_symmetry_cell_setting 'monoclinic'
loop_
_space_group_symop_operation_xyz
x,y,z
x,-y,1/2+z
1/2+x,1/2+y,z
1/2+x,1/2-y,1/2+z
loop_
_atom_site_type_symbol
_atom_site_label
_atom_site_fract_x
_atom_site_fract_y
_atom_site_fract_z
Si Si1 0.792840 0.513328 0.849500
Si Si2 0.255344 0.592738 0.560657
Si Si3 0.909741 0.633440 0.520052
Si Si4 0.016900 0.872958 0.083429
Si Si5 0.164367 0.320188 0.701711
Si Si6 0.495214 0.747166 0.317650
O O1 0.619137 0.499224 0.981979
O O2 0.855515 0.389685 0.896440
O O3 0.842932 0.522105 0.661175
O O4 0.552006 0.266626 0.940059
O O5 0.346340 0.597618 0.652589
O O6 0.175380 0.452200 0.604373
O O7 0.391362 0.616763 0.373522
O O8 0.134232 0.709343 0.644214
O O9 0.829301 0.764410 0.621066
O O10 0.878766 0.365118 0.366679
O O11 0.083665 0.641915 0.392366
O O12 0.073578 0.802779 0.188001
#
# Coordination Sequence:
#
# PCOD9139021 Si02
#       6
#     4   4   4   4   4   4
#     4  11  25  50  75 110 157 203 256 327 385 463
#     4  10  24  45  71 115 149 206 257 318 390 464
#     4  11  28  47  78 110 157 201 261 320 394 461
#     4   9  26  46  77 109 154 209 255 317 400 464
#     4  11  25  49  73 114 156 203 258 327 387 466
#     4  10  24  43  74 110 147 200 259 311 384 460
#
# _framework density 27.124703
#
# number of rings (size 3 to 8) (size 9 to 14) (size 15 to 20)
#    1.000    0.667    1.667    0.000   11.667    1.333 
#    6.000    0.000    0.000    0.000    0.000    0.000 
#    0.000    0.000    0.000    0.000    0.000    0.000 
#
# Total GULP energy -66998.549049 kJ/mol
# GULP energy per Si atom -5583.212421 kJ/mol
# Density = 2.706297 g / cm^3
# Si number density = 27.124703 Si / 1000 Ang^3
#
#
#
# Elastic Constant Matrix: (Units=GPa)
#
#
# Indices 1 2 3 4 5 6 
#
# 1 77.1586 28.7424 36.5156 0.0000 -2.8605 0.0000
# 2 28.7424 56.6119 46.3643 0.0000 -10.5138 0.0000
# 3 36.5156 46.3643 160.7068 0.0000 -17.4162 0.0000
# 4 0.0000 0.0000 0.0000 51.8785 0.0000 -6.8555
# 5 -2.8605 -10.5138 -17.4162 0.0000 48.2370 0.0000
# 6 0.0000 0.0000 0.0000 -6.8555 0.0000 53.0224
#
#
#
# Elastic Compliance Matrix: (Units=1/GPa)
#
#
# Indices 1 2 3 4 5 6 
#
# 1 0.016410 -0.007066 -0.001823 0.000000 -0.001225 0.000000
# 2 -0.007066 0.026525 -0.005688 0.000000 0.003309 0.000000
# 3 -0.001823 -0.005688 0.008463 0.000000 0.001708 0.000000
# 4 0.000000 0.000000 0.000000 0.019611 0.000000 0.002536
# 5 -0.001225 0.003309 0.001708 0.000000 0.021996 0.000000
# 6 0.000000 0.000000 0.000000 0.002536 0.000000 0.019188
#
#
# Mechanical properties :
#
#
# Convention : Reuss Voigt Hill
#
# Bulk Modulus (GPa) = 44.95816 57.52466 51.24141
# Shear Modulus (GPa) = 33.61104 42.81792 38.21448
#
# Velocity S-wave (km/s) = 3.52395 3.97742 3.75753
# Velocity P-wave (km/s) = 5.75918 6.50743 6.14471
#
# Compressibility (1/GPa) = 0.02224291
#
# Stress axis : x y z
#
# Youngs Moduli (GPa) = 60.93943 37.70066 118.16356
#
# Poissons Ratio (x) = 0.26640 0.21539
# Poissons Ratio (y) = 0.43060 0.67216
# Poissons Ratio (z) = 0.11108 0.21445
#
# Static dielectric constant tensor:
#      x y z
#    x 2.204040 0.000000 -0.043750 
#    y 0.000000 2.111610 0.000000 
#    z -0.043750 0.000000 2.124780 
# 
# From -- ./inp_files/30934.got.cif
#   From: 2010.05.17/outbox.cif.g08.bks.cpg/sg9_16_cif.got.tgz:30934.got - 2010.06.03 20:04:27.
