data_PCOD9139091
_publ_section_title
;
Structure prediction by ZEFSAII (Michael W. Deem and Ramdas Pophale) SiO2 
 PCOD9139091
Probable space group: C C
;
_chemical_formula_sum "Si O2"
_cell_formula_units_Z 32
_cell_length_a 5.611287
_cell_length_b 32.947234
_cell_length_c 8.732458
_cell_angle_alpha 90.000000
_cell_angle_beta 58.026251
_cell_angle_gamma 90.000000
_cell_volume 1369.502105
_symmetry_space_group_name_H-M "C C"
_symmetry_group_IT_number 9
_symmetry_cell_setting 'monoclinic'
loop_
_space_group_symop_operation_xyz
x,y,z
x,-y,1/2+z
1/2+x,1/2+y,z
1/2+x,1/2-y,1/2+z
loop_
_atom_site_type_symbol
_atom_site_label
_atom_site_fract_x
_atom_site_fract_y
_atom_site_fract_z
Si Si1 0.901700 0.057787 0.098020
Si Si2 0.705307 0.171626 0.890313
Si Si3 0.168354 0.497677 0.915607
Si Si4 0.651136 0.712948 0.960378
Si Si5 0.237670 0.693672 0.375527
Si Si6 0.472697 0.870406 0.764043
Si Si7 0.384834 0.375478 0.055756
Si Si8 0.435649 0.943726 0.231209
O O1 0.899120 0.031617 0.256021
O O2 0.714409 0.096562 0.200002
O O3 0.174494 0.073346 0.915354
O O4 0.780668 0.027171 0.009770
O O5 0.864913 0.137755 0.737807
O O6 0.471072 0.196233 0.869786
O O7 0.522162 0.149013 0.081791
O O8 0.952597 0.197558 0.888162
O O9 0.060466 0.525993 0.816588
O O10 0.925700 0.470304 0.078766
O O11 0.483391 0.698765 0.167533
O O12 0.651349 0.761599 0.954152
O O13 0.340661 0.665801 0.477363
O O14 0.999986 0.667018 0.372554
O O15 0.179699 0.891955 0.896515
O O16 0.140374 0.407499 0.117269
#
# Coordination Sequence:
#
# PCOD9139091 Si02
#       8
#     4   4   4   4   4   4   4   4
#     4  11  24  45  73 102 145 185 240 297 364 436
#     4  11  27  47  77 106 152 193 257 303 383 430
#     4  10  24  44  70 106 140 185 239 297 361 441
#     4  11  26  48  75 108 143 202 245 322 362 451
#     4  11  26  45  73 101 148 187 254 301 376 435
#     4  11  27  46  67 106 149 191 242 308 368 445
#     4  12  27  44  71 106 146 194 243 302 374 445
#     4  11  25  43  74 103 141 187 240 294 368 435
#
# _framework density 23.366156
#
# number of rings (size 3 to 8) (size 9 to 14) (size 15 to 20)
#    0.000    1.000    1.250    3.000    8.750   11.000 
#    0.000    0.000    0.000    0.000    0.000    0.000 
#    0.000    0.000    0.000    0.000    0.000    0.000 
#
# Total GULP energy -89443.277759 kJ/mol
# GULP energy per Si atom -5590.204860 kJ/mol
# Density = 2.331297 g / cm^3
# Si number density = 23.366156 Si / 1000 Ang^3
#
#
#
# Elastic Constant Matrix: (Units=GPa)
#
#
# Indices 1 2 3 4 5 6 
#
# 1 85.8329 8.4849 -13.9341 0.0000 -38.7278 0.0000
# 2 8.4849 163.5153 119.7409 0.0000 44.3462 0.0000
# 3 -13.9341 119.7409 253.8721 0.0000 81.9376 0.0000
# 4 0.0000 0.0000 0.0000 225.0796 0.0000 20.0901
# 5 -38.7278 44.3462 81.9376 0.0000 90.4287 0.0000
# 6 0.0000 0.0000 0.0000 20.0901 0.0000 36.3830
#
#
#
# Elastic Compliance Matrix: (Units=1/GPa)
#
#
# Indices 1 2 3 4 5 6 
#
# 1 0.015704 -0.002669 -0.000668 0.000000 0.008639 0.000000
# 2 -0.002669 0.009841 -0.004044 0.000000 -0.002305 0.000000
# 3 -0.000668 -0.004044 0.007437 0.000000 -0.005041 0.000000
# 4 0.000000 0.000000 0.000000 0.004673 0.000000 -0.002580
# 5 0.008639 -0.002305 -0.005041 0.000000 0.020456 0.000000
# 6 0.000000 0.000000 0.000000 -0.002580 0.000000 0.028910
#
#
# Mechanical properties :
#
#
# Convention : Reuss Voigt Hill
#
# Bulk Modulus (GPa) = 54.88448 81.31152 68.09800
# Shear Modulus (GPa) = 46.35803 96.30684 71.33243
#
# Velocity S-wave (km/s) = 4.45902 6.42696 5.53122
# Velocity P-wave (km/s) = 7.07463 9.48414 8.36658
#
# Compressibility (1/GPa) = 0.01822009
#
# Stress axis : x y z
#
# Youngs Moduli (GPa) = 63.67765 101.61975 134.46568
#
# Poissons Ratio (x) = 0.27123 0.08976
# Poissons Ratio (y) = 0.16996 0.54379
# Poissons Ratio (z) = 0.04251 0.41096
#
# Static dielectric constant tensor:
#      x y z
#    x 1.954480 0.000000 -0.015510 
#    y 0.000000 1.821920 0.000000 
#    z -0.015510 0.000000 1.871450 
# 
# From -- ./inp_files/4449.got.cif
#   From: 2010.05.17/outbox.cif.g08.bks.cpg/sg9_3_cif.got.tgz:4449.got - 2010.06.03 20:04:27.
