data_PCOD9139946
_publ_section_title
;
Structure prediction by ZEFSAII (Michael W. Deem and Ramdas Pophale) SiO2 
 PCOD9139946
Probable space group: C C
;
_chemical_formula_sum "Si O2"
_cell_formula_units_Z 32
_cell_length_a 10.616671
_cell_length_b 14.489858
_cell_length_c 9.288119
_cell_angle_alpha 90.000000
_cell_angle_beta 92.593559
_cell_angle_gamma 90.000000
_cell_volume 1427.365409
_symmetry_space_group_name_H-M "C C"
_symmetry_group_IT_number 9
_symmetry_cell_setting 'monoclinic'
loop_
_space_group_symop_operation_xyz
x,y,z
x,-y,1/2+z
1/2+x,1/2+y,z
1/2+x,1/2-y,1/2+z
loop_
_atom_site_type_symbol
_atom_site_label
_atom_site_fract_x
_atom_site_fract_y
_atom_site_fract_z
Si Si1 0.083020 0.816500 0.609580
Si Si2 0.446185 0.281460 0.898683
Si Si3 0.468108 0.556228 0.865259
Si Si4 0.094339 0.097351 0.566133
Si Si5 0.436147 0.075906 0.921045
Si Si6 0.299884 0.029672 0.178092
Si Si7 0.196717 0.627124 0.493444
Si Si8 0.679484 0.982173 0.280658
O O1 0.198738 0.886502 0.658820
O O2 0.131282 0.717414 0.556815
O O3 0.991299 0.805561 0.741179
O O4 0.006785 0.863204 0.475921
O O5 0.389408 0.179656 0.897400
O O6 0.567752 0.300143 0.007399
O O7 0.339079 0.343889 0.965660
O O8 0.519663 0.576917 0.709362
O O9 0.319445 0.540386 0.846147
O O10 0.540598 0.468603 0.936838
O O11 0.232660 0.061340 0.609438
O O12 0.572457 0.076166 0.855703
O O13 0.349151 0.001800 0.834658
O O14 0.420445 0.053756 0.087260
O O15 0.149698 0.585007 0.339070
O O16 0.184007 0.547374 0.614144
#
# Coordination Sequence:
#
# PCOD9139946 Si02
#       8
#     4   4   4   4   4   4   4   4
#     4  11  25  48  72 103 142 183 243 300 343 436
#     4  12  24  45  70 104 142 181 236 296 348 426
#     4  11  22  43  74 105 133 186 238 293 359 410
#     4  11  22  42  74 103 134 178 240 297 346 414
#     4  12  26  46  67 102 146 189 226 292 369 427
#     4  11  24  46  71  99 139 189 234 290 361 425
#     4  12  26  48  69 107 144 187 236 298 362 431
#     4  12  25  48  71 101 148 185 233 296 374 429
#
# _framework density 22.418927
#
# number of rings (size 3 to 8) (size 9 to 14) (size 15 to 20)
#    0.000    0.500    5.000    4.500    1.750    0.000 
#    9.000    0.000    0.000    0.000    0.000    0.000 
#    0.000    0.000    0.000    0.000    0.000    0.000 
#
# Total GULP energy -89385.641323 kJ/mol
# GULP energy per Si atom -5586.602583 kJ/mol
# Density = 2.236790 g / cm^3
# Si number density = 22.418927 Si / 1000 Ang^3
#
#
#
# Elastic Constant Matrix: (Units=GPa)
#
#
# Indices 1 2 3 4 5 6 
#
# 1 71.7955 5.0079 31.3294 0.0000 -20.7816 0.0000
# 2 5.0079 86.5507 54.6079 0.0000 -5.7097 0.0000
# 3 31.3294 54.6079 130.0928 0.0000 -28.8569 0.0000
# 4 0.0000 0.0000 0.0000 32.7738 0.0000 -3.4862
# 5 -20.7816 -5.7097 -28.8569 0.0000 41.3707 0.0000
# 6 0.0000 0.0000 0.0000 -3.4862 0.0000 19.7689
#
#
#
# Elastic Compliance Matrix: (Units=1/GPa)
#
#
# Indices 1 2 3 4 5 6 
#
# 1 0.017160 0.001541 -0.003337 0.000000 0.006505 0.000000
# 2 0.001541 0.016150 -0.007671 0.000000 -0.002347 0.000000
# 3 -0.003337 -0.007671 0.013136 0.000000 0.006428 0.000000
# 4 0.000000 0.000000 0.000000 0.031095 0.000000 0.005484
# 5 0.006505 -0.002347 0.006428 0.000000 0.031599 0.000000
# 6 0.000000 0.000000 0.000000 0.005484 0.000000 0.051552
#
#
# Mechanical properties :
#
#
# Convention : Reuss Voigt Hill
#
# Bulk Modulus (GPa) = 36.34564 52.25884 44.30224
# Shear Modulus (GPa) = 26.48369 31.94894 29.21631
#
# Velocity S-wave (km/s) = 3.44075 3.77913 3.61390
# Velocity P-wave (km/s) = 5.65970 6.51177 6.10063
#
# Compressibility (1/GPa) = 0.02751362
#
# Stress axis : x y z
#
# Youngs Moduli (GPa) = 58.27540 61.92043 76.12574
#
# Poissons Ratio (x) = -0.09544 0.25400
# Poissons Ratio (y) = -0.08983 0.58396
# Poissons Ratio (z) = 0.19444 0.47499
#
# Static dielectric constant tensor:
#      x y z
#    x 1.860730 0.000000 0.016300 
#    y 0.000000 1.874960 0.000000 
#    z 0.016300 0.000000 1.828230 
# 
# From -- ./inp_files/7439.got.cif
#   From: 2010.05.17/outbox.cif.g08.bks.cpg/sg9_4_cif.got.tgz:7439.got - 2010.06.03 20:04:27.
