data_PCOD9139641
_publ_section_title
;
Structure prediction by ZEFSAII (Michael W. Deem and Ramdas Pophale) SiO2 
 PCOD9139641
Probable space group: C C
;
_chemical_formula_sum "Si O2"
_cell_formula_units_Z 32
_cell_length_a 18.468347
_cell_length_b 8.969711
_cell_length_c 13.773030
_cell_angle_alpha 90.000000
_cell_angle_beta 33.703758
_cell_angle_gamma 90.000000
_cell_volume 1266.047229
_symmetry_space_group_name_H-M "C C"
_symmetry_group_IT_number 9
_symmetry_cell_setting 'monoclinic'
loop_
_space_group_symop_operation_xyz
x,y,z
x,-y,1/2+z
1/2+x,1/2+y,z
1/2+x,1/2-y,1/2+z
loop_
_atom_site_type_symbol
_atom_site_label
_atom_site_fract_x
_atom_site_fract_y
_atom_site_fract_z
Si Si1 0.209160 0.719240 0.063350
Si Si2 0.567288 0.491840 0.151157
Si Si3 0.354782 0.965300 0.807498
Si Si4 0.009540 0.270079 0.330504
Si Si5 0.142356 0.431612 0.027442
Si Si6 0.034053 0.949082 0.962726
Si Si7 0.307334 0.331606 0.661247
Si Si8 0.327467 0.001510 0.122490
O O1 0.089912 0.835873 0.181671
O O2 0.197807 0.592741 0.994468
O O3 0.227102 0.655054 0.150542
O O4 0.334628 0.822346 0.898429
O O5 0.415922 0.543060 0.052001
O O6 0.483914 0.621263 0.294619
O O7 0.525363 0.456487 0.088438
O O8 0.341501 0.918146 0.710278
O O9 0.490466 0.047760 0.667452
O O10 0.217932 0.050903 0.977299
O O11 0.131564 0.345316 0.141277
O O12 0.899381 0.396615 0.464226
O O13 0.037180 0.210713 0.407503
O O14 0.216285 0.352115 0.857406
O O15 0.173837 0.015460 0.775683
O O16 0.373534 0.167916 0.584965
#
# Coordination Sequence:
#
# PCOD9139641 Si02
#       8
#     4   4   4   4   4   4   4   4
#     4  10  26  51  78 117 163 217 273 341 414 494
#     4   9  24  53  80 112 158 212 271 342 413 485
#     4   9  24  49  78 108 160 206 270 330 409 482
#     4  12  28  46  79 118 156 216 275 333 412 497
#     4  12  28  47  83 116 163 214 276 336 418 496
#     4  11  28  52  79 114 167 208 273 343 411 496
#     4  12  29  51  80 120 161 219 275 343 418 502
#     4  11  27  49  81 117 160 212 267 344 411 490
#
# _framework density 25.275517000000001
#
# number of rings (size 3 to 8) (size 9 to 14) (size 15 to 20)
#    0.750    0.500    0.000    3.000   10.500    6.000 
#    0.000    0.000    0.000    0.000    0.000    0.000 
#    0.000    0.000    0.000    0.000    0.000    0.000 
#
# Total GULP energy -89509.223816 kJ/mol
# GULP energy per Si atom -5594.326489 kJ/mol
# Density = 2.521799 g / cm^3
# Si number density = 25.275517 Si / 1000 Ang^3
#
#
#
# Elastic Constant Matrix: (Units=GPa)
#
#
# Indices 1 2 3 4 5 6 
#
# 1 82.7908 54.0434 56.7282 0.0000 15.7963 0.0000
# 2 54.0434 114.5416 68.5460 0.0000 11.0226 0.0000
# 3 56.7282 68.5460 164.0809 0.0000 16.0655 0.0000
# 4 0.0000 0.0000 0.0000 57.5641 0.0000 -0.5966
# 5 15.7963 11.0226 16.0655 0.0000 42.8544 0.0000
# 6 0.0000 0.0000 0.0000 -0.5966 0.0000 35.9281
#
#
#
# Elastic Compliance Matrix: (Units=1/GPa)
#
#
# Indices 1 2 3 4 5 6 
#
# 1 0.019760 -0.006769 -0.003593 0.000000 -0.004195 0.000000
# 2 -0.006769 0.014021 -0.003538 0.000000 0.000215 0.000000
# 3 -0.003593 -0.003538 0.008924 0.000000 -0.001111 0.000000
# 4 0.000000 0.000000 0.000000 0.017375 0.000000 0.000289
# 5 -0.004195 0.000215 -0.001111 0.000000 0.025242 0.000000
# 6 0.000000 0.000000 0.000000 0.000289 0.000000 0.027838
#
#
# Mechanical properties :
#
#
# Convention : Reuss Voigt Hill
#
# Bulk Modulus (GPa) = 67.09692 80.00540 73.55116
# Shear Modulus (GPa) = 34.26345 39.40903 36.83624
#
# Velocity S-wave (km/s) = 3.68584 3.95293 3.82172
# Velocity P-wave (km/s) = 6.68713 7.24957 6.97402
#
# Compressibility (1/GPa) = 0.01490381
#
# Stress axis : x y z
#
# Youngs Moduli (GPa) = 50.60799 71.32193 112.06272
#
# Poissons Ratio (x) = 0.48279 0.40263
# Poissons Ratio (y) = 0.34258 0.39649
# Poissons Ratio (z) = 0.18183 0.25234
#
# Static dielectric constant tensor:
#      x y z
#    x 1.999870 0.000000 0.009730 
#    y 0.000000 2.035240 0.000000 
#    z 0.009730 0.000000 2.015970 
# 
# From -- ./inp_files/20106.got.cif
#   From: 2010.05.17/outbox.cif.g08.bks.cpg/sg9_11_cif.got.tgz:20106.got - 2010.06.03 20:04:27.
