data_PCOD9139177
_publ_section_title
;
Structure prediction by ZEFSAII (Michael W. Deem and Ramdas Pophale) SiO2 
 PCOD9139177
Probable space group: C C
;
_chemical_formula_sum "Si O2"
_cell_formula_units_Z 28
_cell_length_a 11.539389
_cell_length_b 7.802949
_cell_length_c 11.441759
_cell_angle_alpha 90.000000
_cell_angle_beta 89.175675
_cell_angle_gamma 90.000000
_cell_volume 1030.123819
_symmetry_space_group_name_H-M "C C"
_symmetry_group_IT_number 9
_symmetry_cell_setting 'monoclinic'
loop_
_space_group_symop_operation_xyz
x,y,z
x,-y,1/2+z
1/2+x,1/2+y,z
1/2+x,1/2-y,1/2+z
loop_
_atom_site_type_symbol
_atom_site_label
_atom_site_fract_x
_atom_site_fract_y
_atom_site_fract_z
Si Si1 0.481580 0.507322 0.604470
Si Si2 0.239201 0.620705 0.633601
Si Si3 0.492312 0.635156 0.358121
Si Si4 0.975534 0.594399 0.400124
Si Si5 0.228507 0.776068 0.397645
Si Si6 0.238488 0.177403 0.363580
Si Si7 0.007910 0.409654 0.640188
O O1 0.344159 0.497235 0.605926
O O2 0.507886 0.496344 0.465027
O O3 0.518671 0.402964 0.719802
O O4 0.512263 0.704408 0.637093
O O5 0.230483 0.769030 0.537871
O O6 0.266532 0.716887 0.749565
O O7 0.128946 0.504831 0.641568
O O8 0.355478 0.691660 0.363344
O O9 0.608123 0.745046 0.392416
O O10 0.858266 0.702961 0.430617
O O11 0.106631 0.671421 0.380900
O O12 0.964357 0.471268 0.513430
O O13 0.951923 0.533881 0.265592
O O14 0.224299 0.970638 0.353169
#
# Coordination Sequence:
#
# PCOD9139177 Si02
#       7
#     4   4   4   4   4   4   4
#     4  11  24  51  72 116 155 202 263 333 381 485
#     4  10  24  45  77 106 156 204 269 315 403 463
#     4  11  27  46  79 109 161 204 264 315 404 463
#     4  11  24  47  78 105 156 202 257 319 395 456
#     4  10  25  52  69 110 155 206 258 328 381 484
#     4  12  26  43  75 112 151 202 253 326 385 472
#     4  11  24  46  78 110 150 206 258 326 385 473
#
# _framework density 27.1812
#
# number of rings (size 3 to 8) (size 9 to 14) (size 15 to 20)
#    0.000    1.143    1.429    3.429    6.000    0.000 
#    0.000    1.429    0.000    0.000    0.000    0.000 
#    0.000    0.000    0.000    0.000    0.000    0.000 
#
# Total GULP energy -77979.185771 kJ/mol
# GULP energy per Si atom -5569.941841 kJ/mol
# Density = 2.711933 g / cm^3
# Si number density = 27.181200 Si / 1000 Ang^3
#
#
#
# Elastic Constant Matrix: (Units=GPa)
#
#
# Indices 1 2 3 4 5 6 
#
# 1 181.9620 42.7292 17.7883 0.0000 -12.9354 0.0000
# 2 42.7292 100.9798 35.4685 0.0000 1.7382 0.0000
# 3 17.7883 35.4685 98.7724 0.0000 -14.9113 0.0000
# 4 0.0000 0.0000 0.0000 48.7636 0.0000 -2.0837
# 5 -12.9354 1.7382 -14.9113 0.0000 34.5967 0.0000
# 6 0.0000 0.0000 0.0000 -2.0837 0.0000 44.8547
#
#
#
# Elastic Compliance Matrix: (Units=1/GPa)
#
#
# Indices 1 2 3 4 5 6 
#
# 1 0.006316 -0.002811 0.000267 0.000000 0.002618 0.000000
# 2 -0.002811 0.012787 -0.004643 0.000000 -0.003695 0.000000
# 3 0.000267 -0.004643 0.012615 0.000000 0.005770 0.000000
# 4 0.000000 0.000000 0.000000 0.020548 0.000000 0.000955
# 5 0.002618 -0.003695 0.005770 0.000000 0.032556 0.000000
# 6 0.000000 0.000000 0.000000 0.000955 0.000000 0.022339
#
#
# Mechanical properties :
#
#
# Convention : Reuss Voigt Hill
#
# Bulk Modulus (GPa) = 57.66073 63.74289 60.70181
# Shear Modulus (GPa) = 39.27249 44.69156 41.98202
#
# Velocity S-wave (km/s) = 3.80523 4.05928 3.93431
# Velocity P-wave (km/s) = 6.36913 6.74332 6.55890
#
# Compressibility (1/GPa) = 0.01734283
#
# Stress axis : x y z
#
# Youngs Moduli (GPa) = 158.33242 78.20352 79.27330
#
# Poissons Ratio (x) = 0.21987 -0.02119
# Poissons Ratio (y) = 0.44515 0.36809
# Poissons Ratio (z) = -0.04233 0.36312
#
# Static dielectric constant tensor:
#      x y z
#    x 2.205860 0.000000 -0.014530 
#    y 0.000000 2.232990 0.000000 
#    z -0.014530 0.000000 2.174470 
# 
# From -- ./inp_files/15951.got.cif
#   From: 2010.05.17/outbox.cif.g08.bks.cpg/sg9_8_cif.got.tgz:15951.got - 2010.06.03 20:04:27.
