data_PCOD9139874
_publ_section_title
;
Structure prediction by ZEFSAII (Michael W. Deem and Ramdas Pophale) SiO2 
 PCOD9139874
Probable space group: C C
;
_chemical_formula_sum "Si O2"
_cell_formula_units_Z 20
_cell_length_a 8.910496
_cell_length_b 11.280996
_cell_length_c 6.731829
_cell_angle_alpha 90.000000
_cell_angle_beta 87.703267
_cell_angle_gamma 90.000000
_cell_volume 676.134947
_symmetry_space_group_name_H-M "C C"
_symmetry_group_IT_number 9
_symmetry_cell_setting 'monoclinic'
loop_
_space_group_symop_operation_xyz
x,y,z
x,-y,1/2+z
1/2+x,1/2+y,z
1/2+x,1/2-y,1/2+z
loop_
_atom_site_type_symbol
_atom_site_label
_atom_site_fract_x
_atom_site_fract_y
_atom_site_fract_z
Si Si1 0.853060 0.025540 0.207580
Si Si2 0.347240 0.144084 0.090296
Si Si3 0.677760 0.584645 0.733812
Si Si4 0.114351 0.486623 0.978446
Si Si5 0.880773 0.270541 0.984150
O O1 0.013317 0.963741 0.231027
O O2 0.809060 0.028458 0.466399
O O3 0.659710 0.008176 0.225151
O O4 0.222442 0.156194 0.928286
O O5 0.364098 0.248405 0.248132
O O6 0.289253 0.027862 0.212880
O O7 0.502553 0.103086 0.983469
O O8 0.723949 0.669032 0.553902
O O9 0.389492 0.659556 0.129276
O O10 0.013340 0.366856 0.995278
#
# Coordination Sequence:
#
# PCOD9139874 Si02
#       5
#     4   4   4   4   4
#     4  12  27  49  81 121 159 209 286 342 407 496
#     4  11  21  50  83 105 166 218 260 333 426 482
#     4  11  23  47  79 114 165 213 266 348 411 493
#     4  11  23  51  77 114 166 213 269 349 408 498
#     4  11  26  53  80 114 160 223 269 334 426 497
#
# _framework density 29.579891
#
# number of rings (size 3 to 8) (size 9 to 14) (size 15 to 20)
#    0.000    0.800    6.000    2.400    0.000    3.200 
#   10.800    4.000    0.000    0.000    0.000    0.000 
#    0.000    0.000    0.000    0.000    0.000    0.000 
#
# Total GULP energy -56040.092055 kJ/mol
# GULP energy per Si atom -5604.009205 kJ/mol
# Density = 2.951257 g / cm^3
# Si number density = 29.579891 Si / 1000 Ang^3
#
#
#
# Elastic Constant Matrix: (Units=GPa)
#
#
# Indices 1 2 3 4 5 6 
#
# 1 253.1110 81.8822 119.6636 0.0000 -23.7653 0.0000
# 2 81.8822 144.6611 86.1708 0.0000 -37.9346 0.0000
# 3 119.6636 86.1708 275.4576 0.0000 -16.0265 0.0000
# 4 0.0000 0.0000 0.0000 54.9177 0.0000 -42.6382
# 5 -23.7653 -37.9346 -16.0265 0.0000 82.0511 0.0000
# 6 0.0000 0.0000 0.0000 -42.6382 0.0000 -37.6919
#
#
#
# Elastic Compliance Matrix: (Units=1/GPa)
#
#
# Indices 1 2 3 4 5 6 
#
# 1 0.005433 -0.001959 -0.001728 0.000000 0.000330 0.000000
# 2 -0.001959 0.010290 -0.002149 0.000000 0.003770 0.000000
# 3 -0.001728 -0.002149 0.005023 0.000000 -0.000513 0.000000
# 4 0.000000 0.000000 0.000000 0.009694 0.000000 -0.010967
# 5 0.000330 0.003770 -0.000513 0.000000 0.013926 0.000000
# 6 0.000000 0.000000 0.000000 -0.010967 0.000000 -0.014125
#
#
# Mechanical properties :
#
#
# Convention : Reuss Voigt Hill
#
# Bulk Modulus (GPa) = 110.19613 138.74032 124.46822
# Shear Modulus (GPa) = 111.26494 45.55626 78.41060
#
# Velocity S-wave (km/s) = 6.13977 3.92868 5.15419
# Velocity P-wave (km/s) = 9.35932 8.22100 8.80857
#
# Compressibility (1/GPa) = 0.00907473
#
# Stress axis : x y z
#
# Youngs Moduli (GPa) = 184.07657 97.17997 199.07311
#
# Poissons Ratio (x) = 0.19038 0.34398
# Poissons Ratio (y) = 0.36062 0.42773
# Poissons Ratio (z) = 0.31807 0.20880
#
# Static dielectric constant tensor:
#      x y z
#    x 2.156740 0.000000 0.018630 
#    y 0.000000 2.191820 0.000000 
#    z 0.018630 0.000000 2.541270 
# 
# From -- ./inp_files/4828.got.cif
#   From: 2010.05.17/outbox.cif.g08.bks.cpg/sg9_3_cif.got.tgz:4828.got - 2010.06.03 20:04:27.
