data_PCOD9139358
_publ_section_title
;
Structure prediction by ZEFSAII (Michael W. Deem and Ramdas Pophale) SiO2 
 PCOD9139358
Probable space group: C C
;
_chemical_formula_sum "Si O2"
_cell_formula_units_Z 28
_cell_length_a 8.948317
_cell_length_b 16.552119
_cell_length_c 12.205233
_cell_angle_alpha 90.000000
_cell_angle_beta 130.515801
_cell_angle_gamma 90.000000
_cell_volume 1374.308490
_symmetry_space_group_name_H-M "C C"
_symmetry_group_IT_number 9
_symmetry_cell_setting 'monoclinic'
loop_
_space_group_symop_operation_xyz
x,y,z
x,-y,1/2+z
1/2+x,1/2+y,z
1/2+x,1/2-y,1/2+z
loop_
_atom_site_type_symbol
_atom_site_label
_atom_site_fract_x
_atom_site_fract_y
_atom_site_fract_z
Si Si1 0.559120 0.319177 0.165610
Si Si2 0.089897 0.787769 0.923781
Si Si3 0.140699 0.650426 0.213775
Si Si4 0.212697 0.443277 0.965136
Si Si5 0.406553 0.086783 0.515267
Si Si6 0.344498 0.922604 0.414170
Si Si7 0.084224 0.602904 0.837487
O O1 0.503709 0.228240 0.170993
O O2 0.700135 0.347773 0.331529
O O3 0.631531 0.302720 0.073950
O O4 0.403093 0.390386 0.082835
O O5 0.105486 0.694946 0.890215
O O6 0.864779 0.818972 0.802774
O O7 0.250192 0.841135 0.936881
O O8 0.135621 0.592127 0.314240
O O9 0.046183 0.604970 0.066892
O O10 0.246717 0.538389 0.956199
O O11 0.057636 0.424130 0.987161
O O12 0.535734 0.097895 0.686502
O O13 0.283742 0.002491 0.449340
O O14 0.393726 0.934933 0.309346
#
# Coordination Sequence:
#
# PCOD9139358 Si02
#       7
#     4   4   4   4   4   4   4
#     4  11  21  42  68  99 121 178 232 259 315 402
#     4  11  22  40  74  94 127 170 233 265 320 396
#     4  11  20  41  71  97 122 176 223 272 314 395
#     4  10  25  41  65  94 139 172 212 270 344 386
#     4  11  24  41  63  97 138 169 208 279 337 384
#     4  11  21  39  67  95 130 165 221 278 312 380
#     4  11  21  42  66  96 129 174 219 273 322 389
#
# _framework density 20.373884
#
# number of rings (size 3 to 8) (size 9 to 14) (size 15 to 20)
#    0.000    1.143    5.714    0.857    0.000    3.429 
#    0.000    0.000    3.143    0.000    0.000    0.000 
#    0.000    0.000    0.000    0.000    0.000    0.000 
#
# Total GULP energy -77935.856292 kJ/mol
# GULP energy per Si atom -5566.846878 kJ/mol
# Density = 2.032751 g / cm^3
# Si number density = 20.373884 Si / 1000 Ang^3
#
#
#
# Elastic Constant Matrix: (Units=GPa)
#
#
# Indices 1 2 3 4 5 6 
#
# 1 56.8843 50.5482 41.0803 0.0000 -12.3921 0.0000
# 2 50.5482 173.2612 55.6493 0.0000 -7.8625 0.0000
# 3 41.0803 55.6493 126.5475 0.0001 -9.6616 0.0001
# 4 0.0000 0.0000 0.0001 38.4590 0.0000 1.1096
# 5 -12.3921 -7.8625 -9.6616 0.0000 19.9457 0.0001
# 6 0.0000 0.0000 0.0001 1.1096 0.0001 27.5557
#
#
#
# Elastic Compliance Matrix: (Units=1/GPa)
#
#
# Indices 1 2 3 4 5 6 
#
# 1 0.030574 -0.006346 -0.006101 0.000000 0.013539 0.000000
# 2 -0.006346 0.008069 -0.001606 0.000000 -0.001540 0.000000
# 3 -0.006101 -0.001606 0.010645 0.000000 0.000733 0.000000
# 4 0.000000 0.000000 0.000000 0.026032 0.000000 -0.001048
# 5 0.013539 -0.001540 0.000733 0.000000 0.058296 0.000000
# 6 0.000000 0.000000 0.000000 -0.001048 0.000000 0.036332
#
#
# Mechanical properties :
#
#
# Convention : Reuss Voigt Hill
#
# Bulk Modulus (GPa) = 47.20886 72.36095 59.78490
# Shear Modulus (GPa) = 24.37682 31.15309 27.76495
#
# Velocity S-wave (km/s) = 3.46276 3.91457 3.69558
# Velocity P-wave (km/s) = 6.26172 7.48502 6.90053
#
# Compressibility (1/GPa) = 0.02118247
#
# Stress axis : x y z
#
# Youngs Moduli (GPa) = 32.70788 123.93228 93.94323
#
# Poissons Ratio (x) = 0.78646 0.57312
# Poissons Ratio (y) = 0.20756 0.15086
# Poissons Ratio (z) = 0.19954 0.19902
#
# Static dielectric constant tensor:
#      x y z
#    x 1.777580 0.000000 0.041610 
#    y 0.000000 1.814150 0.000000 
#    z 0.041610 0.000000 1.759990 
# 
# From -- ./inp_files/11810.got.cif
#   From: 2010.05.17/outbox.cif.g08.bks.cpg/sg9_6_cif.got.tgz:11810.got - 2010.06.03 20:04:27.
