data_PCOD9139653
_publ_section_title
;
Structure prediction by ZEFSAII (Michael W. Deem and Ramdas Pophale) SiO2 
 PCOD9139653
Probable space group: C C
;
_chemical_formula_sum "Si O2"
_cell_formula_units_Z 32
_cell_length_a 7.078001
_cell_length_b 7.223530
_cell_length_c 23.692993
_cell_angle_alpha 90.000000
_cell_angle_beta 111.058862
_cell_angle_gamma 90.000000
_cell_volume 1130.473104
_symmetry_space_group_name_H-M "C C"
_symmetry_group_IT_number 9
_symmetry_cell_setting 'monoclinic'
loop_
_space_group_symop_operation_xyz
x,y,z
x,-y,1/2+z
1/2+x,1/2+y,z
1/2+x,1/2-y,1/2+z
loop_
_atom_site_type_symbol
_atom_site_label
_atom_site_fract_x
_atom_site_fract_y
_atom_site_fract_z
Si Si1 0.788850 0.050203 0.307880
Si Si2 0.330764 0.850912 0.752989
Si Si3 0.364029 0.446534 0.038627
Si Si4 0.389323 0.800982 0.192236
Si Si5 0.780352 0.644791 0.518308
Si Si6 0.641464 0.142993 0.404168
Si Si7 0.208641 0.072271 0.383948
Si Si8 0.482266 0.883659 0.613769
O O1 0.581665 0.154297 0.270399
O O2 0.339520 0.922123 0.243332
O O3 0.690827 0.355202 0.396447
O O4 0.012480 0.138477 0.329535
O O5 0.093341 0.819743 0.706902
O O6 0.768276 0.977320 0.873783
O O7 0.316474 0.641615 0.779236
O O8 0.192900 0.396568 0.974201
O O9 0.237654 0.832540 0.947457
O O10 0.572196 0.411480 0.026266
O O11 0.366232 0.309610 0.091838
O O12 0.392635 0.971826 0.148166
O O13 0.204108 0.667413 0.157472
O O14 0.854615 0.838548 0.550247
O O15 0.943867 0.486876 0.549936
O O16 0.406919 0.097797 0.367339
#
# Coordination Sequence:
#
# PCOD9139653 Si02
#       8
#     4   4   4   4   4   4   4   4
#     4  11  24  53  84 116 160 215 268 337 412 482
#     4  10  26  55  78 116 152 211 276 350 406 472
#     4  12  27  46  77 121 167 213 264 322 403 500
#     4  11  28  51  78 110 154 205 278 349 408 472
#     4  12  27  46  77 121 167 213 264 322 403 500
#     4  12  26  47  77 121 168 213 261 323 403 499
#     4  12  26  47  77 121 168 213 261 323 403 499
#     4  12  28  53  82 116 158 215 270 338 412 482
#
# _framework density 28.306730000000002
#
# number of rings (size 3 to 8) (size 9 to 14) (size 15 to 20)
#    0.000    0.500    5.000    1.500    1.750    3.000 
#    9.000    0.000    0.000    0.000    0.000    0.000 
#    0.000    0.000    0.000    0.000    0.000    0.000 
#
# Total GULP energy -89454.235271 kJ/mol
# GULP energy per Si atom -5590.889704 kJ/mol
# Density = 2.824230 g / cm^3
# Si number density = 28.306730 Si / 1000 Ang^3
#
#
#
# Elastic Constant Matrix: (Units=GPa)
#
#
# Indices 1 2 3 4 5 6 
#
# 1 160.3602 88.2438 39.4410 0.0000 31.6293 0.0000
# 2 88.2438 183.7880 57.5713 0.0000 15.0783 0.0000
# 3 39.4410 57.5713 70.5104 0.0000 25.3869 0.0000
# 4 0.0000 0.0000 0.0000 64.9970 0.0000 5.0867
# 5 31.6293 15.0783 25.3869 0.0000 59.5717 0.0000
# 6 0.0000 0.0000 0.0000 5.0867 0.0000 54.3757
#
#
#
# Elastic Compliance Matrix: (Units=1/GPa)
#
#
# Indices 1 2 3 4 5 6 
#
# 1 0.009296 -0.003960 -0.000650 0.000000 -0.003656 0.000000
# 2 -0.003960 0.009032 -0.006016 0.000000 0.002380 0.000000
# 3 -0.000650 -0.006016 0.022191 0.000000 -0.007589 0.000000
# 4 0.000000 0.000000 0.000000 0.015499 0.000000 -0.001450
# 5 -0.003656 0.002380 -0.007589 0.000000 0.021359 0.000000
# 6 0.000000 0.000000 0.000000 -0.001450 0.000000 0.018526
#
#
# Mechanical properties :
#
#
# Convention : Reuss Voigt Hill
#
# Bulk Modulus (GPa) = 51.90640 87.24119 69.57380
# Shear Modulus (GPa) = 40.46057 51.08238 45.77148
#
# Velocity S-wave (km/s) = 3.78479 4.25267 4.02553
# Velocity P-wave (km/s) = 6.12180 7.41623 6.79989
#
# Compressibility (1/GPa) = 0.01926545
#
# Stress axis : x y z
#
# Youngs Moduli (GPa) = 107.57267 110.72265 45.06407
#
# Poissons Ratio (x) = 0.43843 0.02931
# Poissons Ratio (y) = 0.42595 0.27112
# Poissons Ratio (z) = 0.06996 0.66614
#
# Static dielectric constant tensor:
#      x y z
#    x 2.282620 0.000000 -0.149520 
#    y 0.000000 2.112080 0.000000 
#    z -0.149520 0.000000 2.527530 
# 
# From -- ./inp_files/37142.got.cif
#   From: 2010.05.17/outbox.cif.g08.bks.cpg/sg9_19_cif.got.tgz:37142.got - 2010.06.03 20:04:27.
