data_PCOD9139951
_publ_section_title
;
Structure prediction by ZEFSAII (Michael W. Deem and Ramdas Pophale) SiO2 
 PCOD9139951
Probable space group: C C
;
_chemical_formula_sum "Si O2"
_cell_formula_units_Z 20
_cell_length_a 12.450205
_cell_length_b 12.144850
_cell_length_c 8.069794
_cell_angle_alpha 90.000000
_cell_angle_beta 143.633758
_cell_angle_gamma 90.000000
_cell_volume 723.511082
_symmetry_space_group_name_H-M "C C"
_symmetry_group_IT_number 9
_symmetry_cell_setting 'monoclinic'
loop_
_space_group_symop_operation_xyz
x,y,z
x,-y,1/2+z
1/2+x,1/2+y,z
1/2+x,1/2-y,1/2+z
loop_
_atom_site_type_symbol
_atom_site_label
_atom_site_fract_x
_atom_site_fract_y
_atom_site_fract_z
Si Si1 0.612650 0.915219 0.759110
Si Si2 0.961998 0.816392 0.021023
Si Si3 0.731525 0.856502 0.420795
Si Si4 0.059925 0.142939 0.117166
Si Si5 0.230761 0.964634 0.147684
O O1 0.806980 0.877733 0.929985
O O2 0.527834 0.794546 0.693836
O O3 0.443398 0.962411 0.441316
O O4 0.663920 0.029426 0.913983
O O5 0.854425 0.795345 0.711849
O O6 0.127914 0.888699 0.156854
O O7 0.583171 0.772499 0.170508
O O8 0.855795 0.882609 0.415775
O O9 0.180328 0.085725 0.409449
O O10 0.138364 0.084763 0.052795
#
# Coordination Sequence:
#
# PCOD9139951 Si02
#       5
#     4   4   4   4   4
#     4  12  22  40  73 100 138 192 239 293 366 427
#     4  11  22  43  64 105 138 187 236 303 356 432
#     4  11  23  41  75 101 144 191 245 293 365 436
#     4  11  23  45  69 108 143 190 245 300 364 436
#     4  11  24  41  73 100 147 188 241 299 363 429
#
# _framework density 27.642977999999999
#
# number of rings (size 3 to 8) (size 9 to 14) (size 15 to 20)
#    0.000    0.800    6.000    2.400    2.800    0.000 
#    0.000    2.000    8.800    0.000    0.000    0.000 
#    0.000    0.000    0.000    0.000    0.000    0.000 
#
# Total GULP energy -55937.032830 kJ/mol
# GULP energy per Si atom -5593.703283 kJ/mol
# Density = 2.758006 g / cm^3
# Si number density = 27.642978 Si / 1000 Ang^3
#
#
#
# Elastic Constant Matrix: (Units=GPa)
#
#
# Indices 1 2 3 4 5 6 
#
# 1 88.3350 23.9053 47.3721 0.0000 15.9859 0.0000
# 2 23.9053 216.9058 51.6290 0.0000 7.6469 0.0000
# 3 47.3721 51.6290 118.8084 0.0000 30.6698 0.0000
# 4 0.0000 0.0000 0.0000 44.1339 0.0000 1.7466
# 5 15.9859 7.6469 30.6698 0.0000 43.7495 0.0000
# 6 0.0000 0.0000 0.0000 1.7466 0.0000 13.9363
#
#
#
# Elastic Compliance Matrix: (Units=1/GPa)
#
#
# Indices 1 2 3 4 5 6 
#
# 1 0.014498 -0.000293 -0.005249 0.000000 -0.001567 0.000000
# 2 -0.000293 0.005172 -0.002350 0.000000 0.000851 0.000000
# 3 -0.005249 -0.002350 0.013345 0.000000 -0.007027 0.000000
# 4 0.000000 0.000000 0.000000 0.022771 0.000000 -0.002854
# 5 -0.001567 0.000851 -0.007027 0.000000 0.028207 0.000000
# 6 0.000000 0.000000 0.000000 -0.002854 0.000000 0.072113
#
#
# Mechanical properties :
#
#
# Convention : Reuss Voigt Hill
#
# Bulk Modulus (GPa) = 58.03696 74.42911 66.23304
# Shear Modulus (GPa) = 28.14766 40.44014 34.29390
#
# Velocity S-wave (km/s) = 3.19448 3.82899 3.52604
# Velocity P-wave (km/s) = 5.88617 6.82143 6.37098
#
# Compressibility (1/GPa) = 0.01723040
#
# Stress axis : x y z
#
# Youngs Moduli (GPa) = 68.97334 193.34749 74.93439
#
# Poissons Ratio (x) = 0.05670 0.39333
# Poissons Ratio (y) = 0.02023 0.17611
# Poissons Ratio (z) = 0.36204 0.45441
#
# Static dielectric constant tensor:
#      x y z
#    x 2.192570 0.000000 -0.087270 
#    y 0.000000 2.188540 0.000000 
#    z -0.087270 0.000000 2.104000 
# 
# From -- ./inp_files/4807.got.cif
#   From: 2010.05.17/outbox.cif.g08.bks.cpg/sg9_3_cif.got.tgz:4807.got - 2010.06.03 20:04:27.
