data_PCOD9139562
_publ_section_title
;
Structure prediction by ZEFSAII (Michael W. Deem and Ramdas Pophale) SiO2 
 PCOD9139562
Probable space group: C C
;
_chemical_formula_sum "Si O2"
_cell_formula_units_Z 24
_cell_length_a 19.035065
_cell_length_b 5.298658
_cell_length_c 13.773882
_cell_angle_alpha 90.000000
_cell_angle_beta 44.640864
_cell_angle_gamma 90.000000
_cell_volume 976.162848
_symmetry_space_group_name_H-M "C C"
_symmetry_group_IT_number 9
_symmetry_cell_setting 'monoclinic'
loop_
_space_group_symop_operation_xyz
x,y,z
x,-y,1/2+z
1/2+x,1/2+y,z
1/2+x,1/2-y,1/2+z
loop_
_atom_site_type_symbol
_atom_site_label
_atom_site_fract_x
_atom_site_fract_y
_atom_site_fract_z
Si Si1 0.958900 0.517551 0.869150
Si Si2 0.244088 0.833675 0.617674
Si Si3 0.400363 0.796188 0.734576
Si Si4 0.703213 0.469111 0.344526
Si Si5 0.172808 0.335198 0.695770
Si Si6 0.502540 0.292228 0.636645
O O1 0.916680 0.312211 0.834381
O O2 0.056024 0.396406 0.821564
O O3 0.994036 0.738814 0.760533
O O4 0.861370 0.616229 0.021015
O O5 0.224779 0.566181 0.589907
O O6 0.184431 0.822171 0.778776
O O7 0.194232 0.075943 0.617738
O O8 0.424841 0.511127 0.681242
O O9 0.295201 0.920670 0.812423
O O10 0.477815 0.012198 0.620170
O O11 0.723032 0.235136 0.250285
O O12 0.608812 0.392862 0.499157
#
# Coordination Sequence:
#
# PCOD9139562 Si02
#       6
#     4   4   4   4   4   4
#     4  10  26  43  70 101 143 179 231 290 360 412
#     4  10  26  40  71  98 139 180 235 288 349 424
#     4  10  26  42  70 100 136 182 230 291 347 428
#     4  10  26  45  72 100 140 186 239 286 356 420
#     4  10  26  43  69 100 137 184 231 290 347 426
#     4  10  26  41  70  99 139 179 232 291 351 422
#
# _framework density 24.58606
#
# number of rings (size 3 to 8) (size 9 to 14) (size 15 to 20)
#    2.000    0.000    0.000    0.000   14.000    0.000 
#    0.000    0.000    0.000    0.000    0.000    0.000 
#    0.000    0.000    0.000    0.000    0.000    0.000 
#
# Total GULP energy -66838.386163 kJ/mol
# GULP energy per Si atom -5569.865514 kJ/mol
# Density = 2.453010 g / cm^3
# Si number density = 24.586060 Si / 1000 Ang^3
#
#
#
# Elastic Constant Matrix: (Units=GPa)
#
#
# Indices 1 2 3 4 5 6 
#
# 1 65.1369 22.2045 16.0523 0.0122 -13.6424 -0.0075
# 2 22.2045 155.1679 19.7090 0.0280 -9.2089 -0.0299
# 3 16.0523 19.7090 104.8846 0.0564 3.3001 -0.0486
# 4 0.0122 0.0280 0.0564 23.4658 -0.0345 -8.9450
# 5 -13.6424 -9.2089 3.3001 -0.0345 29.4486 0.0266
# 6 -0.0075 -0.0299 -0.0486 -8.9450 0.0266 27.7929
#
#
#
# Elastic Compliance Matrix: (Units=1/GPa)
#
#
# Indices 1 2 3 4 5 6 
#
# 1 0.018365 -0.001791 -0.002734 0.000009 0.008254 -0.000007
# 2 -0.001791 0.006924 -0.001073 -0.000001 0.001456 0.000003
# 3 -0.002734 -0.001073 0.010241 -0.000021 -0.002750 0.000012
# 4 0.000009 -0.000001 -0.000021 0.048575 0.000049 0.015633
# 5 0.008254 0.001456 -0.002750 0.000049 0.038545 -0.000022
# 6 -0.000007 0.000003 0.000012 0.015633 -0.000022 0.041012
#
#
# Mechanical properties :
#
#
# Convention : Reuss Voigt Hill
#
# Bulk Modulus (GPa) = 41.09391 49.01345 45.05368
# Shear Modulus (GPa) = 27.32720 33.95637 30.64179
#
# Velocity S-wave (km/s) = 3.33752 3.72038 3.53414
# Velocity P-wave (km/s) = 5.62162 6.19949 5.91762
#
# Compressibility (1/GPa) = 0.02433451
#
# Stress axis : x y z
#
# Youngs Moduli (GPa) = 54.45042 144.43450 97.64845
#
# Poissons Ratio (x) = 0.25867 0.26697
# Poissons Ratio (y) = 0.09752 0.10475
# Poissons Ratio (z) = 0.14886 0.15494
#
# Static dielectric constant tensor:
#      x y z
#    x 1.990040 -0.000010 0.030210 
#    y -0.000010 2.049690 0.000010 
#    z 0.030210 0.000010 1.944910 
# 
# From -- ./inp_files/34401.got.cif
#   From: 2010.05.17/outbox.cif.g08.bks.cpg/sg9_18_cif.got.tgz:34401.got - 2010.06.03 20:04:27.
