data_PCOD9139728
_publ_section_title
;
Structure prediction by ZEFSAII (Michael W. Deem and Ramdas Pophale) SiO2 
 PCOD9139728
Probable space group: C C
;
_chemical_formula_sum "Si O2"
_cell_formula_units_Z 28
_cell_length_a 14.880331
_cell_length_b 11.383623
_cell_length_c 12.744809
_cell_angle_alpha 90.000000
_cell_angle_beta 30.839141
_cell_angle_gamma 90.000000
_cell_volume 1106.700361
_symmetry_space_group_name_H-M "C C"
_symmetry_group_IT_number 9
_symmetry_cell_setting 'monoclinic'
loop_
_space_group_symop_operation_xyz
x,y,z
x,-y,1/2+z
1/2+x,1/2+y,z
1/2+x,1/2-y,1/2+z
loop_
_atom_site_type_symbol
_atom_site_label
_atom_site_fract_x
_atom_site_fract_y
_atom_site_fract_z
Si Si1 0.720190 0.416109 0.777710
Si Si2 0.323419 0.873208 0.912346
Si Si3 0.836240 0.040765 0.657943
Si Si4 0.460640 0.339298 0.383637
Si Si5 0.875834 0.337525 0.152215
Si Si6 0.024818 0.583364 0.832010
Si Si7 0.710348 0.873137 0.941154
O O1 0.793729 0.387229 0.818757
O O2 0.744058 0.559749 0.751164
O O3 0.840448 0.370388 0.562144
O O4 0.515563 0.386765 0.972372
O O5 0.368879 0.736758 0.886000
O O6 0.461103 0.962700 0.832323
O O7 0.136924 0.888178 0.156863
O O8 0.833348 0.977536 0.775176
O O9 0.856341 0.941262 0.546405
O O10 0.649247 0.089593 0.810621
O O11 0.465038 0.238731 0.470412
O O12 0.787100 0.247481 0.320333
O O13 0.034080 0.396486 0.053447
O O14 0.149036 0.640183 0.620461
#
# Coordination Sequence:
#
# PCOD9139728 Si02
#       7
#     4   4   4   4   4   4   4
#     4  12  25  44  71 104 142 178 233 298 355 413
#     4  12  23  42  72 104 142 180 239 298 356 417
#     4  11  23  41  71 104 136 181 240 285 349 425
#     4  11  21  40  72 101 131 185 230 286 342 425
#     4  11  20  42  67 103 129 175 230 290 339 414
#     4  12  23  44  65 101 139 184 221 300 347 426
#     4  11  23  39  70 101 137 173 239 289 348 412
#
# _framework density 25.300435
#
# number of rings (size 3 to 8) (size 9 to 14) (size 15 to 20)
#    0.000    0.571    5.714    4.286    2.000    0.000 
#    5.143    1.429    0.000    0.000    0.000    0.000 
#    0.000    0.000    0.000    0.000    0.000    0.000 
#
# Total GULP energy -78207.851099 kJ/mol
# GULP energy per Si atom -5586.275079 kJ/mol
# Density = 2.524285 g / cm^3
# Si number density = 25.300435 Si / 1000 Ang^3
#
#
#
# Elastic Constant Matrix: (Units=GPa)
#
#
# Indices 1 2 3 4 5 6 
#
# 1 81.5717 11.6493 38.4782 0.0000 12.2242 0.0000
# 2 11.6493 40.2948 26.0758 0.0000 12.4049 0.0000
# 3 38.4782 26.0758 164.3519 0.0000 25.2482 0.0000
# 4 0.0000 0.0000 0.0000 24.5500 0.0000 1.9951
# 5 12.2242 12.4049 25.2482 0.0000 55.0464 0.0000
# 6 0.0000 0.0000 0.0000 1.9951 0.0000 19.2377
#
#
#
# Elastic Compliance Matrix: (Units=1/GPa)
#
#
# Indices 1 2 3 4 5 6 
#
# 1 0.014045 -0.001821 -0.002779 0.000000 -0.001434 0.000000
# 2 -0.001821 0.028989 -0.003477 0.000000 -0.004534 0.000000
# 3 -0.002779 -0.003477 0.007608 0.000000 -0.002089 0.000000
# 4 0.000000 0.000000 0.000000 0.041079 0.000000 -0.004260
# 5 -0.001434 -0.004534 -0.002089 0.000000 0.020465 0.000000
# 6 0.000000 0.000000 0.000000 -0.004260 0.000000 0.052423
#
#
# Mechanical properties :
#
#
# Convention : Reuss Voigt Hill
#
# Bulk Modulus (GPa) = 28.99466 48.73611 38.86538
# Shear Modulus (GPa) = 26.00676 33.76781 29.88729
#
# Velocity S-wave (km/s) = 3.20959 3.65728 3.44073
# Velocity P-wave (km/s) = 5.02199 6.09418 5.58388
#
# Compressibility (1/GPa) = 0.03448911
#
# Stress axis : x y z
#
# Youngs Moduli (GPa) = 71.19986 34.49589 131.44703
#
# Poissons Ratio (x) = 0.06280 0.36530
# Poissons Ratio (y) = 0.12962 0.45699
# Poissons Ratio (z) = 0.19787 0.11993
#
# Static dielectric constant tensor:
#      x y z
#    x 2.090600 0.000000 0.026580 
#    y 0.000000 2.113690 0.000000 
#    z 0.026580 0.000000 2.057800 
# 
# From -- ./inp_files/18423.got.cif
#   From: 2010.05.17/outbox.cif.g08.bks.cpg/sg9_10_cif.got.tgz:18423.got - 2010.06.03 20:04:27.
