data_PCOD9139910
_publ_section_title
;
Structure prediction by ZEFSAII (Michael W. Deem and Ramdas Pophale) SiO2 
 PCOD9139910
Probable space group: C C
;
_chemical_formula_sum "Si O2"
_cell_formula_units_Z 28
_cell_length_a 10.358517
_cell_length_b 10.091473
_cell_length_c 15.142304
_cell_angle_alpha 90.000000
_cell_angle_beta 125.684691
_cell_angle_gamma 90.000000
_cell_volume 1285.666025
_symmetry_space_group_name_H-M "C C"
_symmetry_group_IT_number 9
_symmetry_cell_setting 'monoclinic'
loop_
_space_group_symop_operation_xyz
x,y,z
x,-y,1/2+z
1/2+x,1/2+y,z
1/2+x,1/2-y,1/2+z
loop_
_atom_site_type_symbol
_atom_site_label
_atom_site_fract_x
_atom_site_fract_y
_atom_site_fract_z
Si Si1 0.090260 0.892911 0.127750
Si Si2 0.035332 0.407406 0.577930
Si Si3 0.854265 0.532768 0.349216
Si Si4 0.584624 0.721873 0.306187
Si Si5 0.585440 0.963988 0.790372
Si Si6 0.449307 0.440715 0.898887
Si Si7 0.374457 0.490733 0.186519
O O1 0.097522 0.742441 0.099356
O O2 0.243331 0.945430 0.239885
O O3 0.939876 0.959959 0.311333
O O4 0.043965 0.978931 0.023650
O O5 0.991985 0.429458 0.663208
O O6 0.187093 0.500398 0.617897
O O7 0.907047 0.445653 0.454041
O O8 0.748131 0.652490 0.343584
O O9 0.999420 0.579276 0.345586
O O10 0.592486 0.876638 0.296720
O O11 0.534912 0.684157 0.386205
O O12 0.449521 0.638223 0.199336
O O13 0.766131 0.911844 0.851458
O O14 0.446463 0.400811 0.140378
#
# Coordination Sequence:
#
# PCOD9139910 Si02
#       7
#     4   4   4   4   4   4   4
#     4  11  22  40  71  90 135 173 213 274 323 382
#     4  11  24  40  67  99 129 171 221 268 321 392
#     4  11  25  42  64 105 125 170 227 260 326 389
#     4   9  21  45  63  95 136 158 219 271 312 392
#     4  11  23  42  70  94 125 176 215 264 333 380
#     4   9  21  41  66  93 127 177 209 262 334 378
#     4   8  20  42  63  96 127 169 218 259 331 383
#
# _framework density 21.778594999999999
#
# number of rings (size 3 to 8) (size 9 to 14) (size 15 to 20)
#    0.857    1.143    0.000    2.571    6.000    2.286 
#    7.714    0.000    0.000    0.000    0.000    0.000 
#    0.000    0.000    0.000    0.000    0.000    0.000 
#
# Total GULP energy -78102.806922 kJ/mol
# GULP energy per Si atom -5578.771923 kJ/mol
# Density = 2.172903 g / cm^3
# Si number density = 21.778595 Si / 1000 Ang^3
#
#
#
# Elastic Constant Matrix: (Units=GPa)
#
#
# Indices 1 2 3 4 5 6 
#
# 1 103.6867 42.7018 13.7227 0.0000 -17.8372 0.0000
# 2 42.7018 42.2504 26.5528 0.0000 -2.0307 0.0000
# 3 13.7227 26.5528 147.3767 0.0000 -16.1279 0.0000
# 4 0.0000 0.0000 0.0000 14.0964 0.0000 -9.3391
# 5 -17.8372 -2.0307 -16.1279 0.0000 21.1858 0.0000
# 6 0.0000 0.0000 0.0000 -9.3391 0.0000 16.2663
#
#
#
# Elastic Compliance Matrix: (Units=1/GPa)
#
#
# Indices 1 2 3 4 5 6 
#
# 1 0.022815 -0.024972 0.004598 0.000000 0.020316 0.000000
# 2 -0.024972 0.054052 -0.009978 0.000000 -0.023440 0.000000
# 3 0.004598 -0.009978 0.009244 0.000000 0.009952 0.000000
# 4 0.000000 0.000000 0.000000 0.114489 0.000000 0.065732
# 5 0.020316 -0.023440 0.009952 0.000000 0.069635 0.000000
# 6 0.000000 0.000000 0.000000 0.065732 0.000000 0.099216
#
#
# Mechanical properties :
#
#
# Convention : Reuss Voigt Hill
#
# Bulk Modulus (GPa) = 39.36076 51.02981 45.19528
# Shear Modulus (GPa) = 11.39923 24.33214 17.86569
#
# Velocity S-wave (km/s) = 2.29031 3.34616 2.86725
# Velocity P-wave (km/s) = 5.01063 6.19767 5.63549
#
# Compressibility (1/GPa) = 0.02540602
#
# Stress axis : x y z
#
# Youngs Moduli (GPa) = 43.83022 18.50069 108.17728
#
# Poissons Ratio (x) = 0.46201 -0.49741
# Poissons Ratio (y) = 1.09454 1.07944
# Poissons Ratio (z) = -0.20153 0.18461
#
# Static dielectric constant tensor:
#      x y z
#    x 1.821820 0.000000 -0.005180 
#    y 0.000000 1.777660 0.000000 
#    z -0.005180 0.000000 1.826360 
# 
# From -- ./inp_files/22931.got.cif
#   From: 2010.05.17/outbox.cif.g08.bks.cpg/sg9_12_cif.got.tgz:22931.got - 2010.06.03 20:04:27.
