data_PCOD9139545
_publ_section_title
;
Structure prediction by ZEFSAII (Michael W. Deem and Ramdas Pophale) SiO2 
 PCOD9139545
Probable space group: C C
;
_chemical_formula_sum "Si O2"
_cell_formula_units_Z 28
_cell_length_a 18.328258
_cell_length_b 4.877076
_cell_length_c 12.794009
_cell_angle_alpha 90.000000
_cell_angle_beta 120.546330
_cell_angle_gamma 90.000000
_cell_volume 984.919427
_symmetry_space_group_name_H-M "C C"
_symmetry_group_IT_number 9
_symmetry_cell_setting 'monoclinic'
loop_
_space_group_symop_operation_xyz
x,y,z
x,-y,1/2+z
1/2+x,1/2+y,z
1/2+x,1/2-y,1/2+z
loop_
_atom_site_type_symbol
_atom_site_label
_atom_site_fract_x
_atom_site_fract_y
_atom_site_fract_z
Si Si1 0.080360 0.322937 0.130550
Si Si2 0.691043 0.164154 0.343042
Si Si3 0.605199 0.528031 0.441194
Si Si4 0.478293 0.320988 0.112813
Si Si5 0.941706 0.586057 0.777321
Si Si6 0.338633 0.951334 0.392180
Si Si7 0.784482 0.191228 0.050349
O O1 0.157725 0.385174 0.266007
O O2 0.026041 0.237119 0.366358
O O3 0.047297 0.633726 0.102307
O O4 0.094502 0.182338 0.029854
O O5 0.752252 0.100780 0.486042
O O6 0.619271 0.345685 0.345850
O O7 0.747373 0.322413 0.299617
O O8 0.695280 0.679438 0.522214
O O9 0.509929 0.631367 0.133545
O O10 0.458017 0.148118 0.202568
O O11 0.397096 0.291069 0.980049
O O12 0.896827 0.434295 0.842679
O O13 0.864280 0.785357 0.684518
O O14 0.317684 0.155022 0.470688
#
# Coordination Sequence:
#
# PCOD9139545 Si02
#       7
#     4   4   4   4   4   4   4
#     4  12  29  51  85 119 176 226 289 362 443 523
#     4  11  28  49  81 123 173 224 295 361 438 527
#     4  11  27  53  84 129 173 237 294 361 450 527
#     4  11  28  51  80 127 164 222 290 367 428 525
#     4  11  25  52  89 121 175 228 294 361 442 532
#     4  10  25  51  77 121 169 217 291 357 441 517
#     4  10  26  49  80 124 170 226 289 371 430 529
#
# _framework density 28.428722
#
# number of rings (size 3 to 8) (size 9 to 14) (size 15 to 20)
#    0.000    1.143    1.429    0.857   16.000    1.143 
#    2.571    0.000    0.000    0.000    0.000    0.000 
#    0.000    0.000    0.000    0.000    0.000    0.000 
#
# Total GULP energy -78462.677765 kJ/mol
# GULP energy per Si atom -5604.476983 kJ/mol
# Density = 2.836402 g / cm^3
# Si number density = 28.428722 Si / 1000 Ang^3
#
#
#
# Elastic Constant Matrix: (Units=GPa)
#
#
# Indices 1 2 3 4 5 6 
#
# 1 204.1505 45.4927 72.8594 0.0000 -6.0264 0.0000
# 2 45.4927 110.8324 28.4830 -0.0001 1.6340 0.0002
# 3 72.8594 28.4830 128.4454 0.0000 -7.3197 0.0000
# 4 0.0000 -0.0001 0.0000 44.5351 0.0000 11.1982
# 5 -6.0264 1.6340 -7.3197 0.0000 61.3242 0.0000
# 6 0.0000 0.0002 0.0000 11.1982 0.0000 61.3025
#
#
#
# Elastic Compliance Matrix: (Units=1/GPa)
#
#
# Indices 1 2 3 4 5 6 
#
# 1 0.006474 -0.001826 -0.003250 0.000000 0.000297 0.000000
# 2 -0.001826 0.010099 -0.001237 0.000000 -0.000596 0.000000
# 3 -0.003250 -0.001237 0.009955 0.000000 0.000902 0.000000
# 4 0.000000 0.000000 0.000000 0.023535 0.000000 -0.004299
# 5 0.000297 -0.000596 0.000902 0.000000 0.016459 0.000000
# 6 0.000000 0.000000 0.000000 -0.004299 0.000000 0.017098
#
#
# Mechanical properties :
#
#
# Convention : Reuss Voigt Hill
#
# Bulk Modulus (GPa) = 71.94467 81.89983 76.92225
# Shear Modulus (GPa) = 49.56244 53.20524 51.38384
#
# Velocity S-wave (km/s) = 4.17993 4.33081 4.25604
# Velocity P-wave (km/s) = 6.97551 7.34025 7.16020
#
# Compressibility (1/GPa) = 0.01389957
#
# Stress axis : x y z
#
# Youngs Moduli (GPa) = 154.45964 99.01848 100.45188
#
# Poissons Ratio (x) = 0.18085 0.32652
# Poissons Ratio (y) = 0.28211 0.12430
# Poissons Ratio (z) = 0.50207 0.12253
#
# Static dielectric constant tensor:
#      x y z
#    x 2.294790 0.000000 0.047910 
#    y 0.000000 2.153180 0.000000 
#    z 0.047910 0.000000 2.380860 
# 
# From -- ./inp_files/19835.got.cif
#   From: 2010.05.17/outbox.cif.g08.bks.cpg/sg9_10_cif.got.tgz:19835.got - 2010.06.03 20:04:27.
