data_PCOD9139064
_publ_section_title
;
Structure prediction by ZEFSAII (Michael W. Deem and Ramdas Pophale) SiO2 
 PCOD9139064
Probable space group: C C
;
_chemical_formula_sum "Si O2"
_cell_formula_units_Z 32
_cell_length_a 5.171100
_cell_length_b 27.996587
_cell_length_c 9.755287
_cell_angle_alpha 90.000000
_cell_angle_beta 124.250519
_cell_angle_gamma 90.000000
_cell_volume 1167.388510
_symmetry_space_group_name_H-M "C C"
_symmetry_group_IT_number 9
_symmetry_cell_setting 'monoclinic'
loop_
_space_group_symop_operation_xyz
x,y,z
x,-y,1/2+z
1/2+x,1/2+y,z
1/2+x,1/2-y,1/2+z
loop_
_atom_site_type_symbol
_atom_site_label
_atom_site_fract_x
_atom_site_fract_y
_atom_site_fract_z
Si Si1 0.826370 0.939946 0.935650
Si Si2 0.719710 0.352817 0.085418
Si Si3 0.146636 0.587013 0.075670
Si Si4 0.699124 0.738367 0.113892
Si Si5 0.815273 0.810942 0.730459
Si Si6 0.936868 0.512300 0.539533
Si Si7 0.318967 0.582087 0.815103
Si Si8 0.553627 0.679622 0.799224
O O1 0.794336 0.929752 0.765015
O O2 0.924844 0.888959 0.028942
O O3 0.525426 0.961976 0.921209
O O4 0.133175 0.972741 0.034589
O O5 0.779864 0.320027 0.235566
O O6 0.007588 0.388751 0.168965
O O7 0.594332 0.326731 0.914040
O O8 0.891953 0.543909 0.994829
O O9 0.162680 0.643459 0.109093
O O10 0.310736 0.579576 0.977577
O O11 0.458764 0.721839 0.156298
O O12 0.749104 0.795156 0.138870
O O13 0.043314 0.714652 0.233967
O O14 0.603879 0.713377 0.943775
O O15 0.238276 0.531539 0.718033
O O16 0.560819 0.624436 0.849528
#
# Coordination Sequence:
#
# PCOD9139064 Si02
#       8
#     4   4   4   4   4   4   4   4
#     4  10  24  44  68 104 143 191 239 297 359 427
#     4  10  24  44  74  99 151 190 238 299 368 432
#     4  11  24  46  74 106 149 193 249 300 369 440
#     4  12  29  47  76 110 144 193 249 305 371 441
#     4  11  27  49  73 109 146 195 246 306 366 441
#     4  11  24  46  71 106 144 194 242 297 365 433
#     4  11  24  47  73 109 149 192 242 308 365 437
#     4  12  26  47  75 107 146 192 243 306 369 441
#
# _framework density 27.411611000000001
#
# number of rings (size 3 to 8) (size 9 to 14) (size 15 to 20)
#    0.000    1.000    2.500    2.250    5.250    7.000 
#    6.750    0.000    0.000    0.000    0.000    0.000 
#    0.000    0.000    0.000    0.000    0.000    0.000 
#
# Total GULP energy -89398.170515 kJ/mol
# GULP energy per Si atom -5587.385657 kJ/mol
# Density = 2.734922 g / cm^3
# Si number density = 27.411611 Si / 1000 Ang^3
#
#
#
# Elastic Constant Matrix: (Units=GPa)
#
#
# Indices 1 2 3 4 5 6 
#
# 1 59.8389 13.5463 -2.9867 0.0000 -20.9464 0.0000
# 2 13.5463 174.6162 9.0164 0.0000 -32.8222 0.0000
# 3 -2.9867 9.0164 109.5487 0.0000 -40.0168 0.0000
# 4 0.0000 0.0000 0.0000 -27.9461 0.0000 26.8558
# 5 -20.9464 -32.8222 -40.0168 0.0000 41.3475 0.0000
# 6 0.0000 0.0000 0.0000 26.8558 0.0000 26.8344
#
#
#
# Elastic Compliance Matrix: (Units=1/GPa)
#
#
# Indices 1 2 3 4 5 6 
#
# 1 0.024510 0.001831 0.008638 0.000000 0.022230 0.000000
# 2 0.001831 0.007216 0.002919 0.000000 0.009481 0.000000
# 3 0.008638 0.002919 0.017895 0.000000 0.024012 0.000000
# 4 0.000000 0.000000 0.000000 -0.018240 0.000000 0.018255
# 5 0.022230 0.009481 0.024012 0.000000 0.066213 0.000000
# 6 0.000000 0.000000 0.000000 0.018255 0.000000 0.018996
#
#
# Mechanical properties :
#
#
# Convention : Reuss Voigt Hill
#
# Bulk Modulus (GPa) = 13.08947 42.57286 27.83116
# Shear Modulus (GPa) = 43.37317 29.67568 36.52442
#
# Velocity S-wave (km/s) = 3.98212 3.29385 3.65423
# Velocity P-wave (km/s) = 5.09201 5.48002 5.28957
#
# Compressibility (1/GPa) = 0.07639731
#
# Stress axis : x y z
#
# Youngs Moduli (GPa) = 40.80047 138.57580 55.88143
#
# Poissons Ratio (x) = -0.25374 -0.48269
# Poissons Ratio (y) = -0.07471 -0.16314
# Poissons Ratio (z) = -0.35242 -0.40457
#
# Static dielectric constant tensor:
#      x y z
#    x 2.292670 0.000000 0.206410 
#    y 0.000000 2.262990 0.000000 
#    z 0.206410 0.000000 2.281960 
# 
# From -- ./inp_files/4554.got.cif
#   From: 2010.05.17/outbox.cif.g08.bks.cpg/sg9_3_cif.got.tgz:4554.got - 2010.06.03 20:04:27.
