data_PCOD9139833
_publ_section_title
;
Structure prediction by ZEFSAII (Michael W. Deem and Ramdas Pophale) SiO2 
 PCOD9139833
Probable space group: C C
;
_chemical_formula_sum "Si O2"
_cell_formula_units_Z 32
_cell_length_a 13.941411
_cell_length_b 18.150677
_cell_length_c 8.401954
_cell_angle_alpha 90.000000
_cell_angle_beta 137.379419
_cell_angle_gamma 90.000000
_cell_volume 1439.655377
_symmetry_space_group_name_H-M "C C"
_symmetry_group_IT_number 9
_symmetry_cell_setting 'monoclinic'
loop_
_space_group_symop_operation_xyz
x,y,z
x,-y,1/2+z
1/2+x,1/2+y,z
1/2+x,1/2-y,1/2+z
loop_
_atom_site_type_symbol
_atom_site_label
_atom_site_fract_x
_atom_site_fract_y
_atom_site_fract_z
Si Si1 0.410120 0.273222 0.757600
Si Si2 0.666576 0.679194 0.351140
Si Si3 0.279143 0.427410 0.518262
Si Si4 0.150600 0.901540 0.309263
Si Si5 0.465437 0.683055 0.804791
Si Si6 0.699441 0.082217 0.566245
Si Si7 0.437904 0.174340 0.106729
Si Si8 0.593142 0.536498 0.408160
O O1 0.560457 0.291211 0.860402
O O2 0.308814 0.225550 0.519028
O O3 0.321903 0.351236 0.662991
O O4 0.435624 0.219972 0.939001
O O5 0.687832 0.595029 0.429151
O O6 0.577079 0.683578 0.082658
O O7 0.210798 0.495476 0.532129
O O8 0.192370 0.411049 0.250235
O O9 0.433115 0.457189 0.648462
O O10 0.050152 0.837432 0.247896
O O11 0.302434 0.877240 0.438634
O O12 0.082339 0.943540 0.078717
O O13 0.156710 0.956906 0.463263
O O14 0.343436 0.624166 0.689885
O O15 0.408547 0.764692 0.706979
O O16 0.574515 0.126327 0.322669
#
# Coordination Sequence:
#
# PCOD9139833 Si02
#       8
#     4   4   4   4   4   4   4   4
#     4  11  25  48  72 106 141 192 246 297 368 437
#     4  11  24  45  73 101 138 181 242 302 356 430
#     4  11  24  45  75 104 140 192 243 299 359 441
#     4  12  25  44  72 102 144 186 242 294 360 429
#     4  12  24  44  73 100 140 190 245 296 353 441
#     4  12  26  46  70 109 147 187 246 299 369 433
#     4  12  29  44  67 109 150 190 233 302 373 426
#     4  11  21  44  70 103 130 188 243 287 350 431
#
# _framework density 22.227542
#
# number of rings (size 3 to 8) (size 9 to 14) (size 15 to 20)
#    0.000    0.500    5.000    4.500    5.250    1.000 
#    2.250    0.000    0.000    0.000    0.000    0.000 
#    0.000    0.000    0.000    0.000    0.000    0.000 
#
# Total GULP energy -89438.389252 kJ/mol
# GULP energy per Si atom -5589.899328 kJ/mol
# Density = 2.217695 g / cm^3
# Si number density = 22.227542 Si / 1000 Ang^3
#
#
#
# Elastic Constant Matrix: (Units=GPa)
#
#
# Indices 1 2 3 4 5 6 
#
# 1 28.8677 3.6551 27.9737 0.0000 -7.6208 0.0000
# 2 3.6551 84.4935 38.7075 0.0000 4.7514 0.0000
# 3 27.9737 38.7075 110.3849 0.0000 -12.0775 0.0000
# 4 0.0000 0.0000 0.0000 15.8869 0.0000 -1.2125
# 5 -7.6208 4.7514 -12.0775 0.0000 29.6667 0.0000
# 6 0.0000 0.0000 0.0000 -1.2125 0.0000 28.9090
#
#
#
# Elastic Compliance Matrix: (Units=1/GPa)
#
#
# Indices 1 2 3 4 5 6 
#
# 1 0.048264 0.003338 -0.012668 0.000000 0.006706 0.000000
# 2 0.003338 0.014921 -0.006537 0.000000 -0.004194 0.000000
# 3 -0.012668 -0.006537 0.014988 0.000000 0.003894 0.000000
# 4 0.000000 0.000000 0.000000 0.063147 0.000000 0.002649
# 5 0.006706 -0.004194 0.003894 0.000000 0.037688 0.000000
# 6 0.000000 0.000000 0.000000 0.002649 0.000000 0.034702
#
#
# Mechanical properties :
#
#
# Convention : Reuss Voigt Hill
#
# Bulk Modulus (GPa) = 21.53313 40.49093 31.01203
# Shear Modulus (GPa) = 19.16265 25.11984 22.14124
#
# Velocity S-wave (km/s) = 2.93936 3.36538 3.15956
# Velocity P-wave (km/s) = 4.60743 5.77556 5.22425
#
# Compressibility (1/GPa) = 0.04644007
#
# Stress axis : x y z
#
# Youngs Moduli (GPa) = 20.71928 67.01787 66.72029
#
# Poissons Ratio (x) = -0.22373 0.84521
# Poissons Ratio (y) = -0.06917 0.43616
# Poissons Ratio (z) = 0.26247 0.43811
#
# Static dielectric constant tensor:
#      x y z
#    x 1.794460 0.000000 -0.050410 
#    y 0.000000 1.886960 0.000000 
#    z -0.050410 0.000000 1.834040 
# 
# From -- ./inp_files/9956.got.cif
#   From: 2010.05.17/outbox.cif.g08.bks.cpg/sg9_5_cif.got.tgz:9956.got - 2010.06.03 20:04:27.
