data_PCOD9139530
_publ_section_title
;
Structure prediction by ZEFSAII (Michael W. Deem and Ramdas Pophale) SiO2 
 PCOD9139530
Probable space group: C C
;
_chemical_formula_sum "Si O2"
_cell_formula_units_Z 24
_cell_length_a 16.172147
_cell_length_b 12.301942
_cell_length_c 10.511757
_cell_angle_alpha 90.000000
_cell_angle_beta 25.890717
_cell_angle_gamma 90.000000
_cell_volume 913.179466
_symmetry_space_group_name_H-M "C C"
_symmetry_group_IT_number 9
_symmetry_cell_setting 'monoclinic'
loop_
_space_group_symop_operation_xyz
x,y,z
x,-y,1/2+z
1/2+x,1/2+y,z
1/2+x,1/2-y,1/2+z
loop_
_atom_site_type_symbol
_atom_site_label
_atom_site_fract_x
_atom_site_fract_y
_atom_site_fract_z
Si Si1 0.243930 0.558613 0.698500
Si Si2 0.337392 0.022126 0.198866
Si Si3 0.941125 0.674939 0.249911
Si Si4 0.094303 0.852318 0.845061
Si Si5 0.333295 0.677827 0.129697
Si Si6 0.921281 0.703951 0.723732
O O1 0.319456 0.436514 0.581632
O O2 0.124808 0.595109 0.991755
O O3 0.056836 0.559894 0.865728
O O4 0.130062 0.317900 0.981625
O O5 0.287025 0.103113 0.386925
O O6 0.196762 0.048433 0.278475
O O7 0.354990 0.901441 0.231696
O O8 0.883193 0.727585 0.461540
O O9 0.996368 0.775069 0.083096
O O10 0.265851 0.785564 0.545644
O O11 0.942454 0.881144 0.947358
O O12 0.460965 0.695492 0.075195
#
# Coordination Sequence:
#
# PCOD9139530 Si02
#       6
#     4   4   4   4   4   4
#     4   9  25  48  75 114 146 194 259 312 377 457
#     4   9  25  47  71 110 148 192 256 308 378 461
#     4  10  25  49  75 105 151 203 250 312 385 458
#     4  12  25  48  77 107 148 203 247 312 395 455
#     4  11  27  49  74 111 154 196 257 321 382 458
#     4  11  29  45  72 113 149 196 249 327 381 451
#
# _framework density 26.2818
#
# number of rings (size 3 to 8) (size 9 to 14) (size 15 to 20)
#    1.000    0.667    0.000    1.000   16.333    0.000 
#    9.000    0.000    0.000    0.000    0.000    0.000 
#    0.000    0.000    0.000    0.000    0.000    0.000 
#
# Total GULP energy -66907.176363 kJ/mol
# GULP energy per Si atom -5575.598030 kJ/mol
# Density = 2.622198 g / cm^3
# Si number density = 26.281800 Si / 1000 Ang^3
#
#
#
# Elastic Constant Matrix: (Units=GPa)
#
#
# Indices 1 2 3 4 5 6 
#
# 1 61.2868 24.8930 15.4835 -0.0007 -11.5943 0.0004
# 2 24.8930 64.3967 3.3838 -0.0013 -8.9715 0.0009
# 3 15.4835 3.3838 94.2072 -0.0028 -2.6011 0.0018
# 4 -0.0007 -0.0013 -0.0028 30.3248 0.0012 5.8546
# 5 -11.5943 -8.9715 -2.6011 0.0012 37.0157 -0.0005
# 6 0.0004 0.0009 0.0018 5.8546 -0.0005 15.9686
#
#
#
# Elastic Compliance Matrix: (Units=1/GPa)
#
#
# Indices 1 2 3 4 5 6 
#
# 1 0.020911 -0.007286 -0.003049 0.000000 0.004570 0.000000
# 2 -0.007286 0.018631 0.000591 0.000001 0.002275 -0.000001
# 3 -0.003049 0.000591 0.011094 0.000001 -0.000032 -0.000002
# 4 0.000000 0.000001 0.000001 0.035488 -0.000001 -0.013011
# 5 0.004570 0.002275 -0.000032 -0.000001 0.028996 0.000001
# 6 0.000000 -0.000001 -0.000002 -0.013011 0.000001 0.067393
#
#
# Mechanical properties :
#
#
# Convention : Reuss Voigt Hill
#
# Bulk Modulus (GPa) = 32.10513 34.15680 33.13097
# Shear Modulus (GPa) = 23.54214 28.40384 25.97299
#
# Velocity S-wave (km/s) = 2.99617 3.29103 3.14705
# Velocity P-wave (km/s) = 4.92053 5.24078 5.08318
#
# Compressibility (1/GPa) = 0.03114767
#
# Stress axis : x y z
#
# Youngs Moduli (GPa) = 47.82161 53.67329 90.13965
#
# Poissons Ratio (x) = 0.39109 0.27483
# Poissons Ratio (y) = 0.34845 -0.05329
# Poissons Ratio (z) = 0.14581 -0.03173
#
# Static dielectric constant tensor:
#      x y z
#    x 2.053990 0.000000 -0.013310 
#    y 0.000000 2.182310 0.000000 
#    z -0.013310 0.000000 2.036530 
# 
# From -- ./inp_files/19286.got.cif
#   From: 2010.05.17/outbox.cif.g08.bks.cpg/sg9_10_cif.got.tgz:19286.got - 2010.06.03 20:04:27.
