data_PCOD9139626
_publ_section_title
;
Structure prediction by ZEFSAII (Michael W. Deem and Ramdas Pophale) SiO2 
 PCOD9139626
Probable space group: C C
;
_chemical_formula_sum "Si O2"
_cell_formula_units_Z 20
_cell_length_a 18.392639
_cell_length_b 5.099292
_cell_length_c 9.018616
_cell_angle_alpha 90.000000
_cell_angle_beta 61.344246
_cell_angle_gamma 90.000000
_cell_volume 742.248346
_symmetry_space_group_name_H-M "C C"
_symmetry_group_IT_number 9
_symmetry_cell_setting 'monoclinic'
loop_
_space_group_symop_operation_xyz
x,y,z
x,-y,1/2+z
1/2+x,1/2+y,z
1/2+x,1/2-y,1/2+z
loop_
_atom_site_type_symbol
_atom_site_label
_atom_site_fract_x
_atom_site_fract_y
_atom_site_fract_z
Si Si1 0.625000 0.326732 0.199060
Si Si2 0.735038 0.189957 0.579752
Si Si3 0.999348 0.848725 0.555511
Si Si4 0.469151 0.044115 0.310646
Si Si5 0.841383 0.840907 0.258430
O O1 0.684353 0.553071 0.083061
O O2 0.585149 0.419391 0.393793
O O3 0.543145 0.243527 0.185360
O O4 0.673968 0.055294 0.172133
O O5 0.783176 0.257502 0.684293
O O6 0.794967 0.067619 0.396684
O O7 0.975002 0.588452 0.479675
O O8 0.995615 0.735785 0.724259
O O9 0.921778 0.032578 0.603625
O O10 0.380600 0.134057 0.335413
#
# Coordination Sequence:
#
# PCOD9139626 Si02
#       5
#     4   4   4   4   4
#     4  10  29  51  78 110 154 206 261 323 381 472
#     4  12  29  49  76 118 162 198 259 327 403 442
#     4  10  26  48  80 110 148 217 263 323 377 491
#     4  10  26  48  80 110 148 217 263 323 377 491
#     4  12  28  46  76 116 158 208 256 330 390 482
#
# _framework density 26.945156000000001
#
# number of rings (size 3 to 8) (size 9 to 14) (size 15 to 20)
#    1.200    0.000    2.000    0.000   16.800    0.000 
#    0.000    0.000    0.000    0.000    0.000    0.000 
#    0.000    0.000    0.000    0.000    0.000    0.000 
#
# Total GULP energy -56020.663475 kJ/mol
# GULP energy per Si atom -5602.066347 kJ/mol
# Density = 2.688383 g / cm^3
# Si number density = 26.945156 Si / 1000 Ang^3
#
#
#
# Elastic Constant Matrix: (Units=GPa)
#
#
# Indices 1 2 3 4 5 6 
#
# 1 166.0933 27.5416 25.1650 0.0000 -10.6800 0.0000
# 2 27.5416 106.7307 12.9409 0.0000 -25.2322 0.0000
# 3 25.1650 12.9409 92.5075 0.0000 -15.5619 0.0000
# 4 0.0000 0.0000 0.0000 50.0031 0.0000 -4.1342
# 5 -10.6800 -25.2322 -15.5619 0.0000 44.9847 0.0000
# 6 0.0000 0.0000 0.0000 -4.1342 0.0000 35.0486
#
#
#
# Elastic Compliance Matrix: (Units=1/GPa)
#
#
# Indices 1 2 3 4 5 6 
#
# 1 0.006506 -0.001445 -0.001533 0.000000 0.000204 0.000000
# 2 -0.001445 0.011146 -0.000183 0.000000 0.005846 0.000000
# 3 -0.001533 -0.000183 0.011865 0.000000 0.003638 0.000000
# 4 0.000000 0.000000 0.000000 0.020196 0.000000 0.002382
# 5 0.000204 0.005846 0.003638 0.000000 0.026816 0.000000
# 6 0.000000 0.000000 0.000000 0.002382 0.000000 0.028813
#
#
# Mechanical properties :
#
#
# Convention : Reuss Voigt Hill
#
# Bulk Modulus (GPa) = 43.11314 55.18074 49.14694
# Shear Modulus (GPa) = 41.87808 45.98622 43.93215
#
# Velocity S-wave (km/s) = 3.94661 4.13566 4.04224
# Velocity P-wave (km/s) = 6.06652 6.58242 6.32973
#
# Compressibility (1/GPa) = 0.02319478
#
# Stress axis : x y z
#
# Youngs Moduli (GPa) = 153.71138 89.71535 84.28432
#
# Poissons Ratio (x) = 0.12961 0.12924
# Poissons Ratio (y) = 0.22207 0.01541
# Poissons Ratio (z) = 0.23570 0.01641
#
# Static dielectric constant tensor:
#      x y z
#    x 2.090040 0.000000 0.026300 
#    y 0.000000 2.139220 0.000000 
#    z 0.026300 0.000000 2.119700 
# 
# From -- ./inp_files/10226.got.cif
#   From: 2010.05.17/outbox.cif.g08.bks.cpg/sg9_6_cif.got.tgz:10226.got - 2010.06.03 20:04:27.
