data_PCOD9139084
_publ_section_title
;
Structure prediction by ZEFSAII (Michael W. Deem and Ramdas Pophale) SiO2 
 PCOD9139084
Probable space group: C C
;
_chemical_formula_sum "Si O2"
_cell_formula_units_Z 28
_cell_length_a 12.128363
_cell_length_b 6.901371
_cell_length_c 17.850601
_cell_angle_alpha 90.000000
_cell_angle_beta 126.567993
_cell_angle_gamma 90.000000
_cell_volume 1200.016710
_symmetry_space_group_name_H-M "C C"
_symmetry_group_IT_number 9
_symmetry_cell_setting 'monoclinic'
loop_
_space_group_symop_operation_xyz
x,y,z
x,-y,1/2+z
1/2+x,1/2+y,z
1/2+x,1/2-y,1/2+z
loop_
_atom_site_type_symbol
_atom_site_label
_atom_site_fract_x
_atom_site_fract_y
_atom_site_fract_z
Si Si1 0.978940 0.511077 0.183430
Si Si2 0.207846 0.208095 0.305077
Si Si3 0.461696 0.830121 0.519251
Si Si4 0.994031 0.904354 0.284796
Si Si5 0.770944 0.958606 0.461704
Si Si6 0.476047 0.093427 0.377888
Si Si7 0.280183 0.682949 0.137347
O O1 0.925365 0.553411 0.078980
O O2 0.994719 0.716324 0.231114
O O3 0.869942 0.374632 0.179847
O O4 0.115540 0.379581 0.234105
O O5 0.296651 0.300636 0.408544
O O6 0.315367 0.113585 0.291556
O O7 0.110297 0.047818 0.302223
O O8 0.358866 0.648053 0.475755
O O9 0.622519 0.774145 0.591644
O O10 0.462740 0.970248 0.448287
O O11 0.019278 0.818162 0.378112
O O12 0.852460 0.021664 0.218491
O O13 0.605374 0.988585 0.391193
O O14 0.797347 0.895532 0.558262
#
# Coordination Sequence:
#
# PCOD9139084 Si02
#       7
#     4   4   4   4   4   4   4
#     4  11  23  46  70  96 138 180 228 285 339 412
#     4  11  25  43  71  99 137 182 228 280 348 402
#     4  11  24  44  70  99 139 182 229 282 348 406
#     4  11  23  47  69 100 140 178 234 285 337 415
#     4  11  23  45  65 103 138 177 230 285 335 414
#     4  11  24  41  70 100 133 180 225 281 343 399
#     4  10  24  44  69  99 135 183 228 280 346 402
#
# _framework density 23.333008
#
# number of rings (size 3 to 8) (size 9 to 14) (size 15 to 20)
#    0.000    1.143    2.857    2.571    0.000    4.571 
#    2.571    0.000    0.000    0.000    0.000    0.000 
#    0.000    0.000    0.000    0.000    0.000    0.000 
#
# Total GULP energy -78143.765902 kJ/mol
# GULP energy per Si atom -5581.697564 kJ/mol
# Density = 2.327990 g / cm^3
# Si number density = 23.333008 Si / 1000 Ang^3
#
#
#
# Elastic Constant Matrix: (Units=GPa)
#
#
# Indices 1 2 3 4 5 6 
#
# 1 144.1348 72.0460 22.9836 0.0000 18.9486 0.0000
# 2 72.0460 149.7153 46.4552 0.0000 0.5975 0.0000
# 3 22.9836 46.4552 39.3665 0.0000 -2.4094 0.0000
# 4 0.0000 0.0000 0.0000 48.4145 0.0000 2.6703
# 5 18.9486 0.5975 -2.4094 0.0000 42.8536 0.0000
# 6 0.0000 0.0000 0.0000 2.6703 0.0000 35.2116
#
#
#
# Elastic Compliance Matrix: (Units=1/GPa)
#
#
# Indices 1 2 3 4 5 6 
#
# 1 0.009880 -0.004520 -0.000701 0.000000 -0.004345 0.000000
# 2 -0.004520 0.012636 -0.012204 0.000000 0.001136 0.000000
# 3 -0.000701 -0.012204 0.040381 0.000000 0.002750 0.000000
# 4 0.000000 0.000000 0.000000 0.020742 0.000000 -0.001573
# 5 -0.004345 0.001136 0.002750 0.000000 0.025395 0.000000
# 6 0.000000 0.000000 0.000000 -0.001573 0.000000 0.028519
#
#
# Mechanical properties :
#
#
# Convention : Reuss Voigt Hill
#
# Bulk Modulus (GPa) = 35.65146 68.46514 52.05830
# Shear Modulus (GPa) = 27.51015 38.07806 32.79411
#
# Velocity S-wave (km/s) = 3.43742 4.04411 3.75304
# Velocity P-wave (km/s) = 5.57378 7.15631 6.41404
#
# Compressibility (1/GPa) = 0.02804934
#
# Stress axis : x y z
#
# Youngs Moduli (GPa) = 101.21347 79.13615 24.76427
#
# Poissons Ratio (x) = 0.35768 0.01735
# Poissons Ratio (y) = 0.45746 0.30221
# Poissons Ratio (z) = 0.07092 0.96574
#
# Static dielectric constant tensor:
#      x y z
#    x 1.889530 0.000000 -0.027730 
#    y 0.000000 1.834440 0.000000 
#    z -0.027730 0.000000 1.935020 
# 
# From -- ./inp_files/29657.got.cif
#   From: 2010.05.17/outbox.cif.g08.bks.cpg/sg9_15_cif.got.tgz:29657.got - 2010.06.03 20:04:27.
