data_PCOD9139373
_publ_section_title
;
Structure prediction by ZEFSAII (Michael W. Deem and Ramdas Pophale) SiO2 
 PCOD9139373
Probable space group: C C
;
_chemical_formula_sum "Si O2"
_cell_formula_units_Z 28
_cell_length_a 22.527169
_cell_length_b 5.016154
_cell_length_c 16.306470
_cell_angle_alpha 90.000000
_cell_angle_beta 36.612104
_cell_angle_gamma 90.000000
_cell_volume 1098.932545
_symmetry_space_group_name_H-M "C C"
_symmetry_group_IT_number 9
_symmetry_cell_setting 'monoclinic'
loop_
_space_group_symop_operation_xyz
x,y,z
x,-y,1/2+z
1/2+x,1/2+y,z
1/2+x,1/2-y,1/2+z
loop_
_atom_site_type_symbol
_atom_site_label
_atom_site_fract_x
_atom_site_fract_y
_atom_site_fract_z
Si Si1 0.306450 0.569697 0.361940
Si Si2 0.024703 0.880861 0.584935
Si Si3 0.143447 0.622650 0.920664
Si Si4 0.432382 0.875934 0.436091
Si Si5 0.455941 0.366868 0.317737
Si Si6 0.123758 0.548217 0.271256
Si Si7 0.226081 0.944396 0.583596
O O1 0.407120 0.606592 0.197062
O O2 0.227159 0.412791 0.396532
O O3 0.348702 0.397646 0.391736
O O4 0.269931 0.843723 0.446427
O O5 0.097937 0.083519 0.456137
O O6 0.030240 0.003163 0.670654
O O7 0.058007 0.579261 0.544833
O O8 0.179066 0.490790 0.796122
O O9 0.447076 0.563268 0.405073
O O10 0.316212 0.936698 0.551435
O O11 0.474170 0.061047 0.315169
O O12 0.505540 0.001285 0.422685
O O13 0.153858 0.298829 0.184007
O O14 0.159246 0.801221 0.180484
#
# Coordination Sequence:
#
# PCOD9139373 Si02
#       7
#     4   4   4   4   4   4   4
#     4   9  25  43  71 103 129 173 237 283 333 390
#     4  10  25  42  69  98 136 171 229 278 339 393
#     4  12  26  45  68 101 138 184 219 277 349 408
#     4  11  22  43  63  98 135 168 221 274 335 393
#     4   9  21  41  65  96 127 162 222 279 324 376
#     4  12  28  42  68 102 139 184 220 269 355 414
#     4  11  25  44  68 100 136 176 230 282 331 404
#
# _framework density 25.479271000000001
#
# number of rings (size 3 to 8) (size 9 to 14) (size 15 to 20)
#    0.857    0.571    0.000    4.286    6.000    5.714 
#    0.000    0.000    0.000    0.000    0.000    0.000 
#    0.000    0.000    0.000    0.000    0.000    0.000 
#
# Total GULP energy -78103.212168 kJ/mol
# GULP energy per Si atom -5578.800869 kJ/mol
# Density = 2.542128 g / cm^3
# Si number density = 25.479271 Si / 1000 Ang^3
#
#
#
# Elastic Constant Matrix: (Units=GPa)
#
#
# Indices 1 2 3 4 5 6 
#
# 1 107.2418 29.4814 31.4402 -0.0246 -23.3888 -0.0027
# 2 29.4814 141.3193 30.1629 -0.0029 -10.1507 -0.0154
# 3 31.4402 30.1629 77.1999 -0.0524 -31.6004 0.0057
# 4 -0.0246 -0.0029 -0.0524 36.0918 0.0251 -8.5727
# 5 -23.3888 -10.1507 -31.6004 0.0251 47.0287 -0.0067
# 6 -0.0027 -0.0154 0.0057 -8.5727 -0.0067 16.7566
#
#
#
# Elastic Compliance Matrix: (Units=1/GPa)
#
#
# Indices 1 2 3 4 5 6 
#
# 1 0.011271 -0.001557 -0.002517 0.000002 0.003578 0.000004
# 2 -0.001557 0.007944 -0.002876 -0.000002 -0.000992 0.000006
# 3 -0.002517 -0.002876 0.019774 0.000020 0.011415 0.000005
# 4 0.000002 -0.000002 0.000020 0.031540 0.000000 0.016136
# 5 0.003578 -0.000992 0.011415 0.000000 0.030499 0.000008
# 6 0.000004 0.000006 0.000005 0.016136 0.000008 0.067933
#
#
# Mechanical properties :
#
#
# Convention : Reuss Voigt Hill
#
# Bulk Modulus (GPa) = 39.85782 56.43667 48.14725
# Shear Modulus (GPa) = 26.14738 35.62050 30.88394
#
# Velocity S-wave (km/s) = 3.20694 3.74307 3.48533
# Velocity P-wave (km/s) = 5.42124 6.39366 5.92742
#
# Compressibility (1/GPa) = 0.02508918
#
# Stress axis : x y z
#
# Youngs Moduli (GPa) = 88.72264 125.88904 50.57022
#
# Poissons Ratio (x) = 0.19601 0.12730
# Poissons Ratio (y) = 0.13814 0.14542
# Poissons Ratio (z) = 0.22334 0.36200
#
# Static dielectric constant tensor:
#      x y z
#    x 2.137220 -0.000180 -0.030410 
#    y -0.000180 1.955520 -0.000050 
#    z -0.030410 -0.000050 2.078980 
# 
# From -- ./inp_files/34554.got.cif
#   From: 2010.05.17/outbox.cif.g08.bks.cpg/sg9_18_cif.got.tgz:34554.got - 2010.06.03 20:04:27.
