data_PCOD9139588
_publ_section_title
;
Structure prediction by ZEFSAII (Michael W. Deem and Ramdas Pophale) SiO2 
 PCOD9139588
Probable space group: C C
;
_chemical_formula_sum "Si O2"
_cell_formula_units_Z 32
_cell_length_a 12.677620
_cell_length_b 13.900382
_cell_length_c 7.779648
_cell_angle_alpha 90.000000
_cell_angle_beta 112.485040
_cell_angle_gamma 90.000000
_cell_volume 1266.737744
_symmetry_space_group_name_H-M "C C"
_symmetry_group_IT_number 9
_symmetry_cell_setting 'monoclinic'
loop_
_space_group_symop_operation_xyz
x,y,z
x,-y,1/2+z
1/2+x,1/2+y,z
1/2+x,1/2-y,1/2+z
loop_
_atom_site_type_symbol
_atom_site_label
_atom_site_fract_x
_atom_site_fract_y
_atom_site_fract_z
Si Si1 0.071930 0.863812 0.559460
Si Si2 0.871018 0.186146 0.183643
Si Si3 0.128910 0.618717 0.031558
Si Si4 0.391534 0.511748 0.017563
Si Si5 0.890719 0.616972 0.770493
Si Si6 0.322747 0.908537 0.843930
Si Si7 0.043772 0.699428 0.338871
Si Si8 0.737817 0.089931 0.631628
O O1 0.202005 0.874308 0.694395
O O2 0.048014 0.814475 0.361231
O O3 0.982707 0.802667 0.626877
O O4 0.019347 0.971267 0.539171
O O5 0.735647 0.186413 0.054780
O O6 0.878606 0.272351 0.325225
O O7 0.888253 0.069801 0.204996
O O8 0.078230 0.658809 0.176699
O O9 0.168001 0.509461 0.083963
O O10 0.026829 0.607457 0.834047
O O11 0.313523 0.582146 0.849630
O O12 0.325523 0.415989 0.024663
O O13 0.845238 0.523686 0.841431
O O14 0.831207 0.615766 0.549262
O O15 0.425274 0.851033 0.815192
O O16 0.145063 0.670137 0.535929
#
# Coordination Sequence:
#
# PCOD9139588 Si02
#       8
#     4   4   4   4   4   4   4   4
#     4  10  26  45  70 101 145 188 235 285 375 427
#     4   9  24  45  72  98 137 195 231 292 354 432
#     4  11  25  45  72 109 135 180 257 297 355 419
#     4   9  22  43  70 103 130 183 230 291 350 411
#     4  12  26  44  71 102 148 190 236 302 359 434
#     4  12  27  43  70 106 146 189 242 291 373 426
#     4  12  25  41  74 105 138 186 236 305 343 436
#     4  11  21  40  73 100 131 171 245 287 341 415
#
# _framework density 25.261738000000001
#
# number of rings (size 3 to 8) (size 9 to 14) (size 15 to 20)
#    0.750    0.500    3.750    0.750    8.750    3.000 
#    0.000    0.000    0.000    0.000    0.000    0.000 
#    0.000    0.000    0.000    0.000    0.000    0.000 
#
# Total GULP energy -89125.275570 kJ/mol
# GULP energy per Si atom -5570.329723 kJ/mol
# Density = 2.520424 g / cm^3
# Si number density = 25.261738 Si / 1000 Ang^3
#
#
#
# Elastic Constant Matrix: (Units=GPa)
#
#
# Indices 1 2 3 4 5 6 
#
# 1 108.9441 40.5577 40.8871 0.0000 33.1956 0.0000
# 2 40.5577 98.7890 9.1750 0.0000 19.4622 0.0000
# 3 40.8871 9.1750 78.4583 0.0000 30.0562 0.0000
# 4 0.0000 0.0000 0.0000 35.1266 0.0000 3.0994
# 5 33.1956 19.4622 30.0562 0.0000 45.4697 0.0000
# 6 0.0000 0.0000 0.0000 3.0994 0.0000 20.9294
#
#
#
# Elastic Compliance Matrix: (Units=1/GPa)
#
#
# Indices 1 2 3 4 5 6 
#
# 1 0.014250 -0.004350 -0.004881 0.000000 -0.005315 0.000000
# 2 -0.004350 0.012411 0.002188 0.000000 -0.003583 0.000000
# 3 -0.004881 0.002188 0.018784 0.000000 -0.009789 0.000000
# 4 0.000000 0.000000 0.000000 0.028845 0.000000 -0.004272
# 5 -0.005315 -0.003583 -0.009789 0.000000 0.033877 0.000000
# 6 0.000000 0.000000 0.000000 -0.004272 0.000000 0.048412
#
#
# Mechanical properties :
#
#
# Convention : Reuss Voigt Hill
#
# Bulk Modulus (GPa) = 31.88959 51.93676 41.91317
# Shear Modulus (GPa) = 27.60629 33.34325 30.47477
#
# Velocity S-wave (km/s) = 3.30935 3.63700 3.47704
# Velocity P-wave (km/s) = 5.22049 6.18394 5.72253
#
# Compressibility (1/GPa) = 0.03135819
#
# Stress axis : x y z
#
# Youngs Moduli (GPa) = 70.17658 80.57331 53.23784
#
# Poissons Ratio (x) = 0.35048 0.25987
# Poissons Ratio (y) = 0.30526 -0.11649
# Poissons Ratio (z) = 0.34256 -0.17630
#
# Static dielectric constant tensor:
#      x y z
#    x 2.043570 0.000000 -0.059730 
#    y 0.000000 2.176280 0.000000 
#    z -0.059730 0.000000 2.034040 
# 
# From -- ./inp_files/8054.got.cif
#   From: 2010.05.17/outbox.cif.g08.bks.cpg/sg9_5_cif.got.tgz:8054.got - 2010.06.03 20:04:27.
