data_PCOD9139024
_publ_section_title
;
Structure prediction by ZEFSAII (Michael W. Deem and Ramdas Pophale) SiO2 
 PCOD9139024
Probable space group: C C
;
_chemical_formula_sum "Si O2"
_cell_formula_units_Z 32
_cell_length_a 12.156749
_cell_length_b 13.653979
_cell_length_c 10.207324
_cell_angle_alpha 90.000000
_cell_angle_beta 132.109390
_cell_angle_gamma 90.000000
_cell_volume 1256.938484
_symmetry_space_group_name_H-M "C C"
_symmetry_group_IT_number 9
_symmetry_cell_setting 'monoclinic'
loop_
_space_group_symop_operation_xyz
x,y,z
x,-y,1/2+z
1/2+x,1/2+y,z
1/2+x,1/2-y,1/2+z
loop_
_atom_site_type_symbol
_atom_site_label
_atom_site_fract_x
_atom_site_fract_y
_atom_site_fract_z
Si Si1 0.904860 0.792407 0.635080
Si Si2 0.407693 0.653159 0.856885
Si Si3 0.652306 0.314710 0.010446
Si Si4 0.467026 0.546465 0.524015
Si Si5 0.678714 0.406334 0.413703
Si Si6 0.010050 0.462124 0.704243
Si Si7 0.633315 0.098485 0.027640
Si Si8 0.734586 0.805836 0.952113
O O1 0.825868 0.699151 0.637182
O O2 0.805952 0.881121 0.620145
O O3 0.888982 0.780605 0.468202
O O4 0.073525 0.806515 0.806917
O O5 0.382514 0.545222 0.897209
O O6 0.578544 0.639634 0.949259
O O7 0.806547 0.815834 0.154528
O O8 0.591000 0.410537 0.027196
O O9 0.593287 0.212395 0.026546
O O10 0.562552 0.533565 0.732740
O O11 0.346885 0.629569 0.455871
O O12 0.832062 0.459537 0.562974
O O13 0.727090 0.302676 0.387516
O O14 0.074257 0.461501 0.606462
O O15 0.077285 0.361041 0.819289
O O16 0.069820 0.546504 0.847423
#
# Coordination Sequence:
#
# PCOD9139024 Si02
#       8
#     4   4   4   4   4   4   4   4
#     4  10  25  45  71 109 144 194 237 308 368 442
#     4  11  27  47  69 115 152 192 242 310 385 445
#     4  10  24  43  75 103 144 187 245 300 360 454
#     4  11  25  46  77 104 144 193 251 299 372 453
#     4  11  27  47  73 108 143 198 244 312 374 449
#     4  12  25  44  76 104 149 192 247 316 359 449
#     4  10  26  43  71 110 145 189 249 295 383 423
#     4  11  25  47  76 103 147 195 251 302 373 459
#
# _framework density 25.458684999999999
#
# number of rings (size 3 to 8) (size 9 to 14) (size 15 to 20)
#    0.750    0.500    0.000    4.500   15.750    0.000 
#    2.250    0.000    0.000    0.000    0.000    0.000 
#    0.000    0.000    0.000    0.000    0.000    0.000 
#
# Total GULP energy -89408.148410 kJ/mol
# GULP energy per Si atom -5588.009276 kJ/mol
# Density = 2.540074 g / cm^3
# Si number density = 25.458685 Si / 1000 Ang^3
#
#
#
# Elastic Constant Matrix: (Units=GPa)
#
#
# Indices 1 2 3 4 5 6 
#
# 1 107.8149 -16.5241 42.5139 0.0000 -6.4105 0.0000
# 2 -16.5241 69.1404 10.7549 0.0000 -0.1059 0.0000
# 3 42.5139 10.7549 102.3089 0.0000 5.3656 0.0000
# 4 0.0000 0.0000 0.0000 35.0409 0.0000 3.4904
# 5 -6.4105 -0.1059 5.3656 0.0000 50.0588 0.0000
# 6 0.0000 0.0000 0.0000 3.4904 0.0000 35.7345
#
#
#
# Elastic Compliance Matrix: (Units=1/GPa)
#
#
# Indices 1 2 3 4 5 6 
#
# 1 0.012181 0.003781 -0.005573 0.000000 0.002165 0.000000
# 2 0.003781 0.015880 -0.003286 0.000000 0.000870 0.000000
# 3 -0.005573 -0.003286 0.012544 0.000000 -0.002065 0.000000
# 4 0.000000 0.000000 0.000000 0.028818 0.000000 -0.002815
# 5 0.002165 0.000870 -0.002065 0.000000 0.020477 0.000000
# 6 0.000000 0.000000 0.000000 -0.002815 0.000000 0.028259
#
#
# Mechanical properties :
#
#
# Convention : Reuss Voigt Hill
#
# Bulk Modulus (GPa) = 32.84188 39.19485 36.01837
# Shear Modulus (GPa) = 36.11051 40.33480 38.22265
#
# Velocity S-wave (km/s) = 3.77025 3.98467 3.87894
# Velocity P-wave (km/s) = 5.64633 6.04972 5.85150
#
# Compressibility (1/GPa) = 0.03044893
#
# Stress axis : x y z
#
# Youngs Moduli (GPa) = 82.09564 62.97405 79.72051
#
# Poissons Ratio (x) = -0.23813 0.44426
# Poissons Ratio (y) = -0.31043 0.26198
# Poissons Ratio (z) = 0.45750 0.20695
#
# Static dielectric constant tensor:
#      x y z
#    x 2.012380 0.000000 -0.039940 
#    y 0.000000 2.099880 0.000000 
#    z -0.039940 0.000000 2.016240 
# 
# From -- ./inp_files/16885.got.cif
#   From: 2010.05.17/outbox.cif.g08.bks.cpg/sg9_9_cif.got.tgz:16885.got - 2010.06.03 20:04:27.
