data_PCOD9139173
_publ_section_title
;
Structure prediction by ZEFSAII (Michael W. Deem and Ramdas Pophale) SiO2 
 PCOD9139173
Probable space group: C C
;
_chemical_formula_sum "Si O2"
_cell_formula_units_Z 28
_cell_length_a 7.162921
_cell_length_b 15.495939
_cell_length_c 11.308407
_cell_angle_alpha 90.000000
_cell_angle_beta 61.026958
_cell_angle_gamma 90.000000
_cell_volume 1098.100154
_symmetry_space_group_name_H-M "C C"
_symmetry_group_IT_number 9
_symmetry_cell_setting 'monoclinic'
loop_
_space_group_symop_operation_xyz
x,y,z
x,-y,1/2+z
1/2+x,1/2+y,z
1/2+x,1/2-y,1/2+z
loop_
_atom_site_type_symbol
_atom_site_label
_atom_site_fract_x
_atom_site_fract_y
_atom_site_fract_z
Si Si1 0.862130 0.397858 0.807200
Si Si2 0.920591 0.361848 0.540904
Si Si3 0.269512 0.917150 0.357056
Si Si4 0.366825 0.557839 0.815962
Si Si5 0.983142 0.297337 0.113464
Si Si6 0.781175 0.145451 0.314280
Si Si7 0.072716 0.818006 0.069340
O O1 0.838958 0.488909 0.879019
O O2 0.852090 0.419676 0.672513
O O3 0.083027 0.357099 0.781738
O O4 0.665177 0.342346 0.913005
O O5 0.148384 0.397001 0.425264
O O6 0.940024 0.268450 0.594561
O O7 0.768070 0.362428 0.475917
O O8 0.440686 0.877034 0.215293
O O9 0.044588 0.921533 0.360624
O O10 0.946921 0.786213 0.708540
O O11 0.348826 0.454626 0.806473
O O12 0.445205 0.605632 0.672626
O O13 0.780913 0.298879 0.085359
O O14 0.181804 0.320142 0.968140
#
# Coordination Sequence:
#
# PCOD9139173 Si02
#       7
#     4   4   4   4   4   4   4
#     4  11  24  46  75 109 155 200 256 324 388 466
#     4  12  24  49  77 108 153 205 256 323 391 471
#     4  11  27  47  73 115 154 198 261 323 392 472
#     4  11  26  48  82 111 154 212 255 324 396 465
#     4  10  24  46  76 116 154 202 262 327 382 473
#     4  11  23  49  80 111 157 210 261 324 396 458
#     4  10  24  45  75 110 155 199 257 323 393 457
#
# _framework density 25.498587000000001
#
# number of rings (size 3 to 8) (size 9 to 14) (size 15 to 20)
#    0.000    1.143    2.857    1.714   10.000    3.429 
#    7.714    0.000    0.000    0.000    0.000    0.000 
#    0.000    0.000    0.000    0.000    0.000    0.000 
#
# Total GULP energy -78498.843785 kJ/mol
# GULP energy per Si atom -5607.060270 kJ/mol
# Density = 2.544055 g / cm^3
# Si number density = 25.498587 Si / 1000 Ang^3
#
#
#
# Elastic Constant Matrix: (Units=GPa)
#
#
# Indices 1 2 3 4 5 6 
#
# 1 108.1029 21.5069 49.8851 0.0000 -2.7041 0.0000
# 2 21.5069 146.6017 42.7262 0.0000 -18.9881 0.0000
# 3 49.8851 42.7262 168.8194 0.0000 -9.2720 0.0000
# 4 0.0000 0.0000 0.0000 37.3422 0.0000 7.0363
# 5 -2.7041 -18.9881 -9.2720 0.0000 38.1299 0.0000
# 6 0.0000 0.0000 0.0000 7.0363 0.0000 32.4748
#
#
#
# Elastic Compliance Matrix: (Units=1/GPa)
#
#
# Indices 1 2 3 4 5 6 
#
# 1 0.010782 -0.000747 -0.003016 0.000000 -0.000341 0.000000
# 2 -0.000747 0.007838 -0.001573 0.000000 0.003468 0.000000
# 3 -0.003016 -0.001573 0.007255 0.000000 0.000767 0.000000
# 4 0.000000 0.000000 0.000000 0.027919 0.000000 -0.006049
# 5 -0.000341 0.003468 0.000767 0.000000 0.028115 0.000000
# 6 0.000000 0.000000 0.000000 -0.006049 0.000000 0.032104
#
#
# Mechanical properties :
#
#
# Convention : Reuss Voigt Hill
#
# Bulk Modulus (GPa) = 65.76942 72.41781 69.09362
# Shear Modulus (GPa) = 38.53491 42.21644 40.37567
#
# Velocity S-wave (km/s) = 3.89171 4.07337 3.98357
# Velocity P-wave (km/s) = 6.78551 7.11235 6.95085
#
# Compressibility (1/GPa) = 0.01520464
#
# Stress axis : x y z
#
# Youngs Moduli (GPa) = 92.74568 127.57895 137.84065
#
# Poissons Ratio (x) = 0.09530 0.41569
# Poissons Ratio (y) = 0.06928 0.21676
# Poissons Ratio (z) = 0.27970 0.20063
#
# Static dielectric constant tensor:
#      x y z
#    x 2.038860 0.000000 -0.018170 
#    y 0.000000 1.957110 0.000000 
#    z -0.018170 0.000000 1.949470 
# 
# From -- ./inp_files/7245.got.cif
#   From: 2010.05.17/outbox.cif.g08.bks.cpg/sg9_4_cif.got.tgz:7245.got - 2010.06.03 20:04:27.
