data_PCOD9139338
_publ_section_title
;
Structure prediction by ZEFSAII (Michael W. Deem and Ramdas Pophale) SiO2 
 PCOD9139338
Probable space group: C C
;
_chemical_formula_sum "Si O2"
_cell_formula_units_Z 28
_cell_length_a 10.234325
_cell_length_b 12.859844
_cell_length_c 11.027191
_cell_angle_alpha 90.000000
_cell_angle_beta 122.803231
_cell_angle_gamma 90.000000
_cell_volume 1219.877296
_symmetry_space_group_name_H-M "C C"
_symmetry_group_IT_number 9
_symmetry_cell_setting 'monoclinic'
loop_
_space_group_symop_operation_xyz
x,y,z
x,-y,1/2+z
1/2+x,1/2+y,z
1/2+x,1/2-y,1/2+z
loop_
_atom_site_type_symbol
_atom_site_label
_atom_site_fract_x
_atom_site_fract_y
_atom_site_fract_z
Si Si1 0.510930 0.193358 0.758170
Si Si2 0.893834 0.817132 0.061493
Si Si3 0.544892 0.118384 0.035058
Si Si4 0.575705 0.772748 0.025184
Si Si5 0.873621 0.896390 0.801181
Si Si6 0.057918 0.082466 0.850893
Si Si7 0.345461 0.076596 0.488122
O O1 0.607808 0.210032 0.684343
O O2 0.476713 0.307988 0.789960
O O3 0.360003 0.132920 0.626758
O O4 0.572427 0.130339 0.904609
O O5 0.920200 0.704627 0.013135
O O6 0.027637 0.837366 0.226960
O O7 0.720503 0.820132 0.026443
O O8 0.910682 0.897883 0.961348
O O9 0.700648 0.138002 0.186175
O O10 0.482411 0.006944 0.041064
O O11 0.568081 0.653449 0.976100
O O12 0.407740 0.832062 0.928514
O O13 0.905890 0.010341 0.769345
O O14 0.194488 0.996691 0.902874
#
# Coordination Sequence:
#
# PCOD9139338 Si02
#       7
#     4   4   4   4   4   4   4
#     4   9  26  46  74 107 147 197 254 323 382 459
#     4  11  25  45  74 106 148 197 255 314 388 460
#     4  11  23  48  76 101 152 198 253 314 399 451
#     4  10  24  51  72 112 149 194 258 319 374 472
#     4  11  27  45  69 108 149 197 249 322 387 460
#     4  12  26  46  76 113 148 205 257 323 388 464
#     4  10  25  47  75 109 145 202 250 321 382 458
#
# _framework density 22.953128
#
# number of rings (size 3 to 8) (size 9 to 14) (size 15 to 20)
#    0.857    0.571    1.429    1.714    8.000    5.714 
#    0.000    0.000    0.000    0.000    0.000    0.000 
#    0.000    0.000    0.000    0.000    0.000    0.000 
#
# Total GULP energy -78081.410341 kJ/mol
# GULP energy per Si atom -5577.243596 kJ/mol
# Density = 2.290089 g / cm^3
# Si number density = 22.953128 Si / 1000 Ang^3
#
#
#
# Elastic Constant Matrix: (Units=GPa)
#
#
# Indices 1 2 3 4 5 6 
#
# 1 63.9481 36.7692 23.4057 0.0000 -21.1308 0.0000
# 2 36.7692 105.9443 17.5549 0.0000 -1.4327 0.0000
# 3 23.4057 17.5549 76.1041 0.0000 -13.2731 0.0000
# 4 0.0000 0.0000 0.0000 36.1438 0.0000 12.3336
# 5 -21.1308 -1.4327 -13.2731 0.0000 27.5927 0.0000
# 6 0.0000 0.0000 0.0000 12.3336 0.0000 28.4886
#
#
#
# Elastic Compliance Matrix: (Units=1/GPa)
#
#
# Indices 1 2 3 4 5 6 
#
# 1 0.028658 -0.009141 -0.003231 0.000000 0.019917 0.000000
# 2 -0.009141 0.012740 -0.001346 0.000000 -0.006986 0.000000
# 3 -0.003231 -0.001346 0.015282 0.000000 0.004807 0.000000
# 4 0.000000 0.000000 0.000000 0.032463 0.000000 -0.014054
# 5 0.019917 -0.006986 0.004807 0.000000 0.053444 0.000000
# 6 0.000000 0.000000 0.000000 -0.014054 0.000000 0.041186
#
#
# Mechanical properties :
#
#
# Convention : Reuss Voigt Hill
#
# Bulk Modulus (GPa) = 34.19555 44.60625 39.40090
# Shear Modulus (GPa) = 22.62865 29.66279 26.14572
#
# Velocity S-wave (km/s) = 3.14325 3.59879 3.37870
# Velocity P-wave (km/s) = 5.30129 6.06170 5.69420
#
# Compressibility (1/GPa) = 0.02924357
#
# Stress axis : x y z
#
# Youngs Moduli (GPa) = 34.89431 78.49270 65.43434
#
# Poissons Ratio (x) = 0.71753 0.21144
# Poissons Ratio (y) = 0.31898 0.08806
# Poissons Ratio (z) = 0.11276 0.10564
#
# Static dielectric constant tensor:
#      x y z
#    x 1.888730 0.000000 0.004180 
#    y 0.000000 1.835770 0.000000 
#    z 0.004180 0.000000 1.836900 
# 
# From -- ./inp_files/14792.got.cif
#   From: 2010.05.17/outbox.cif.g08.bks.cpg/sg9_8_cif.got.tgz:14792.got - 2010.06.03 20:04:27.
