data_PCOD9139377
_publ_section_title
;
Structure prediction by ZEFSAII (Michael W. Deem and Ramdas Pophale) SiO2 
 PCOD9139377
Probable space group: C C
;
_chemical_formula_sum "Si O2"
_cell_formula_units_Z 32
_cell_length_a 28.799764
_cell_length_b 5.448221
_cell_length_c 9.039380
_cell_angle_alpha 90.000000
_cell_angle_beta 72.705423
_cell_angle_gamma 90.000000
_cell_volume 1354.221389
_symmetry_space_group_name_H-M "C C"
_symmetry_group_IT_number 9
_symmetry_cell_setting 'monoclinic'
loop_
_space_group_symop_operation_xyz
x,y,z
x,-y,1/2+z
1/2+x,1/2+y,z
1/2+x,1/2-y,1/2+z
loop_
_atom_site_type_symbol
_atom_site_label
_atom_site_fract_x
_atom_site_fract_y
_atom_site_fract_z
Si Si1 0.011390 0.247255 0.756970
Si Si2 0.804222 0.464905 0.583863
Si Si3 0.706075 0.667365 0.100947
Si Si4 0.680333 0.975032 0.870431
Si Si5 0.860286 0.701193 0.302581
Si Si6 0.975279 0.251233 0.453063
Si Si7 0.883048 0.786018 0.855726
Si Si8 0.126242 0.789845 0.171557
O O1 0.069776 0.224916 0.693606
O O2 0.990225 0.249901 0.610491
O O3 0.996145 0.498459 0.856889
O O4 0.995034 0.000356 0.858514
O O5 0.748919 0.519231 0.598057
O O6 0.838940 0.682018 0.491334
O O7 0.826899 0.251247 0.457214
O O8 0.816466 0.362302 0.733165
O O9 0.711529 0.783606 0.934982
O O10 0.652127 0.554410 0.157597
O O11 0.710271 0.869910 0.224137
O O12 0.655396 0.150993 0.014190
O O13 0.639210 0.838526 0.814321
O O14 0.894132 0.460908 0.254309
O O15 0.885731 0.960537 0.269860
O O16 0.918422 0.235443 0.461542
#
# Coordination Sequence:
#
# PCOD9139377 Si02
#       8
#     4   4   4   4   4   4   4   4
#     4  12  29  48  77 110 149 192 250 306 382 441
#     4  10  27  41  71  99 149 182 243 286 365 424
#     4  11  25  44  68 105 138 191 237 299 356 438
#     4  10  25  42  71  96 139 184 236 293 362 428
#     4  10  25  43  71 101 140 188 230 292 351 421
#     4  12  28  48  78 110 148 195 250 308 371 452
#     4  10  26  44  74 100 148 181 245 287 368 416
#     4  11  25  44  72  97 145 177 243 291 373 424
#
# _framework density 23.629816000000002
#
# number of rings (size 3 to 8) (size 9 to 14) (size 15 to 20)
#    0.750    0.500    0.000    3.000   17.500    1.000 
#    0.000    0.000    0.000    0.000    0.000    0.000 
#    0.000    0.000    0.000    0.000    0.000    0.000 
#
# Total GULP energy -89361.747491 kJ/mol
# GULP energy per Si atom -5585.109218 kJ/mol
# Density = 2.357603 g / cm^3
# Si number density = 23.629816 Si / 1000 Ang^3
#
#
#
# Elastic Constant Matrix: (Units=GPa)
#
#
# Indices 1 2 3 4 5 6 
#
# 1 114.1833 20.5068 30.9772 0.0000 20.9999 0.0000
# 2 20.5068 156.9700 55.7281 0.0000 10.3687 0.0000
# 3 30.9772 55.7281 131.2338 0.0000 29.5151 0.0000
# 4 0.0000 0.0000 0.0000 35.9342 0.0000 2.5172
# 5 20.9999 10.3687 29.5151 0.0000 30.4075 0.0000
# 6 0.0000 0.0000 0.0000 2.5172 0.0000 22.4163
#
#
#
# Elastic Compliance Matrix: (Units=1/GPa)
#
#
# Indices 1 2 3 4 5 6 
#
# 1 0.010201 -0.000661 -0.000759 0.000000 -0.006083 0.000000
# 2 -0.000661 0.007556 -0.003295 0.000000 0.001079 0.000000
# 3 -0.000759 -0.003295 0.011293 0.000000 -0.009314 0.000000
# 4 0.000000 0.000000 0.000000 0.028049 0.000000 -0.003150
# 5 -0.006083 0.001079 -0.009314 0.000000 0.045760 0.000000
# 6 0.000000 0.000000 0.000000 -0.003150 0.000000 0.044964
#
#
# Mechanical properties :
#
#
# Convention : Reuss Voigt Hill
#
# Bulk Modulus (GPa) = 50.97058 68.53460 59.75259
# Shear Modulus (GPa) = 30.52614 37.42994 33.97804
#
# Velocity S-wave (km/s) = 3.59813 3.98428 3.79612
# Velocity P-wave (km/s) = 6.23533 7.08748 6.67502
#
# Compressibility (1/GPa) = 0.01961916
#
# Stress axis : x y z
#
# Youngs Moduli (GPa) = 98.02691 132.35246 88.54980
#
# Poissons Ratio (x) = 0.08754 0.06721
# Poissons Ratio (y) = 0.06484 0.29176
# Poissons Ratio (z) = 0.07441 0.43609
#
# Static dielectric constant tensor:
#      x y z
#    x 1.871020 0.000000 -0.023780 
#    y 0.000000 1.963070 0.000000 
#    z -0.023780 0.000000 1.928140 
# 
# From -- ./inp_files/12587.got.cif
#   From: 2010.05.17/outbox.cif.g08.bks.cpg/sg9_7_cif.got.tgz:12587.got - 2010.06.03 20:04:27.
