data_PCOD9139208
_publ_section_title
;
Structure prediction by ZEFSAII (Michael W. Deem and Ramdas Pophale) SiO2 
 PCOD9139208
Probable space group: C C
;
_chemical_formula_sum "Si O2"
_cell_formula_units_Z 32
_cell_length_a 11.725235
_cell_length_b 9.514067
_cell_length_c 10.849712
_cell_angle_alpha 90.000000
_cell_angle_beta 81.789842
_cell_angle_gamma 90.000000
_cell_volume 1197.931236
_symmetry_space_group_name_H-M "C C"
_symmetry_group_IT_number 9
_symmetry_cell_setting 'monoclinic'
loop_
_space_group_symop_operation_xyz
x,y,z
x,-y,1/2+z
1/2+x,1/2+y,z
1/2+x,1/2-y,1/2+z
loop_
_atom_site_type_symbol
_atom_site_label
_atom_site_fract_x
_atom_site_fract_y
_atom_site_fract_z
Si Si1 0.085820 0.835199 0.336720
Si Si2 0.555819 0.925099 0.693633
Si Si3 0.966419 0.306544 0.328013
Si Si4 0.265939 0.493776 0.020755
Si Si5 0.909922 0.270195 0.054251
Si Si6 0.333754 0.917666 0.562541
Si Si7 0.682772 0.375178 0.799811
Si Si8 0.337604 0.606439 0.773490
O O1 0.119961 0.708342 0.241430
O O2 0.029564 0.764352 0.465897
O O3 0.972887 0.895094 0.282080
O O4 0.173197 0.963342 0.347036
O O5 0.632599 0.991169 0.574413
O O6 0.434009 0.889450 0.649610
O O7 0.530388 0.043072 0.799867
O O8 0.925732 0.274232 0.197571
O O9 0.060794 0.193188 0.350998
O O10 0.866534 0.322835 0.442249
O O11 0.329782 0.640628 0.035301
O O12 0.313659 0.406744 0.131170
O O13 0.287626 0.482533 0.870638
O O14 0.854376 0.419178 0.026193
O O15 0.213215 0.896142 0.649953
O O16 0.773032 0.252336 0.821056
#
# Coordination Sequence:
#
# PCOD9139208 Si02
#       8
#     4   4   4   4   4   4   4   4
#     4  11  24  48  75 110 155 198 269 323 397 482
#     4  11  22  44  73 100 148 199 246 323 396 468
#     4  11  24  47  71 107 156 198 266 328 401 478
#     4  11  24  44  74 106 151 199 259 311 414 468
#     4  10  24  46  70 111 150 202 257 331 395 479
#     4  11  24  46  76 106 155 205 266 329 395 480
#     4  12  25  47  77 117 148 212 264 324 403 476
#     4  11  25  48  74 113 151 205 257 331 393 479
#
# _framework density 26.712717000000001
#
# number of rings (size 3 to 8) (size 9 to 14) (size 15 to 20)
#    0.000    1.000    3.750    2.250    0.000    3.000 
#   20.250    0.000    0.000    0.000    0.000    0.000 
#    0.000    0.000    0.000    0.000    0.000    0.000 
#
# Total GULP energy -89558.205905 kJ/mol
# GULP energy per Si atom -5597.387869 kJ/mol
# Density = 2.665192 g / cm^3
# Si number density = 26.712717 Si / 1000 Ang^3
#
#
#
# Elastic Constant Matrix: (Units=GPa)
#
#
# Indices 1 2 3 4 5 6 
#
# 1 70.6627 27.2602 12.2615 0.0000 3.0863 0.0000
# 2 27.2602 139.0234 41.8076 0.0000 14.7480 0.0000
# 3 12.2615 41.8076 148.6071 0.0000 -19.0763 0.0000
# 4 0.0000 0.0000 0.0000 49.7630 0.0000 2.7533
# 5 3.0863 14.7480 -19.0763 0.0000 42.1402 0.0000
# 6 0.0000 0.0000 0.0000 2.7533 0.0000 40.8864
#
#
#
# Elastic Compliance Matrix: (Units=1/GPa)
#
#
# Indices 1 2 3 4 5 6 
#
# 1 0.015344 -0.002811 -0.000523 0.000000 -0.000377 0.000000
# 2 -0.002811 0.009057 -0.002863 0.000000 -0.004260 0.000000
# 3 -0.000523 -0.002863 0.008187 0.000000 0.004746 0.000000
# 4 0.000000 0.000000 0.000000 0.020170 0.000000 -0.001358
# 5 -0.000377 -0.004260 0.004746 0.000000 0.027397 0.000000
# 6 0.000000 0.000000 0.000000 -0.001358 0.000000 0.024549
#
#
# Mechanical properties :
#
#
# Convention : Reuss Voigt Hill
#
# Bulk Modulus (GPa) = 49.52336 57.88353 53.70344
# Shear Modulus (GPa) = 40.37759 45.02218 42.69989
#
# Velocity S-wave (km/s) = 3.89208 4.10984 4.00244
# Velocity P-wave (km/s) = 6.22714 6.65109 6.44260
#
# Compressibility (1/GPa) = 0.02019249
#
# Stress axis : x y z
#
# Youngs Moduli (GPa) = 65.17397 110.41049 122.14393
#
# Poissons Ratio (x) = 0.31039 0.06394
# Poissons Ratio (y) = 0.18322 0.34969
# Poissons Ratio (z) = 0.03412 0.31610
#
# Static dielectric constant tensor:
#      x y z
#    x 2.041120 0.000000 0.024470 
#    y 0.000000 2.149230 0.000000 
#    z 0.024470 0.000000 2.136580 
# 
# From -- ./inp_files/17768.got.cif
#   From: 2010.05.17/outbox.cif.g08.bks.cpg/sg9_9_cif.got.tgz:17768.got - 2010.06.03 20:04:27.
