data_PCOD9139095
_publ_section_title
;
Structure prediction by ZEFSAII (Michael W. Deem and Ramdas Pophale) SiO2 
 PCOD9139095
Probable space group: C C
;
_chemical_formula_sum "Si O2"
_cell_formula_units_Z 16
_cell_length_a 5.799223
_cell_length_b 21.372666
_cell_length_c 5.402889
_cell_angle_alpha 90.000000
_cell_angle_beta 98.325465
_cell_angle_gamma 90.000000
_cell_volume 662.603107
_symmetry_space_group_name_H-M "C C"
_symmetry_group_IT_number 9
_symmetry_cell_setting 'monoclinic'
loop_
_space_group_symop_operation_xyz
x,y,z
x,-y,1/2+z
1/2+x,1/2+y,z
1/2+x,1/2-y,1/2+z
loop_
_atom_site_type_symbol
_atom_site_label
_atom_site_fract_x
_atom_site_fract_y
_atom_site_fract_z
Si Si1 0.363790 0.172326 0.387380
Si Si2 0.053050 0.016986 0.322558
Si Si3 0.585124 0.305104 0.349881
Si Si4 0.768876 0.094224 0.594158
O O1 0.531584 0.232337 0.376870
O O2 0.226970 0.186807 0.618236
O O3 0.514257 0.110118 0.460521
O O4 0.220386 0.170785 0.111331
O O5 0.942440 0.082443 0.386648
O O6 0.181048 0.989650 0.583278
O O7 0.832705 0.968798 0.252556
O O8 0.356621 0.347493 0.270537
#
# Coordination Sequence:
#
# PCOD9139095 Si02
#       4
#     4   4   4   4
#     4  12  27  42  69 101 133 176 220 273 334 395
#     4   8  20  38  68  88 130 182 198 272 324 378
#     4  12  27  42  69 101 133 176 220 273 334 395
#     4  10  24  44  70  92 144 162 232 256 344 376
#
# _framework density 24.147188
#
# number of rings (size 3 to 8) (size 9 to 14) (size 15 to 20)
#    1.500    0.000    2.500    1.500    7.000    0.000 
#    0.000    7.500    0.000    0.000    0.000    0.000 
#    0.000    0.000    0.000    0.000    0.000    0.000 
#
# Total GULP energy -44654.662864 kJ/mol
# GULP energy per Si atom -5581.832858 kJ/mol
# Density = 2.409223 g / cm^3
# Si number density = 24.147188 Si / 1000 Ang^3
#
#
#
# Elastic Constant Matrix: (Units=GPa)
#
#
# Indices 1 2 3 4 5 6 
#
# 1 32.6981 5.8415 44.5055 0.0000 3.1804 0.0000
# 2 5.8415 96.9748 24.1240 0.0000 9.0568 0.0000
# 3 44.5055 24.1240 218.8408 0.0000 1.1910 0.0000
# 4 0.0000 0.0000 0.0000 45.2424 0.0000 7.4538
# 5 3.1804 9.0568 1.1910 0.0000 40.3886 0.0000
# 6 0.0000 0.0000 0.0000 7.4538 0.0000 25.4470
#
#
#
# Elastic Compliance Matrix: (Units=1/GPa)
#
#
# Indices 1 2 3 4 5 6 
#
# 1 0.042676 -0.000132 -0.008648 0.000000 -0.003076 0.000000
# 2 -0.000132 0.010830 -0.001154 0.000000 -0.002384 0.000000
# 3 -0.008648 -0.001154 0.006451 0.000000 0.000749 0.000000
# 4 0.000000 0.000000 0.000000 0.023224 0.000000 -0.006803
# 5 -0.003076 -0.002384 0.000749 0.000000 0.025514 0.000000
# 6 0.000000 0.000000 0.000000 -0.006803 0.000000 0.041290
#
#
# Mechanical properties :
#
#
# Convention : Reuss Voigt Hill
#
# Bulk Modulus (GPa) = 24.94428 55.27286 40.10857
# Shear Modulus (GPa) = 27.29021 40.48509 33.88765
#
# Velocity S-wave (km/s) = 3.36543 4.09907 3.75023
# Velocity P-wave (km/s) = 5.04520 6.73371 5.94966
#
# Compressibility (1/GPa) = 0.04008935
#
# Stress axis : x y z
#
# Youngs Moduli (GPa) = 23.43235 92.33922 155.00665
#
# Poissons Ratio (x) = 0.01221 1.34045
# Poissons Ratio (y) = 0.00310 0.17887
# Poissons Ratio (z) = 0.20264 0.10655
#
# Static dielectric constant tensor:
#      x y z
#    x 1.927750 0.000000 -0.014860 
#    y 0.000000 1.911320 0.000000 
#    z -0.014860 0.000000 1.927610 
# 
# From -- ./inp_files/141.got.cif
#   From: 2010.05.17/outbox.cif.g08.bks.cpg/sg9_1_cif.got.tgz:141.got - 2010.06.03 20:04:27.
