data_PCOD9139074
_publ_section_title
;
Structure prediction by ZEFSAII (Michael W. Deem and Ramdas Pophale) SiO2 
 PCOD9139074
Probable space group: C C
;
_chemical_formula_sum "Si O2"
_cell_formula_units_Z 32
_cell_length_a 18.000279
_cell_length_b 10.834981
_cell_length_c 14.158892
_cell_angle_alpha 90.000000
_cell_angle_beta 32.868757
_cell_angle_gamma 90.000000
_cell_volume 1498.682753
_symmetry_space_group_name_H-M "C C"
_symmetry_group_IT_number 9
_symmetry_cell_setting 'monoclinic'
loop_
_space_group_symop_operation_xyz
x,y,z
x,-y,1/2+z
1/2+x,1/2+y,z
1/2+x,1/2-y,1/2+z
loop_
_atom_site_type_symbol
_atom_site_label
_atom_site_fract_x
_atom_site_fract_y
_atom_site_fract_z
Si Si1 0.897410 0.865161 0.688460
Si Si2 0.619886 0.756637 0.065981
Si Si3 0.438661 0.363431 0.106234
Si Si4 0.761381 0.361032 0.030400
Si Si5 0.537787 0.448506 0.801132
Si Si6 0.161545 0.712290 0.966996
Si Si7 0.282163 0.404965 0.600442
Si Si8 0.050758 0.511514 0.230209
O O1 0.837365 0.884366 0.647090
O O2 0.030474 0.781642 0.569117
O O3 0.939935 0.007483 0.662573
O O4 0.772936 0.800808 0.877719
O O5 0.604337 0.640341 0.152611
O O6 0.555176 0.872225 0.190245
O O7 0.279925 0.325781 0.268052
O O8 0.511866 0.381434 0.928031
O O9 0.521890 0.259299 0.071803
O O10 0.636109 0.434579 0.209489
O O11 0.785632 0.229923 0.052468
O O12 0.719710 0.324344 0.968571
O O13 0.897054 0.440371 0.896381
O O14 0.388921 0.503337 0.935326
O O15 0.129316 0.596794 0.069195
O O16 0.132963 0.462601 0.739686
#
# Coordination Sequence:
#
# PCOD9139074 Si02
#       8
#     4   4   4   4   4   4   4   4
#     4  11  26  43  69 101 141 182 234 291 356 426
#     4  12  25  44  69  99 143 187 229 292 366 431
#     4  11  25  46  69 105 141 183 239 298 355 420
#     4  11  23  41  70 101 131 178 241 286 353 423
#     4  11  26  45  68 101 143 187 226 295 370 423
#     4  11  22  44  72 100 135 186 239 297 346 429
#     4  10  24  44  68  98 140 182 232 300 347 423
#     4  11  23  41  69 101 134 183 238 289 363 421
#
# _framework density 21.352084000000001
#
# number of rings (size 3 to 8) (size 9 to 14) (size 15 to 20)
#    0.000    1.000    2.500    3.750    8.750    4.000 
#    0.000    0.000    0.000    0.000    0.000    0.000 
#    0.000    0.000    0.000    0.000    0.000    0.000 
#
# Total GULP energy -89393.606821 kJ/mol
# GULP energy per Si atom -5587.100426 kJ/mol
# Density = 2.130349 g / cm^3
# Si number density = 21.352084 Si / 1000 Ang^3
#
#
#
# Elastic Constant Matrix: (Units=GPa)
#
#
# Indices 1 2 3 4 5 6 
#
# 1 58.1915 13.6916 -4.8364 0.0000 7.6018 0.0000
# 2 13.6916 82.8310 0.6017 0.0000 -4.3323 0.0000
# 3 -4.8364 0.6017 61.4410 0.0000 -1.2099 0.0000
# 4 0.0000 0.0000 0.0000 43.9623 0.0000 -6.7803
# 5 7.6018 -4.3323 -1.2099 0.0000 35.0301 0.0000
# 6 0.0000 0.0000 0.0000 -6.7803 0.0000 24.5852
#
#
#
# Elastic Compliance Matrix: (Units=1/GPa)
#
#
# Indices 1 2 3 4 5 6 
#
# 1 0.018661 -0.003326 0.001415 0.000000 -0.004412 0.000000
# 2 -0.003326 0.012745 -0.000342 0.000000 0.002286 0.000000
# 3 0.001415 -0.000342 0.016395 0.000000 0.000217 0.000000
# 4 0.000000 0.000000 0.000000 0.023757 0.000000 0.006552
# 5 -0.004412 0.002286 0.000217 0.000000 0.029795 0.000000
# 6 0.000000 0.000000 0.000000 0.006552 0.000000 0.042482
#
#
# Mechanical properties :
#
#
# Convention : Reuss Voigt Hill
#
# Bulk Modulus (GPa) = 23.09726 24.59746 23.84736
# Shear Modulus (GPa) = 30.71803 33.58263 32.15033
#
# Velocity S-wave (km/s) = 3.79706 3.97016 3.88457
# Velocity P-wave (km/s) = 5.48310 5.70624 5.59578
#
# Compressibility (1/GPa) = 0.04329517
#
# Stress axis : x y z
#
# Youngs Moduli (GPa) = 53.58755 78.46504 60.99514
#
# Poissons Ratio (x) = 0.26094 -0.08628
# Poissons Ratio (y) = 0.17821 0.02083
# Poissons Ratio (z) = -0.07581 0.02680
#
# Static dielectric constant tensor:
#      x y z
#    x 1.812380 0.000000 0.018220 
#    y 0.000000 1.748960 0.000000 
#    z 0.018220 0.000000 1.752420 
# 
# From -- ./inp_files/12740.got.cif
#   From: 2010.05.17/outbox.cif.g08.bks.cpg/sg9_7_cif.got.tgz:12740.got - 2010.06.03 20:04:27.
