data_PCOD9139526
_publ_section_title
;
Structure prediction by ZEFSAII (Michael W. Deem and Ramdas Pophale) SiO2 
 PCOD9139526
Probable space group: C C
;
_chemical_formula_sum "Si O2"
_cell_formula_units_Z 28
_cell_length_a 21.588716
_cell_length_b 7.488377
_cell_length_c 14.943148
_cell_angle_alpha 90.000000
_cell_angle_beta 26.496874
_cell_angle_gamma 90.000000
_cell_volume 1077.795886
_symmetry_space_group_name_H-M "C C"
_symmetry_group_IT_number 9
_symmetry_cell_setting 'monoclinic'
loop_
_space_group_symop_operation_xyz
x,y,z
x,-y,1/2+z
1/2+x,1/2+y,z
1/2+x,1/2-y,1/2+z
loop_
_atom_site_type_symbol
_atom_site_label
_atom_site_fract_x
_atom_site_fract_y
_atom_site_fract_z
Si Si1 0.917290 0.180592 0.494000
Si Si2 0.159866 0.762635 0.117626
Si Si3 0.844631 0.851488 0.525978
Si Si4 0.645429 0.865283 0.099902
Si Si5 0.592960 0.084790 0.468708
Si Si6 0.942609 0.092375 0.127952
Si Si7 0.170688 0.825633 0.897692
O O1 0.920854 0.054245 0.577538
O O2 0.812928 0.338967 0.657307
O O3 0.069546 0.228346 0.262934
O O4 0.837177 0.066885 0.521109
O O5 0.286278 0.776351 0.023966
O O6 0.121363 0.555927 0.173891
O O7 0.008786 0.843020 0.327951
O O8 0.204828 0.808966 0.958890
O O9 0.738773 0.832497 0.745092
O O10 0.567640 0.863429 0.104328
O O11 0.804578 0.874572 0.863406
O O12 0.489237 0.205170 0.544581
O O13 0.602540 0.868188 0.456302
O O14 0.064914 0.988168 0.022805
#
# Coordination Sequence:
#
# PCOD9139526 Si02
#       7
#     4   4   4   4   4   4   4
#     4  11  26  47  74 115 150 213 263 334 412 484
#     4  11  24  45  74 111 156 196 269 331 397 491
#     4  11  24  47  74 114 153 207 264 334 406 489
#     4  11  26  47  71 111 157 202 269 331 403 487
#     4  10  25  49  72 107 155 203 264 330 403 483
#     4  12  24  52  76 106 165 202 269 336 401 493
#     4  10  25  49  75 110 152 207 262 334 408 483
#
# _framework density 25.978946000000001
#
# number of rings (size 3 to 8) (size 9 to 14) (size 15 to 20)
#    0.000    1.143    4.286    1.714   10.000    0.000 
#   12.857    0.000    0.000    0.000    0.000    0.000 
#    0.000    0.000    0.000    0.000    0.000    0.000 
#
# Total GULP energy -78121.968139 kJ/mol
# GULP energy per Si atom -5580.140581 kJ/mol
# Density = 2.591982 g / cm^3
# Si number density = 25.978946 Si / 1000 Ang^3
#
#
#
# Elastic Constant Matrix: (Units=GPa)
#
#
# Indices 1 2 3 4 5 6 
#
# 1 75.6828 13.9617 23.5330 0.0000 4.3429 -0.0001
# 2 13.9617 64.3207 49.3153 0.0000 -4.4437 0.0001
# 3 23.5330 49.3153 189.0638 0.0001 10.9357 0.0001
# 4 0.0000 0.0000 0.0001 44.9995 0.0001 1.1099
# 5 4.3429 -4.4437 10.9357 0.0001 26.1854 0.0000
# 6 -0.0001 0.0001 0.0001 1.1099 0.0000 35.6561
#
#
#
# Elastic Compliance Matrix: (Units=1/GPa)
#
#
# Indices 1 2 3 4 5 6 
#
# 1 0.014108 -0.002479 -0.000973 0.000000 -0.002354 0.000000
# 2 -0.002479 0.020689 -0.005446 0.000000 0.006197 0.000000
# 3 -0.000973 -0.005446 0.007045 0.000000 -0.003705 0.000000
# 4 0.000000 0.000000 0.000000 0.022240 0.000000 -0.000692
# 5 -0.002354 0.006197 -0.003705 0.000000 0.041178 0.000000
# 6 0.000000 0.000000 0.000000 -0.000692 0.000000 0.028067
#
#
# Mechanical properties :
#
#
# Convention : Reuss Voigt Hill
#
# Bulk Modulus (GPa) = 41.58781 55.85412 48.72096
# Shear Modulus (GPa) = 31.41893 37.51871 34.46882
#
# Velocity S-wave (km/s) = 3.48142 3.80438 3.64648
# Velocity P-wave (km/s) = 5.67480 6.39095 6.04349
#
# Compressibility (1/GPa) = 0.02404551
#
# Stress axis : x y z
#
# Youngs Moduli (GPa) = 70.88163 48.33474 141.93815
#
# Poissons Ratio (x) = 0.11981 0.13815
# Poissons Ratio (y) = 0.17569 0.77305
# Poissons Ratio (z) = 0.06899 0.26325
#
# Static dielectric constant tensor:
#      x y z
#    x 2.333560 0.000000 -0.102290 
#    y 0.000000 2.102320 0.000000 
#    z -0.102290 0.000000 2.086990 
# 
# From -- ./inp_files/31687.got.cif
#   From: 2010.05.17/outbox.cif.g08.bks.cpg/sg9_16_cif.got.tgz:31687.got - 2010.06.03 20:04:27.
