data_PCOD9139329
_publ_section_title
;
Structure prediction by ZEFSAII (Michael W. Deem and Ramdas Pophale) SiO2 
 PCOD9139329
Probable space group: C C
;
_chemical_formula_sum "Si O2"
_cell_formula_units_Z 28
_cell_length_a 11.498488
_cell_length_b 9.375761
_cell_length_c 10.545712
_cell_angle_alpha 90.000000
_cell_angle_beta 75.058304
_cell_angle_gamma 90.000000
_cell_volume 1098.462221
_symmetry_space_group_name_H-M "C C"
_symmetry_group_IT_number 9
_symmetry_cell_setting 'monoclinic'
loop_
_space_group_symop_operation_xyz
x,y,z
x,-y,1/2+z
1/2+x,1/2+y,z
1/2+x,1/2-y,1/2+z
loop_
_atom_site_type_symbol
_atom_site_label
_atom_site_fract_x
_atom_site_fract_y
_atom_site_fract_z
Si Si1 0.405780 0.041823 0.504750
Si Si2 0.314713 0.407666 0.279020
Si Si3 0.242244 0.109100 0.880389
Si Si4 0.915017 0.199074 0.189864
Si Si5 0.610782 0.164326 0.016045
Si Si6 0.156976 0.159080 0.263573
Si Si7 0.044135 0.735167 0.302635
O O1 0.400429 0.191386 0.578924
O O2 0.481205 0.086858 0.357535
O O3 0.280239 0.975361 0.495113
O O4 0.490391 0.929733 0.550728
O O5 0.343505 0.551795 0.198840
O O6 0.221214 0.423940 0.422806
O O7 0.251426 0.286284 0.211657
O O8 0.438085 0.344290 0.298628
O O9 0.353798 0.211975 0.820789
O O10 0.124861 0.205019 0.894131
O O11 0.223168 0.987349 0.778701
O O12 0.050315 0.161083 0.193290
O O13 0.624878 0.217743 0.154694
O O14 0.600530 0.292557 0.916971
#
# Coordination Sequence:
#
# PCOD9139329 Si02
#       7
#     4   4   4   4   4   4   4
#     4  12  26  47  77 117 160 212 264 332 408 477
#     4  10  24  51  74 120 156 207 270 326 410 476
#     4  12  25  46  79 113 155 205 267 328 406 478
#     4  12  26  48  78 113 163 206 267 331 402 486
#     4  10  25  49  77 110 169 206 262 340 397 483
#     4  10  24  50  72 113 158 203 268 323 401 479
#     4  12  26  47  79 116 159 211 270 334 406 481
#
# _framework density 25.490179000000001
#
# number of rings (size 3 to 8) (size 9 to 14) (size 15 to 20)
#    0.857    0.000    4.286    1.714    4.000    2.286 
#    0.000    0.000    0.000    0.000    0.000    0.000 
#    0.000    0.000    0.000    0.000    0.000    0.000 
#
# Total GULP energy -78391.351861 kJ/mol
# GULP energy per Si atom -5599.382276 kJ/mol
# Density = 2.543216 g / cm^3
# Si number density = 25.490179 Si / 1000 Ang^3
#
#
#
# Elastic Constant Matrix: (Units=GPa)
#
#
# Indices 1 2 3 4 5 6 
#
# 1 175.6907 53.9389 22.7038 0.0000 17.4590 0.0000
# 2 53.9389 111.3354 -5.1547 0.0000 6.7359 0.0000
# 3 22.7038 -5.1547 66.7552 0.0000 3.8644 0.0000
# 4 0.0000 0.0000 0.0000 38.9533 0.0000 4.4164
# 5 17.4590 6.7359 3.8644 0.0000 23.3062 0.0000
# 6 0.0000 0.0000 0.0000 4.4164 0.0000 53.0447
#
#
#
# Elastic Compliance Matrix: (Units=1/GPa)
#
#
# Indices 1 2 3 4 5 6 
#
# 1 0.007520 -0.003509 -0.002586 0.000000 -0.004190 0.000000
# 2 -0.003509 0.010829 0.002079 0.000000 -0.000846 0.000000
# 3 -0.002586 0.002079 0.016097 0.000000 -0.001333 0.000000
# 4 0.000000 0.000000 0.000000 0.025916 0.000000 -0.002158
# 5 -0.004190 -0.000846 -0.001333 0.000000 0.046511 0.000000
# 6 0.000000 0.000000 0.000000 -0.002158 0.000000 0.019032
#
#
# Mechanical properties :
#
#
# Convention : Reuss Voigt Hill
#
# Bulk Modulus (GPa) = 37.85958 55.19524 46.52741
# Shear Modulus (GPa) = 35.02785 41.88038 38.45411
#
# Velocity S-wave (km/s) = 3.71100 4.05779 3.88826
# Velocity P-wave (km/s) = 5.76601 6.60718 6.20087
#
# Compressibility (1/GPa) = 0.02641339
#
# Stress axis : x y z
#
# Youngs Moduli (GPa) = 132.98251 92.34080 62.12235
#
# Poissons Ratio (x) = 0.32406 0.16064
# Poissons Ratio (y) = 0.46668 -0.12914
# Poissons Ratio (z) = 0.34388 -0.19195
#
# Static dielectric constant tensor:
#      x y z
#    x 1.986380 0.000000 -0.053460 
#    y 0.000000 1.958260 0.000000 
#    z -0.053460 0.000000 2.075750 
# 
# From -- ./inp_files/15948.got.cif
#   From: 2010.05.17/outbox.cif.g08.bks.cpg/sg9_8_cif.got.tgz:15948.got - 2010.06.03 20:04:27.
