data_PCOD9139736
_publ_section_title
;
Structure prediction by ZEFSAII (Michael W. Deem and Ramdas Pophale) SiO2 
 PCOD9139736
Probable space group: C C
;
_chemical_formula_sum "Si O2"
_cell_formula_units_Z 24
_cell_length_a 10.384458
_cell_length_b 16.564402
_cell_length_c 9.670095
_cell_angle_alpha 90.000000
_cell_angle_beta 137.803739
_cell_angle_gamma 90.000000
_cell_volume 1117.243249
_symmetry_space_group_name_H-M "C C"
_symmetry_group_IT_number 9
_symmetry_cell_setting 'monoclinic'
loop_
_space_group_symop_operation_xyz
x,y,z
x,-y,1/2+z
1/2+x,1/2+y,z
1/2+x,1/2-y,1/2+z
loop_
_atom_site_type_symbol
_atom_site_label
_atom_site_fract_x
_atom_site_fract_y
_atom_site_fract_z
Si Si1 0.671290 0.631065 0.762220
Si Si2 0.207513 0.427904 0.290710
Si Si3 0.511832 0.181412 0.424935
Si Si4 0.756057 0.181411 0.347732
Si Si5 0.560376 0.072095 0.981957
Si Si6 0.096600 0.131065 0.010447
O O1 0.757392 0.721561 0.852110
O O2 0.467198 0.644298 0.528059
O O3 0.633945 0.597344 0.886334
O O4 0.831023 0.580676 0.809314
O O5 0.133944 0.437781 0.386333
O O6 0.436866 0.419323 0.463353
O O7 0.133944 0.499999 0.136332
O O8 0.113703 0.349551 0.143701
O O9 0.633945 0.155862 0.386334
O O10 0.510497 0.278439 0.420555
O O11 0.300692 0.144298 0.244609
O O12 0.654186 0.150447 0.128967
#
# Coordination Sequence:
#
# PCOD9139736 Si02
#       6
#     4   4   4   4   4   4
#     4  11  21  42  77 101 132 179 222 275 333 402
#     4  12  28  46  65  99 140 177 225 281 335 398
#     4  11  20  43  74 105 132 174 225 273 335 403
#     4  11  20  43  74 105 132 174 225 273 335 403
#     4  12  28  46  65  99 140 177 225 281 335 398
#     4  11  21  42  77 101 132 179 222 275 333 402
#
# _framework density 21.481445000000001
#
# number of rings (size 3 to 8) (size 9 to 14) (size 15 to 20)
#    0.000    0.667    6.667    3.000    0.000    4.000 
#    0.000    0.000    0.000    0.000    0.000    0.000 
#    0.000    0.000    0.000    0.000    0.000    0.000 
#
# Total GULP energy -67165.463611 kJ/mol
# GULP energy per Si atom -5597.121968 kJ/mol
# Density = 2.143255 g / cm^3
# Si number density = 21.481445 Si / 1000 Ang^3
#
#
#
# Elastic Constant Matrix: (Units=GPa)
#
#
# Indices 1 2 3 4 5 6 
#
# 1 213.4631 53.5892 85.5681 0.0000 6.2879 0.0000
# 2 53.5892 40.8644 3.8145 0.0000 0.7475 0.0000
# 3 85.5681 3.8145 111.9457 0.0000 21.3729 0.0000
# 4 0.0000 0.0000 0.0000 9.7261 0.0000 -3.0823
# 5 6.2879 0.7475 21.3729 0.0000 62.3809 0.0000
# 6 0.0000 0.0000 0.0000 -3.0823 0.0000 8.7730
#
#
#
# Elastic Compliance Matrix: (Units=1/GPa)
#
#
# Indices 1 2 3 4 5 6 
#
# 1 0.012008 -0.014939 -0.009065 0.000000 0.002075 0.000000
# 2 -0.014939 0.043134 0.010443 0.000000 -0.002589 0.000000
# 3 -0.009065 0.010443 0.016431 0.000000 -0.004841 0.000000
# 4 0.000000 0.000000 0.000000 0.115699 0.000000 0.040650
# 5 0.002075 -0.002589 -0.004841 0.000000 0.017511 0.000000
# 6 0.000000 0.000000 0.000000 0.040650 0.000000 0.128269
#
#
# Mechanical properties :
#
#
# Convention : Reuss Voigt Hill
#
# Bulk Modulus (GPa) = 22.49683 72.46852 47.48267
# Shear Modulus (GPa) = 13.33372 31.06275 22.19824
#
# Velocity S-wave (km/s) = 2.49411 3.80679 3.21809
# Velocity P-wave (km/s) = 4.33469 7.28909 5.99668
#
# Compressibility (1/GPa) = 0.04445071
#
# Stress axis : x y z
#
# Youngs Moduli (GPa) = 83.27935 23.18355 60.86182
#
# Poissons Ratio (x) = 0.34633 0.55174
# Poissons Ratio (y) = 1.24408 -0.63559
# Poissons Ratio (z) = 0.75497 -0.24211
#
# Static dielectric constant tensor:
#      x y z
#    x 1.750490 0.000000 0.033360 
#    y 0.000000 1.838620 0.000000 
#    z 0.033360 0.000000 1.800070 
# 
# From -- ./inp_files/5176.got.cif
#   From: 2010.05.17/outbox.cif.g08.bks.cpg/sg9_3_cif.got.tgz:5176.got - 2010.06.03 20:04:27.
