data_PCOD9139842
_publ_section_title
;
Structure prediction by ZEFSAII (Michael W. Deem and Ramdas Pophale) SiO2 
 PCOD9139842
Probable space group: C C
;
_chemical_formula_sum "Si O2"
_cell_formula_units_Z 32
_cell_length_a 11.345331
_cell_length_b 18.136951
_cell_length_c 7.823758
_cell_angle_alpha 90.000000
_cell_angle_beta 58.201971
_cell_angle_gamma 90.000000
_cell_volume 1368.264998
_symmetry_space_group_name_H-M "C C"
_symmetry_group_IT_number 9
_symmetry_cell_setting 'monoclinic'
loop_
_space_group_symop_operation_xyz
x,y,z
x,-y,1/2+z
1/2+x,1/2+y,z
1/2+x,1/2-y,1/2+z
loop_
_atom_site_type_symbol
_atom_site_label
_atom_site_fract_x
_atom_site_fract_y
_atom_site_fract_z
Si Si1 0.863420 0.997824 0.318160
Si Si2 0.232233 0.245237 0.523009
Si Si3 0.034751 0.086556 0.456137
Si Si4 0.173416 0.623913 0.482285
Si Si5 0.019072 0.250529 0.972075
Si Si6 0.828656 0.371323 0.677757
Si Si7 0.125849 0.610464 0.917779
Si Si8 0.915977 0.772426 0.909432
O O1 0.749583 0.934390 0.409269
O O2 0.765788 0.063352 0.312780
O O3 0.918126 0.043106 0.437461
O O4 0.006020 0.957683 0.150211
O O5 0.132289 0.222553 0.753397
O O6 0.372818 0.272468 0.504553
O O7 0.282223 0.176167 0.375869
O O8 0.158928 0.305660 0.455815
O O9 0.186803 0.084121 0.256368
O O10 0.981109 0.171382 0.498073
O O11 0.050619 0.661173 0.466775
O O12 0.129051 0.599987 0.708641
O O13 0.277035 0.690678 0.446636
O O14 0.018422 0.225759 0.169489
O O15 0.875946 0.308342 0.505465
O O16 0.972819 0.413267 0.595450
#
# Coordination Sequence:
#
# PCOD9139842 Si02
#       8
#     4   4   4   4   4   4   4   4
#     4  11  25  47  69  97 133 196 249 275 348 424
#     4  12  26  40  69 113 145 170 231 303 358 417
#     4  11  26  45  72 101 140 190 230 302 343 430
#     4  11  23  44  71  98 141 193 232 282 351 434
#     4  12  25  39  68 114 143 175 226 299 356 415
#     4  12  24  45  71 106 143 181 233 295 374 417
#     4  12  24  46  74  96 143 194 234 285 357 430
#     4  11  21  44  74 103 142 185 229 281 373 429
#
# _framework density 23.387283
#
# number of rings (size 3 to 8) (size 9 to 14) (size 15 to 20)
#    0.000    0.500    7.500    1.500    3.500    0.000 
#    2.250    0.000    0.000    0.000    0.000    0.000 
#    0.000    0.000    0.000    0.000    0.000    0.000 
#
# Total GULP energy -89215.092352 kJ/mol
# GULP energy per Si atom -5575.943272 kJ/mol
# Density = 2.333405 g / cm^3
# Si number density = 23.387283 Si / 1000 Ang^3
#
#
#
# Elastic Constant Matrix: (Units=GPa)
#
#
# Indices 1 2 3 4 5 6 
#
# 1 74.4443 19.7085 37.6103 0.0000 -30.4842 0.0000
# 2 19.7085 55.5677 14.3109 0.0000 -4.4605 0.0000
# 3 37.6103 14.3109 143.0769 0.0000 -22.6122 0.0000
# 4 0.0000 0.0000 0.0000 31.6109 0.0000 -5.4459
# 5 -30.4842 -4.4605 -22.6122 0.0000 49.0171 0.0000
# 6 0.0000 0.0000 0.0000 -5.4459 0.0000 36.8841
#
#
#
# Elastic Compliance Matrix: (Units=1/GPa)
#
#
# Indices 1 2 3 4 5 6 
#
# 1 0.021153 -0.005778 -0.003221 0.000000 0.011143 0.000000
# 2 -0.005778 0.020087 -0.000830 0.000000 -0.002148 0.000000
# 3 -0.003221 -0.000830 0.008187 0.000000 0.001698 0.000000
# 4 0.000000 0.000000 0.000000 0.032460 0.000000 0.004793
# 5 0.011143 -0.002148 0.001698 0.000000 0.027919 0.000000
# 6 0.000000 0.000000 0.000000 0.004793 0.000000 0.027820
#
#
# Mechanical properties :
#
#
# Convention : Reuss Voigt Hill
#
# Bulk Modulus (GPa) = 33.59268 46.26092 39.92680
# Shear Modulus (GPa) = 29.90282 36.93304 33.41793
#
# Velocity S-wave (km/s) = 3.57962 3.97822 3.78417
# Velocity P-wave (km/s) = 5.61068 6.39726 6.01684
#
# Compressibility (1/GPa) = 0.02976839
#
# Stress axis : x y z
#
# Youngs Moduli (GPa) = 47.27400 49.78414 122.13889
#
# Poissons Ratio (x) = 0.28767 0.39346
# Poissons Ratio (y) = 0.27317 0.10134
# Poissons Ratio (z) = 0.15229 0.04131
#
# Static dielectric constant tensor:
#      x y z
#    x 1.972160 0.000000 0.024260 
#    y 0.000000 2.069740 0.000000 
#    z 0.024260 0.000000 1.965200 
# 
# From -- ./inp_files/8269.got.cif
#   From: 2010.05.17/outbox.cif.g08.bks.cpg/sg9_5_cif.got.tgz:8269.got - 2010.06.03 20:04:27.
