data_PCOD9139185
_publ_section_title
;
Structure prediction by ZEFSAII (Michael W. Deem and Ramdas Pophale) SiO2 
 PCOD9139185
Probable space group: C C
;
_chemical_formula_sum "Si O2"
_cell_formula_units_Z 28
_cell_length_a 6.786321
_cell_length_b 26.633317
_cell_length_c 8.542835
_cell_angle_alpha 90.000000
_cell_angle_beta 119.946985
_cell_angle_gamma 90.000000
_cell_volume 1337.901267
_symmetry_space_group_name_H-M "C C"
_symmetry_group_IT_number 9
_symmetry_cell_setting 'monoclinic'
loop_
_space_group_symop_operation_xyz
x,y,z
x,-y,1/2+z
1/2+x,1/2+y,z
1/2+x,1/2-y,1/2+z
loop_
_atom_site_type_symbol
_atom_site_label
_atom_site_fract_x
_atom_site_fract_y
_atom_site_fract_z
Si Si1 0.253630 0.748814 0.165630
Si Si2 0.276577 0.251081 0.000901
Si Si3 0.437654 0.830891 0.008115
Si Si4 0.234106 0.013197 0.800777
Si Si5 0.501754 0.055825 0.627480
Si Si6 0.032343 0.168882 0.096111
Si Si7 0.966559 0.055941 0.974200
O O1 0.412023 0.745438 0.388019
O O2 0.329946 0.701409 0.092626
O O3 0.027263 0.747009 0.187065
O O4 0.337628 0.798817 0.112769
O O5 0.140711 0.201663 0.999409
O O6 0.145356 0.298871 0.018001
O O7 0.514064 0.886110 0.086838
O O8 0.234795 0.835776 0.802535
O O9 0.734033 0.039373 0.801141
O O10 0.428972 0.977088 0.949151
O O11 0.039907 0.976847 0.652911
O O12 0.153630 0.046648 0.913846
O O13 0.314044 0.046584 0.687229
O O14 0.955014 0.114086 0.015002
#
# Coordination Sequence:
#
# PCOD9139185 Si02
#       7
#     4   4   4   4   4   4   4
#     4  11  24  41  62  89 130 173 212 262 319 385
#     4  11  24  41  62  89 130 173 212 262 319 385
#     4  11  24  41  62  96 129 167 218 267 321 389
#     4  10  24  46  66  94 132 168 220 270 324 386
#     4  11  24  43  68  95 129 171 215 271 326 389
#     4  11  24  41  62  96 129 167 218 267 321 389
#     4  11  24  43  68  95 129 171 215 271 326 389
#
# _framework density 20.928301000000001
#
# number of rings (size 3 to 8) (size 9 to 14) (size 15 to 20)
#    0.000    1.143    4.286    0.857    6.000    0.000 
#    0.000    1.429    0.000    0.000    0.000    0.000 
#    0.000    0.000    0.000    0.000    0.000    0.000 
#
# Total GULP energy -78097.352250 kJ/mol
# GULP energy per Si atom -5578.382304 kJ/mol
# Density = 2.088067 g / cm^3
# Si number density = 20.928301 Si / 1000 Ang^3
#
#
#
# Elastic Constant Matrix: (Units=GPa)
#
#
# Indices 1 2 3 4 5 6 
#
# 1 78.6784 21.5222 6.2024 0.0000 0.3574 0.0000
# 2 21.5222 82.9270 28.0984 0.0000 -7.1507 0.0000
# 3 6.2024 28.0984 62.3916 0.0000 -15.4160 0.0000
# 4 0.0000 0.0000 0.0000 5.7874 0.0000 -0.2396
# 5 0.3574 -7.1507 -15.4160 0.0000 38.6575 0.0000
# 6 0.0000 0.0000 0.0000 -0.2396 0.0000 25.7443
#
#
#
# Elastic Compliance Matrix: (Units=1/GPa)
#
#
# Indices 1 2 3 4 5 6 
#
# 1 0.013706 -0.003655 0.000095 0.000000 -0.000765 0.000000
# 2 -0.003655 0.015205 -0.006413 0.000000 0.000289 0.000000
# 3 0.000095 -0.006413 0.020648 0.000000 0.007047 0.000000
# 4 0.000000 0.000000 0.000000 0.172857 0.000000 0.001609
# 5 -0.000765 0.000289 0.007047 0.000000 0.028739 0.000000
# 6 0.000000 0.000000 0.000000 0.001609 0.000000 0.038858
#
#
# Mechanical properties :
#
#
# Convention : Reuss Voigt Hill
#
# Bulk Modulus (GPa) = 33.77051 37.29366 35.53209
# Shear Modulus (GPa) = 15.63327 25.24944 20.44135
#
# Velocity S-wave (km/s) = 2.73608 3.47720 3.12866
# Velocity P-wave (km/s) = 5.11398 5.82921 5.48327
#
# Compressibility (1/GPa) = 0.02961163
#
# Stress axis : x y z
#
# Youngs Moduli (GPa) = 72.96166 65.76662 48.43150
#
# Poissons Ratio (x) = 0.24038 -0.00458
# Poissons Ratio (y) = 0.26668 0.31059
# Poissons Ratio (z) = -0.00690 0.42176
#
# Static dielectric constant tensor:
#      x y z
#    x 1.759190 0.000000 0.081330 
#    y 0.000000 1.536570 0.000000 
#    z 0.081330 0.000000 1.861700 
# 
# From -- ./inp_files/4251.got.cif
#   From: 2010.05.17/outbox.cif.g08.bks.cpg/sg9_3_cif.got.tgz:4251.got - 2010.06.03 20:04:27.
