data_PCOD9139162
_publ_section_title
;
Structure prediction by ZEFSAII (Michael W. Deem and Ramdas Pophale) SiO2 
 PCOD9139162
Probable space group: C C
;
_chemical_formula_sum "Si O2"
_cell_formula_units_Z 28
_cell_length_a 7.903475
_cell_length_b 12.950179
_cell_length_c 10.835127
_cell_angle_alpha 90.000000
_cell_angle_beta 91.953354
_cell_angle_gamma 90.000000
_cell_volume 1108.346166
_symmetry_space_group_name_H-M "C C"
_symmetry_group_IT_number 9
_symmetry_cell_setting 'monoclinic'
loop_
_space_group_symop_operation_xyz
x,y,z
x,-y,1/2+z
1/2+x,1/2+y,z
1/2+x,1/2-y,1/2+z
loop_
_atom_site_type_symbol
_atom_site_label
_atom_site_fract_x
_atom_site_fract_y
_atom_site_fract_z
Si Si1 0.171530 0.650693 0.663410
Si Si2 0.889130 0.342810 0.623072
Si Si3 0.441733 0.478288 0.920596
Si Si4 0.014416 0.253144 0.397574
Si Si5 0.843877 0.712535 0.576143
Si Si6 0.750749 0.925580 0.605241
Si Si7 0.650518 0.529448 0.684537
O O1 0.326136 0.729970 0.658662
O O2 0.065358 0.690773 0.775503
O O3 0.238497 0.535393 0.671636
O O4 0.027799 0.662895 0.552014
O O5 0.774899 0.431017 0.678654
O O6 0.898940 0.330736 0.474957
O O7 0.082456 0.370400 0.651275
O O8 0.420748 0.357355 0.889615
O O9 0.548485 0.524411 0.810191
O O10 0.273840 0.538535 0.962077
O O11 0.542696 0.480834 0.054379
O O12 0.197796 0.226705 0.467722
O O13 0.880325 0.830374 0.618584
O O14 0.751950 0.635275 0.668557
#
# Coordination Sequence:
#
# PCOD9139162 Si02
#       7
#     4   4   4   4   4   4   4
#     4  12  23  48  79 101 155 198 245 325 388 447
#     4  11  23  45  71 110 147 193 257 308 374 458
#     4  11  24  46  72 107 156 199 253 320 382 451
#     4  10  24  45  72 111 154 194 260 318 380 464
#     4  10  25  49  67 111 147 194 258 304 391 453
#     4  11  25  47  73 110 148 201 258 314 385 461
#     4  11  24  46  78 108 153 203 253 319 382 460
#
# _framework density 25.262865000000001
#
# number of rings (size 3 to 8) (size 9 to 14) (size 15 to 20)
#    0.000    1.143    4.286    0.857    2.000    2.286 
#    0.000    1.429    0.000    0.000    0.000    0.000 
#    0.000    0.000    0.000    0.000    0.000    0.000 
#
# Total GULP energy -78135.497993 kJ/mol
# GULP energy per Si atom -5581.107000 kJ/mol
# Density = 2.520537 g / cm^3
# Si number density = 25.262865 Si / 1000 Ang^3
#
#
#
# Elastic Constant Matrix: (Units=GPa)
#
#
# Indices 1 2 3 4 5 6 
#
# 1 88.9977 30.4021 22.0070 0.0000 -12.6404 0.0000
# 2 30.4021 197.9137 35.9720 0.0000 -23.9952 0.0000
# 3 22.0070 35.9720 114.3148 0.0000 -22.9811 0.0000
# 4 0.0000 0.0000 0.0000 34.3370 0.0000 -22.6749
# 5 -12.6404 -23.9952 -22.9811 0.0000 39.1367 0.0000
# 6 0.0000 0.0000 0.0000 -22.6749 0.0000 36.6917
#
#
#
# Elastic Compliance Matrix: (Units=1/GPa)
#
#
# Indices 1 2 3 4 5 6 
#
# 1 0.012395 -0.001354 -0.001499 0.000000 0.002293 0.000000
# 2 -0.001354 0.005752 -0.001053 0.000000 0.002471 0.000000
# 3 -0.001499 -0.001053 0.010364 0.000000 0.004956 0.000000
# 4 0.000000 0.000000 0.000000 0.049202 0.000000 0.030406
# 5 0.002293 0.002471 0.004956 0.000000 0.030717 0.000000
# 6 0.000000 0.000000 0.000000 0.030406 0.000000 0.046045
#
#
# Mechanical properties :
#
#
# Convention : Reuss Voigt Hill
#
# Bulk Modulus (GPa) = 48.30943 64.22095 56.26519
# Shear Modulus (GPa) = 29.55337 42.88943 36.22140
#
# Velocity S-wave (km/s) = 3.42399 4.12482 3.79064
# Velocity P-wave (km/s) = 5.89880 6.93987 6.44041
#
# Compressibility (1/GPa) = 0.02069989
#
# Stress axis : x y z
#
# Youngs Moduli (GPa) = 80.67742 173.86690 96.48822
#
# Poissons Ratio (x) = 0.23533 0.14466
# Poissons Ratio (y) = 0.10920 0.10156
# Poissons Ratio (z) = 0.12096 0.18300
#
# Static dielectric constant tensor:
#      x y z
#    x 2.169690 0.000000 0.097180 
#    y 0.000000 1.995580 0.000000 
#    z 0.097180 0.000000 2.066100 
# 
# From -- ./inp_files/14405.got.cif
#   From: 2010.05.17/outbox.cif.g08.bks.cpg/sg9_8_cif.got.tgz:14405.got - 2010.06.03 20:04:27.
