data_PCOD9139536
_publ_section_title
;
Structure prediction by ZEFSAII (Michael W. Deem and Ramdas Pophale) SiO2 
 PCOD9139536
Probable space group: C C
;
_chemical_formula_sum "Si O2"
_cell_formula_units_Z 28
_cell_length_a 15.926848
_cell_length_b 4.801155
_cell_length_c 13.608669
_cell_angle_alpha 90.000000
_cell_angle_beta 76.349780
_cell_angle_gamma 90.000000
_cell_volume 1011.224969
_symmetry_space_group_name_H-M "C C"
_symmetry_group_IT_number 9
_symmetry_cell_setting 'monoclinic'
loop_
_space_group_symop_operation_xyz
x,y,z
x,-y,1/2+z
1/2+x,1/2+y,z
1/2+x,1/2-y,1/2+z
loop_
_atom_site_type_symbol
_atom_site_label
_atom_site_fract_x
_atom_site_fract_y
_atom_site_fract_z
Si Si1 0.974010 0.271393 0.737940
Si Si2 0.719218 0.913130 0.776574
Si Si3 0.096242 0.073824 0.334779
Si Si4 0.964853 0.694137 0.023168
Si Si5 0.832932 0.614754 0.895297
Si Si6 0.579337 0.809037 0.089673
Si Si7 0.199917 0.785892 0.064030
O O1 0.046672 0.814815 0.942999
O O2 0.898888 0.418842 0.817977
O O3 0.017760 0.024436 0.785626
O O4 0.945311 0.184821 0.636379
O O5 0.676032 0.218812 0.785150
O O6 0.797481 0.843088 0.828411
O O7 0.737600 0.794402 0.661126
O O8 0.643712 0.716337 0.839399
O O9 0.045473 0.487822 0.193950
O O10 0.885063 0.731161 0.974020
O O11 0.160531 0.498940 0.035869
O O12 0.998630 0.377715 0.039481
O O13 0.761861 0.421873 0.967471
O O14 0.622317 0.512636 0.098557
#
# Coordination Sequence:
#
# PCOD9139536 Si02
#       7
#     4   4   4   4   4   4   4
#     4  10  26  52  85 122 166 219 292 355 415 512
#     4  12  27  46  81 121 163 216 279 350 426 520
#     4  12  25  52  85 117 156 224 285 340 424 508
#     4  10  25  49  80 119 161 212 276 353 407 514
#     4  12  27  49  81 125 171 223 270 360 450 488
#     4  10  25  50  79 110 157 216 276 345 411 493
#     4  12  25  48  77 114 160 210 278 353 411 513
#
# _framework density 27.689191999999998
#
# number of rings (size 3 to 8) (size 9 to 14) (size 15 to 20)
#    0.857    0.000    1.429    4.286    2.000    3.429 
#    0.000    5.714    0.000    0.000    0.000    0.000 
#    0.000    0.000    0.000    0.000    0.000    0.000 
#
# Total GULP energy -78434.843841 kJ/mol
# GULP energy per Si atom -5602.488846 kJ/mol
# Density = 2.762617 g / cm^3
# Si number density = 27.689192 Si / 1000 Ang^3
#
#
#
# Elastic Constant Matrix: (Units=GPa)
#
#
# Indices 1 2 3 4 5 6 
#
# 1 107.6709 33.9328 76.7421 0.0000 34.5800 0.0000
# 2 33.9328 163.5571 55.2840 0.0000 14.6196 0.0000
# 3 76.7421 55.2840 218.6814 0.0000 30.0182 0.0000
# 4 0.0000 0.0000 0.0000 45.6050 0.0000 -2.0290
# 5 34.5800 14.6196 30.0182 0.0000 82.3877 0.0000
# 6 0.0000 0.0000 0.0000 -2.0290 0.0000 46.5051
#
#
#
# Elastic Compliance Matrix: (Units=1/GPa)
#
#
# Indices 1 2 3 4 5 6 
#
# 1 0.013827 -0.001148 -0.003993 0.000000 -0.004145 0.000000
# 2 -0.001148 0.006809 -0.001283 0.000000 -0.000259 0.000000
# 3 -0.003993 -0.001283 0.006355 0.000000 -0.000412 0.000000
# 4 0.000000 0.000000 0.000000 0.021970 0.000000 0.000959
# 5 -0.004145 -0.000259 -0.000412 0.000000 0.014073 0.000000
# 6 0.000000 0.000000 0.000000 0.000959 0.000000 0.021545
#
#
# Mechanical properties :
#
#
# Convention : Reuss Voigt Hill
#
# Bulk Modulus (GPa) = 70.71011 91.31413 81.01212
# Shear Modulus (GPa) = 48.95181 56.49625 52.72403
#
# Velocity S-wave (km/s) = 4.20921 4.52195 4.36838
# Velocity P-wave (km/s) = 7.01539 7.76620 7.40032
#
# Compressibility (1/GPa) = 0.01414225
#
# Stress axis : x y z
#
# Youngs Moduli (GPa) = 72.32464 146.86270 157.35792
#
# Poissons Ratio (x) = 0.16866 0.62831
# Poissons Ratio (y) = 0.08306 0.20186
# Poissons Ratio (z) = 0.28878 0.18840
#
# Static dielectric constant tensor:
#      x y z
#    x 2.194430 0.000000 0.072820 
#    y 0.000000 2.158920 0.000000 
#    z 0.072820 0.000000 2.291760 
# 
# From -- ./inp_files/30295.got.cif
#   From: 2010.05.17/outbox.cif.g08.bks.cpg/sg9_16_cif.got.tgz:30295.got - 2010.06.03 20:04:27.
