data_PCOD9139602
_publ_section_title
;
Structure prediction by ZEFSAII (Michael W. Deem and Ramdas Pophale) SiO2 
 PCOD9139602
Probable space group: C C
;
_chemical_formula_sum "Si O2"
_cell_formula_units_Z 24
_cell_length_a 19.067999
_cell_length_b 4.998824
_cell_length_c 9.882710
_cell_angle_alpha 90.000000
_cell_angle_beta 111.660932
_cell_angle_gamma 90.000000
_cell_volume 875.476375
_symmetry_space_group_name_H-M "C C"
_symmetry_group_IT_number 9
_symmetry_cell_setting 'monoclinic'
loop_
_space_group_symop_operation_xyz
x,y,z
x,-y,1/2+z
1/2+x,1/2+y,z
1/2+x,1/2-y,1/2+z
loop_
_atom_site_type_symbol
_atom_site_label
_atom_site_fract_x
_atom_site_fract_y
_atom_site_fract_z
Si Si1 0.464200 0.155574 0.422270
Si Si2 0.205874 0.875728 0.677320
Si Si3 0.583690 0.988677 0.712458
Si Si4 0.332149 0.800988 0.367492
Si Si5 0.851461 0.896392 0.152129
Si Si6 0.073321 0.031222 0.397668
O O1 0.530546 0.984139 0.542872
O O2 0.423227 0.216379 0.247009
O O3 0.508248 0.437101 0.454598
O O4 0.391013 0.034738 0.441321
O O5 0.160479 0.636763 0.718010
O O6 0.274663 0.750878 0.642450
O O7 0.149004 0.039963 0.541013
O O8 0.248983 0.076907 0.807594
O O9 0.552288 0.210421 0.796256
O O10 0.586706 0.714844 0.799789
O O11 0.351509 0.666942 0.238014
O O12 0.345289 0.576867 0.488667
#
# Coordination Sequence:
#
# PCOD9139602 Si02
#       6
#     4   4   4   4   4   4
#     4  10  26  46  71 109 149 195 260 312 384 454
#     4  10  26  46  71 109 149 195 260 312 384 454
#     4  11  26  45  76 108 152 199 251 314 386 455
#     4  11  26  48  73 114 150 206 256 318 384 455
#     4  11  26  44  79 104 156 202 258 320 380 459
#     4  11  26  45  78 106 154 197 253 314 384 457
#
# _framework density 27.413647999999998
#
# number of rings (size 3 to 8) (size 9 to 14) (size 15 to 20)
#    0.000    1.333    0.000    2.000   14.000    8.000 
#    0.000    0.000    0.000    0.000    0.000    0.000 
#    0.000    0.000    0.000    0.000    0.000    0.000 
#
# Total GULP energy -67093.062895 kJ/mol
# GULP energy per Si atom -5591.088575 kJ/mol
# Density = 2.735125 g / cm^3
# Si number density = 27.413648 Si / 1000 Ang^3
#
#
#
# Elastic Constant Matrix: (Units=GPa)
#
#
# Indices 1 2 3 4 5 6 
#
# 1 111.5791 41.7864 66.9757 0.0000 31.2000 0.0000
# 2 41.7864 149.6024 73.9136 0.0000 -1.9858 0.0000
# 3 66.9757 73.9136 140.3127 0.0000 23.2875 0.0000
# 4 0.0000 0.0000 0.0000 37.6193 0.0000 -13.5550
# 5 31.2000 -1.9858 23.2875 0.0000 55.2998 0.0000
# 6 0.0000 0.0000 0.0000 -13.5550 0.0000 35.0028
#
#
#
# Elastic Compliance Matrix: (Units=1/GPa)
#
#
# Indices 1 2 3 4 5 6 
#
# 1 0.014204 -0.001607 -0.004939 0.000000 -0.005992 0.000000
# 2 -0.001607 0.009552 -0.004808 0.000000 0.003274 0.000000
# 3 -0.004939 -0.004808 0.012454 0.000000 -0.002631 0.000000
# 4 0.000000 0.000000 0.000000 0.030893 0.000000 0.011963
# 5 -0.005992 0.003274 -0.002631 0.000000 0.022689 0.000000
# 6 0.000000 0.000000 0.000000 0.011963 0.000000 0.033202
#
#
# Mechanical properties :
#
#
# Convention : Reuss Voigt Hill
#
# Bulk Modulus (GPa) = 74.06424 85.20508 79.63466
# Shear Modulus (GPa) = 33.28804 40.17229 36.73016
#
# Velocity S-wave (km/s) = 3.48844 3.83222 3.66437
# Velocity P-wave (km/s) = 6.58039 7.12250 6.85681
#
# Compressibility (1/GPa) = 0.01350179
#
# Stress axis : x y z
#
# Youngs Moduli (GPa) = 70.40185 104.68659 80.29393
#
# Poissons Ratio (x) = 0.16819 0.39660
# Poissons Ratio (y) = 0.11311 0.38609
# Poissons Ratio (z) = 0.34774 0.50339
#
# Static dielectric constant tensor:
#      x y z
#    x 2.226240 0.000000 -0.075450 
#    y 0.000000 2.128020 0.000000 
#    z -0.075450 0.000000 2.112720 
# 
# From -- ./inp_files/11118.got.cif
#   From: 2010.05.17/outbox.cif.g08.bks.cpg/sg9_6_cif.got.tgz:11118.got - 2010.06.03 20:04:27.
