data_PCOD9139769
_publ_section_title
;
Structure prediction by ZEFSAII (Michael W. Deem and Ramdas Pophale) SiO2 
 PCOD9139769
Probable space group: C C
;
_chemical_formula_sum "Si O2"
_cell_formula_units_Z 32
_cell_length_a 16.995704
_cell_length_b 16.984120
_cell_length_c 10.453109
_cell_angle_alpha 90.000000
_cell_angle_beta 145.198826
_cell_angle_gamma 90.000000
_cell_volume 1722.101274
_symmetry_space_group_name_H-M "C C"
_symmetry_group_IT_number 9
_symmetry_cell_setting 'monoclinic'
loop_
_space_group_symop_operation_xyz
x,y,z
x,-y,1/2+z
1/2+x,1/2+y,z
1/2+x,1/2-y,1/2+z
loop_
_atom_site_type_symbol
_atom_site_label
_atom_site_fract_x
_atom_site_fract_y
_atom_site_fract_z
Si Si1 0.027840 0.077558 0.699290
Si Si2 0.013702 0.597795 0.115350
Si Si3 0.334838 0.151170 0.120292
Si Si4 0.885073 0.561225 0.442310
Si Si5 0.138960 0.790489 0.008018
Si Si6 0.592495 0.472148 0.020665
Si Si7 0.283672 0.693584 0.431021
Si Si8 0.890437 0.325985 0.191560
O O1 0.013523 0.028604 0.549733
O O2 0.915889 0.146323 0.558516
O O3 0.181343 0.115036 0.900021
O O4 0.021240 0.021721 0.813731
O O5 0.165782 0.633750 0.318271
O O6 0.929826 0.623788 0.129183
O O7 0.004799 0.503735 0.097682
O O8 0.940491 0.632988 0.890642
O O9 0.390790 0.118493 0.328430
O O10 0.323694 0.245040 0.094814
O O11 0.742661 0.511524 0.241797
O O12 0.885448 0.609798 0.573483
O O13 0.109550 0.881077 0.003648
O O14 0.219682 0.746931 0.231651
O O15 0.240496 0.791165 0.022536
O O16 0.999487 0.741750 0.803758
#
# Coordination Sequence:
#
# PCOD9139769 Si02
#       8
#     4   4   4   4   4   4   4   4
#     4  11  22  40  63  92 120 155 203 248 296 353
#     4  11  21  38  68  88 115 161 207 242 289 360
#     4  11  21  38  68  88 115 161 207 242 289 360
#     4  11  22  40  63  92 120 155 203 248 296 353
#     4  11  21  38  68  88 115 161 207 242 289 360
#     4  11  21  38  68  88 115 161 207 242 289 360
#     4  11  22  40  63  92 120 155 203 248 296 353
#     4  11  22  40  63  92 120 155 203 248 296 353
#
# _framework density 18.581949000000002
#
# number of rings (size 3 to 8) (size 9 to 14) (size 15 to 20)
#    0.000    1.000    5.000    3.000    0.000    0.000 
#   18.000    0.000    0.000    0.000    0.000    0.000 
#    0.000    0.000    0.000    0.000    0.000    0.000 
#
# Total GULP energy -89411.537941 kJ/mol
# GULP energy per Si atom -5588.221121 kJ/mol
# Density = 1.853966 g / cm^3
# Si number density = 18.581949 Si / 1000 Ang^3
#
#
#
# Elastic Constant Matrix: (Units=GPa)
#
#
# Indices 1 2 3 4 5 6 
#
# 1 112.6948 37.8986 29.1401 0.0000 -13.2522 0.0000
# 2 37.8986 93.1289 22.8008 0.0000 -21.0031 0.0000
# 3 29.1401 22.8008 30.8313 0.0000 -8.2788 0.0000
# 4 0.0000 0.0000 0.0000 -5.2774 0.0000 6.3919
# 5 -13.2522 -21.0031 -8.2788 0.0000 10.2732 0.0000
# 6 0.0000 0.0000 0.0000 6.3919 0.0000 44.7758
#
#
#
# Elastic Compliance Matrix: (Units=1/GPa)
#
#
# Indices 1 2 3 4 5 6 
#
# 1 0.012395 -0.001606 -0.009081 0.000000 0.005389 0.000000
# 2 -0.001606 0.020717 -0.003811 0.000000 0.037212 0.000000
# 3 -0.009081 -0.003811 0.049257 0.000000 0.020189 0.000000
# 4 0.000000 0.000000 0.000000 -0.161556 0.000000 0.023063
# 5 0.005389 0.037212 0.020189 0.000000 0.196640 0.000000
# 6 0.000000 0.000000 0.000000 0.023063 0.000000 0.019041
#
#
# Mechanical properties :
#
#
# Convention : Reuss Voigt Hill
#
# Bulk Modulus (GPa) = 18.73585 46.25933 32.49759
# Shear Modulus (GPa) = 27.28053 19.74201 23.51127
#
# Velocity S-wave (km/s) = 3.83576 3.26303 3.56093
# Velocity P-wave (km/s) = 5.45180 6.25662 5.86802
#
# Compressibility (1/GPa) = 0.05337361
#
# Stress axis : x y z
#
# Youngs Moduli (GPa) = 80.67586 48.27067 20.30177
#
# Poissons Ratio (x) = 0.07750 0.18436
# Poissons Ratio (y) = 0.12953 0.07737
# Poissons Ratio (z) = 0.73261 0.18396
#
# Static dielectric constant tensor:
#      x y z
#    x 1.637650 0.000000 -0.002720 
#    y 0.000000 1.636340 0.000000 
#    z -0.002720 0.000000 1.643600 
# 
# From -- ./inp_files/7647.got.cif
#   From: 2010.05.17/outbox.cif.g08.bks.cpg/sg9_4_cif.got.tgz:7647.got - 2010.06.03 20:04:27.
