data_PCOD9139832
_publ_section_title
;
Structure prediction by ZEFSAII (Michael W. Deem and Ramdas Pophale) SiO2 
 PCOD9139832
Probable space group: C C
;
_chemical_formula_sum "Si O2"
_cell_formula_units_Z 20
_cell_length_a 16.530602
_cell_length_b 11.505352
_cell_length_c 8.137924
_cell_angle_alpha 90.000000
_cell_angle_beta 32.129892
_cell_angle_gamma 90.000000
_cell_volume 823.158723
_symmetry_space_group_name_H-M "C C"
_symmetry_group_IT_number 9
_symmetry_cell_setting 'monoclinic'
loop_
_space_group_symop_operation_xyz
x,y,z
x,-y,1/2+z
1/2+x,1/2+y,z
1/2+x,1/2-y,1/2+z
loop_
_atom_site_type_symbol
_atom_site_label
_atom_site_fract_x
_atom_site_fract_y
_atom_site_fract_z
Si Si1 0.890480 0.994477 0.090450
Si Si2 0.180925 0.429728 0.217098
Si Si3 0.479925 0.745263 0.425775
Si Si4 0.987207 0.659031 0.574327
Si Si5 0.326536 0.740886 0.041290
O O1 0.739883 0.916639 0.299983
O O2 0.840238 0.033272 0.357538
O O3 0.013523 0.893339 0.862758
O O4 0.891512 0.116152 0.994037
O O5 0.127487 0.323559 0.202119
O O6 0.052442 0.527956 0.452276
O O7 0.394650 0.767241 0.745210
O O8 0.409226 0.800399 0.380563
O O9 0.888101 0.678023 0.581712
O O10 0.145570 0.732967 0.319450
#
# Coordination Sequence:
#
# PCOD9139832 Si02
#       5
#     4   4   4   4   4
#     4  11  21  44  69  99 141 191 240 294 364 433
#     4  11  21  44  69  99 141 191 240 294 364 433
#     4  12  24  40  78 100 138 198 238 302 364 430
#     4  11  25  44  71 106 145 190 246 299 366 439
#     4  11  25  44  71 106 145 190 246 299 366 439
#
# _framework density 24.296652000000002
#
# number of rings (size 3 to 8) (size 9 to 14) (size 15 to 20)
#    0.000    0.800    8.000    2.400    0.000    0.000 
#    0.000    4.000    0.000    0.000    0.000    0.000 
#    0.000    0.000    0.000    0.000    0.000    0.000 
#
# Total GULP energy -55695.170067 kJ/mol
# GULP energy per Si atom -5569.517007 kJ/mol
# Density = 2.424135 g / cm^3
# Si number density = 24.296652 Si / 1000 Ang^3
#
#
#
# Elastic Constant Matrix: (Units=GPa)
#
#
# Indices 1 2 3 4 5 6 
#
# 1 124.6829 2.4447 27.1062 0.0000 13.2469 0.0000
# 2 2.4447 74.1645 24.7924 0.0000 -2.4957 0.0000
# 3 27.1062 24.7924 58.8317 0.0000 25.9627 0.0000
# 4 0.0000 0.0000 0.0000 30.4000 0.0000 -6.9356
# 5 13.2469 -2.4957 25.9627 0.0000 39.4848 0.0000
# 6 0.0000 0.0000 0.0000 -6.9356 0.0000 40.5313
#
#
#
# Elastic Compliance Matrix: (Units=1/GPa)
#
#
# Indices 1 2 3 4 5 6 
#
# 1 0.009016 0.001316 -0.004805 0.000000 0.000218 0.000000
# 2 0.001316 0.017652 -0.011753 0.000000 0.008402 0.000000
# 3 -0.004805 -0.011753 0.033502 0.000000 -0.021160 0.000000
# 4 0.000000 0.000000 0.000000 0.034231 0.000000 0.005858
# 5 0.000218 0.008402 -0.021160 0.000000 0.039698 0.000000
# 6 0.000000 0.000000 0.000000 0.005858 0.000000 0.025675
#
#
# Mechanical properties :
#
#
# Convention : Reuss Voigt Hill
#
# Bulk Modulus (GPa) = 33.68496 40.70731 37.19614
# Shear Modulus (GPa) = 24.98100 35.63894 30.30997
#
# Velocity S-wave (km/s) = 3.20998 3.83407 3.53582
# Velocity P-wave (km/s) = 5.25669 6.03248 5.65790
#
# Compressibility (1/GPa) = 0.02968684
#
# Stress axis : x y z
#
# Youngs Moduli (GPa) = 110.91418 56.65139 29.84874
#
# Poissons Ratio (x) = -0.07457 0.14342
# Poissons Ratio (y) = -0.14600 0.35082
# Poissons Ratio (z) = 0.53293 0.66583
#
# Static dielectric constant tensor:
#      x y z
#    x 1.968770 0.000000 0.030550 
#    y 0.000000 2.135720 0.000000 
#    z 0.030550 0.000000 2.132230 
# 
# From -- ./inp_files/4657.got.cif
#   From: 2010.05.17/outbox.cif.g08.bks.cpg/sg9_3_cif.got.tgz:4657.got - 2010.06.03 20:04:27.
