data_PCOD9139459
_publ_section_title
;
Structure prediction by ZEFSAII (Michael W. Deem and Ramdas Pophale) SiO2 
 PCOD9139459
Probable space group: C C
;
_chemical_formula_sum "Si O2"
_cell_formula_units_Z 28
_cell_length_a 5.319938
_cell_length_b 13.905126
_cell_length_c 16.100317
_cell_angle_alpha 90.000000
_cell_angle_beta 118.251810
_cell_angle_gamma 90.000000
_cell_volume 1049.133122
_symmetry_space_group_name_H-M "C C"
_symmetry_group_IT_number 9
_symmetry_cell_setting 'monoclinic'
loop_
_space_group_symop_operation_xyz
x,y,z
x,-y,1/2+z
1/2+x,1/2+y,z
1/2+x,1/2-y,1/2+z
loop_
_atom_site_type_symbol
_atom_site_label
_atom_site_fract_x
_atom_site_fract_y
_atom_site_fract_z
Si Si1 0.850130 0.740728 0.944850
Si Si2 0.801840 0.589200 0.134710
Si Si3 0.015420 0.521494 0.003207
Si Si4 0.277352 0.265192 0.746335
Si Si5 0.930798 0.914134 0.175779
Si Si6 0.484699 0.231274 0.552266
Si Si7 0.207613 0.070629 0.304228
O O1 0.716338 0.765424 0.835335
O O2 0.944175 0.628492 0.959031
O O3 0.635553 0.763433 0.985639
O O4 0.153740 0.794000 0.000286
O O5 0.837297 0.520651 0.061778
O O6 0.530997 0.660002 0.090556
O O7 0.842167 0.552749 0.234338
O O8 0.059663 0.666660 0.163251
O O9 0.323533 0.480500 0.081852
O O10 0.901750 0.453448 0.912453
O O11 0.573280 0.322973 0.785409
O O12 0.204648 0.156130 0.708748
O O13 0.673358 0.837608 0.139398
O O14 0.966819 0.985874 0.259194
#
# Coordination Sequence:
#
# PCOD9139459 Si02
#       7
#     4   4   4   4   4   4   4
#     4  11  24  49  76 116 152 214 273 340 422 504
#     4  10  25  47  75 110 157 213 266 347 413 505
#     4  11  24  50  76 116 163 212 283 346 423 512
#     4  11  25  47  72 111 161 206 277 342 418 500
#     4  11  24  47  74 115 153 212 273 345 419 498
#     4  10  25  45  77 109 160 207 268 342 419 494
#     4  12  25  49  78 117 158 218 282 346 424 509
#
# _framework density 26.688700000000001
#
# number of rings (size 3 to 8) (size 9 to 14) (size 15 to 20)
#    0.000    1.143    2.857    1.714    8.000    2.286 
#   10.286    0.000    0.000    0.000    0.000    0.000 
#    0.000    0.000    0.000    0.000    0.000    0.000 
#
# Total GULP energy -78292.329633 kJ/mol
# GULP energy per Si atom -5592.309259 kJ/mol
# Density = 2.662796 g / cm^3
# Si number density = 26.688700 Si / 1000 Ang^3
#
#
#
# Elastic Constant Matrix: (Units=GPa)
#
#
# Indices 1 2 3 4 5 6 
#
# 1 82.5778 15.3240 37.0301 0.0000 -21.1453 0.0000
# 2 15.3240 150.3467 38.3130 0.0000 6.6993 0.0000
# 3 37.0301 38.3130 187.3600 0.0000 -14.1787 0.0000
# 4 0.0000 0.0000 0.0000 57.2276 0.0000 4.6486
# 5 -21.1453 6.6993 -14.1787 0.0000 49.0769 0.0000
# 6 0.0000 0.0000 0.0000 4.6486 0.0000 20.6994
#
#
#
# Elastic Compliance Matrix: (Units=1/GPa)
#
#
# Indices 1 2 3 4 5 6 
#
# 1 0.014854 -0.001207 -0.002241 0.000000 0.005917 0.000000
# 2 -0.001207 0.007211 -0.001380 0.000000 -0.001903 0.000000
# 3 -0.002241 -0.001380 0.006138 0.000000 0.000996 0.000000
# 4 0.000000 0.000000 0.000000 0.017799 0.000000 -0.003997
# 5 0.005917 -0.001903 0.000996 0.000000 0.023473 0.000000
# 6 0.000000 0.000000 0.000000 -0.003997 0.000000 0.049208
#
#
# Mechanical properties :
#
#
# Convention : Reuss Voigt Hill
#
# Bulk Modulus (GPa) = 53.91740 66.84651 60.38196
# Shear Modulus (GPa) = 37.16907 47.37528 42.27217
#
# Velocity S-wave (km/s) = 3.73592 4.21777 3.98414
# Velocity P-wave (km/s) = 6.23343 6.98717 6.62104
#
# Compressibility (1/GPa) = 0.01854689
#
# Stress axis : x y z
#
# Youngs Moduli (GPa) = 67.32245 138.68204 162.92318
#
# Poissons Ratio (x) = 0.16732 0.36515
# Poissons Ratio (y) = 0.08122 0.22484
# Poissons Ratio (z) = 0.15089 0.19139
#
# Static dielectric constant tensor:
#      x y z
#    x 2.194850 0.000000 0.044820 
#    y 0.000000 2.189700 0.000000 
#    z 0.044820 0.000000 2.050740 
# 
# From -- ./inp_files/28728.got.cif
#   From: 2010.05.17/outbox.cif.g08.bks.cpg/sg9_15_cif.got.tgz:28728.got - 2010.06.03 20:04:27.
