data_PCOD9139566
_publ_section_title
;
Structure prediction by ZEFSAII (Michael W. Deem and Ramdas Pophale) SiO2 
 PCOD9139566
Probable space group: C C
;
_chemical_formula_sum "Si O2"
_cell_formula_units_Z 24
_cell_length_a 28.263580
_cell_length_b 4.855603
_cell_length_c 10.019010
_cell_angle_alpha 90.000000
_cell_angle_beta 140.646201
_cell_angle_gamma 90.000000
_cell_volume 871.882258
_symmetry_space_group_name_H-M "C C"
_symmetry_group_IT_number 9
_symmetry_cell_setting 'monoclinic'
loop_
_space_group_symop_operation_xyz
x,y,z
x,-y,1/2+z
1/2+x,1/2+y,z
1/2+x,1/2-y,1/2+z
loop_
_atom_site_type_symbol
_atom_site_label
_atom_site_fract_x
_atom_site_fract_y
_atom_site_fract_z
Si Si1 0.596230 0.820460 0.082590
Si Si2 0.219770 0.489872 0.175232
Si Si3 0.632176 0.508197 0.919577
Si Si4 0.862869 0.724166 0.375584
Si Si5 0.901875 0.612411 0.186127
Si Si6 0.497236 0.632139 0.325394
O O1 0.684085 0.870332 0.234093
O O2 0.596070 0.648511 0.218151
O O3 0.468822 0.672119 0.816029
O O4 0.559733 0.114371 0.974771
O O5 0.302057 0.404109 0.319478
O O6 0.196197 0.804048 0.109438
O O7 0.166675 0.303569 0.959675
O O8 0.576156 0.583089 0.921416
O O9 0.847403 0.694753 0.186190
O O10 0.864453 0.439881 0.461570
O O11 0.948069 0.822192 0.581909
O O12 0.938226 0.315544 0.297585
#
# Coordination Sequence:
#
# PCOD9139566 Si02
#       6
#     4   4   4   4   4   4
#     4  10  26  45  71 100 138 177 232 282 346 407
#     4  10  26  40  74  96 143 170 236 275 347 404
#     4  10  26  42  70 101 132 182 221 287 338 410
#     4  10  26  45  70 101 139 181 228 282 344 409
#     4  10  26  40  72  97 137 178 227 276 342 406
#     4  10  26  42  71  99 139 176 230 278 345 406
#
# _framework density 27.52665
#
# number of rings (size 3 to 8) (size 9 to 14) (size 15 to 20)
#    2.000    0.000    0.000    0.000   14.000    1.333 
#    0.000    0.000    0.000    0.000    0.000    0.000 
#    0.000    0.000    0.000    0.000    0.000    0.000 
#
# Total GULP energy -66927.418084 kJ/mol
# GULP energy per Si atom -5577.284840 kJ/mol
# Density = 2.746400 g / cm^3
# Si number density = 27.526650 Si / 1000 Ang^3
#
#
#
# Elastic Constant Matrix: (Units=GPa)
#
#
# Indices 1 2 3 4 5 6 
#
# 1 181.6668 44.6379 58.8195 0.0000 1.0127 0.0000
# 2 44.6379 210.2479 33.6068 -0.0001 8.2447 -0.0001
# 3 58.8195 33.6068 61.8961 0.0000 12.9047 0.0000
# 4 0.0000 -0.0001 0.0000 39.4420 0.0000 8.3768
# 5 1.0127 8.2447 12.9047 0.0000 47.2707 0.0000
# 6 0.0000 -0.0001 0.0000 8.3768 0.0000 30.7401
#
#
#
# Elastic Compliance Matrix: (Units=1/GPa)
#
#
# Indices 1 2 3 4 5 6 
#
# 1 0.008193 -0.000555 -0.007919 0.000000 0.002083 0.000000
# 2 -0.000555 0.005247 -0.002261 0.000000 -0.000286 0.000000
# 3 -0.007919 -0.002261 0.026288 0.000000 -0.006612 0.000000
# 4 0.000000 0.000000 0.000000 0.026911 0.000000 -0.007333
# 5 0.002083 -0.000286 -0.006612 0.000000 0.022965 0.000000
# 6 0.000000 0.000000 0.000000 -0.007333 0.000000 0.034529
#
#
# Mechanical properties :
#
#
# Convention : Reuss Voigt Hill
#
# Bulk Modulus (GPa) = 54.77445 80.88213 67.82829
# Shear Modulus (GPa) = 32.96184 44.60699 38.78442
#
# Velocity S-wave (km/s) = 3.46418 4.02991 3.75771
# Velocity P-wave (km/s) = 5.99521 7.14847 6.59709
#
# Compressibility (1/GPa) = 0.01825669
#
# Stress axis : x y z
#
# Youngs Moduli (GPa) = 122.04949 190.58883 38.04049
#
# Poissons Ratio (x) = 0.10586 0.30124
# Poissons Ratio (y) = 0.06779 0.08602
# Poissons Ratio (z) = 0.96649 0.43099
#
# Static dielectric constant tensor:
#      x y z
#    x 2.348650 0.000000 0.189130 
#    y 0.000000 2.191340 0.000000 
#    z 0.189130 0.000000 2.362570 
# 
# From -- ./inp_files/21321.got.cif
#   From: 2010.05.17/outbox.cif.g08.bks.cpg/sg9_11_cif.got.tgz:21321.got - 2010.06.03 20:04:27.
