data_PCOD9139664
_publ_section_title
;
Structure prediction by ZEFSAII (Michael W. Deem and Ramdas Pophale) SiO2 
 PCOD9139664
Probable space group: C C
;
_chemical_formula_sum "Si O2"
_cell_formula_units_Z 32
_cell_length_a 11.108190
_cell_length_b 15.750331
_cell_length_c 8.908912
_cell_angle_alpha 90.000000
_cell_angle_beta 128.838151
_cell_angle_gamma 90.000000
_cell_volume 1214.089832
_symmetry_space_group_name_H-M "C C"
_symmetry_group_IT_number 9
_symmetry_cell_setting 'monoclinic'
loop_
_space_group_symop_operation_xyz
x,y,z
x,-y,1/2+z
1/2+x,1/2+y,z
1/2+x,1/2-y,1/2+z
loop_
_atom_site_type_symbol
_atom_site_label
_atom_site_fract_x
_atom_site_fract_y
_atom_site_fract_z
Si Si1 0.263270 0.655441 0.012540
Si Si2 0.625361 0.343039 0.202583
Si Si3 0.460530 0.058381 0.270835
Si Si4 0.014789 0.009726 0.263254
Si Si5 0.699022 0.701761 0.090444
Si Si6 0.650136 0.671083 0.389533
Si Si7 0.262201 0.389974 0.186231
Si Si8 0.962584 0.392957 0.438900
O O1 0.400597 0.590390 0.153024
O O2 0.286097 0.757096 0.011822
O O3 0.203537 0.618571 0.808770
O O4 0.125713 0.645042 0.021393
O O5 0.563430 0.439709 0.177962
O O6 0.609448 0.304269 0.359703
O O7 0.810914 0.335917 0.332005
O O8 0.565676 0.316264 0.989664
O O9 0.325959 0.126784 0.199080
O O10 0.624427 0.076371 0.476911
O O11 0.417571 0.966277 0.290741
O O12 0.486052 0.064167 0.116112
O O13 0.166171 0.068589 0.404283
O O14 0.913470 0.949710 0.294820
O O15 0.607113 0.692805 0.178194
O O16 0.782350 0.792535 0.152887
#
# Coordination Sequence:
#
# PCOD9139664 Si02
#       8
#     4   4   4   4   4   4   4   4
#     4  11  27  48  75 114 147 202 260 314 387 454
#     4  11  28  47  78 110 156 196 257 313 381 458
#     4  11  24  44  72 103 146 194 246 313 373 454
#     4  12  27  49  79 117 152 204 257 322 389 457
#     4  10  27  48  73 112 153 202 252 312 389 451
#     4  11  28  48  78 108 156 202 251 323 381 463
#     4  11  26  46  77 108 153 198 251 322 377 459
#     4  11  25  44  72 108 141 196 254 309 375 456
#
# _framework density 26.357195000000001
#
# number of rings (size 3 to 8) (size 9 to 14) (size 15 to 20)
#    0.000    1.000    1.250    2.250   15.750    4.000 
#    0.000    0.000    0.000    0.000    0.000    0.000 
#    0.000    0.000    0.000    0.000    0.000    0.000 
#
# Total GULP energy -89164.987091 kJ/mol
# GULP energy per Si atom -5572.811693 kJ/mol
# Density = 2.629721 g / cm^3
# Si number density = 26.357195 Si / 1000 Ang^3
#
#
#
# Elastic Constant Matrix: (Units=GPa)
#
#
# Indices 1 2 3 4 5 6 
#
# 1 130.5734 40.7195 45.6697 0.0000 -20.3983 0.0000
# 2 40.7195 144.6434 20.7896 0.0000 -16.6963 0.0000
# 3 45.6697 20.7896 156.0569 0.0000 -42.9636 0.0000
# 4 0.0000 0.0000 0.0000 34.8839 0.0000 2.7135
# 5 -20.3983 -16.6963 -42.9636 0.0000 44.4496 0.0000
# 6 0.0000 0.0000 0.0000 2.7135 0.0000 41.7321
#
#
#
# Elastic Compliance Matrix: (Units=1/GPa)
#
#
# Indices 1 2 3 4 5 6 
#
# 1 0.009266 -0.002146 -0.002013 0.000000 0.001501 0.000000
# 2 -0.002146 0.007734 0.000172 0.000000 0.002087 0.000000
# 3 -0.002013 0.000172 0.009180 0.000000 0.008015 0.000000
# 4 0.000000 0.000000 0.000000 0.028812 0.000000 -0.001873
# 5 0.001501 0.002087 0.008015 0.000000 0.031717 0.000000
# 6 0.000000 0.000000 0.000000 -0.001873 0.000000 0.024084
#
#
# Mechanical properties :
#
#
# Convention : Reuss Voigt Hill
#
# Bulk Modulus (GPa) = 54.92243 71.73680 63.32962
# Shear Modulus (GPa) = 40.05267 45.81945 42.93606
#
# Velocity S-wave (km/s) = 3.90245 4.17394 4.04047
# Velocity P-wave (km/s) = 6.41782 7.10671 6.77103
#
# Compressibility (1/GPa) = 0.01820750
#
# Stress axis : x y z
#
# Youngs Moduli (GPa) = 107.91916 129.30234 108.92708
#
# Poissons Ratio (x) = 0.27749 0.21923
# Poissons Ratio (y) = 0.23160 -0.01876
# Poissons Ratio (z) = 0.21720 -0.02227
#
# Static dielectric constant tensor:
#      x y z
#    x 2.098300 0.000000 0.057570 
#    y 0.000000 2.093610 0.000000 
#    z 0.057570 0.000000 2.170710 
# 
# From -- ./inp_files/7652.got.cif
#   From: 2010.05.17/outbox.cif.g08.bks.cpg/sg9_4_cif.got.tgz:7652.got - 2010.06.03 20:04:27.
