data_PCOD9139742
_publ_section_title
;
Structure prediction by ZEFSAII (Michael W. Deem and Ramdas Pophale) SiO2 
 PCOD9139742
Probable space group: C C
;
_chemical_formula_sum "Si O2"
_cell_formula_units_Z 32
_cell_length_a 11.334324
_cell_length_b 16.315967
_cell_length_c 10.643310
_cell_angle_alpha 90.000000
_cell_angle_beta 48.642490
_cell_angle_gamma 90.000000
_cell_volume 1477.387626
_symmetry_space_group_name_H-M "C C"
_symmetry_group_IT_number 9
_symmetry_cell_setting 'monoclinic'
loop_
_space_group_symop_operation_xyz
x,y,z
x,-y,1/2+z
1/2+x,1/2+y,z
1/2+x,1/2-y,1/2+z
loop_
_atom_site_type_symbol
_atom_site_label
_atom_site_fract_x
_atom_site_fract_y
_atom_site_fract_z
Si Si1 0.361320 0.567819 0.263140
Si Si2 0.586743 0.317202 0.178250
Si Si3 0.979643 0.421173 0.434998
Si Si4 0.823307 0.581074 0.646518
Si Si5 0.109229 0.707949 0.415313
Si Si6 0.188900 0.137103 0.004613
Si Si7 0.721790 0.016731 0.107816
Si Si8 0.220216 0.331160 0.443959
O O1 0.262172 0.650745 0.309367
O O2 0.331913 0.518416 0.153993
O O3 0.291523 0.524650 0.434752
O O4 0.541475 0.587466 0.159224
O O5 0.690970 0.396993 0.135664
O O6 0.591562 0.263378 0.303531
O O7 0.404383 0.334700 0.281041
O O8 0.667492 0.260258 0.017145
O O9 0.903621 0.493483 0.571822
O O10 0.839000 0.364672 0.487393
O O11 0.066130 0.469180 0.260786
O O12 0.109518 0.369191 0.416045
O O13 0.743683 0.593985 0.836830
O O14 0.959011 0.649680 0.535945
O O15 0.129121 0.772402 0.513616
O O16 0.693377 0.110023 0.084023
#
# Coordination Sequence:
#
# PCOD9139742 Si02
#       8
#     4   4   4   4   4   4   4   4
#     4  12  25  44  77 102 145 188 245 297 362 425
#     4  11  23  41  74 104 138 182 253 287 361 425
#     4  12  26  46  69 104 150 189 232 299 370 425
#     4  11  22  44  74 101 136 190 240 298 348 437
#     4  11  20  45  72 100 137 191 238 301 346 437
#     4  11  26  40  69 108 138 183 247 295 356 427
#     4  12  24  47  73 104 142 192 237 299 361 423
#     4  12  24  47  70 105 142 191 234 304 356 429
#
# _framework density 21.659853999999999
#
# number of rings (size 3 to 8) (size 9 to 14) (size 15 to 20)
#    0.000    0.500    5.000    4.500    3.500    0.000 
#    6.750    0.000    0.000    0.000    0.000    0.000 
#    0.000    0.000    0.000    0.000    0.000    0.000 
#
# Total GULP energy -89559.950323 kJ/mol
# GULP energy per Si atom -5597.496895 kJ/mol
# Density = 2.161055 g / cm^3
# Si number density = 21.659854 Si / 1000 Ang^3
#
#
#
# Elastic Constant Matrix: (Units=GPa)
#
#
# Indices 1 2 3 4 5 6 
#
# 1 136.2478 37.3721 38.6347 0.0001 -31.6516 0.0000
# 2 37.3721 52.8056 -4.9160 0.0001 -8.2150 0.0000
# 3 38.6347 -4.9160 57.9264 0.0003 -17.5885 -0.0001
# 4 0.0001 0.0001 0.0003 13.4573 -0.0001 2.9464
# 5 -31.6516 -8.2150 -17.5885 -0.0001 44.5518 0.0001
# 6 0.0000 0.0000 -0.0001 2.9464 0.0001 34.2854
#
#
#
# Elastic Compliance Matrix: (Units=1/GPa)
#
#
# Indices 1 2 3 4 5 6 
#
# 1 0.013363 -0.009549 -0.008379 0.000000 0.004425 0.000000
# 2 -0.009549 0.026830 0.009190 0.000000 0.001791 0.000000
# 3 -0.008379 0.009190 0.025381 0.000000 0.005762 0.000000
# 4 0.000000 0.000000 0.000000 0.075734 0.000000 -0.006508
# 5 0.004425 0.001791 0.005762 0.000000 0.028194 0.000000
# 6 0.000000 0.000000 0.000000 -0.006508 0.000000 0.029726
#
#
# Mechanical properties :
#
#
# Convention : Reuss Voigt Hill
#
# Bulk Modulus (GPa) = 20.79167 43.24016 32.01591
# Shear Modulus (GPa) = 21.48343 30.18484 25.83413
#
# Velocity S-wave (km/s) = 3.15279 3.73712 3.45732
# Velocity P-wave (km/s) = 4.78262 6.21515 5.54534
#
# Compressibility (1/GPa) = 0.04809619
#
# Stress axis : x y z
#
# Youngs Moduli (GPa) = 74.83495 37.27227 39.39904
#
# Poissons Ratio (x) = 0.35591 0.33014
# Poissons Ratio (y) = 0.71459 -0.36206
# Poissons Ratio (z) = 0.62707 -0.34251
#
# Static dielectric constant tensor:
#      x y z
#    x 1.792920 0.000000 0.001610 
#    y 0.000000 1.805820 0.000000 
#    z 0.001610 0.000000 1.766980 
# 
# From -- ./inp_files/9967.got.cif
#   From: 2010.05.17/outbox.cif.g08.bks.cpg/sg9_5_cif.got.tgz:9967.got - 2010.06.03 20:04:27.
