data_PCOD9139163
_publ_section_title
;
Structure prediction by ZEFSAII (Michael W. Deem and Ramdas Pophale) SiO2 
 PCOD9139163
Probable space group: C C
;
_chemical_formula_sum "Si O2"
_cell_formula_units_Z 20
_cell_length_a 7.099433
_cell_length_b 21.129259
_cell_length_c 7.006302
_cell_angle_alpha 90.000000
_cell_angle_beta 139.632489
_cell_angle_gamma 90.000000
_cell_volume 680.710764
_symmetry_space_group_name_H-M "C C"
_symmetry_group_IT_number 9
_symmetry_cell_setting 'monoclinic'
loop_
_space_group_symop_operation_xyz
x,y,z
x,-y,1/2+z
1/2+x,1/2+y,z
1/2+x,1/2-y,1/2+z
loop_
_atom_site_type_symbol
_atom_site_label
_atom_site_fract_x
_atom_site_fract_y
_atom_site_fract_z
Si Si1 0.723400 0.707157 0.367120
Si Si2 0.084237 0.395848 0.924736
Si Si3 0.544437 0.709808 0.669927
Si Si4 0.901048 0.030180 0.185917
Si Si5 0.808564 0.442734 0.312288
O O1 0.641040 0.698874 0.525814
O O2 0.942741 0.767066 0.540140
O O3 0.866379 0.645012 0.388066
O O4 0.912946 0.414177 0.594927
O O5 0.349850 0.346818 0.094806
O O6 0.256056 0.460674 0.120754
O O7 0.337135 0.771518 0.504886
O O8 0.175671 0.012091 0.268699
O O9 0.040693 0.069474 0.464847
O O10 0.599526 0.064633 0.909784
#
# Coordination Sequence:
#
# PCOD9139163 Si02
#       5
#     4   4   4   4   4
#     4  10  24  45  72 112 152 189 245 310 377 462
#     4  12  26  44  82 104 152 206 252 298 396 438
#     4  10  24  45  72 112 152 189 245 310 377 462
#     4  12  26  48  70 104 147 197 260 313 369 443
#     4  12  26  48  70 104 147 197 260 313 369 443
#
# _framework density 29.381055
#
# number of rings (size 3 to 8) (size 9 to 14) (size 15 to 20)
#    0.000    0.800    4.000    1.200    5.600    1.600 
#    7.200    0.000    0.000    0.000    0.000    0.000 
#    0.000    0.000    0.000    0.000    0.000    0.000 
#
# Total GULP energy -55939.902774 kJ/mol
# GULP energy per Si atom -5593.990277 kJ/mol
# Density = 2.931418 g / cm^3
# Si number density = 29.381055 Si / 1000 Ang^3
#
#
#
# Elastic Constant Matrix: (Units=GPa)
#
#
# Indices 1 2 3 4 5 6 
#
# 1 107.6360 10.7098 21.7229 0.0000 20.1723 0.0000
# 2 10.7098 152.1751 50.7554 0.0000 2.1481 0.0000
# 3 21.7229 50.7554 215.5997 0.0000 37.9830 0.0000
# 4 0.0000 0.0000 0.0000 28.5176 0.0000 19.9543
# 5 20.1723 2.1481 37.9830 0.0000 41.7459 0.0000
# 6 0.0000 0.0000 0.0000 19.9543 0.0000 39.3741
#
#
#
# Elastic Compliance Matrix: (Units=1/GPa)
#
#
# Indices 1 2 3 4 5 6 
#
# 1 0.010280 -0.000649 -0.000016 0.000000 -0.004919 0.000000
# 2 -0.000649 0.007240 -0.001939 0.000000 0.001706 0.000000
# 3 -0.000016 -0.001939 0.006047 0.000000 -0.005394 0.000000
# 4 0.000000 0.000000 0.000000 0.054333 0.000000 -0.027535
# 5 -0.004919 0.001706 -0.005394 0.000000 0.031151 0.000000
# 6 0.000000 0.000000 0.000000 -0.027535 0.000000 0.039352
#
#
# Mechanical properties :
#
#
# Convention : Reuss Voigt Hill
#
# Bulk Modulus (GPa) = 54.47261 71.30968 62.89115
# Shear Modulus (GPa) = 31.30241 48.07569 39.68905
#
# Velocity S-wave (km/s) = 3.26758 4.04949 3.67936
# Velocity P-wave (km/s) = 5.72856 6.79616 6.28507
#
# Compressibility (1/GPa) = 0.01835785
#
# Stress axis : x y z
#
# Youngs Moduli (GPa) = 97.27285 138.12485 165.37845
#
# Poissons Ratio (x) = 0.08958 0.00272
# Poissons Ratio (y) = 0.06309 0.32075
# Poissons Ratio (z) = 0.00160 0.26789
#
# Static dielectric constant tensor:
#      x y z
#    x 2.417840 0.000000 -0.028390 
#    y 0.000000 2.418930 0.000000 
#    z -0.028390 0.000000 2.164170 
# 
# From -- ./inp_files/6132.got.cif
#   From: 2010.05.17/outbox.cif.g08.bks.cpg/sg9_4_cif.got.tgz:6132.got - 2010.06.03 20:04:27.
