data_PCOD9139676
_publ_section_title
;
Structure prediction by ZEFSAII (Michael W. Deem and Ramdas Pophale) SiO2 
 PCOD9139676
Probable space group: C C
;
_chemical_formula_sum "Si O2"
_cell_formula_units_Z 24
_cell_length_a 7.205126
_cell_length_b 14.461838
_cell_length_c 15.604106
_cell_angle_alpha 90.000000
_cell_angle_beta 38.328542
_cell_angle_gamma 90.000000
_cell_volume 1008.357755
_symmetry_space_group_name_H-M "C C"
_symmetry_group_IT_number 9
_symmetry_cell_setting 'monoclinic'
loop_
_space_group_symop_operation_xyz
x,y,z
x,-y,1/2+z
1/2+x,1/2+y,z
1/2+x,1/2-y,1/2+z
loop_
_atom_site_type_symbol
_atom_site_label
_atom_site_fract_x
_atom_site_fract_y
_atom_site_fract_z
Si Si1 0.274540 0.571590 0.392710
Si Si2 0.725696 0.265933 0.309891
Si Si3 0.056965 0.207644 0.400376
Si Si4 0.377073 0.300508 0.141915
Si Si5 0.616146 0.507611 0.621848
Si Si6 0.989950 0.170658 0.059879
O O1 0.215670 0.666576 0.361384
O O2 0.400455 0.609361 0.436579
O O3 0.524945 0.518392 0.250528
O O4 0.972330 0.514825 0.494642
O O5 0.499697 0.325171 0.452592
O O6 0.055739 0.308571 0.210883
O O7 0.764064 0.238114 0.195539
O O8 0.116811 0.216630 0.479183
O O9 0.816258 0.288320 0.468270
O O10 0.311083 0.222430 0.236789
O O11 0.474495 0.394149 0.151095
O O12 0.488209 0.430867 0.602336
#
# Coordination Sequence:
#
# PCOD9139676 Si02
#       6
#     4   4   4   4   4   4
#     4   9  19  33  55  81 112 145 183 226 280 331
#     4   8  15  31  50  69  99 144 176 207 264 330
#     4   9  18  38  57  74 108 157 187 218 277 345
#     4   9  18  33  57  79 107 144 187 228 276 329
#     4  11  19  33  57  87 111 141 185 239 280 321
#     4   8  15  28  52  72  99 137 178 214 265 318
#
# _framework density 23.801076999999999
#
# number of rings (size 3 to 8) (size 9 to 14) (size 15 to 20)
#    0.000    3.333    0.000    3.000    0.000    0.000 
#    0.000   18.333    0.000   12.000    0.000    0.000 
#    0.000    0.000    0.000    0.000    0.000    0.000 
#
# Total GULP energy -66876.372737 kJ/mol
# GULP energy per Si atom -5573.031061 kJ/mol
# Density = 2.374690 g / cm^3
# Si number density = 23.801077 Si / 1000 Ang^3
#
#
#
# Elastic Constant Matrix: (Units=GPa)
#
#
# Indices 1 2 3 4 5 6 
#
# 1 76.5763 17.1414 21.0575 -0.0017 21.8787 0.0084
# 2 17.1414 56.9558 27.0870 -0.0023 9.9852 0.0025
# 3 21.0575 27.0870 170.4335 -0.0051 25.0246 0.0039
# 4 -0.0017 -0.0023 -0.0051 32.0848 -0.0014 4.4261
# 5 21.8787 9.9852 25.0246 -0.0014 27.9408 -0.0066
# 6 0.0084 0.0025 0.0039 4.4261 -0.0066 20.3114
#
#
#
# Elastic Compliance Matrix: (Units=1/GPa)
#
#
# Indices 1 2 3 4 5 6 
#
# 1 0.017302 -0.003092 0.000208 0.000002 -0.012630 -0.000011
# 2 -0.003092 0.020098 -0.002433 0.000001 -0.002582 -0.000002
# 3 0.000208 -0.002433 0.007052 0.000001 -0.005609 -0.000003
# 4 0.000002 0.000001 0.000001 0.032133 -0.000003 -0.007002
# 5 -0.012630 -0.002582 -0.005609 -0.000003 0.051626 0.000024
# 6 -0.000011 -0.000002 -0.000003 -0.007002 0.000024 0.050759
#
#
# Mechanical properties :
#
#
# Convention : Reuss Voigt Hill
#
# Bulk Modulus (GPa) = 29.56992 48.28193 38.92593
# Shear Modulus (GPa) = 24.89078 31.97938 28.43508
#
# Velocity S-wave (km/s) = 3.23737 3.66951 3.46019
# Velocity P-wave (km/s) = 5.14051 6.18735 5.68806
#
# Compressibility (1/GPa) = 0.03381815
#
# Stress axis : x y z
#
# Youngs Moduli (GPa) = 57.79592 49.75667 141.80410
#
# Poissons Ratio (x) = 0.15385 -0.02951
# Poissons Ratio (y) = 0.17871 0.34501
# Poissons Ratio (z) = -0.01203 0.12106
#
# Static dielectric constant tensor:
#      x y z
#    x 1.944610 0.000000 0.031980 
#    y 0.000000 1.869480 0.000000 
#    z 0.031980 0.000000 2.018540 
# 
# From -- ./inp_files/14301.got.cif
#   From: 2010.05.17/outbox.cif.g08.bks.cpg/sg9_8_cif.got.tgz:14301.got - 2010.06.03 20:04:27.
