data_PCOD9139933
_publ_section_title
;
Structure prediction by ZEFSAII (Michael W. Deem and Ramdas Pophale) SiO2 
 PCOD9139933
Probable space group: C C
;
_chemical_formula_sum "Si O2"
_cell_formula_units_Z 32
_cell_length_a 11.927514
_cell_length_b 13.725653
_cell_length_c 9.518242
_cell_angle_alpha 90.000000
_cell_angle_beta 50.964663
_cell_angle_gamma 90.000000
_cell_volume 1210.389785
_symmetry_space_group_name_H-M "C C"
_symmetry_group_IT_number 9
_symmetry_cell_setting 'monoclinic'
loop_
_space_group_symop_operation_xyz
x,y,z
x,-y,1/2+z
1/2+x,1/2+y,z
1/2+x,1/2-y,1/2+z
loop_
_atom_site_type_symbol
_atom_site_label
_atom_site_fract_x
_atom_site_fract_y
_atom_site_fract_z
Si Si1 0.827570 0.250971 0.664910
Si Si2 0.236973 0.174835 0.970438
Si Si3 0.818891 0.683390 0.579892
Si Si4 0.458367 0.013675 0.862695
Si Si5 0.482851 0.545600 0.163255
Si Si6 0.065040 0.414833 0.535704
Si Si7 0.848908 0.900190 0.493664
Si Si8 0.092173 0.142671 0.525531
O O1 0.791021 0.239325 0.529709
O O2 0.941105 0.333644 0.626751
O O3 0.920763 0.160469 0.645109
O O4 0.678563 0.287668 0.850688
O O5 0.070380 0.145030 0.119854
O O6 0.280501 0.186756 0.774761
O O7 0.323467 0.085623 0.975255
O O8 0.916193 0.592148 0.454852
O O9 0.889450 0.785285 0.475151
O O10 0.670730 0.666255 0.609587
O O11 0.496998 0.006188 0.670110
O O12 0.585167 0.058496 0.857762
O O13 0.434635 0.483334 0.336960
O O14 0.358943 0.566371 0.147926
O O15 0.601323 0.473119 0.994933
O O16 0.196665 0.392672 0.533389
#
# Coordination Sequence:
#
# PCOD9139933 Si02
#       8
#     4   4   4   4   4   4   4   4
#     4  11  25  44  74 108 150 197 260 324 395 462
#     4  11  25  45  75 108 143 198 260 319 382 470
#     4  12  24  46  74 114 143 198 262 324 373 465
#     4  11  22  42  72 102 141 191 259 311 378 455
#     4  12  26  47  74 109 156 207 258 316 399 464
#     4  11  22  42  68 103 146 198 244 314 391 455
#     4  12  28  46  72 111 159 201 254 323 387 465
#     4  12  24  46  75 107 152 206 259 319 397 470
#
# _framework density 26.437763
#
# number of rings (size 3 to 8) (size 9 to 14) (size 15 to 20)
#    0.000    0.500    5.000    3.000    1.750    3.000 
#    0.000    1.250    0.000    0.000    0.000    0.000 
#    0.000    0.000    0.000    0.000    0.000    0.000 
#
# Total GULP energy -89437.876985 kJ/mol
# GULP energy per Si atom -5589.867312 kJ/mol
# Density = 2.637759 g / cm^3
# Si number density = 26.437763 Si / 1000 Ang^3
#
#
#
# Elastic Constant Matrix: (Units=GPa)
#
#
# Indices 1 2 3 4 5 6 
#
# 1 144.8165 21.9366 42.0777 0.0000 34.4954 0.0000
# 2 21.9366 61.8284 5.2410 0.0000 12.0388 0.0000
# 3 42.0777 5.2410 89.1426 0.0000 26.5919 0.0000
# 4 0.0000 0.0000 0.0000 33.5341 0.0000 -0.1959
# 5 34.4954 12.0388 26.5919 0.0000 55.3873 0.0000
# 6 0.0000 0.0000 0.0000 -0.1959 0.0000 38.2184
#
#
#
# Elastic Compliance Matrix: (Units=1/GPa)
#
#
# Indices 1 2 3 4 5 6 
#
# 1 0.008993 -0.002220 -0.003020 0.000000 -0.003668 0.000000
# 2 -0.002220 0.017438 0.000865 0.000000 -0.002823 0.000000
# 3 -0.003020 0.000865 0.014108 0.000000 -0.005081 0.000000
# 4 0.000000 0.000000 0.000000 0.029821 0.000000 0.000153
# 5 -0.003668 -0.002823 -0.005081 0.000000 0.023392 0.000000
# 6 0.000000 0.000000 0.000000 0.000153 0.000000 0.026166
#
#
# Mechanical properties :
#
#
# Convention : Reuss Voigt Hill
#
# Bulk Modulus (GPa) = 31.45862 48.25534 39.85698
# Shear Modulus (GPa) = 35.90258 40.53011 38.21635
#
# Velocity S-wave (km/s) = 3.68911 3.91965 3.80613
# Velocity P-wave (km/s) = 5.48370 6.22711 5.86719
#
# Compressibility (1/GPa) = 0.03178779
#
# Stress axis : x y z
#
# Youngs Moduli (GPa) = 111.19854 57.34637 70.88047
#
# Poissons Ratio (x) = 0.12733 0.21407
# Poissons Ratio (y) = 0.24691 -0.06130
# Poissons Ratio (z) = 0.33583 -0.04960
#
# Static dielectric constant tensor:
#      x y z
#    x 2.013060 0.000000 -0.034250 
#    y 0.000000 2.099880 0.000000 
#    z -0.034250 0.000000 2.146580 
# 
# From -- ./inp_files/7549.got.cif
#   From: 2010.05.17/outbox.cif.g08.bks.cpg/sg9_4_cif.got.tgz:7549.got - 2010.06.03 20:04:27.
