data_PCOD9139831
_publ_section_title
;
Structure prediction by ZEFSAII (Michael W. Deem and Ramdas Pophale) SiO2 
 PCOD9139831
Probable space group: C C
;
_chemical_formula_sum "Si O2"
_cell_formula_units_Z 32
_cell_length_a 24.547016
_cell_length_b 8.910080
_cell_length_c 8.749474
_cell_angle_alpha 90.000000
_cell_angle_beta 135.498022
_cell_angle_gamma 90.000000
_cell_volume 1341.341343
_symmetry_space_group_name_H-M "C C"
_symmetry_group_IT_number 9
_symmetry_cell_setting 'monoclinic'
loop_
_space_group_symop_operation_xyz
x,y,z
x,-y,1/2+z
1/2+x,1/2+y,z
1/2+x,1/2-y,1/2+z
loop_
_atom_site_type_symbol
_atom_site_label
_atom_site_fract_x
_atom_site_fract_y
_atom_site_fract_z
Si Si1 0.954520 0.724679 0.262230
Si Si2 0.420376 0.327924 0.762288
Si Si3 0.995332 0.072229 0.097863
Si Si4 0.776738 0.181413 0.403386
Si Si5 0.244253 0.349338 0.385591
Si Si6 0.265992 0.879548 0.664451
Si Si7 0.929602 0.530240 0.939367
Si Si8 0.165937 0.846477 0.959567
O O1 0.959488 0.619793 0.422911
O O2 0.997181 0.863773 0.424825
O O3 0.867781 0.787993 0.049867
O O4 0.975100 0.614088 0.165410
O O5 0.437243 0.374243 0.619047
O O6 0.331252 0.364753 0.629048
O O7 0.426241 0.150676 0.796048
O O8 0.472798 0.404461 0.000096
O O9 0.078536 0.117887 0.328504
O O10 0.774747 0.235572 0.573469
O O11 0.739920 0.016129 0.306665
O O12 0.722535 0.298467 0.208575
O O13 0.248965 0.203231 0.287805
O O14 0.178127 0.294639 0.369687
O O15 0.343916 0.979771 0.822779
O O16 0.200509 0.993687 0.474922
#
# Coordination Sequence:
#
# PCOD9139831 Si02
#       8
#     4   4   4   4   4   4   4   4
#     4  11  21  44  69 107 145 190 245 307 368 447
#     4  12  25  46  73 107 144 198 249 313 366 459
#     4  12  29  46  71 105 158 194 246 314 398 441
#     4  11  23  42  72 106 146 191 256 307 364 447
#     4  12  24  45  78 106 143 195 263 305 366 457
#     4  11  23  41  75 107 144 190 252 315 364 441
#     4  11  22  41  74 106 135 190 252 305 353 441
#     4  12  27  47  70 110 149 198 249 312 385 457
#
# _framework density 23.856715999999999
#
# number of rings (size 3 to 8) (size 9 to 14) (size 15 to 20)
#    0.000    0.500    3.750    5.250    5.250    0.000 
#    4.500    0.000    0.000    0.000    0.000    0.000 
#    0.000    0.000    0.000    0.000    0.000    0.000 
#
# Total GULP energy -89203.985752 kJ/mol
# GULP energy per Si atom -5575.249109 kJ/mol
# Density = 2.380242 g / cm^3
# Si number density = 23.856716 Si / 1000 Ang^3
#
#
#
# Elastic Constant Matrix: (Units=GPa)
#
#
# Indices 1 2 3 4 5 6 
#
# 1 51.1660 25.3119 10.4347 0.0000 -7.5517 0.0000
# 2 25.3119 127.0289 2.0659 0.0000 -2.6700 0.0000
# 3 10.4347 2.0659 40.9634 0.0000 -3.9694 0.0000
# 4 0.0000 0.0000 0.0000 38.1248 0.0000 -15.8100
# 5 -7.5517 -2.6700 -3.9694 0.0000 34.0127 0.0000
# 6 0.0000 0.0000 0.0000 -15.8100 0.0000 31.7924
#
#
#
# Elastic Compliance Matrix: (Units=1/GPa)
#
#
# Indices 1 2 3 4 5 6 
#
# 1 0.023488 -0.004504 -0.005345 0.000000 0.004238 0.000000
# 2 -0.004504 0.008754 0.000683 0.000000 -0.000233 0.000000
# 3 -0.005345 0.000683 0.025923 0.000000 0.001892 0.000000
# 4 0.000000 0.000000 0.000000 0.033044 0.000000 0.016432
# 5 0.004238 -0.000233 0.001892 0.000000 0.030544 0.000000
# 6 0.000000 0.000000 0.000000 0.016432 0.000000 0.039626
#
#
# Mechanical properties :
#
#
# Convention : Reuss Voigt Hill
#
# Bulk Modulus (GPa) = 25.10565 32.75370 28.92968
# Shear Modulus (GPa) = 25.90834 32.87571 29.39202
#
# Velocity S-wave (km/s) = 3.29902 3.71623 3.51383
# Velocity P-wave (km/s) = 5.00577 5.67213 5.34934
#
# Compressibility (1/GPa) = 0.03983167
#
# Stress axis : x y z
#
# Youngs Moduli (GPa) = 42.57477 114.23691 38.57647
#
# Poissons Ratio (x) = 0.51455 0.20621
# Poissons Ratio (y) = 0.19177 -0.02636
# Poissons Ratio (z) = 0.22758 -0.07806
#
# Static dielectric constant tensor:
#      x y z
#    x 1.978410 0.000000 -0.034070 
#    y 0.000000 1.967880 0.000000 
#    z -0.034070 0.000000 1.907770 
# 
# From -- ./inp_files/12441.got.cif
#   From: 2010.05.17/outbox.cif.g08.bks.cpg/sg9_7_cif.got.tgz:12441.got - 2010.06.03 20:04:27.
