data_PCOD9139277
_publ_section_title
;
Structure prediction by ZEFSAII (Michael W. Deem and Ramdas Pophale) SiO2 
 PCOD9139277
Probable space group: C C
;
_chemical_formula_sum "Si O2"
_cell_formula_units_Z 12
_cell_length_a 4.975521
_cell_length_b 19.764654
_cell_length_c 5.656672
_cell_angle_alpha 90.000000
_cell_angle_beta 124.655857
_cell_angle_gamma 90.000000
_cell_volume 457.581214
_symmetry_space_group_name_H-M "C C"
_symmetry_group_IT_number 9
_symmetry_cell_setting 'monoclinic'
loop_
_space_group_symop_operation_xyz
x,y,z
x,-y,1/2+z
1/2+x,1/2+y,z
1/2+x,1/2-y,1/2+z
loop_
_atom_site_type_symbol
_atom_site_label
_atom_site_fract_x
_atom_site_fract_y
_atom_site_fract_z
Si Si1 0.528700 0.990822 0.139480
Si Si2 0.152050 0.295224 0.571356
Si Si3 0.241499 0.116772 0.204380
O O1 0.704414 0.994614 0.478981
O O2 0.275550 0.053747 0.039175
O O3 0.353926 0.919754 0.002459
O O4 0.402580 0.345595 0.568696
O O5 0.862896 0.269222 0.260608
O O6 0.000462 0.330241 0.727780
#
# Coordination Sequence:
#
# PCOD9139277 Si02
#       3
#     4   4   4
#     4   8  20  44  74 116 144 198 244 340 386 450
#     4  12  28  49  74 109 156 214 252 312 376 474
#     4  10  24  47  76 111 152 190 268 310 396 454
#
# _framework density 26.224848000000001
#
# number of rings (size 3 to 8) (size 9 to 14) (size 15 to 20)
#    2.000    0.000    0.000    2.000    4.667    2.667 
#    0.000    0.000    0.000    0.000    0.000    0.000 
#    0.000    0.000    0.000    0.000    0.000    0.000 
#
# Total GULP energy -33553.409370 kJ/mol
# GULP energy per Si atom -5592.234895 kJ/mol
# Density = 2.616516 g / cm^3
# Si number density = 26.224848 Si / 1000 Ang^3
#
#
#
# Elastic Constant Matrix: (Units=GPa)
#
#
# Indices 1 2 3 4 5 6 
#
# 1 140.8127 43.6788 34.8138 0.0000 -18.4658 0.0000
# 2 43.6788 129.6154 12.7932 0.0000 0.4054 0.0000
# 3 34.8138 12.7932 130.8073 0.0000 -23.6422 0.0000
# 4 0.0000 0.0000 0.0000 44.5534 0.0000 -3.3788
# 5 -18.4658 0.4054 -23.6422 0.0000 34.4828 0.0000
# 6 0.0000 0.0000 0.0000 -3.3788 0.0000 62.9403
#
#
#
# Elastic Compliance Matrix: (Units=1/GPa)
#
#
# Indices 1 2 3 4 5 6 
#
# 1 0.008827 -0.002850 -0.001381 0.000000 0.003814 0.000000
# 2 -0.002850 0.008726 -0.000444 0.000000 -0.001934 0.000000
# 3 -0.001381 -0.000444 0.009044 0.000000 0.005466 0.000000
# 4 0.000000 0.000000 0.000000 0.022537 0.000000 0.001210
# 5 0.003814 -0.001934 0.005466 0.000000 0.034813 0.000000
# 6 0.000000 0.000000 0.000000 0.001210 0.000000 0.015953
#
#
# Mechanical properties :
#
#
# Convention : Reuss Voigt Hill
#
# Bulk Modulus (GPa) = 57.98770 64.86745 61.42758
# Shear Modulus (GPa) = 43.47848 49.05860 46.26854
#
# Velocity S-wave (km/s) = 4.07616 4.32984 4.20492
# Velocity P-wave (km/s) = 6.65682 7.05588 6.85925
#
# Compressibility (1/GPa) = 0.01724504
#
# Stress axis : x y z
#
# Youngs Moduli (GPa) = 113.28373 114.60598 110.57195
#
# Poissons Ratio (x) = 0.32666 0.15274
# Poissons Ratio (y) = 0.32289 0.04912
# Poissons Ratio (z) = 0.15648 0.05091
#
# Static dielectric constant tensor:
#      x y z
#    x 1.994180 0.000000 0.020750 
#    y 0.000000 2.065660 0.000000 
#    z 0.020750 0.000000 2.049300 
# 
# From -- ./inp_files/99.got.cif
#   From: 2010.05.17/outbox.cif.g08.bks.cpg/sg9_1_cif.got.tgz:99.got - 2010.06.03 20:04:27.
