data_PCOD9139835
_publ_section_title
;
Structure prediction by ZEFSAII (Michael W. Deem and Ramdas Pophale) SiO2 
 PCOD9139835
Probable space group: C C
;
_chemical_formula_sum "Si O2"
_cell_formula_units_Z 28
_cell_length_a 10.189085
_cell_length_b 22.214687
_cell_length_c 4.994529
_cell_angle_alpha 90.000000
_cell_angle_beta 111.928913
_cell_angle_gamma 90.000000
_cell_volume 1048.704415
_symmetry_space_group_name_H-M "C C"
_symmetry_group_IT_number 9
_symmetry_cell_setting 'monoclinic'
loop_
_space_group_symop_operation_xyz
x,y,z
x,-y,1/2+z
1/2+x,1/2+y,z
1/2+x,1/2-y,1/2+z
loop_
_atom_site_type_symbol
_atom_site_label
_atom_site_fract_x
_atom_site_fract_y
_atom_site_fract_z
Si Si1 0.099420 0.673087 0.398060
Si Si2 0.042611 0.743577 0.852174
Si Si3 0.551751 0.036026 0.382672
Si Si4 0.186328 0.843687 0.200055
Si Si5 0.745898 0.418651 0.728495
Si Si6 0.899982 0.829700 0.307366
Si Si7 0.929492 0.038215 0.906158
O O1 0.048571 0.686222 0.660023
O O2 0.262752 0.693850 0.549432
O O3 0.096696 0.602831 0.334179
O O4 0.015114 0.713276 0.119499
O O5 0.458326 0.709976 0.096717
O O6 0.187109 0.781085 0.035789
O O7 0.381469 0.041049 0.281054
O O8 0.597552 0.013930 0.707238
O O9 0.260614 0.862246 0.533029
O O10 0.023114 0.841482 0.181610
O O11 0.227487 0.893643 0.014179
O O12 0.599547 0.451536 0.548643
O O13 0.866591 0.895691 0.402147
O O14 0.893055 0.012214 0.591650
#
# Coordination Sequence:
#
# PCOD9139835 Si02
#       7
#     4   4   4   4   4   4   4
#     4  12  30  46  78 111 142 205 251 301 390 454
#     4  12  25  49  70 111 146 193 249 310 372 455
#     4  12  27  52  72 105 153 197 254 312 370 453
#     4  11  21  44  70 110 143 186 239 310 371 431
#     4  11  22  40  74 102 147 193 243 304 373 427
#     4  11  27  48  74 106 159 186 249 321 372 443
#     4  11  22  37  66 103 138 186 239 286 366 427
#
# _framework density 26.699608999999999
#
# number of rings (size 3 to 8) (size 9 to 14) (size 15 to 20)
#    0.000    0.571    4.286    4.286    2.000    4.571 
#    0.000    0.000    0.000    0.000    0.000    0.000 
#    0.000    0.000    0.000    0.000    0.000    0.000 
#
# Total GULP energy -78357.541429 kJ/mol
# GULP energy per Si atom -5596.967245 kJ/mol
# Density = 2.663884 g / cm^3
# Si number density = 26.699609 Si / 1000 Ang^3
#
#
#
# Elastic Constant Matrix: (Units=GPa)
#
#
# Indices 1 2 3 4 5 6 
#
# 1 69.5478 12.8901 55.1963 0.0000 8.1575 0.0000
# 2 12.8901 130.9888 40.3238 0.0000 -3.8671 0.0000
# 3 55.1963 40.3238 139.9719 0.0000 -21.8627 0.0000
# 4 0.0000 0.0000 0.0000 57.7545 0.0000 -5.4359
# 5 8.1575 -3.8671 -21.8627 0.0000 30.8072 0.0000
# 6 0.0000 0.0000 0.0000 -5.4359 0.0000 39.4343
#
#
#
# Elastic Compliance Matrix: (Units=1/GPa)
#
#
# Indices 1 2 3 4 5 6 
#
# 1 0.026785 0.001012 -0.013431 0.000000 -0.016497 0.000000
# 2 0.001012 0.008431 -0.003041 0.000000 -0.001368 0.000000
# 3 -0.013431 -0.003041 0.015534 0.000000 0.014199 0.000000
# 4 0.000000 0.000000 0.000000 0.017542 0.000000 0.002418
# 5 -0.016497 -0.001368 0.014199 0.000000 0.046733 0.000000
# 6 0.000000 0.000000 0.000000 0.002418 0.000000 0.025692
#
#
# Mechanical properties :
#
#
# Convention : Reuss Voigt Hill
#
# Bulk Modulus (GPa) = 50.42947 61.92541 56.17744
# Shear Modulus (GPa) = 28.05092 41.07241 34.56167
#
# Velocity S-wave (km/s) = 3.24483 3.92639 3.60177
# Velocity P-wave (km/s) = 5.74171 6.61809 6.19542
#
# Compressibility (1/GPa) = 0.01982967
#
# Stress axis : x y z
#
# Youngs Moduli (GPa) = 37.33413 118.61636 64.37347
#
# Poissons Ratio (x) = -0.11999 0.86457
# Poissons Ratio (y) = -0.03777 0.19578
# Poissons Ratio (z) = 0.50142 0.36075
#
# Static dielectric constant tensor:
#      x y z
#    x 2.176560 0.000000 0.054040 
#    y 0.000000 2.075440 0.000000 
#    z 0.054040 0.000000 2.022030 
# 
# From -- ./inp_files/1802.got.cif
#   From: 2010.05.17/outbox.cif.g08.bks.cpg/sg9_1_cif.got.tgz:1802.got - 2010.06.03 20:04:27.
