data_PCOD9139204
_publ_section_title
;
Structure prediction by ZEFSAII (Michael W. Deem and Ramdas Pophale) SiO2 
 PCOD9139204
Probable space group: C C
;
_chemical_formula_sum "Si O2"
_cell_formula_units_Z 32
_cell_length_a 12.594282
_cell_length_b 8.535654
_cell_length_c 18.351419
_cell_angle_alpha 90.000000
_cell_angle_beta 34.952244
_cell_angle_gamma 90.000000
_cell_volume 1130.195938
_symmetry_space_group_name_H-M "C C"
_symmetry_group_IT_number 9
_symmetry_cell_setting 'monoclinic'
loop_
_space_group_symop_operation_xyz
x,y,z
x,-y,1/2+z
1/2+x,1/2+y,z
1/2+x,1/2-y,1/2+z
loop_
_atom_site_type_symbol
_atom_site_label
_atom_site_fract_x
_atom_site_fract_y
_atom_site_fract_z
Si Si1 0.846130 0.040971 0.153840
Si Si2 0.137673 0.240307 0.210197
Si Si3 0.230194 0.317873 0.995012
Si Si4 0.628414 0.194788 0.391023
Si Si5 0.560286 0.192641 0.212669
Si Si6 0.250591 0.665743 0.974815
Si Si7 0.169711 0.050683 0.381904
Si Si8 0.991313 0.621297 0.984920
O O1 0.811762 0.116585 0.251475
O O2 0.753532 0.152287 0.144614
O O3 0.716983 0.891521 0.207129
O O4 0.051265 0.980819 0.022148
O O5 0.925711 0.227699 0.348770
O O6 0.171831 0.237165 0.102946
O O7 0.298653 0.117415 0.138428
O O8 0.106201 0.304347 0.991906
O O9 0.250464 0.495822 0.010957
O O10 0.641759 0.378664 0.362079
O O11 0.497209 0.046521 0.441249
O O12 0.449462 0.279881 0.338198
O O13 0.632462 0.268080 0.097335
O O14 0.385720 0.082910 0.280547
O O15 0.149779 0.627928 0.956403
O O16 0.056735 0.205071 0.414365
#
# Coordination Sequence:
#
# PCOD9139204 Si02
#       8
#     4   4   4   4   4   4   4   4
#     4  11  25  44  72 110 152 201 269 317 397 477
#     4  11  23  46  74 106 152 203 257 328 393 467
#     4  11  25  43  71 106 150 201 256 317 399 472
#     4  11  25  44  69 112 146 198 264 312 392 478
#     4  11  24  47  75 108 154 204 260 327 399 464
#     4  10  24  46  70 108 149 200 258 322 394 474
#     4  10  25  44  73 104 155 201 245 333 392 452
#     4   9  23  44  70 104 146 192 259 312 382 466
#
# _framework density 28.313673999999999
#
# number of rings (size 3 to 8) (size 9 to 14) (size 15 to 20)
#    0.000    1.500    1.250    1.500    3.500   14.000 
#    2.250    0.000    0.000    0.000    0.000    0.000 
#    0.000    0.000    0.000    0.000    0.000    0.000 
#
# Total GULP energy -89106.077574 kJ/mol
# GULP energy per Si atom -5569.129848 kJ/mol
# Density = 2.824923 g / cm^3
# Si number density = 28.313674 Si / 1000 Ang^3
#
#
#
# Elastic Constant Matrix: (Units=GPa)
#
#
# Indices 1 2 3 4 5 6 
#
# 1 101.4511 33.2786 44.7139 0.0000 5.3453 0.0000
# 2 33.2786 122.4591 39.7286 0.0000 -10.5003 0.0000
# 3 44.7139 39.7286 145.4280 -0.0002 -9.6589 0.0001
# 4 0.0000 0.0000 -0.0002 40.2518 0.0001 5.3993
# 5 5.3453 -10.5003 -9.6589 0.0001 48.2678 0.0000
# 6 0.0000 0.0000 0.0001 5.3993 0.0000 25.4265
#
#
#
# Elastic Compliance Matrix: (Units=1/GPa)
#
#
# Indices 1 2 3 4 5 6 
#
# 1 0.012242 -0.002490 -0.003253 0.000000 -0.002548 0.000000
# 2 -0.002490 0.009572 -0.001716 0.000000 0.002015 0.000000
# 3 -0.003253 -0.001716 0.008457 0.000000 0.001679 0.000000
# 4 0.000000 0.000000 0.000000 0.025572 0.000000 -0.005430
# 5 -0.002548 0.002015 0.001679 0.000000 0.021774 0.000000
# 6 0.000000 0.000000 0.000000 -0.005430 0.000000 0.040482
#
#
# Mechanical properties :
#
#
# Convention : Reuss Voigt Hill
#
# Bulk Modulus (GPa) = 65.13166 67.19784 66.16475
# Shear Modulus (GPa) = 36.19692 39.56368 37.88030
#
# Velocity S-wave (km/s) = 3.57939 3.74215 3.66167
# Velocity P-wave (km/s) = 6.33532 6.51586 6.42622
#
# Compressibility (1/GPa) = 0.01535352
#
# Stress axis : x y z
#
# Youngs Moduli (GPa) = 81.68812 104.47203 118.25074
#
# Poissons Ratio (x) = 0.26012 0.38466
# Poissons Ratio (y) = 0.20339 0.20286
# Poissons Ratio (z) = 0.26573 0.17923
#
# Static dielectric constant tensor:
#      x y z
#    x 2.263360 0.000000 -0.036690 
#    y 0.000000 2.491640 0.000000 
#    z -0.036690 0.000000 2.300640 
# 
# From -- ./inp_files/33700.got.cif
#   From: 2010.05.17/outbox.cif.g08.bks.cpg/sg9_17_cif.got.tgz:33700.got - 2010.06.03 20:04:27.
