data_PCOD9139297
_publ_section_title
;
Structure prediction by ZEFSAII (Michael W. Deem and Ramdas Pophale) SiO2 
 PCOD9139297
Probable space group: C C
;
_chemical_formula_sum "Si O2"
_cell_formula_units_Z 24
_cell_length_a 7.512407
_cell_length_b 12.093600
_cell_length_c 16.959991
_cell_angle_alpha 90.000000
_cell_angle_beta 143.652805
_cell_angle_gamma 90.000000
_cell_volume 913.226013
_symmetry_space_group_name_H-M "C C"
_symmetry_group_IT_number 9
_symmetry_cell_setting 'monoclinic'
loop_
_space_group_symop_operation_xyz
x,y,z
x,-y,1/2+z
1/2+x,1/2+y,z
1/2+x,1/2-y,1/2+z
loop_
_atom_site_type_symbol
_atom_site_label
_atom_site_fract_x
_atom_site_fract_y
_atom_site_fract_z
Si Si1 0.753330 0.551913 0.328740
Si Si2 0.884081 0.998422 0.472493
Si Si3 0.371336 0.841677 0.660289
Si Si4 0.307009 0.275997 0.396107
Si Si5 0.592256 0.048417 0.083998
Si Si6 0.469232 0.267166 0.939907
O O1 0.703779 0.683337 0.300143
O O2 0.428623 0.500262 0.196980
O O3 0.060413 0.517540 0.395494
O O4 0.846878 0.528112 0.453515
O O5 0.812932 0.906365 0.379126
O O6 0.123660 0.926026 0.608449
O O7 0.034264 0.112658 0.500536
O O8 0.534486 0.917864 0.653607
O O9 0.613122 0.780243 0.798053
O O10 0.158145 0.754899 0.539749
O O11 0.117688 0.257734 0.408293
O O12 0.550575 0.165387 0.023912
#
# Coordination Sequence:
#
# PCOD9139297 Si02
#       6
#     4   4   4   4   4   4
#     4  12  26  48  79 112 156 205 263 320 394 467
#     4  10  26  46  76 112 150 205 256 326 384 465
#     4  10  25  49  73 112 152 203 262 316 386 462
#     4  10  24  48  71 113 147 201 261 317 383 463
#     4  12  27  47  81 114 154 214 252 329 395 459
#     4  12  24  50  76 113 157 200 264 322 390 470
#
# _framework density 26.280462
#
# number of rings (size 3 to 8) (size 9 to 14) (size 15 to 20)
#    1.000    0.000    3.333    2.000    7.000    1.333 
#    0.000    0.000    0.000    0.000    0.000    0.000 
#    0.000    0.000    0.000    0.000    0.000    0.000 
#
# Total GULP energy -67044.675841 kJ/mol
# GULP energy per Si atom -5587.056320 kJ/mol
# Density = 2.622065 g / cm^3
# Si number density = 26.280462 Si / 1000 Ang^3
#
#
#
# Elastic Constant Matrix: (Units=GPa)
#
#
# Indices 1 2 3 4 5 6 
#
# 1 90.1876 26.3327 40.3634 0.0002 30.8771 -0.0001
# 2 26.3327 125.9336 -15.5771 0.0009 -2.1176 0.0000
# 3 40.3634 -15.5771 121.3473 0.0036 14.6530 0.0000
# 4 0.0002 0.0009 0.0036 48.6650 0.0001 -4.3558
# 5 30.8771 -2.1176 14.6530 0.0001 29.7908 -0.0003
# 6 -0.0001 0.0000 0.0000 -4.3558 -0.0003 43.5413
#
#
#
# Elastic Compliance Matrix: (Units=1/GPa)
#
#
# Indices 1 2 3 4 5 6 
#
# 1 0.022469 -0.005753 -0.005689 0.000000 -0.020899 0.000000
# 2 -0.005753 0.009542 0.002484 0.000000 0.005420 0.000000
# 3 -0.005689 0.002484 0.010332 -0.000001 0.000991 0.000000
# 4 0.000000 0.000000 -0.000001 0.020734 0.000000 0.002074
# 5 -0.020899 0.005420 0.000991 0.000000 0.055127 0.000000
# 6 0.000000 0.000000 0.000000 0.002074 0.000000 0.023174
#
#
# Mechanical properties :
#
#
# Convention : Reuss Voigt Hill
#
# Bulk Modulus (GPa) = 40.93709 48.85626 44.89667
# Shear Modulus (GPa) = 29.86198 43.48940 36.67569
#
# Velocity S-wave (km/s) = 3.37453 4.07236 3.73976
# Velocity P-wave (km/s) = 5.54924 6.38301 5.98068
#
# Compressibility (1/GPa) = 0.02442773
#
# Stress axis : x y z
#
# Youngs Moduli (GPa) = 44.50572 104.79842 96.78393
#
# Poissons Ratio (x) = 0.60294 0.55058
# Poissons Ratio (y) = 0.25606 -0.24043
# Poissons Ratio (z) = 0.25318 -0.26034
#
# Static dielectric constant tensor:
#      x y z
#    x 2.196290 0.000000 -0.078030 
#    y 0.000000 2.099940 0.000000 
#    z -0.078030 0.000000 2.110790 
# 
# From -- ./inp_files/35026.got.cif
#   From: 2010.05.17/outbox.cif.g08.bks.cpg/sg9_18_cif.got.tgz:35026.got - 2010.06.03 20:04:27.
