data_PCOD9139508
_publ_section_title
;
Structure prediction by ZEFSAII (Michael W. Deem and Ramdas Pophale) SiO2 
 PCOD9139508
Probable space group: C C
;
_chemical_formula_sum "Si O2"
_cell_formula_units_Z 32
_cell_length_a 25.898055
_cell_length_b 6.101485
_cell_length_c 13.495835
_cell_angle_alpha 90.000000
_cell_angle_beta 143.068961
_cell_angle_gamma 90.000000
_cell_volume 1281.359359
_symmetry_space_group_name_H-M "C C"
_symmetry_group_IT_number 9
_symmetry_cell_setting 'monoclinic'
loop_
_space_group_symop_operation_xyz
x,y,z
x,-y,1/2+z
1/2+x,1/2+y,z
1/2+x,1/2-y,1/2+z
loop_
_atom_site_type_symbol
_atom_site_label
_atom_site_fract_x
_atom_site_fract_y
_atom_site_fract_z
Si Si1 0.851260 0.218626 0.757930
Si Si2 0.573189 0.633572 0.601642
Si Si3 0.958091 0.451920 0.292329
Si Si4 0.043994 0.152501 0.878957
Si Si5 0.929186 0.085459 0.543599
Si Si6 0.706830 0.420798 0.049146
Si Si7 0.746823 0.184577 0.303072
Si Si8 0.289466 0.331179 0.513654
O O1 0.922871 0.354885 0.809496
O O2 0.782868 0.404496 0.678753
O O3 0.886976 0.098929 0.909480
O O4 0.816242 0.029909 0.629715
O O5 0.522682 0.799397 0.451262
O O6 0.564901 0.409716 0.524782
O O7 0.512358 0.647908 0.604749
O O8 0.674239 0.697756 0.759973
O O9 0.870866 0.330184 0.126550
O O10 0.018432 0.597709 0.314297
O O11 0.965825 0.021247 0.706773
O O12 0.124458 0.062445 0.943378
O O13 0.848638 0.246386 0.446861
O O14 0.712545 0.231215 0.140886
O O15 0.716894 0.305893 0.959356
O O16 0.754802 0.942752 0.361238
#
# Coordination Sequence:
#
# PCOD9139508 Si02
#       8
#     4   4   4   4   4   4   4   4
#     4  11  22  44  73 102 149 193 250 322 388 456
#     4  11  25  49  69 109 154 193 256 327 379 478
#     4  11  21  45  71  99 150 195 245 327 392 445
#     4  11  26  46  71 112 150 197 254 315 391 475
#     4  12  23  47  72 107 151 196 249 321 387 467
#     4  10  25  47  74 111 157 202 254 324 389 465
#     4  11  25  46  74 106 155 202 261 309 398 469
#     4  11  23  48  72 110 152 202 261 327 384 469
#
# _framework density 24.973479999999999
#
# number of rings (size 3 to 8) (size 9 to 14) (size 15 to 20)
#    0.000    1.000    3.750    2.250    3.500    1.000 
#   15.750    0.000    0.000    0.000    0.000    0.000 
#    0.000    0.000    0.000    0.000    0.000    0.000 
#
# Total GULP energy -89325.891868 kJ/mol
# GULP energy per Si atom -5582.868242 kJ/mol
# Density = 2.491664 g / cm^3
# Si number density = 24.973480 Si / 1000 Ang^3
#
#
#
# Elastic Constant Matrix: (Units=GPa)
#
#
# Indices 1 2 3 4 5 6 
#
# 1 164.7321 53.1051 58.6291 0.0000 22.4237 0.0000
# 2 53.1051 87.8487 18.2590 0.0000 -6.6016 0.0000
# 3 58.6291 18.2590 65.9031 0.0000 6.9418 0.0000
# 4 0.0000 0.0000 0.0000 35.9456 0.0000 -0.3948
# 5 22.4237 -6.6016 6.9418 0.0000 41.8033 0.0000
# 6 0.0000 0.0000 0.0000 -0.3948 0.0000 41.5169
#
#
#
# Elastic Compliance Matrix: (Units=1/GPa)
#
#
# Indices 1 2 3 4 5 6 
#
# 1 0.011605 -0.005763 -0.008118 0.000000 -0.005787 0.000000
# 2 -0.005763 0.015204 0.000342 0.000000 0.005436 0.000000
# 3 -0.008118 0.000342 0.022226 0.000000 0.000718 0.000000
# 4 0.000000 0.000000 0.000000 0.027823 0.000000 0.000265
# 5 -0.005787 0.005436 0.000718 0.000000 0.027765 0.000000
# 6 0.000000 0.000000 0.000000 0.000265 0.000000 0.024089
#
#
# Mechanical properties :
#
#
# Convention : Reuss Voigt Hill
#
# Bulk Modulus (GPa) = 45.54408 64.27448 54.90928
# Shear Modulus (GPa) = 30.65418 36.41922 33.53670
#
# Velocity S-wave (km/s) = 3.50733 3.82293 3.66853
# Velocity P-wave (km/s) = 5.88883 6.72900 6.32288
#
# Compressibility (1/GPa) = 0.02195675
#
# Stress axis : x y z
#
# Youngs Moduli (GPa) = 86.16674 65.77021 44.99321
#
# Poissons Ratio (x) = 0.37904 0.36526
# Poissons Ratio (y) = 0.49659 -0.01538
# Poissons Ratio (z) = 0.69952 -0.02249
#
# Static dielectric constant tensor:
#      x y z
#    x 2.085970 0.000000 0.097060 
#    y 0.000000 2.052970 0.000000 
#    z 0.097060 0.000000 2.013380 
# 
# From -- ./inp_files/27901.got.cif
#   From: 2010.05.17/outbox.cif.g08.bks.cpg/sg9_14_cif.got.tgz:27901.got - 2010.06.03 20:04:27.
