data_PCOD9139307
_publ_section_title
;
Structure prediction by ZEFSAII (Michael W. Deem and Ramdas Pophale) SiO2 
 PCOD9139307
Probable space group: C C
;
_chemical_formula_sum "Si O2"
_cell_formula_units_Z 28
_cell_length_a 11.929059
_cell_length_b 8.826234
_cell_length_c 17.357229
_cell_angle_alpha 90.000000
_cell_angle_beta 36.374973
_cell_angle_gamma 90.000000
_cell_volume 1083.841957
_symmetry_space_group_name_H-M "C C"
_symmetry_group_IT_number 9
_symmetry_cell_setting 'monoclinic'
loop_
_space_group_symop_operation_xyz
x,y,z
x,-y,1/2+z
1/2+x,1/2+y,z
1/2+x,1/2-y,1/2+z
loop_
_atom_site_type_symbol
_atom_site_label
_atom_site_fract_x
_atom_site_fract_y
_atom_site_fract_z
Si Si1 0.269920 0.513468 0.387020
Si Si2 0.918382 0.696745 0.317936
Si Si3 0.192057 0.313578 0.230606
Si Si4 0.284568 0.765458 0.503854
Si Si5 0.657941 0.275103 0.334129
Si Si6 0.551490 0.513869 0.030447
Si Si7 0.919063 0.453107 0.667263
O O1 0.405475 0.372110 0.297411
O O2 0.313398 0.608837 0.440625
O O3 0.236895 0.640219 0.342247
O O4 0.069288 0.437256 0.517052
O O5 0.712841 0.617422 0.441033
O O6 0.006650 0.591725 0.201783
O O7 0.032509 0.712707 0.333965
O O8 0.255469 0.167983 0.244460
O O9 0.983205 0.350183 0.376333
O O10 0.216790 0.265972 0.127652
O O11 0.127122 0.868415 0.551116
O O12 0.550047 0.390812 0.451615
O O13 0.831232 0.380775 0.211222
O O14 0.849028 0.941182 0.155368
#
# Coordination Sequence:
#
# PCOD9139307 Si02
#       7
#     4   4   4   4   4   4   4
#     4  11  25  49  72 112 154 199 270 327 385 490
#     4  11  23  46  75 105 149 203 255 322 395 461
#     4  12  25  51  80 111 167 204 264 337 403 471
#     4  11  28  48  80 114 159 216 260 329 415 469
#     4  10  25  48  71 108 155 202 258 323 399 465
#     4  10  24  48  74 115 149 204 266 319 387 488
#     4  11  26  46  72 111 155 198 269 327 388 486
#
# _framework density 25.834025
#
# number of rings (size 3 to 8) (size 9 to 14) (size 15 to 20)
#    0.000    1.143    1.429    3.429    8.000    3.429 
#    7.714    0.000    0.000    0.000    0.000    0.000 
#    0.000    0.000    0.000    0.000    0.000    0.000 
#
# Total GULP energy -78512.521867 kJ/mol
# GULP energy per Si atom -5608.037276 kJ/mol
# Density = 2.577523 g / cm^3
# Si number density = 25.834025 Si / 1000 Ang^3
#
#
#
# Elastic Constant Matrix: (Units=GPa)
#
#
# Indices 1 2 3 4 5 6 
#
# 1 165.7479 57.8697 56.9952 0.0000 17.9359 0.0000
# 2 57.8697 139.2439 47.4113 0.0000 -9.9797 0.0000
# 3 56.9952 47.4113 109.2782 0.0000 -0.0321 0.0000
# 4 0.0000 0.0000 0.0000 47.6926 0.0000 2.3844
# 5 17.9359 -9.9797 -0.0321 0.0000 36.2876 0.0000
# 6 0.0000 0.0000 0.0000 2.3844 0.0000 52.1246
#
#
#
# Elastic Compliance Matrix: (Units=1/GPa)
#
#
# Indices 1 2 3 4 5 6 
#
# 1 0.008723 -0.002865 -0.003308 0.000000 -0.005102 0.000000
# 2 -0.002865 0.009566 -0.002655 0.000000 0.004044 0.000000
# 3 -0.003308 -0.002655 0.012029 0.000000 0.000916 0.000000
# 4 0.000000 0.000000 0.000000 0.021016 0.000000 -0.000961
# 5 -0.005102 0.004044 0.000916 0.000000 0.031193 0.000000
# 6 0.000000 0.000000 0.000000 -0.000961 0.000000 0.019229
#
#
# Mechanical properties :
#
#
# Convention : Reuss Voigt Hill
#
# Bulk Modulus (GPa) = 78.97714 82.09137 80.53426
# Shear Modulus (GPa) = 40.44276 44.02054 42.23165
#
# Velocity S-wave (km/s) = 3.96091 4.13240 4.04757
# Velocity P-wave (km/s) = 7.18024 7.39016 7.28595
#
# Compressibility (1/GPa) = 0.01266189
#
# Stress axis : x y z
#
# Youngs Moduli (GPa) = 114.63736 104.53634 83.13481
#
# Poissons Ratio (x) = 0.29945 0.27504
# Poissons Ratio (y) = 0.32839 0.22073
# Poissons Ratio (z) = 0.37926 0.27755
#
# Static dielectric constant tensor:
#      x y z
#    x 2.061380 0.000000 0.010990 
#    y 0.000000 2.002380 0.000000 
#    z 0.010990 0.000000 2.077290 
# 
# From -- ./inp_files/33696.got.cif
#   From: 2010.05.17/outbox.cif.g08.bks.cpg/sg9_17_cif.got.tgz:33696.got - 2010.06.03 20:04:27.
