data_PCOD9139410
_publ_section_title
;
Structure prediction by ZEFSAII (Michael W. Deem and Ramdas Pophale) SiO2 
 PCOD9139410
Probable space group: C C
;
_chemical_formula_sum "Si O2"
_cell_formula_units_Z 24
_cell_length_a 10.761619
_cell_length_b 14.337052
_cell_length_c 12.452297
_cell_angle_alpha 90.000000
_cell_angle_beta 154.363968
_cell_angle_gamma 90.000000
_cell_volume 831.240064
_symmetry_space_group_name_H-M "C C"
_symmetry_group_IT_number 9
_symmetry_cell_setting 'monoclinic'
loop_
_space_group_symop_operation_xyz
x,y,z
x,-y,1/2+z
1/2+x,1/2+y,z
1/2+x,1/2-y,1/2+z
loop_
_atom_site_type_symbol
_atom_site_label
_atom_site_fract_x
_atom_site_fract_y
_atom_site_fract_z
Si Si1 0.347280 0.829897 0.437550
Si Si2 0.551674 0.199282 0.868618
Si Si3 0.259499 0.339678 0.028697
Si Si4 0.253694 0.996147 0.881355
Si Si5 0.809927 0.501298 0.168755
Si Si6 0.088335 0.300143 0.131088
O O1 0.377816 0.786076 0.346262
O O2 0.309465 0.750505 0.493879
O O3 0.052375 0.893742 0.223167
O O4 0.524525 0.923168 0.592299
O O5 0.354777 0.254240 0.630981
O O6 0.527273 0.088313 0.837971
O O7 0.256482 0.311328 0.148964
O O8 0.990061 0.403410 0.796973
O O9 0.139405 0.988282 0.923755
O O10 0.420385 0.895765 0.015622
O O11 0.180507 0.991308 0.688637
O O12 0.345261 0.277862 0.413892
#
# Coordination Sequence:
#
# PCOD9139410 Si02
#       6
#     4   4   4   4   4   4
#     4  11  21  39  73 108 145 196 260 315 366 444
#     4  11  25  45  73 109 152 201 250 313 386 457
#     4  11  21  39  73 108 145 196 260 315 366 444
#     4  10  25  44  70 112 152 196 255 318 381 452
#     4  10  25  44  70 112 152 196 255 318 381 452
#     4  11  25  45  73 109 152 201 250 313 386 457
#
# _framework density 28.872523999999999
#
# number of rings (size 3 to 8) (size 9 to 14) (size 15 to 20)
#    0.000    1.333    3.333    1.000    4.667    4.000 
#    0.000   11.667    0.000    0.000    0.000    0.000 
#    0.000    0.000    0.000    0.000    0.000    0.000 
#
# Total GULP energy -66955.718208 kJ/mol
# GULP energy per Si atom -5579.643184 kJ/mol
# Density = 2.880681 g / cm^3
# Si number density = 28.872524 Si / 1000 Ang^3
#
#
#
# Elastic Constant Matrix: (Units=GPa)
#
#
# Indices 1 2 3 4 5 6 
#
# 1 157.2293 24.9726 74.8674 -0.1184 -47.4285 -0.0887
# 2 24.9726 207.4386 46.1240 -0.3279 -16.5997 -0.3289
# 3 74.8674 46.1240 136.4945 -0.1808 -34.1020 -0.1409
# 4 -0.1184 -0.3279 -0.1808 49.2090 -0.1306 -10.5280
# 5 -47.4285 -16.5997 -34.1020 -0.1306 71.5892 -0.0926
# 6 -0.0887 -0.3289 -0.1409 -10.5280 -0.0926 43.6732
#
#
#
# Elastic Compliance Matrix: (Units=1/GPa)
#
#
# Indices 1 2 3 4 5 6 
#
# 1 0.009704 0.000134 -0.004261 0.000025 0.004431 0.000022
# 2 0.000134 0.005225 -0.001719 0.000040 0.000482 0.000045
# 3 -0.004261 -0.001719 0.010715 0.000028 0.001883 0.000024
# 4 0.000025 0.000040 0.000028 0.021427 0.000085 0.005166
# 5 0.004431 0.000482 0.001883 0.000085 0.017913 0.000077
# 6 0.000022 0.000045 0.000024 0.005166 0.000077 0.024143
#
#
# Mechanical properties :
#
#
# Convention : Reuss Voigt Hill
#
# Bulk Modulus (GPa) = 71.67160 88.12116 79.89638
# Shear Modulus (GPa) = 47.40657 56.57418 51.99038
#
# Velocity S-wave (km/s) = 4.05647 4.43137 4.24805
# Velocity P-wave (km/s) = 6.84231 7.53457 7.19677
#
# Compressibility (1/GPa) = 0.01395253
#
# Stress axis : x y z
#
# Youngs Moduli (GPa) = 103.04606 191.37180 93.32965
#
# Poissons Ratio (x) = -0.02561 0.39769
# Poissons Ratio (y) = -0.01379 0.16041
# Poissons Ratio (z) = 0.43909 0.32891
#
# Static dielectric constant tensor:
#      x y z
#    x 2.480390 -0.000040 0.110430 
#    y -0.000040 2.187260 -0.000020 
#    z 0.110430 -0.000020 2.593340 
# 
# From -- ./inp_files/16905.got.cif
#   From: 2010.05.17/outbox.cif.g08.bks.cpg/sg9_9_cif.got.tgz:16905.got - 2010.06.03 20:04:27.
