data_PCOD9139345
_publ_section_title
;
Structure prediction by ZEFSAII (Michael W. Deem and Ramdas Pophale) SiO2 
 PCOD9139345
Probable space group: C C
;
_chemical_formula_sum "Si O2"
_cell_formula_units_Z 24
_cell_length_a 13.110300
_cell_length_b 7.728336
_cell_length_c 9.236852
_cell_angle_alpha 90.000000
_cell_angle_beta 69.349007
_cell_angle_gamma 90.000000
_cell_volume 875.750920
_symmetry_space_group_name_H-M "C C"
_symmetry_group_IT_number 9
_symmetry_cell_setting 'monoclinic'
loop_
_space_group_symop_operation_xyz
x,y,z
x,-y,1/2+z
1/2+x,1/2+y,z
1/2+x,1/2-y,1/2+z
loop_
_atom_site_type_symbol
_atom_site_label
_atom_site_fract_x
_atom_site_fract_y
_atom_site_fract_z
Si Si1 0.028420 0.867395 0.329400
Si Si2 0.799312 0.271362 0.008253
Si Si3 0.618329 0.726555 0.346494
Si Si4 0.896632 0.362326 0.416397
Si Si5 0.073639 0.505612 0.149089
Si Si6 0.702943 0.817823 0.873041
O O1 0.054042 0.699206 0.217371
O O2 0.099333 0.812050 0.433877
O O3 0.898814 0.856448 0.413565
O O4 0.085398 0.050801 0.272482
O O5 0.713072 0.303549 0.918250
O O6 0.851355 0.461041 0.004690
O O7 0.252950 0.297534 0.685395
O O8 0.493804 0.777590 0.460522
O O9 0.643757 0.876289 0.217737
O O10 0.800874 0.236231 0.425585
O O11 0.956962 0.418011 0.236626
O O12 0.141965 0.485704 0.969039
#
# Coordination Sequence:
#
# PCOD9139345 Si02
#       6
#     4   4   4   4   4   4
#     4  11  25  48  86 113 166 221 279 344 436 513
#     4  11  25  50  81 121 162 222 274 361 423 509
#     4  10  24  52  84 118 159 224 288 332 442 519
#     4   9  23  48  81 113 169 216 276 349 429 514
#     4   9  25  49  77 123 161 216 280 355 418 519
#     4  12  24  47  87 118 173 215 287 363 428 512
#
# _framework density 27.405052999999999
#
# number of rings (size 3 to 8) (size 9 to 14) (size 15 to 20)
#    1.000    0.667    1.667    1.000    2.333    4.000 
#    9.000    0.000    3.667    0.000    0.000    0.000 
#    0.000    0.000    0.000    0.000    0.000    0.000 
#
# Total GULP energy -66881.465999 kJ/mol
# GULP energy per Si atom -5573.455500 kJ/mol
# Density = 2.734268 g / cm^3
# Si number density = 27.405053 Si / 1000 Ang^3
#
#
#
# Elastic Constant Matrix: (Units=GPa)
#
#
# Indices 1 2 3 4 5 6 
#
# 1 224.8234 57.2664 77.9730 0.0000 0.3415 0.0000
# 2 57.2664 160.0304 70.9059 0.0000 -0.6693 0.0000
# 3 77.9730 70.9059 185.8014 0.0000 -10.9781 0.0000
# 4 0.0000 0.0000 0.0000 18.7407 0.0000 -6.4871
# 5 0.3415 -0.6693 -10.9781 0.0000 42.7488 0.0000
# 6 0.0000 0.0000 0.0000 -6.4871 0.0000 32.0960
#
#
#
# Elastic Compliance Matrix: (Units=1/GPa)
#
#
# Indices 1 2 3 4 5 6 
#
# 1 0.005377 -0.001098 -0.001869 0.000000 -0.000540 0.000000
# 2 -0.001098 0.007761 -0.002532 0.000000 -0.000520 0.000000
# 3 -0.001869 -0.002532 0.007241 0.000000 0.001835 0.000000
# 4 0.000000 0.000000 0.000000 0.057374 0.000000 0.011596
# 5 -0.000540 -0.000520 0.001835 0.000000 0.023860 0.000000
# 6 0.000000 0.000000 0.000000 0.011596 0.000000 0.033500
#
#
# Mechanical properties :
#
#
# Convention : Reuss Voigt Hill
#
# Bulk Modulus (GPa) = 106.59882 109.21619 107.90751
# Shear Modulus (GPa) = 33.50345 43.01777 38.26061
#
# Velocity S-wave (km/s) = 3.50026 3.96625 3.74052
# Velocity P-wave (km/s) = 7.43759 7.80473 7.62337
#
# Compressibility (1/GPa) = 0.00938097
#
# Stress axis : x y z
#
# Youngs Moduli (GPa) = 185.98589 128.84315 138.09965
#
# Poissons Ratio (x) = 0.14148 0.25814
# Poissons Ratio (y) = 0.20423 0.34964
# Poissons Ratio (z) = 0.34766 0.32621
#
# Static dielectric constant tensor:
#      x y z
#    x 2.186740 0.000000 0.062320 
#    y 0.000000 2.382470 0.000000 
#    z 0.062320 0.000000 2.214420 
# 
# From -- ./inp_files/23968.got.cif
#   From: 2010.05.17/outbox.cif.g08.bks.cpg/sg9_12_cif.got.tgz:23968.got - 2010.06.03 20:04:27.
