data_PCOD9139085
_publ_section_title
;
Structure prediction by ZEFSAII (Michael W. Deem and Ramdas Pophale) SiO2 
 PCOD9139085
Probable space group: C C
;
_chemical_formula_sum "Si O2"
_cell_formula_units_Z 32
_cell_length_a 17.044107
_cell_length_b 5.157153
_cell_length_c 14.069593
_cell_angle_alpha 90.000000
_cell_angle_beta 79.457481
_cell_angle_gamma 90.000000
_cell_volume 1215.827799
_symmetry_space_group_name_H-M "C C"
_symmetry_group_IT_number 9
_symmetry_cell_setting 'monoclinic'
loop_
_space_group_symop_operation_xyz
x,y,z
x,-y,1/2+z
1/2+x,1/2+y,z
1/2+x,1/2-y,1/2+z
loop_
_atom_site_type_symbol
_atom_site_label
_atom_site_fract_x
_atom_site_fract_y
_atom_site_fract_z
Si Si1 0.802620 0.575544 0.245690
Si Si2 0.646229 0.293366 0.714004
Si Si3 0.495091 0.107401 0.502202
Si Si4 0.219807 0.060612 0.999126
Si Si5 0.366008 0.740281 0.552044
Si Si6 0.884892 0.833800 0.381419
Si Si7 0.670588 0.963730 0.407804
Si Si8 0.458585 0.304833 0.708319
O O1 0.712973 0.489171 0.236674
O O2 0.824285 0.799101 0.162347
O O3 0.808975 0.705036 0.347707
O O4 0.880161 0.387616 0.229182
O O5 0.672052 0.302363 0.597734
O O6 0.666112 0.099149 0.796683
O O7 0.549709 0.270543 0.728619
O O8 0.450122 0.148320 0.412931
O O9 0.474804 0.308507 0.591013
O O10 0.454464 0.844776 0.548036
O O11 0.585581 0.080519 0.457430
O O12 0.308379 0.027864 0.024770
O O13 0.226490 0.290812 0.919991
O O14 0.178454 0.797857 0.971875
O O15 0.365395 0.525043 0.472213
O O16 0.928965 0.971437 0.284393
#
# Coordination Sequence:
#
# PCOD9139085 Si02
#       8
#     4   4   4   4   4   4   4   4
#     4  10  24  46  66 108 149 196 261 322 398 479
#     4  11  25  48  75 111 155 210 263 333 400 485
#     4  11  26  47  71 106 151 199 261 324 404 477
#     4  11  28  49  73 112 157 201 262 330 393 479
#     4  10  24  44  70 102 147 200 248 324 396 468
#     4  12  23  42  77 105 147 199 261 323 399 486
#     4  12  27  49  77 111 153 208 260 324 401 481
#     4  11  25  47  71 109 151 205 258 334 399 489
#
# _framework density 26.319514999999999
#
# number of rings (size 3 to 8) (size 9 to 14) (size 15 to 20)
#    0.000    1.000    1.250    3.750    8.750    3.000 
#    6.750    0.000    0.000    0.000    0.000    0.000 
#    0.000    0.000    0.000    0.000    0.000    0.000 
#
# Total GULP energy -89141.966274 kJ/mol
# GULP energy per Si atom -5571.372892 kJ/mol
# Density = 2.625961 g / cm^3
# Si number density = 26.319515 Si / 1000 Ang^3
#
#
#
# Elastic Constant Matrix: (Units=GPa)
#
#
# Indices 1 2 3 4 5 6 
#
# 1 163.5444 11.5664 25.6188 0.0000 23.7920 0.0000
# 2 11.5664 85.4720 33.7639 0.0000 8.8905 0.0000
# 3 25.6188 33.7639 163.7730 0.0000 16.2465 0.0000
# 4 0.0000 0.0000 0.0000 37.2821 0.0000 12.4514
# 5 23.7920 8.8905 16.2465 0.0000 55.8154 0.0000
# 6 0.0000 0.0000 0.0000 12.4514 0.0000 15.2097
#
#
#
# Elastic Compliance Matrix: (Units=1/GPa)
#
#
# Indices 1 2 3 4 5 6 
#
# 1 0.006623 -0.000349 -0.000710 0.000000 -0.002561 0.000000
# 2 -0.000349 0.012848 -0.002477 0.000000 -0.001176 0.000000
# 3 -0.000710 -0.002477 0.006857 0.000000 -0.001299 0.000000
# 4 0.000000 0.000000 0.000000 0.036916 0.000000 -0.030221
# 5 -0.002561 -0.001176 -0.001299 0.000000 0.019573 0.000000
# 6 0.000000 0.000000 0.000000 -0.030221 0.000000 0.090488
#
#
# Mechanical properties :
#
#
# Convention : Reuss Voigt Hill
#
# Bulk Modulus (GPa) = 51.93705 61.63196 56.78451
# Shear Modulus (GPa) = 26.76721 44.45080 35.60901
#
# Velocity S-wave (km/s) = 3.19252 4.11407 3.68224
# Velocity P-wave (km/s) = 5.77630 6.78492 6.30083
#
# Compressibility (1/GPa) = 0.01925408
#
# Stress axis : x y z
#
# Youngs Moduli (GPa) = 150.98868 77.83288 145.84396
#
# Poissons Ratio (x) = 0.02720 0.10354
# Poissons Ratio (y) = 0.05276 0.36132
# Poissons Ratio (z) = 0.10719 0.19283
#
# Static dielectric constant tensor:
#      x y z
#    x 2.135400 0.000000 -0.017660 
#    y 0.000000 2.207180 0.000000 
#    z -0.017660 0.000000 2.085090 
# 
# From -- ./inp_files/26354.got.cif
#   From: 2010.05.17/outbox.cif.g08.bks.cpg/sg9_14_cif.got.tgz:26354.got - 2010.06.03 20:04:27.
