data_PCOD9139058
_publ_section_title
;
Structure prediction by ZEFSAII (Michael W. Deem and Ramdas Pophale) SiO2 
 PCOD9139058
Probable space group: C C
;
_chemical_formula_sum "Si O2"
_cell_formula_units_Z 32
_cell_length_a 14.862074
_cell_length_b 11.027685
_cell_length_c 7.973293
_cell_angle_alpha 90.000000
_cell_angle_beta 69.597332
_cell_angle_gamma 90.000000
_cell_volume 1224.797372
_symmetry_space_group_name_H-M "C C"
_symmetry_group_IT_number 9
_symmetry_cell_setting 'monoclinic'
loop_
_space_group_symop_operation_xyz
x,y,z
x,-y,1/2+z
1/2+x,1/2+y,z
1/2+x,1/2-y,1/2+z
loop_
_atom_site_type_symbol
_atom_site_label
_atom_site_fract_x
_atom_site_fract_y
_atom_site_fract_z
Si Si1 0.482990 0.600834 0.114070
Si Si2 0.784270 0.809957 0.673149
Si Si3 0.779630 0.556953 0.778179
Si Si4 0.564176 0.175680 0.375381
Si Si5 0.094332 0.904386 0.879946
Si Si6 0.044107 0.572372 0.012145
Si Si7 0.228463 0.324549 0.345076
Si Si8 0.355912 0.165906 0.064443
O O1 0.370017 0.623919 0.214079
O O2 0.549066 0.627354 0.231245
O O3 0.512695 0.698137 0.951617
O O4 0.510323 0.464019 0.044399
O O5 0.807645 0.666756 0.639224
O O6 0.679045 0.810658 0.824679
O O7 0.774602 0.859141 0.491476
O O8 0.672063 0.512976 0.813905
O O9 0.841951 0.436351 0.717095
O O10 0.795891 0.613734 0.949420
O O11 0.522390 0.069880 0.520789
O O12 0.549536 0.128013 0.194763
O O13 0.158960 0.795086 0.909655
O O14 0.147972 0.578389 0.853605
O O15 0.968161 0.654841 0.961210
O O16 0.308473 0.287999 0.160279
#
# Coordination Sequence:
#
# PCOD9139058 Si02
#       8
#     4   4   4   4   4   4   4   4
#     4  12  26  45  74 106 141 187 243 298 357 433
#     4  11  24  43  66 101 142 182 234 289 359 430
#     4  11  21  40  68  99 136 179 234 296 344 415
#     4  11  26  45  70 100 146 188 237 297 359 425
#     4  11  24  44  73 103 144 184 241 296 361 417
#     4  11  25  44  69 102 144 186 238 290 361 423
#     4  10  24  44  68 100 139 190 231 292 359 419
#     4  11  22  39  70 101 132 184 244 290 346 422
#
# _framework density 26.12677
#
# number of rings (size 3 to 8) (size 9 to 14) (size 15 to 20)
#    0.000    1.000    1.250    6.000    5.250    2.000 
#    2.250    0.000    0.000    0.000    0.000    0.000 
#    0.000    0.000    0.000    0.000    0.000    0.000 
#
# Total GULP energy -89618.091545 kJ/mol
# GULP energy per Si atom -5601.130722 kJ/mol
# Density = 2.606730 g / cm^3
# Si number density = 26.126770 Si / 1000 Ang^3
#
#
#
# Elastic Constant Matrix: (Units=GPa)
#
#
# Indices 1 2 3 4 5 6 
#
# 1 165.7690 7.1714 26.6520 0.0000 2.4591 0.0000
# 2 7.1714 70.4692 4.7081 0.0000 2.5042 0.0000
# 3 26.6520 4.7081 67.3228 0.0000 10.1925 0.0000
# 4 0.0000 0.0000 0.0000 52.3675 0.0000 -12.1464
# 5 2.4591 2.5042 10.1925 0.0000 34.8325 0.0000
# 6 0.0000 0.0000 0.0000 -12.1464 0.0000 36.6831
#
#
#
# Elastic Compliance Matrix: (Units=1/GPa)
#
#
# Indices 1 2 3 4 5 6 
#
# 1 0.006463 -0.000498 -0.002574 0.000000 0.000333 0.000000
# 2 -0.000498 0.014315 -0.000684 0.000000 -0.000794 0.000000
# 3 -0.002574 -0.000684 0.016622 0.000000 -0.004633 0.000000
# 4 0.000000 0.000000 0.000000 0.020684 0.000000 0.006849
# 5 0.000333 -0.000794 -0.004633 0.000000 0.030098 0.000000
# 6 0.000000 0.000000 0.000000 0.006849 0.000000 0.029528
#
#
# Mechanical properties :
#
#
# Convention : Reuss Voigt Hill
#
# Bulk Modulus (GPa) = 33.45723 42.29156 37.87439
# Shear Modulus (GPa) = 36.98626 42.44524 39.71575
#
# Velocity S-wave (km/s) = 3.76659 4.03499 3.90310
# Velocity P-wave (km/s) = 5.63469 6.15877 5.90255
#
# Compressibility (1/GPa) = 0.02988891
#
# Stress axis : x y z
#
# Youngs Moduli (GPa) = 154.72812 69.85613 60.16073
#
# Poissons Ratio (x) = 0.03476 0.15486
# Poissons Ratio (y) = 0.07699 0.04115
# Poissons Ratio (z) = 0.39829 0.04778
#
# Static dielectric constant tensor:
#      x y z
#    x 2.068440 0.000000 -0.061280 
#    y 0.000000 2.079910 0.000000 
#    z -0.061280 0.000000 2.101570 
# 
# From -- ./inp_files/9246.got.cif
#   From: 2010.05.17/outbox.cif.g08.bks.cpg/sg9_5_cif.got.tgz:9246.got - 2010.06.03 20:04:27.
