data_PCOD9139366
_publ_section_title
;
Structure prediction by ZEFSAII (Michael W. Deem and Ramdas Pophale) SiO2 
 PCOD9139366
Probable space group: C C
;
_chemical_formula_sum "Si O2"
_cell_formula_units_Z 32
_cell_length_a 5.146529
_cell_length_b 21.174373
_cell_length_c 12.568322
_cell_angle_alpha 90.000000
_cell_angle_beta 84.829457
_cell_angle_gamma 90.000000
_cell_volume 1364.053717
_symmetry_space_group_name_H-M "C C"
_symmetry_group_IT_number 9
_symmetry_cell_setting 'monoclinic'
loop_
_space_group_symop_operation_xyz
x,y,z
x,-y,1/2+z
1/2+x,1/2+y,z
1/2+x,1/2-y,1/2+z
loop_
_atom_site_type_symbol
_atom_site_label
_atom_site_fract_x
_atom_site_fract_y
_atom_site_fract_z
Si Si1 0.958500 0.444415 0.686890
Si Si2 0.233609 0.826381 0.596276
Si Si3 0.346239 0.160236 0.578506
Si Si4 0.072704 0.967096 0.874816
Si Si5 0.832392 0.147763 0.297718
Si Si6 0.334454 0.697580 0.693581
Si Si7 0.547542 0.026610 0.499961
Si Si8 0.508502 0.260456 0.408998
O O1 0.884129 0.391357 0.603726
O O2 0.709141 0.475101 0.755200
O O3 0.098225 0.497676 0.614084
O O4 0.119400 0.404268 0.767800
O O5 0.386334 0.766888 0.640301
O O6 0.991821 0.834776 0.686383
O O7 0.148150 0.809635 0.481472
O O8 0.547789 0.179963 0.664095
O O9 0.488490 0.100673 0.519713
O O10 0.338030 0.216493 0.492898
O O11 0.059578 0.152094 0.638602
O O12 0.019772 0.890633 0.872049
O O13 0.278600 0.992280 0.952531
O O14 0.790678 0.992164 0.917444
O O15 0.710944 0.210156 0.351375
O O16 0.359465 0.706347 0.818438
#
# Coordination Sequence:
#
# PCOD9139366 Si02
#       8
#     4   4   4   4   4   4   4   4
#     4  11  25  48  74 104 150 184 245 303 359 433
#     4  10  25  41  70 107 138 185 235 296 354 430
#     4  11  25  43  66 103 131 184 239 285 357 426
#     4  11  24  46  72 105 128 195 240 291 357 425
#     4  11  22  47  71 103 140 189 242 281 363 435
#     4  11  24  43  65 100 144 174 231 292 357 423
#     4  12  26  46  76 102 142 188 248 297 356 435
#     4  11  21  42  70  96 141 183 228 289 353 433
#
# _framework density 23.459485000000001
#
# number of rings (size 3 to 8) (size 9 to 14) (size 15 to 20)
#    0.000    1.000    3.750    2.250    7.000    2.000 
#    2.250    0.000    0.000    0.000    0.000    0.000 
#    0.000    0.000    0.000    0.000    0.000    0.000 
#
# Total GULP energy -89436.171398 kJ/mol
# GULP energy per Si atom -5589.760712 kJ/mol
# Density = 2.340609 g / cm^3
# Si number density = 23.459485 Si / 1000 Ang^3
#
#
#
# Elastic Constant Matrix: (Units=GPa)
#
#
# Indices 1 2 3 4 5 6 
#
# 1 105.4681 7.1567 28.3591 0.0000 -11.5144 0.0000
# 2 7.1567 21.6459 13.5390 0.0000 0.6111 0.0000
# 3 28.3591 13.5390 102.6816 0.0000 13.3476 0.0000
# 4 0.0000 0.0000 0.0000 47.9316 0.0000 1.0227
# 5 -11.5144 0.6111 13.3476 0.0000 33.5673 0.0000
# 6 0.0000 0.0000 0.0000 1.0227 0.0000 16.6244
#
#
#
# Elastic Compliance Matrix: (Units=1/GPa)
#
#
# Indices 1 2 3 4 5 6 
#
# 1 0.011116 -0.001609 -0.003540 0.000000 0.005250 0.000000
# 2 -0.001609 0.050689 -0.006377 0.000000 0.001061 0.000000
# 3 -0.003540 -0.006377 0.012338 0.000000 -0.006004 0.000000
# 4 0.000000 0.000000 0.000000 0.020891 0.000000 -0.001285
# 5 0.005250 0.001061 -0.006004 0.000000 0.033960 0.000000
# 6 0.000000 0.000000 0.000000 -0.001285 0.000000 0.060232
#
#
# Mechanical properties :
#
#
# Convention : Reuss Voigt Hill
#
# Bulk Modulus (GPa) = 19.57338 36.43395 28.00366
# Shear Modulus (GPa) = 21.80477 31.67403 26.73940
#
# Velocity S-wave (km/s) = 3.05202 3.67844 3.37977
# Velocity P-wave (km/s) = 4.55866 5.79702 5.21473
#
# Compressibility (1/GPa) = 0.05108978
#
# Stress axis : x y z
#
# Youngs Moduli (GPa) = 89.96172 19.72821 81.05054
#
# Poissons Ratio (x) = 0.03174 0.28695
# Poissons Ratio (y) = 0.14475 0.51687
# Poissons Ratio (z) = 0.31849 0.12581
#
# Static dielectric constant tensor:
#      x y z
#    x 1.927340 0.000000 0.011280 
#    y 0.000000 1.881130 0.000000 
#    z 0.011280 0.000000 1.888540 
# 
# From -- ./inp_files/13507.got.cif
#   From: 2010.05.17/outbox.cif.g08.bks.cpg/sg9_7_cif.got.tgz:13507.got - 2010.06.03 20:04:27.
