data_PCOD9139165
_publ_section_title
;
Structure prediction by ZEFSAII (Michael W. Deem and Ramdas Pophale) SiO2 
 PCOD9139165
Probable space group: C C
;
_chemical_formula_sum "Si O2"
_cell_formula_units_Z 28
_cell_length_a 13.969367
_cell_length_b 4.827943
_cell_length_c 18.503224
_cell_angle_alpha 90.000000
_cell_angle_beta 110.224595
_cell_angle_gamma 90.000000
_cell_volume 1170.977846
_symmetry_space_group_name_H-M "C C"
_symmetry_group_IT_number 9
_symmetry_cell_setting 'monoclinic'
loop_
_space_group_symop_operation_xyz
x,y,z
x,-y,1/2+z
1/2+x,1/2+y,z
1/2+x,1/2-y,1/2+z
loop_
_atom_site_type_symbol
_atom_site_label
_atom_site_fract_x
_atom_site_fract_y
_atom_site_fract_z
Si Si1 0.945460 0.414226 0.167180
Si Si2 0.880508 0.948279 0.779817
Si Si3 0.898453 0.670281 0.929963
Si Si4 0.262364 0.853037 0.531630
Si Si5 0.627579 0.172555 0.025596
Si Si6 0.267455 0.955616 0.776497
Si Si7 0.067514 0.947956 0.159494
O O1 0.944898 0.222424 0.238844
O O2 0.835132 0.505960 0.110028
O O3 0.987444 0.189775 0.120271
O O4 0.014787 0.687969 0.185482
O O5 0.915493 0.901642 0.871434
O O6 0.775717 0.772812 0.753104
O O7 0.847399 0.258217 0.756254
O O8 0.838678 0.741809 0.987389
O O9 0.817506 0.466247 0.868736
O O10 0.013545 0.575502 0.974543
O O11 0.201948 0.589569 0.545853
O O12 0.113709 0.174057 0.598389
O O13 0.180236 0.090916 0.489325
O O14 0.151762 0.893713 0.730208
#
# Coordination Sequence:
#
# PCOD9139165 Si02
#       7
#     4   4   4   4   4   4   4
#     4  12  25  45  77 111 151 197 255 318 384 455
#     4  10  24  45  73 100 154 191 249 310 380 434
#     4  10  28  50  76 108 160 194 258 318 378 452
#     4  12  28  47  80 110 151 200 253 309 392 452
#     4  12  28  47  80 110 151 200 253 309 392 452
#     4  10  24  45  73 100 154 191 249 310 380 434
#     4  12  25  45  77 111 151 197 255 318 384 455
#
# _framework density 23.911638
#
# number of rings (size 3 to 8) (size 9 to 14) (size 15 to 20)
#    0.857    0.000    1.429    4.286    4.000    4.571 
#    0.000    0.000    0.000    0.000    0.000    0.000 
#    0.000    0.000    0.000    0.000    0.000    0.000 
#
# Total GULP energy -78078.959702 kJ/mol
# GULP energy per Si atom -5577.068550 kJ/mol
# Density = 2.385721 g / cm^3
# Si number density = 23.911638 Si / 1000 Ang^3
#
#
#
# Elastic Constant Matrix: (Units=GPa)
#
#
# Indices 1 2 3 4 5 6 
#
# 1 134.9717 43.0731 44.4169 0.0000 3.0472 0.0000
# 2 43.0731 132.2361 21.3137 0.0000 1.2585 -0.0001
# 3 44.4169 21.3137 92.8717 0.0000 -0.1001 0.0000
# 4 0.0000 0.0000 0.0000 17.4809 0.0000 2.0315
# 5 3.0472 1.2585 -0.1001 0.0000 29.4219 0.0000
# 6 0.0000 -0.0001 0.0000 2.0315 0.0000 58.6377
#
#
#
# Elastic Compliance Matrix: (Units=1/GPa)
#
#
# Indices 1 2 3 4 5 6 
#
# 1 0.009526 -0.002450 -0.003994 0.000000 -0.000895 0.000000
# 2 -0.002450 0.008487 -0.000776 0.000000 -0.000112 0.000000
# 3 -0.003994 -0.000776 0.012856 0.000000 0.000491 0.000000
# 4 0.000000 0.000000 0.000000 0.057437 0.000000 -0.001990
# 5 -0.000895 -0.000112 0.000491 0.000000 0.034087 0.000000
# 6 0.000000 0.000000 0.000000 -0.001990 0.000000 0.017123
#
#
# Mechanical properties :
#
#
# Convention : Reuss Voigt Hill
#
# Bulk Modulus (GPa) = 60.87374 64.18746 62.53060
# Shear Modulus (GPa) = 31.36123 37.85982 34.61053
#
# Velocity S-wave (km/s) = 3.62546 3.98341 3.80864
# Velocity P-wave (km/s) = 6.56036 6.93244 6.74896
#
# Compressibility (1/GPa) = 0.01642745
#
# Stress axis : x y z
#
# Youngs Moduli (GPa) = 104.97966 117.83394 77.78197
#
# Poissons Ratio (x) = 0.28875 0.31069
# Poissons Ratio (y) = 0.25725 0.06034
# Poissons Ratio (z) = 0.41932 0.09141
#
# Static dielectric constant tensor:
#      x y z
#    x 1.969570 0.000000 -0.047620 
#    y 0.000000 1.901810 0.000000 
#    z -0.047620 0.000000 1.933640 
# 
# From -- ./inp_files/33041.got.cif
#   From: 2010.05.17/outbox.cif.g08.bks.cpg/sg9_17_cif.got.tgz:33041.got - 2010.06.03 20:04:27.
