data_PCOD9139005
_publ_section_title
;
Structure prediction by ZEFSAII (Michael W. Deem and Ramdas Pophale) SiO2 
 PCOD9139005
Probable space group: C C
;
_chemical_formula_sum "Si O2"
_cell_formula_units_Z 32
_cell_length_a 9.181004
_cell_length_b 31.386948
_cell_length_c 5.124158
_cell_angle_alpha 90.000000
_cell_angle_beta 64.567612
_cell_angle_gamma 90.000000
_cell_volume 1333.503315
_symmetry_space_group_name_H-M "C C"
_symmetry_group_IT_number 9
_symmetry_cell_setting 'monoclinic'
loop_
_space_group_symop_operation_xyz
x,y,z
x,-y,1/2+z
1/2+x,1/2+y,z
1/2+x,1/2-y,1/2+z
loop_
_atom_site_type_symbol
_atom_site_label
_atom_site_fract_x
_atom_site_fract_y
_atom_site_fract_z
Si Si1 0.153940 0.175531 0.631550
Si Si2 0.777024 0.608639 0.151429
Si Si3 0.404962 0.975215 0.822480
Si Si4 0.793244 0.973928 0.510428
Si Si5 0.944795 0.113852 0.084127
Si Si6 0.420079 0.182070 0.822165
Si Si7 0.750380 0.804036 0.833251
Si Si8 0.408726 0.740068 0.699725
O O1 0.263073 0.146101 0.372097
O O2 0.245013 0.188395 0.824488
O O3 0.083525 0.217259 0.556968
O O4 0.009893 0.142890 0.799015
O O5 0.823372 0.566099 0.263907
O O6 0.605218 0.605318 0.135048
O O7 0.916900 0.630519 0.867285
O O8 0.598651 0.969847 0.664610
O O9 0.361596 0.013256 0.652848
O O10 0.870788 0.929827 0.540031
O O11 0.839242 0.990033 0.187647
O O12 0.815323 0.147119 0.298687
O O13 0.557313 0.195102 0.509294
O O14 0.433936 0.212664 0.063084
O O15 0.832279 0.776995 0.533635
O O16 0.807677 0.782478 0.053144
#
# Coordination Sequence:
#
# PCOD9139005 Si02
#       8
#     4   4   4   4   4   4   4   4
#     4  10  25  49  69 107 151 193 245 317 370 447
#     4  11  25  46  74 108 153 196 249 311 380 446
#     4  10  25  46  71 108 151 196 246 309 373 449
#     4  10  24  43  71 106 144 189 244 306 370 446
#     4  10  24  46  71 105 148 193 242 310 372 447
#     4  11  29  46  76 111 144 202 251 313 374 455
#     4  11  27  47  77 106 142 196 250 302 374 443
#     4  11  27  51  71 105 151 191 247 314 373 437
#
# _framework density 23.996938
#
# number of rings (size 3 to 8) (size 9 to 14) (size 15 to 20)
#    0.000    1.500    1.250    0.000   12.250    4.000 
#    0.000    3.750    0.000    0.000    0.000    0.000 
#    0.000    0.000    0.000    0.000    0.000    0.000 
#
# Total GULP energy -89418.892123 kJ/mol
# GULP energy per Si atom -5588.680758 kJ/mol
# Density = 2.394232 g / cm^3
# Si number density = 23.996938 Si / 1000 Ang^3
#
#
#
# Elastic Constant Matrix: (Units=GPa)
#
#
# Indices 1 2 3 4 5 6 
#
# 1 90.4468 69.9811 33.8541 0.0000 21.6826 0.0000
# 2 69.9811 153.5040 11.1501 0.0000 -1.8609 0.0000
# 3 33.8541 11.1501 77.8007 0.0000 2.6043 0.0000
# 4 0.0000 0.0000 0.0000 19.5342 0.0000 4.6476
# 5 21.6826 -1.8609 2.6043 0.0000 33.6708 0.0000
# 6 0.0000 0.0000 0.0000 4.6476 0.0000 55.8447
#
#
#
# Elastic Compliance Matrix: (Units=1/GPa)
#
#
# Indices 1 2 3 4 5 6 
#
# 1 0.029408 -0.012886 -0.010319 0.000000 -0.018851 0.000000
# 2 -0.012886 0.012236 0.003562 0.000000 0.008699 0.000000
# 3 -0.010319 0.003562 0.016647 0.000000 0.005554 0.000000
# 4 0.000000 0.000000 0.000000 0.052227 0.000000 -0.004347
# 5 -0.018851 0.008699 0.005554 0.000000 0.041890 0.000000
# 6 0.000000 0.000000 0.000000 -0.004347 0.000000 0.018269
#
#
# Mechanical properties :
#
#
# Convention : Reuss Voigt Hill
#
# Bulk Modulus (GPa) = 52.61437 61.30245 56.95841
# Shear Modulus (GPa) = 23.11658 35.59433 29.35546
#
# Velocity S-wave (km/s) = 3.10710 3.85552 3.50137
# Velocity P-wave (km/s) = 5.90297 6.73955 6.33509
#
# Compressibility (1/GPa) = 0.01900621
#
# Stress axis : x y z
#
# Youngs Moduli (GPa) = 34.00465 81.72826 60.07103
#
# Poissons Ratio (x) = 1.05313 0.61985
# Poissons Ratio (y) = 0.43817 -0.21399
# Poissons Ratio (z) = 0.35088 -0.29114
#
# Static dielectric constant tensor:
#      x y z
#    x 1.912380 0.000000 -0.042830 
#    y 0.000000 1.913650 0.000000 
#    z -0.042830 0.000000 2.063890 
# 
# From -- ./inp_files/1364.got.cif
#   From: 2010.05.17/outbox.cif.g08.bks.cpg/sg9_1_cif.got.tgz:1364.got - 2010.06.03 20:04:27.
