data_PCOD9139850
_publ_section_title
;
Structure prediction by ZEFSAII (Michael W. Deem and Ramdas Pophale) SiO2 
 PCOD9139850
Probable space group: C C
;
_chemical_formula_sum "Si O2"
_cell_formula_units_Z 32
_cell_length_a 15.001945
_cell_length_b 11.215174
_cell_length_c 9.102832
_cell_angle_alpha 90.000000
_cell_angle_beta 116.519731
_cell_angle_gamma 90.000000
_cell_volume 1370.397938
_symmetry_space_group_name_H-M "C C"
_symmetry_group_IT_number 9
_symmetry_cell_setting 'monoclinic'
loop_
_space_group_symop_operation_xyz
x,y,z
x,-y,1/2+z
1/2+x,1/2+y,z
1/2+x,1/2-y,1/2+z
loop_
_atom_site_type_symbol
_atom_site_label
_atom_site_fract_x
_atom_site_fract_y
_atom_site_fract_z
Si Si1 0.617910 0.136922 0.689170
Si Si2 0.674177 0.117792 0.179294
Si Si3 0.425210 0.631959 0.927502
Si Si4 0.265797 0.844515 0.830658
Si Si5 0.349331 0.025865 0.139769
Si Si6 0.042971 0.696035 0.324136
Si Si7 0.390157 0.608777 0.236367
Si Si8 0.985062 0.345219 0.346440
O O1 0.669301 0.260125 0.777895
O O2 0.595015 0.132763 0.500512
O O3 0.513036 0.137634 0.695513
O O4 0.676705 0.013246 0.759103
O O5 0.629958 0.206873 0.268587
O O6 0.774932 0.149336 0.168808
O O7 0.584222 0.117755 0.999107
O O8 0.350020 0.742684 0.883156
O O9 0.508201 0.683827 0.878452
O O10 0.390170 0.515024 0.819040
O O11 0.434753 0.597584 0.105742
O O12 0.266211 0.902156 0.668847
O O13 0.297963 0.942882 0.976451
O O14 0.446356 0.118362 0.190453
O O15 0.394223 0.934423 0.294575
O O16 0.454099 0.711996 0.359945
#
# Coordination Sequence:
#
# PCOD9139850 Si02
#       8
#     4   4   4   4   4   4   4   4
#     4  12  22  47  71 104 152 198 252 322 374 457
#     4  12  25  43  76 114 139 198 270 309 379 471
#     4  11  25  47  70 107 148 204 246 316 385 450
#     4  11  24  44  74 107 151 194 254 313 378 455
#     4  11  21  45  73 105 144 198 247 311 384 448
#     4  11  24  46  74 106 148 198 260 309 382 463
#     4  12  27  47  73 107 159 195 252 320 388 446
#     4  12  24  45  73 104 151 201 251 316 382 462
#
# _framework density 23.35088
#
# number of rings (size 3 to 8) (size 9 to 14) (size 15 to 20)
#    0.000    0.500    6.250    2.250    3.500    0.000 
#    6.750    0.000    0.000    0.000    0.000    0.000 
#    0.000    0.000    0.000    0.000    0.000    0.000 
#
# Total GULP energy -89219.876222 kJ/mol
# GULP energy per Si atom -5576.242264 kJ/mol
# Density = 2.329773 g / cm^3
# Si number density = 23.350880 Si / 1000 Ang^3
#
#
#
# Elastic Constant Matrix: (Units=GPa)
#
#
# Indices 1 2 3 4 5 6 
#
# 1 76.8241 46.3411 21.4295 0.0000 -2.1299 0.0000
# 2 46.3411 97.0554 39.4959 0.0000 -4.1037 0.0000
# 3 21.4295 39.4959 65.6939 0.0000 0.5451 0.0000
# 4 0.0000 0.0000 0.0000 42.3791 0.0000 -7.0234
# 5 -2.1299 -4.1037 0.5451 0.0000 21.7867 0.0000
# 6 0.0000 0.0000 0.0000 -7.0234 0.0000 31.0053
#
#
#
# Elastic Compliance Matrix: (Units=1/GPa)
#
#
# Indices 1 2 3 4 5 6 
#
# 1 0.018328 -0.008350 -0.000961 0.000000 0.000243 0.000000
# 2 -0.008350 0.017615 -0.007889 0.000000 0.002699 0.000000
# 3 -0.000961 -0.007889 0.020296 0.000000 -0.002088 0.000000
# 4 0.000000 0.000000 0.000000 0.024517 0.000000 0.005554
# 5 0.000243 0.002699 -0.002088 0.000000 0.046484 0.000000
# 6 0.000000 0.000000 0.000000 0.005554 0.000000 0.033511
#
#
# Mechanical properties :
#
#
# Convention : Reuss Voigt Hill
#
# Bulk Modulus (GPa) = 45.78799 50.45626 48.12213
# Shear Modulus (GPa) = 24.70007 27.85468 26.27737
#
# Velocity S-wave (km/s) = 3.25588 3.45755 3.35823
# Velocity P-wave (km/s) = 5.81254 6.13142 5.97411
#
# Compressibility (1/GPa) = 0.02183979
#
# Stress axis : x y z
#
# Youngs Moduli (GPa) = 54.56051 56.77091 49.27180
#
# Poissons Ratio (x) = 0.47404 0.04733
# Poissons Ratio (y) = 0.45558 0.38869
# Poissons Ratio (z) = 0.05241 0.44785
#
# Static dielectric constant tensor:
#      x y z
#    x 1.916250 0.000000 -0.008620 
#    y 0.000000 1.905750 0.000000 
#    z -0.008620 0.000000 1.973770 
# 
# From -- ./inp_files/9191.got.cif
#   From: 2010.05.17/outbox.cif.g08.bks.cpg/sg9_5_cif.got.tgz:9191.got - 2010.06.03 20:04:27.
