data_PCOD9139668
_publ_section_title
;
Structure prediction by ZEFSAII (Michael W. Deem and Ramdas Pophale) SiO2 
 PCOD9139668
Probable space group: C C
;
_chemical_formula_sum "Si O2"
_cell_formula_units_Z 28
_cell_length_a 9.718175
_cell_length_b 9.718263
_cell_length_c 24.337174
_cell_angle_alpha 90.000000
_cell_angle_beta 142.937141
_cell_angle_gamma 90.000000
_cell_volume 1385.281716
_symmetry_space_group_name_H-M "C C"
_symmetry_group_IT_number 9
_symmetry_cell_setting 'monoclinic'
loop_
_space_group_symop_operation_xyz
x,y,z
x,-y,1/2+z
1/2+x,1/2+y,z
1/2+x,1/2-y,1/2+z
loop_
_atom_site_type_symbol
_atom_site_label
_atom_site_fract_x
_atom_site_fract_y
_atom_site_fract_z
Si Si1 0.265010 0.840246 0.042480
Si Si2 0.778642 0.749907 0.192029
Si Si3 0.168260 0.964500 0.341595
Si Si4 0.487929 0.965100 0.841693
Si Si5 0.694345 0.340287 0.542349
Si Si6 0.677152 0.749921 0.390999
Si Si7 0.880823 0.750337 0.993061
O O1 0.534773 0.816111 0.128531
O O2 0.201211 0.000009 0.028087
O O3 0.178206 0.776101 0.957127
O O4 0.133013 0.767908 0.050164
O O5 0.840259 0.633169 0.255848
O O6 0.767517 0.683690 0.128159
O O7 0.972132 0.866664 0.255577
O O8 0.274751 0.880817 0.426982
O O9 0.356772 0.999487 0.355975
O O10 0.080513 0.111865 0.333865
O O11 0.722958 0.881700 0.927221
O O12 0.544693 0.112225 0.833703
O O13 0.440049 0.276177 0.456792
O O14 0.857541 0.267588 0.550384
#
# Coordination Sequence:
#
# PCOD9139668 Si02
#       7
#     4   4   4   4   4   4   4
#     4  11  23  43  69 101 132 175 224 280 329 402
#     4  10  28  44  64 102 144 174 220 274 352 396
#     4  11  23  43  69 101 132 175 224 280 329 402
#     4  11  23  43  69 101 132 175 224 280 329 402
#     4  11  23  43  69 101 132 175 224 280 329 402
#     4  11  22  41  75  97 128 174 232 271 326 398
#     4  11  22  41  75  97 128 174 232 271 326 398
#
# _framework density 20.212494
#
# number of rings (size 3 to 8) (size 9 to 14) (size 15 to 20)
#    0.000    1.143    5.714    0.000    0.000    4.571 
#    0.000    0.000    0.000    0.000    0.000    0.000 
#    0.000    0.000    0.000    0.000    0.000    0.000 
#
# Total GULP energy -78244.633826 kJ/mol
# GULP energy per Si atom -5588.902416 kJ/mol
# Density = 2.016649 g / cm^3
# Si number density = 20.212494 Si / 1000 Ang^3
#
#
#
# Elastic Constant Matrix: (Units=GPa)
#
#
# Indices 1 2 3 4 5 6 
#
# 1 134.2052 24.3752 18.6741 0.0000 9.6041 0.0000
# 2 24.3752 135.9763 17.8765 0.0000 0.9164 0.0000
# 3 18.6741 17.8765 39.5573 0.0000 -0.5259 0.0000
# 4 0.0000 0.0000 0.0000 6.1223 0.0000 3.4138
# 5 9.6041 0.9164 -0.5259 0.0000 6.7289 0.0000
# 6 0.0000 0.0000 0.0000 3.4138 0.0000 44.1544
#
#
#
# Elastic Compliance Matrix: (Units=1/GPa)
#
#
# Indices 1 2 3 4 5 6 
#
# 1 0.009144 -0.001020 -0.004032 0.000000 -0.013227 0.000000
# 2 -0.001020 0.007945 -0.003107 0.000000 0.000131 0.000000
# 3 -0.004032 -0.003107 0.028699 0.000000 0.008420 0.000000
# 4 0.000000 0.000000 0.000000 0.170695 0.000000 -0.013197
# 5 -0.013227 0.000131 0.008420 0.000000 0.168131 0.000000
# 6 0.000000 0.000000 0.000000 -0.013197 0.000000 0.023668
#
#
# Mechanical properties :
#
#
# Convention : Reuss Voigt Hill
#
# Bulk Modulus (GPa) = 33.93224 47.95451 40.94338
# Shear Modulus (GPa) = 11.50950 27.98867 19.74909
#
# Velocity S-wave (km/s) = 2.38885 3.72522 3.12921
# Velocity P-wave (km/s) = 4.94298 6.50229 5.77550
#
# Compressibility (1/GPa) = 0.02947050
#
# Stress axis : x y z
#
# Youngs Moduli (GPa) = 109.36008 125.87067 34.84438
#
# Poissons Ratio (x) = 0.12839 0.14048
# Poissons Ratio (y) = 0.11155 0.10826
# Poissons Ratio (z) = 0.44090 0.39109
#
# Static dielectric constant tensor:
#      x y z
#    x 1.723350 0.000000 0.004050 
#    y 0.000000 1.723680 0.000000 
#    z 0.004050 0.000000 1.676770 
# 
# From -- ./inp_files/22391.got.cif
#   From: 2010.05.17/outbox.cif.g08.bks.cpg/sg9_12_cif.got.tgz:22391.got - 2010.06.03 20:04:27.
