data_PCOD9139441
_publ_section_title
;
Structure prediction by ZEFSAII (Michael W. Deem and Ramdas Pophale) SiO2 
 PCOD9139441
Probable space group: C C
;
_chemical_formula_sum "Si O2"
_cell_formula_units_Z 28
_cell_length_a 8.895023
_cell_length_b 12.018117
_cell_length_c 15.009989
_cell_angle_alpha 90.000000
_cell_angle_beta 137.848568
_cell_angle_gamma 90.000000
_cell_volume 1076.827630
_symmetry_space_group_name_H-M "C C"
_symmetry_group_IT_number 9
_symmetry_cell_setting 'monoclinic'
loop_
_space_group_symop_operation_xyz
x,y,z
x,-y,1/2+z
1/2+x,1/2+y,z
1/2+x,1/2-y,1/2+z
loop_
_atom_site_type_symbol
_atom_site_label
_atom_site_fract_x
_atom_site_fract_y
_atom_site_fract_z
Si Si1 0.783730 0.718210 0.631550
Si Si2 0.458682 0.997118 0.622675
Si Si3 0.249232 0.604756 0.634003
Si Si4 0.974090 0.937448 0.613096
Si Si5 0.482961 0.617958 0.922167
Si Si6 0.383739 0.808973 0.777768
Si Si7 0.288474 0.693159 0.332017
O O1 0.540092 0.694863 0.479926
O O2 0.778483 0.734095 0.736414
O O3 0.926450 0.610452 0.664549
O O4 0.880738 0.832884 0.630289
O O5 0.520246 0.039434 0.550704
O O6 0.237689 0.923548 0.528506
O O7 0.890542 0.077328 0.785568
O O8 0.381909 0.551973 0.611769
O O9 0.236296 0.736675 0.642401
O O10 0.153589 0.416810 0.742720
O O11 0.245243 0.921410 0.729220
O O12 0.895807 0.928930 0.477052
O O13 0.394177 0.744831 0.875218
O O14 0.629913 0.784038 0.847596
#
# Coordination Sequence:
#
# PCOD9139441 Si02
#       7
#     4   4   4   4   4   4   4
#     4  12  29  46  81 113 156 208 266 328 403 473
#     4  12  23  47  72 107 154 199 257 323 386 471
#     4  10  25  46  70 108 149 192 258 317 384 478
#     4  12  24  47  78 107 152 211 255 324 405 464
#     4  10  25  45  71 105 151 192 263 318 384 480
#     4  10  25  48  73 105 156 194 259 322 396 471
#     4  12  27  51  77 117 156 206 264 334 396 479
#
# _framework density 26.002303000000001
#
# number of rings (size 3 to 8) (size 9 to 14) (size 15 to 20)
#    0.857    0.000    4.286    1.714    6.000    0.000 
#    0.000    1.429    3.143    0.000    0.000    0.000 
#    0.000    0.000    0.000    0.000    0.000    0.000 
#
# Total GULP energy -78120.053344 kJ/mol
# GULP energy per Si atom -5580.003810 kJ/mol
# Density = 2.594312 g / cm^3
# Si number density = 26.002303 Si / 1000 Ang^3
#
#
#
# Elastic Constant Matrix: (Units=GPa)
#
#
# Indices 1 2 3 4 5 6 
#
# 1 124.5585 26.3698 27.2008 0.0000 -6.5490 0.0000
# 2 26.3698 73.6273 5.8923 0.0000 -0.2743 0.0000
# 3 27.2008 5.8923 114.5922 0.0000 -12.2549 0.0000
# 4 0.0000 0.0000 0.0000 62.0952 0.0000 64.0331
# 5 -6.5490 -0.2743 -12.2549 0.0000 41.1073 0.0000
# 6 0.0000 0.0000 0.0000 64.0331 0.0000 172.5984
#
#
#
# Elastic Compliance Matrix: (Units=1/GPa)
#
#
# Indices 1 2 3 4 5 6 
#
# 1 0.009154 -0.003122 -0.001920 0.000000 0.000865 0.000000
# 2 -0.003122 0.014703 -0.000060 0.000000 -0.000417 0.000000
# 3 -0.001920 -0.000060 0.009454 0.000000 0.002512 0.000000
# 4 0.000000 0.000000 0.000000 0.026083 0.000000 -0.009677
# 5 0.000865 -0.000417 0.002512 0.000000 0.025211 0.000000
# 6 0.000000 0.000000 0.000000 -0.009677 0.000000 0.009384
#
#
# Mechanical properties :
#
#
# Convention : Reuss Voigt Hill
#
# Bulk Modulus (GPa) = 43.27336 47.96710 45.62023
# Shear Modulus (GPa) = 44.68526 72.04784 58.36655
#
# Velocity S-wave (km/s) = 4.14999 5.26957 4.74293
# Velocity P-wave (km/s) = 6.29615 7.45063 6.89758
#
# Compressibility (1/GPa) = 0.02310890
#
# Stress axis : x y z
#
# Youngs Moduli (GPa) = 109.24219 68.01252 105.77491
#
# Poissons Ratio (x) = 0.21231 0.20307
# Poissons Ratio (y) = 0.34102 0.00631
# Poissons Ratio (z) = 0.20973 0.00406
#
# Static dielectric constant tensor:
#      x y z
#    x 2.238690 0.000000 0.046090 
#    y 0.000000 2.251970 0.000000 
#    z 0.046090 0.000000 2.083630 
# 
# From -- ./inp_files/23489.got.cif
#   From: 2010.05.17/outbox.cif.g08.bks.cpg/sg9_12_cif.got.tgz:23489.got - 2010.06.03 20:04:27.
