data_PCOD9139408
_publ_section_title
;
Structure prediction by ZEFSAII (Michael W. Deem and Ramdas Pophale) SiO2 
 PCOD9139408
Probable space group: C C
;
_chemical_formula_sum "Si O2"
_cell_formula_units_Z 24
_cell_length_a 5.098853
_cell_length_b 22.324584
_cell_length_c 11.631871
_cell_angle_alpha 90.000000
_cell_angle_beta 130.509789
_cell_angle_gamma 90.000000
_cell_volume 1006.671042
_symmetry_space_group_name_H-M "C C"
_symmetry_group_IT_number 9
_symmetry_cell_setting 'monoclinic'
loop_
_space_group_symop_operation_xyz
x,y,z
x,-y,1/2+z
1/2+x,1/2+y,z
1/2+x,1/2-y,1/2+z
loop_
_atom_site_type_symbol
_atom_site_label
_atom_site_fract_x
_atom_site_fract_y
_atom_site_fract_z
Si Si1 0.683270 0.833908 0.681940
Si Si2 0.160477 0.760150 0.976523
Si Si3 0.660464 0.988312 0.976514
Si Si4 0.618748 0.584485 0.773592
Si Si5 0.137663 0.333909 0.271102
Si Si6 0.702168 0.584485 0.179439
O O1 0.584944 0.783230 0.562033
O O2 0.360643 0.868906 0.637973
O O3 0.860042 0.802109 0.841977
O O4 0.951667 0.879993 0.696791
O O5 0.236000 0.716769 0.891013
O O6 0.460924 0.802106 0.111071
O O7 0.339026 0.033205 0.899371
O O8 0.525120 0.946586 0.835670
O O9 0.981897 0.033207 0.053657
O O10 0.795805 0.946586 0.117357
O O11 0.460275 0.631088 0.815069
O O12 0.869239 0.620011 0.756240
#
# Coordination Sequence:
#
# PCOD9139408 Si02
#       6
#     4   4   4   4   4   4
#     4  11  25  44  70 101 138 178 227 280 339 404
#     4  10  25  44  70 102 136 180 227 280 340 404
#     4  10  25  44  70 102 136 180 227 280 340 404
#     4  11  25  44  70 101 138 178 227 280 339 404
#     4  11  25  44  70 101 138 178 227 280 339 404
#     4  11  25  44  70 101 138 178 227 280 339 404
#
# _framework density 23.840957
#
# number of rings (size 3 to 8) (size 9 to 14) (size 15 to 20)
#    0.000    1.333    0.000    3.000    0.000   21.333 
#    0.000    0.000    0.000    4.000    0.000    0.000 
#    0.000    0.000    0.000    0.000    0.000    0.000 
#
# Total GULP energy -67239.114856 kJ/mol
# GULP energy per Si atom -5603.259571 kJ/mol
# Density = 2.378669 g / cm^3
# Si number density = 23.840957 Si / 1000 Ang^3
#
#
#
# Elastic Constant Matrix: (Units=GPa)
#
#
# Indices 1 2 3 4 5 6 
#
# 1 26.3369 -16.4892 -2.2949 0.0000 4.9999 0.0000
# 2 -16.4892 73.1333 34.8935 0.0000 9.3106 0.0000
# 3 -2.2949 34.8935 178.6555 0.0000 16.4296 0.0000
# 4 0.0000 0.0000 0.0000 46.0645 0.0000 0.7054
# 5 4.9999 9.3106 16.4296 0.0000 15.5540 0.0000
# 6 0.0000 0.0000 0.0000 0.7054 0.0000 27.2028
#
#
#
# Elastic Compliance Matrix: (Units=1/GPa)
#
#
# Indices 1 2 3 4 5 6 
#
# 1 0.052326 0.015045 0.000121 0.000000 -0.025954 0.000000
# 2 0.015045 0.020032 -0.002405 0.000000 -0.014287 0.000000
# 3 0.000121 -0.002405 0.006579 0.000000 -0.005548 0.000000
# 4 0.000000 0.000000 0.000000 0.021717 0.000000 -0.000563
# 5 -0.025954 -0.014287 -0.005548 0.000000 0.087047 0.000000
# 6 0.000000 0.000000 0.000000 -0.000563 0.000000 0.036775
#
#
# Mechanical properties :
#
#
# Convention : Reuss Voigt Hill
#
# Bulk Modulus (GPa) = 9.57334 34.48273 22.02804
# Shear Modulus (GPa) = 21.38786 35.23202 28.30994
#
# Velocity S-wave (km/s) = 2.99842 3.84838 3.44968
# Velocity P-wave (km/s) = 4.00145 5.85164 5.01265
#
# Compressibility (1/GPa) = 0.10445677
#
# Stress axis : x y z
#
# Youngs Moduli (GPa) = 19.11083 49.91957 152.00001
#
# Poissons Ratio (x) = -0.75102 -0.01832
# Poissons Ratio (y) = -0.28751 0.36563
# Poissons Ratio (z) = -0.00230 0.12008
#
# Static dielectric constant tensor:
#      x y z
#    x 1.878470 0.000000 0.004940 
#    y 0.000000 1.946290 0.000000 
#    z 0.004940 0.000000 1.919940 
# 
# From -- ./inp_files/13790.got.cif
#   From: 2010.05.17/outbox.cif.g08.bks.cpg/sg9_7_cif.got.tgz:13790.got - 2010.06.03 20:04:27.
