data_PCOD9139619
_publ_section_title
;
Structure prediction by ZEFSAII (Michael W. Deem and Ramdas Pophale) SiO2 
 PCOD9139619
Probable space group: C C
;
_chemical_formula_sum "Si O2"
_cell_formula_units_Z 32
_cell_length_a 15.572684
_cell_length_b 16.933990
_cell_length_c 8.444284
_cell_angle_alpha 90.000000
_cell_angle_beta 140.901094
_cell_angle_gamma 90.000000
_cell_volume 1404.370083
_symmetry_space_group_name_H-M "C C"
_symmetry_group_IT_number 9
_symmetry_cell_setting 'monoclinic'
loop_
_space_group_symop_operation_xyz
x,y,z
x,-y,1/2+z
1/2+x,1/2+y,z
1/2+x,1/2-y,1/2+z
loop_
_atom_site_type_symbol
_atom_site_label
_atom_site_fract_x
_atom_site_fract_y
_atom_site_fract_z
Si Si1 0.159940 0.691224 0.256380
Si Si2 0.026055 0.841266 0.015860
Si Si3 0.513565 0.850046 0.002703
Si Si4 0.081730 0.789856 0.411744
Si Si5 0.267697 0.058859 0.721597
Si Si6 0.240206 0.623493 0.048609
Si Si7 0.256624 0.897984 0.840543
Si Si8 0.066627 0.538948 0.302939
O O1 0.031217 0.745034 0.010430
O O2 0.193002 0.746635 0.455670
O O3 0.237300 0.673910 0.206099
O O4 0.141434 0.605950 0.307983
O O5 0.017636 0.850731 0.194683
O O6 0.169750 0.876357 0.161750
O O7 0.900909 0.881648 0.746866
O O8 0.653736 0.831242 0.293114
O O9 0.489061 0.781638 0.839362
O O10 0.392977 0.865059 0.952376
O O11 0.543477 0.929497 0.947272
O O12 0.142403 0.833103 0.648231
O O13 0.281021 0.078830 0.556273
O O14 0.204682 0.973321 0.666180
O O15 0.414850 0.044577 0.012202
O O16 0.154798 0.541289 0.938724
#
# Coordination Sequence:
#
# PCOD9139619 Si02
#       8
#     4   4   4   4   4   4   4   4
#     4   9  24  44  72 104 152 205 241 321 387 459
#     4  10  26  48  72 109 156 202 252 327 397 451
#     4  11  24  42  72 109 144 195 255 309 383 467
#     4   9  24  45  69 108 151 196 244 322 390 458
#     4  12  26  48  78 109 145 201 267 320 389 469
#     4  12  24  43  73 116 150 202 258 315 391 463
#     4  12  25  47  78 105 144 199 264 318 382 473
#     4  11  23  47  74 108 150 198 255 316 383 472
#
# _framework density 22.786017999999999
#
# number of rings (size 3 to 8) (size 9 to 14) (size 15 to 20)
#    0.750    0.500    1.250    3.750    5.250    1.000 
#    9.000    0.000    0.000    0.000    0.000    0.000 
#    0.000    0.000    0.000    0.000    0.000    0.000 
#
# Total GULP energy -89142.234703 kJ/mol
# GULP energy per Si atom -5571.389669 kJ/mol
# Density = 2.273416 g / cm^3
# Si number density = 22.786018 Si / 1000 Ang^3
#
#
#
# Elastic Constant Matrix: (Units=GPa)
#
#
# Indices 1 2 3 4 5 6 
#
# 1 95.5594 30.0761 49.3492 0.0000 -18.9975 0.0000
# 2 30.0761 76.6778 27.9743 0.0000 -6.3462 0.0000
# 3 49.3492 27.9743 73.1059 0.0000 -6.6484 0.0000
# 4 0.0000 0.0000 0.0000 17.7224 0.0000 -11.8175
# 5 -18.9975 -6.3462 -6.6484 0.0000 27.5896 0.0000
# 6 0.0000 0.0000 0.0000 -11.8175 0.0000 33.3904
#
#
#
# Elastic Compliance Matrix: (Units=1/GPa)
#
#
# Indices 1 2 3 4 5 6 
#
# 1 0.018809 -0.002629 -0.010805 0.000000 0.009743 0.000000
# 2 -0.002629 0.015649 -0.004141 0.000000 0.000791 0.000000
# 3 -0.010805 -0.004141 0.022282 0.000000 -0.003023 0.000000
# 4 0.000000 0.000000 0.000000 0.073856 0.000000 0.026139
# 5 0.009743 0.000791 -0.003023 0.000000 0.042408 0.000000
# 6 0.000000 0.000000 0.000000 0.026139 0.000000 0.039200
#
#
# Mechanical properties :
#
#
# Convention : Reuss Voigt Hill
#
# Bulk Modulus (GPa) = 46.31849 51.12692 48.72270
# Shear Modulus (GPa) = 19.64246 24.93671 22.28958
#
# Velocity S-wave (km/s) = 2.93924 3.31174 3.13103
# Velocity P-wave (km/s) = 5.64717 6.09180 5.87370
#
# Compressibility (1/GPa) = 0.02158965
#
# Stress axis : x y z
#
# Youngs Moduli (GPa) = 53.16622 63.90054 44.87917
#
# Poissons Ratio (x) = 0.16802 0.48490
# Poissons Ratio (y) = 0.13980 0.18586
# Poissons Ratio (z) = 0.57444 0.26464
#
# Static dielectric constant tensor:
#      x y z
#    x 1.859260 0.000000 0.017160 
#    y 0.000000 1.917330 0.000000 
#    z 0.017160 0.000000 1.900920 
# 
# From -- ./inp_files/10029.got.cif
#   From: 2010.05.17/outbox.cif.g08.bks.cpg/sg9_6_cif.got.tgz:10029.got - 2010.06.03 20:04:27.
