data_PCOD9139152
_publ_section_title
;
Structure prediction by ZEFSAII (Michael W. Deem and Ramdas Pophale) SiO2 
 PCOD9139152
Probable space group: C C
;
_chemical_formula_sum "Si O2"
_cell_formula_units_Z 16
_cell_length_a 12.357192
_cell_length_b 7.823246
_cell_length_c 8.099971
_cell_angle_alpha 90.000000
_cell_angle_beta 133.017754
_cell_angle_gamma 90.000000
_cell_volume 572.521999
_symmetry_space_group_name_H-M "C C"
_symmetry_group_IT_number 9
_symmetry_cell_setting 'monoclinic'
loop_
_space_group_symop_operation_xyz
x,y,z
x,-y,1/2+z
1/2+x,1/2+y,z
1/2+x,1/2-y,1/2+z
loop_
_atom_site_type_symbol
_atom_site_label
_atom_site_fract_x
_atom_site_fract_y
_atom_site_fract_z
Si Si1 0.408490 0.949095 0.727550
Si Si2 0.857865 0.151604 0.874586
Si Si3 0.864346 0.822844 0.753304
Si Si4 0.169788 0.255864 0.868495
O O1 0.422130 0.840175 0.911973
O O2 0.238695 0.931165 0.482898
O O3 0.503453 0.823060 0.708187
O O4 0.443160 0.143263 0.798680
O O5 0.735095 0.151983 0.602842
O O6 0.954511 0.986721 0.919779
O O7 0.810032 0.133643 0.011523
O O8 0.740728 0.800003 0.766071
#
# Coordination Sequence:
#
# PCOD9139152 Si02
#       4
#     4   4   4   4
#     4  10  25  52  75 114 157 197 254 315 377 445
#     4  10  24  45  70 114 149 200 254 303 378 456
#     4  12  22  50  77 109 155 203 241 323 371 444
#     4  10  25  51  72 119 149 198 257 305 376 455
#
# _framework density 27.946521000000001
#
# number of rings (size 3 to 8) (size 9 to 14) (size 15 to 20)
#    1.500    0.000    2.500    1.500    0.000    4.000 
#   18.000    0.000    0.000    0.000    0.000    0.000 
#    0.000    0.000    0.000    0.000    0.000    0.000 
#
# Total GULP energy -44566.892645 kJ/mol
# GULP energy per Si atom -5570.861581 kJ/mol
# Density = 2.788291 g / cm^3
# Si number density = 27.946521 Si / 1000 Ang^3
#
#
#
# Elastic Constant Matrix: (Units=GPa)
#
#
# Indices 1 2 3 4 5 6 
#
# 1 153.5192 -1.4515 73.0214 0.0000 -37.0138 0.0000
# 2 -1.4515 160.2856 35.7710 0.0000 -1.0799 0.0000
# 3 73.0214 35.7710 115.3556 0.0000 -32.3756 0.0000
# 4 0.0000 0.0000 0.0000 27.1639 0.0000 -18.6925
# 5 -37.0138 -1.0799 -32.3756 0.0000 65.1729 0.0000
# 6 0.0000 0.0000 0.0000 -18.6925 0.0000 30.4587
#
#
#
# Elastic Compliance Matrix: (Units=1/GPa)
#
#
# Indices 1 2 3 4 5 6 
#
# 1 0.010069 0.001462 -0.006060 0.000000 0.002732 0.000000
# 2 0.001462 0.006980 -0.003282 0.000000 -0.000684 0.000000
# 3 -0.006060 -0.003282 0.014573 0.000000 0.003743 0.000000
# 4 0.000000 0.000000 0.000000 0.063726 0.000000 0.039108
# 5 0.002732 -0.000684 0.003743 0.000000 0.018744 0.000000
# 6 0.000000 0.000000 0.000000 0.039108 0.000000 0.056832
#
#
# Mechanical properties :
#
#
# Convention : Reuss Voigt Hill
#
# Bulk Modulus (GPa) = 63.04456 71.53802 67.29129
# Shear Modulus (GPa) = 26.04550 46.01372 36.02961
#
# Velocity S-wave (km/s) = 3.05614 4.06210 3.59449
# Velocity P-wave (km/s) = 5.92126 6.90323 6.43102
#
# Compressibility (1/GPa) = 0.01586180
#
# Stress axis : x y z
#
# Youngs Moduli (GPa) = 99.31463 143.26757 68.61785
#
# Poissons Ratio (x) = -0.20947 0.41585
# Poissons Ratio (y) = -0.14521 0.22521
# Poissons Ratio (z) = 0.60188 0.47021
#
# Static dielectric constant tensor:
#      x y z
#    x 2.178430 0.000000 0.045070 
#    y 0.000000 2.294180 0.000000 
#    z 0.045070 0.000000 2.245120 
# 
# From -- ./inp_files/6693.got.cif
#   From: 2010.05.17/outbox.cif.g08.bks.cpg/sg9_4_cif.got.tgz:6693.got - 2010.06.03 20:04:27.
