data_PCOD9139525
_publ_section_title
;
Structure prediction by ZEFSAII (Michael W. Deem and Ramdas Pophale) SiO2 
 PCOD9139525
Probable space group: C C
;
_chemical_formula_sum "Si O2"
_cell_formula_units_Z 20
_cell_length_a 6.660326
_cell_length_b 12.146940
_cell_length_c 13.804444
_cell_angle_alpha 90.000000
_cell_angle_beta 135.626865
_cell_angle_gamma 90.000000
_cell_volume 781.020388
_symmetry_space_group_name_H-M "C C"
_symmetry_group_IT_number 9
_symmetry_cell_setting 'monoclinic'
loop_
_space_group_symop_operation_xyz
x,y,z
x,-y,1/2+z
1/2+x,1/2+y,z
1/2+x,1/2-y,1/2+z
loop_
_atom_site_type_symbol
_atom_site_label
_atom_site_fract_x
_atom_site_fract_y
_atom_site_fract_z
Si Si1 0.348320 0.096383 0.091060
Si Si2 0.752118 0.002604 0.598648
Si Si3 0.227024 0.745878 0.103977
Si Si4 0.692200 0.863044 0.883462
Si Si5 0.827331 0.851433 0.307875
O O1 0.519046 0.209672 0.121545
O O2 0.516906 0.064138 0.245493
O O3 0.432550 0.016721 0.031509
O O4 0.011934 0.110549 0.964343
O O5 0.756551 0.069057 0.502221
O O6 0.881415 0.070182 0.733430
O O7 0.847210 0.875558 0.618304
O O8 0.496481 0.823464 0.213238
O O9 0.996027 0.808068 0.955658
O O10 0.477043 0.763814 0.832085
#
# Coordination Sequence:
#
# PCOD9139525 Si02
#       5
#     4   4   4   4   4
#     4   9  24  47  72 110 144 187 246 300 357 440
#     4  10  25  49  71 105 152 186 250 291 362 434
#     4   9  24  46  76 100 150 190 235 302 366 424
#     4  11  23  49  74 107 148 191 244 301 362 429
#     4  11  22  45  79 104 146 192 237 302 365 429
#
# _framework density 25.607527000000001
#
# number of rings (size 3 to 8) (size 9 to 14) (size 15 to 20)
#    1.200    0.800    0.000    2.400    2.800    4.800 
#   14.400    0.000    0.000    0.000    0.000    0.000 
#    0.000    0.000    0.000    0.000    0.000    0.000 
#
# Total GULP energy -55781.620156 kJ/mol
# GULP energy per Si atom -5578.162016 kJ/mol
# Density = 2.554924 g / cm^3
# Si number density = 25.607527 Si / 1000 Ang^3
#
#
#
# Elastic Constant Matrix: (Units=GPa)
#
#
# Indices 1 2 3 4 5 6 
#
# 1 56.4315 42.3130 59.2029 0.0003 -6.1190 0.0001
# 2 42.3130 166.1292 72.0775 -0.0001 -8.6124 0.0000
# 3 59.2029 72.0775 222.8015 0.0007 14.6318 0.0006
# 4 0.0003 -0.0001 0.0007 29.0887 0.0004 0.5967
# 5 -6.1190 -8.6124 14.6318 0.0004 51.6245 0.0002
# 6 0.0001 0.0000 0.0006 0.5967 0.0002 24.6907
#
#
#
# Elastic Compliance Matrix: (Units=1/GPa)
#
#
# Indices 1 2 3 4 5 6 
#
# 1 0.028012 -0.004127 -0.006400 0.000000 0.004446 0.000000
# 2 -0.004127 0.007787 -0.001504 0.000000 0.001236 0.000000
# 3 -0.006400 -0.001504 0.006869 0.000000 -0.002956 0.000000
# 4 0.000000 0.000000 0.000000 0.034395 0.000000 -0.000831
# 5 0.004446 0.001236 -0.002956 0.000000 0.020942 0.000000
# 6 0.000000 0.000000 0.000000 -0.000831 0.000000 0.040521
#
#
# Mechanical properties :
#
#
# Convention : Reuss Voigt Hill
#
# Bulk Modulus (GPa) = 53.74518 88.06100 70.90309
# Shear Modulus (GPa) = 29.62263 39.19870 34.41067
#
# Velocity S-wave (km/s) = 3.40486 3.91672 3.66973
# Velocity P-wave (km/s) = 6.04078 7.41065 6.76050
#
# Compressibility (1/GPa) = 0.01860632
#
# Stress axis : x y z
#
# Youngs Moduli (GPa) = 35.69937 128.41769 145.57111
#
# Poissons Ratio (x) = 0.53003 0.93166
# Poissons Ratio (y) = 0.14734 0.21888
# Poissons Ratio (z) = 0.22848 0.19309
#
# Static dielectric constant tensor:
#      x y z
#    x 2.022340 0.000000 -0.018960 
#    y 0.000000 2.097660 0.000000 
#    z -0.018960 0.000000 2.026140 
# 
# From -- ./inp_files/4833.got.cif
#   From: 2010.05.17/outbox.cif.g08.bks.cpg/sg9_3_cif.got.tgz:4833.got - 2010.06.03 20:04:27.
