data_PCOD9139280
_publ_section_title
;
Structure prediction by ZEFSAII (Michael W. Deem and Ramdas Pophale) SiO2 
 PCOD9139280
Probable space group: C C
;
_chemical_formula_sum "Si O2"
_cell_formula_units_Z 24
_cell_length_a 12.742343
_cell_length_b 7.870338
_cell_length_c 9.161657
_cell_angle_alpha 90.000000
_cell_angle_beta 72.691321
_cell_angle_gamma 90.000000
_cell_volume 877.184174
_symmetry_space_group_name_H-M "C C"
_symmetry_group_IT_number 9
_symmetry_cell_setting 'monoclinic'
loop_
_space_group_symop_operation_xyz
x,y,z
x,-y,1/2+z
1/2+x,1/2+y,z
1/2+x,1/2-y,1/2+z
loop_
_atom_site_type_symbol
_atom_site_label
_atom_site_fract_x
_atom_site_fract_y
_atom_site_fract_z
Si Si1 0.660770 0.849020 0.030580
Si Si2 0.371877 0.990437 0.824294
Si Si3 0.488001 0.862655 0.515094
Si Si4 0.443787 0.649319 0.891398
Si Si5 0.116462 0.012293 0.482293
Si Si6 0.297792 0.459424 0.717865
O O1 0.610661 0.663502 0.077819
O O2 0.582283 0.002469 0.015143
O O3 0.722667 0.918508 0.148107
O O4 0.878346 0.127888 0.069929
O O5 0.386974 0.945648 0.648701
O O6 0.452113 0.845690 0.856574
O O7 0.246230 0.953574 0.918075
O O8 0.433170 0.149685 0.876184
O O9 0.544019 0.682641 0.537020
O O10 0.559808 0.558338 0.857564
O O11 0.366526 0.571983 0.800870
O O12 0.234668 0.668045 0.352196
#
# Coordination Sequence:
#
# PCOD9139280 Si02
#       6
#     4   4   4   4   4   4
#     4  11  25  52  82 120 165 222 266 345 405 486
#     4  12  30  52  79 119 166 206 278 338 402 483
#     4  12  29  56  76 124 165 210 277 342 396 493
#     4  11  25  51  77 120 162 216 269 337 397 491
#     4  12  29  50  87 116 160 224 268 326 427 477
#     4  10  24  47  83 119 166 210 280 332 403 482
#
# _framework density 27.360274
#
# number of rings (size 3 to 8) (size 9 to 14) (size 15 to 20)
#    0.000    0.667    1.667    4.000    9.333    2.667 
#    9.000    0.000    0.000    0.000    0.000    0.000 
#    0.000    0.000    0.000    0.000    0.000    0.000 
#
# Total GULP energy -67143.450982 kJ/mol
# GULP energy per Si atom -5595.287582 kJ/mol
# Density = 2.729800 g / cm^3
# Si number density = 27.360274 Si / 1000 Ang^3
#
#
#
# Elastic Constant Matrix: (Units=GPa)
#
#
# Indices 1 2 3 4 5 6 
#
# 1 181.2531 54.1088 41.1570 0.0000 13.4656 0.0000
# 2 54.1088 127.2495 27.6416 0.0000 -4.6903 0.0000
# 3 41.1570 27.6416 116.9239 0.0000 5.3173 0.0000
# 4 0.0000 0.0000 0.0000 31.3419 0.0000 1.3008
# 5 13.4656 -4.6903 5.3173 0.0000 41.3512 0.0000
# 6 0.0000 0.0000 0.0000 1.3008 0.0000 57.6333
#
#
#
# Elastic Compliance Matrix: (Units=1/GPa)
#
#
# Indices 1 2 3 4 5 6 
#
# 1 0.006859 -0.002636 -0.001686 0.000000 -0.002316 0.000000
# 2 -0.002636 0.009356 -0.001380 0.000000 0.002097 0.000000
# 3 -0.001686 -0.001380 0.009510 0.000000 -0.000830 0.000000
# 4 0.000000 0.000000 0.000000 0.031936 0.000000 -0.000721
# 5 -0.002316 0.002097 -0.000830 0.000000 0.025282 0.000000
# 6 0.000000 0.000000 0.000000 -0.000721 0.000000 0.017367
#
#
# Mechanical properties :
#
#
# Convention : Reuss Voigt Hill
#
# Bulk Modulus (GPa) = 69.81835 74.58236 72.20036
# Shear Modulus (GPa) = 42.92343 46.23323 44.57833
#
# Velocity S-wave (km/s) = 3.96513 4.11517 4.04085
# Velocity P-wave (km/s) = 6.82177 7.06385 6.94387
#
# Compressibility (1/GPa) = 0.01432288
#
# Stress axis : x y z
#
# Youngs Moduli (GPa) = 145.79818 106.88051 105.15370
#
# Poissons Ratio (x) = 0.28170 0.17728
# Poissons Ratio (y) = 0.38427 0.14506
# Poissons Ratio (z) = 0.24580 0.14744
#
# Static dielectric constant tensor:
#      x y z
#    x 2.124780 0.000000 0.016640 
#    y 0.000000 2.179480 0.000000 
#    z 0.016640 0.000000 2.324280 
# 
# From -- ./inp_files/29631.got.cif
#   From: 2010.05.17/outbox.cif.g08.bks.cpg/sg9_15_cif.got.tgz:29631.got - 2010.06.03 20:04:27.
