data_PCOD9139468
_publ_section_title
;
Structure prediction by ZEFSAII (Michael W. Deem and Ramdas Pophale) SiO2 
 PCOD9139468
Probable space group: C C
;
_chemical_formula_sum "Si O2"
_cell_formula_units_Z 28
_cell_length_a 17.327534
_cell_length_b 7.737153
_cell_length_c 11.733002
_cell_angle_alpha 90.000000
_cell_angle_beta 54.219495
_cell_angle_gamma 90.000000
_cell_volume 1276.111593
_symmetry_space_group_name_H-M "C C"
_symmetry_group_IT_number 9
_symmetry_cell_setting 'monoclinic'
loop_
_space_group_symop_operation_xyz
x,y,z
x,-y,1/2+z
1/2+x,1/2+y,z
1/2+x,1/2-y,1/2+z
loop_
_atom_site_type_symbol
_atom_site_label
_atom_site_fract_x
_atom_site_fract_y
_atom_site_fract_z
Si Si1 0.580560 0.121404 0.593530
Si Si2 0.490902 0.758965 0.680660
Si Si3 0.309945 0.122679 0.208989
Si Si4 0.278627 0.345693 0.014514
Si Si5 0.386251 0.227259 0.714442
Si Si6 0.447489 0.591893 0.939115
Si Si7 0.606301 0.517230 0.950289
O O1 0.667776 0.104438 0.604984
O O2 0.476092 0.189475 0.719299
O O3 0.606859 0.276438 0.480740
O O4 0.552459 0.924243 0.584887
O O5 0.385621 0.765108 0.715930
O O6 0.474698 0.747489 0.830527
O O7 0.548064 0.588117 0.595915
O O8 0.293753 0.209531 0.101839
O O9 0.362656 0.939915 0.160298
O O10 0.208385 0.074291 0.351500
O O11 0.301772 0.271825 0.870332
O O12 0.359263 0.490755 0.961050
O O13 0.410989 0.363113 0.596895
O O14 0.546266 0.495486 0.884664
#
# Coordination Sequence:
#
# PCOD9139468 Si02
#       7
#     4   4   4   4   4   4   4
#     4  10  25  46  70 103 141 188 239 293 360 429
#     4  11  26  49  70 107 144 194 242 298 362 437
#     4  11  26  44  74 101 142 191 240 291 373 424
#     4  12  25  45  73 107 144 189 241 304 357 434
#     4  10  25  47  67 104 145 183 241 298 356 437
#     4  11  25  44  73 100 147 189 241 299 361 426
#     4  11  24  49  69 106 147 188 240 303 359 433
#
# _framework density 21.941654
#
# number of rings (size 3 to 8) (size 9 to 14) (size 15 to 20)
#    0.000    1.143    2.857    1.714   10.000    1.143 
#    5.143    0.000    0.000    0.000    0.000    0.000 
#    0.000    0.000    0.000    0.000    0.000    0.000 
#
# Total GULP energy -77983.665895 kJ/mol
# GULP energy per Si atom -5570.261850 kJ/mol
# Density = 2.189171 g / cm^3
# Si number density = 21.941654 Si / 1000 Ang^3
#
#
#
# Elastic Constant Matrix: (Units=GPa)
#
#
# Indices 1 2 3 4 5 6 
#
# 1 160.4591 37.9950 33.9714 0.0000 -23.5731 0.0000
# 2 37.9950 91.0412 30.9426 0.0000 -0.0974 0.0000
# 3 33.9714 30.9426 78.9193 0.0000 -1.1643 0.0000
# 4 0.0000 0.0000 0.0000 15.6363 0.0000 6.6965
# 5 -23.5731 -0.0974 -1.1643 0.0000 34.8116 0.0000
# 6 0.0000 0.0000 0.0000 6.6965 0.0000 29.0077
#
#
#
# Elastic Compliance Matrix: (Units=1/GPa)
#
#
# Indices 1 2 3 4 5 6 
#
# 1 0.008152 -0.002574 -0.002420 0.000000 0.005432 0.000000
# 2 -0.002574 0.013486 -0.004207 0.000000 -0.001846 0.000000
# 3 -0.002420 -0.004207 0.015345 0.000000 -0.001137 0.000000
# 4 0.000000 0.000000 0.000000 0.070970 0.000000 -0.016384
# 5 0.005432 -0.001846 -0.001137 0.000000 0.032361 0.000000
# 6 0.000000 0.000000 0.000000 -0.016384 0.000000 0.038256
#
#
# Mechanical properties :
#
#
# Convention : Reuss Voigt Hill
#
# Bulk Modulus (GPa) = 53.81446 59.58194 56.69820
# Shear Modulus (GPa) = 24.61045 31.05850 27.83447
#
# Velocity S-wave (km/s) = 3.35271 3.76640 3.56556
# Velocity P-wave (km/s) = 6.29023 6.79176 6.54580
#
# Compressibility (1/GPa) = 0.01858237
#
# Stress axis : x y z
#
# Youngs Moduli (GPa) = 122.67088 74.15065 65.16599
#
# Poissons Ratio (x) = 0.19085 0.15768
# Poissons Ratio (y) = 0.31574 0.27415
# Poissons Ratio (z) = 0.29683 0.31194
#
# Static dielectric constant tensor:
#      x y z
#    x 1.860200 0.000000 -0.011180 
#    y 0.000000 1.848310 0.000000 
#    z -0.011180 0.000000 1.763260 
# 
# From -- ./inp_files/17706.got.cif
#   From: 2010.05.17/outbox.cif.g08.bks.cpg/sg9_9_cif.got.tgz:17706.got - 2010.06.03 20:04:27.
