data_PCOD9139865
_publ_section_title
;
Structure prediction by ZEFSAII (Michael W. Deem and Ramdas Pophale) SiO2 
 PCOD9139865
Probable space group: C C
;
_chemical_formula_sum "Si O2"
_cell_formula_units_Z 28
_cell_length_a 4.792024
_cell_length_b 12.150197
_cell_length_c 17.296199
_cell_angle_alpha 90.000000
_cell_angle_beta 88.566046
_cell_angle_gamma 90.000000
_cell_volume 1006.739133
_symmetry_space_group_name_H-M "C C"
_symmetry_group_IT_number 9
_symmetry_cell_setting 'monoclinic'
loop_
_space_group_symop_operation_xyz
x,y,z
x,-y,1/2+z
1/2+x,1/2+y,z
1/2+x,1/2-y,1/2+z
loop_
_atom_site_type_symbol
_atom_site_label
_atom_site_fract_x
_atom_site_fract_y
_atom_site_fract_z
Si Si1 0.431470 0.702052 0.165410
Si Si2 0.501559 0.670208 0.335183
Si Si3 0.738826 0.350969 0.402351
Si Si4 0.195719 0.425394 0.315964
Si Si5 0.053998 0.410383 0.916149
Si Si6 0.419015 0.351816 0.157065
Si Si7 0.419743 0.472318 0.542121
O O1 0.574740 0.652998 0.241944
O O2 0.167470 0.777781 0.189330
O O3 0.312909 0.614264 0.105913
O O4 0.678056 0.773164 0.125449
O O5 0.272723 0.565755 0.336592
O O6 0.495683 0.805939 0.328269
O O7 0.754270 0.641110 0.392161
O O8 0.475504 0.375111 0.350003
O O9 0.952174 0.459268 0.385318
O O10 0.737094 0.213228 0.414688
O O11 0.618233 0.400913 0.485454
O O12 0.251450 0.420729 0.223625
O O13 0.188642 0.463688 0.993198
O O14 0.554776 0.431211 0.092466
#
# Coordination Sequence:
#
# PCOD9139865 Si02
#       7
#     4   4   4   4   4   4   4
#     4  12  28  50  84 118 161 221 281 354 421 510
#     4  12  23  48  79 117 156 218 291 330 416 509
#     4  11  24  46  77 110 162 209 271 351 408 491
#     4  11  21  47  73 109 153 211 274 342 408 491
#     4  11  26  44  78 114 161 215 269 348 421 501
#     4  12  26  50  81 114 160 219 278 349 433 506
#     4  11  30  53  76 124 175 217 278 362 433 498
#
# _framework density 27.812567999999999
#
# number of rings (size 3 to 8) (size 9 to 14) (size 15 to 20)
#    0.000    0.571    2.857    4.286    2.000    9.143 
#    0.000    0.000    0.000    0.000    0.000    0.000 
#    0.000    0.000    0.000    0.000    0.000    0.000 
#
# Total GULP energy -78198.229668 kJ/mol
# GULP energy per Si atom -5585.587833 kJ/mol
# Density = 2.774927 g / cm^3
# Si number density = 27.812568 Si / 1000 Ang^3
#
#
#
# Elastic Constant Matrix: (Units=GPa)
#
#
# Indices 1 2 3 4 5 6 
#
# 1 184.0094 64.9469 69.8553 0.0000 7.7844 0.0000
# 2 64.9469 207.2979 87.0084 0.0000 -16.4392 0.0000
# 3 69.8553 87.0084 140.6997 0.0000 -10.2347 0.0000
# 4 0.0000 0.0000 0.0000 48.3535 0.0000 -2.4715
# 5 7.7844 -16.4392 -10.2347 0.0000 27.9436 0.0000
# 6 0.0000 0.0000 0.0000 -2.4715 0.0000 64.9502
#
#
#
# Elastic Compliance Matrix: (Units=1/GPa)
#
#
# Indices 1 2 3 4 5 6 
#
# 1 0.007218 -0.001279 -0.003076 0.000000 -0.003890 0.000000
# 2 -0.001279 0.006905 -0.003404 0.000000 0.003172 0.000000
# 3 -0.003076 -0.003404 0.010948 0.000000 0.002864 0.000000
# 4 0.000000 0.000000 0.000000 0.020721 0.000000 0.000788
# 5 -0.003890 0.003172 0.002864 0.000000 0.039785 0.000000
# 6 0.000000 0.000000 0.000000 0.000788 0.000000 0.015426
#
#
# Mechanical properties :
#
#
# Convention : Reuss Voigt Hill
#
# Bulk Modulus (GPa) = 104.67889 108.40315 106.54102
# Shear Modulus (GPa) = 41.76891 48.92921 45.34906
#
# Velocity S-wave (km/s) = 3.87951 4.19889 4.04236
# Velocity P-wave (km/s) = 7.60174 7.91003 7.75741
#
# Compressibility (1/GPa) = 0.00955302
#
# Stress axis : x y z
#
# Youngs Moduli (GPa) = 138.54051 144.82009 91.34090
#
# Poissons Ratio (x) = 0.18522 0.28094
# Poissons Ratio (y) = 0.17719 0.31096
# Poissons Ratio (z) = 0.42611 0.49303
#
# Static dielectric constant tensor:
#      x y z
#    x 2.209820 0.000000 -0.139010 
#    y 0.000000 2.281690 0.000000 
#    z -0.139010 0.000000 2.084490 
# 
# From -- ./inp_files/32041.got.cif
#   From: 2010.05.17/outbox.cif.g08.bks.cpg/sg9_17_cif.got.tgz:32041.got - 2010.06.03 20:04:27.
