data_PCOD9139411
_publ_section_title
;
Structure prediction by ZEFSAII (Michael W. Deem and Ramdas Pophale) SiO2 
 PCOD9139411
Probable space group: C C
;
_chemical_formula_sum "Si O2"
_cell_formula_units_Z 28
_cell_length_a 21.718028
_cell_length_b 5.229601
_cell_length_c 9.622021
_cell_angle_alpha 90.000000
_cell_angle_beta 109.814443
_cell_angle_gamma 90.000000
_cell_volume 1028.135622
_symmetry_space_group_name_H-M "C C"
_symmetry_group_IT_number 9
_symmetry_cell_setting 'monoclinic'
loop_
_space_group_symop_operation_xyz
x,y,z
x,-y,1/2+z
1/2+x,1/2+y,z
1/2+x,1/2-y,1/2+z
loop_
_atom_site_type_symbol
_atom_site_label
_atom_site_fract_x
_atom_site_fract_y
_atom_site_fract_z
Si Si1 0.003120 0.167995 0.672340
Si Si2 0.620788 0.351467 0.859468
Si Si3 0.160328 0.785611 0.609662
Si Si4 0.883094 0.077969 0.964849
Si Si5 0.026123 0.471566 0.936328
Si Si6 0.328364 0.093315 0.794815
Si Si7 0.776126 0.763840 0.018239
O O1 0.982040 0.296268 0.802416
O O2 0.999572 0.365915 0.543035
O O3 0.954499 0.944781 0.587430
O O4 0.078115 0.081618 0.756415
O O5 0.671235 0.262553 0.781241
O O6 0.564026 0.159768 0.859979
O O7 0.656196 0.445450 0.025375
O O8 0.085961 0.691873 0.541235
O O9 0.213213 0.642886 0.555094
O O10 0.872627 0.848433 0.842933
O O11 0.830091 0.981572 0.037718
O O12 0.864757 0.355205 0.896892
O O13 0.268326 0.167080 0.853620
O O14 0.305012 0.967313 0.634222
#
# Coordination Sequence:
#
# PCOD9139411 Si02
#       7
#     4   4   4   4   4   4   4
#     4  11  25  43  70  98 140 176 234 285 348 416
#     4  11  23  42  64  99 136 177 225 281 346 409
#     4  11  23  43  68 100 134 180 226 289 342 418
#     4  10  27  44  74 102 141 183 230 290 350 416
#     4  11  24  43  66 104 133 184 225 285 350 415
#     4  10  25  47  67 108 136 184 235 280 358 406
#     4  10  25  44  71 101 140 182 237 290 350 416
#
# _framework density 27.233761999999999
#
# number of rings (size 3 to 8) (size 9 to 14) (size 15 to 20)
#    0.857    0.571    2.857    0.857    6.000    3.429 
#    0.000    0.000    0.000    0.000    0.000    0.000 
#    0.000    0.000    0.000    0.000    0.000    0.000 
#
# Total GULP energy -78321.191233 kJ/mol
# GULP energy per Si atom -5594.370802 kJ/mol
# Density = 2.717178 g / cm^3
# Si number density = 27.233762 Si / 1000 Ang^3
#
#
#
# Elastic Constant Matrix: (Units=GPa)
#
#
# Indices 1 2 3 4 5 6 
#
# 1 80.4447 3.0135 4.0587 0.0000 -6.4875 0.0000
# 2 3.0135 101.2826 25.7759 0.0000 -1.3795 0.0000
# 3 4.0587 25.7759 108.8630 0.0000 -18.5601 0.0000
# 4 0.0000 0.0000 0.0000 45.9825 0.0000 -5.1947
# 5 -6.4875 -1.3795 -18.5601 0.0000 36.2419 0.0000
# 6 0.0000 0.0000 0.0000 -5.1947 0.0000 18.4939
#
#
#
# Elastic Compliance Matrix: (Units=1/GPa)
#
#
# Indices 1 2 3 4 5 6 
#
# 1 0.012625 -0.000343 -0.000007 0.000000 0.002243 0.000000
# 2 -0.000343 0.010546 -0.002658 0.000000 -0.001021 0.000000
# 3 -0.000007 -0.002658 0.010735 0.000000 0.005395 0.000000
# 4 0.000000 0.000000 0.000000 0.022460 0.000000 0.006309
# 5 0.002243 -0.001021 0.005395 0.000000 0.030718 0.000000
# 6 0.000000 0.000000 0.000000 0.006309 0.000000 0.055844
#
#
# Mechanical properties :
#
#
# Convention : Reuss Voigt Hill
#
# Bulk Modulus (GPa) = 35.85603 39.58739 37.72171
# Shear Modulus (GPa) = 31.59705 37.32647 34.46176
#
# Velocity S-wave (km/s) = 3.40989 3.70617 3.56111
# Velocity P-wave (km/s) = 5.35703 5.73428 5.54886
#
# Compressibility (1/GPa) = 0.02788931
#
# Stress axis : x y z
#
# Youngs Moduli (GPa) = 79.20777 94.82070 93.14966
#
# Poissons Ratio (x) = 0.03255 0.00065
# Poissons Ratio (y) = 0.02719 0.24763
# Poissons Ratio (z) = 0.00055 0.25207
#
# Static dielectric constant tensor:
#      x y z
#    x 2.148940 0.000000 -0.042300 
#    y 0.000000 2.199570 0.000000 
#    z -0.042300 0.000000 2.204510 
# 
# From -- ./inp_files/12312.got.cif
#   From: 2010.05.17/outbox.cif.g08.bks.cpg/sg9_7_cif.got.tgz:12312.got - 2010.06.03 20:04:27.
