data_PCOD9139098
_publ_section_title
;
Structure prediction by ZEFSAII (Michael W. Deem and Ramdas Pophale) SiO2 
 PCOD9139098
Probable space group: C C
;
_chemical_formula_sum "Si O2"
_cell_formula_units_Z 32
_cell_length_a 33.182361
_cell_length_b 8.430157
_cell_length_c 8.549371
_cell_angle_alpha 90.000000
_cell_angle_beta 144.723704
_cell_angle_gamma 90.000000
_cell_volume 1381.160296
_symmetry_space_group_name_H-M "C C"
_symmetry_group_IT_number 9
_symmetry_cell_setting 'monoclinic'
loop_
_space_group_symop_operation_xyz
x,y,z
x,-y,1/2+z
1/2+x,1/2+y,z
1/2+x,1/2-y,1/2+z
loop_
_atom_site_type_symbol
_atom_site_label
_atom_site_fract_x
_atom_site_fract_y
_atom_site_fract_z
Si Si1 0.550020 0.741752 0.746220
Si Si2 0.535504 0.563582 0.371083
Si Si3 0.182510 0.420128 0.042962
Si Si4 0.792292 0.353681 0.405654
Si Si5 0.879735 0.863959 0.393056
Si Si6 0.162849 0.259071 0.642468
Si Si7 0.307221 0.328911 0.660594
Si Si8 0.903380 0.362929 0.256387
O O1 0.539241 0.625917 0.561289
O O2 0.551958 0.621608 0.897783
O O3 0.486453 0.868906 0.546377
O O4 0.620931 0.832143 0.940389
O O5 0.590219 0.671070 0.447244
O O6 0.455171 0.587390 0.067522
O O7 0.166914 0.606756 0.020120
O O8 0.253229 0.371578 0.353949
O O9 0.181500 0.354941 0.862136
O O10 0.831380 0.205932 0.606896
O O11 0.721780 0.370741 0.282660
O O12 0.775193 0.298043 0.177159
O O13 0.850589 0.489846 0.590611
O O14 0.891896 0.726443 0.556971
O O15 0.837047 0.010175 0.329587
O O16 0.375144 0.249447 0.802370
#
# Coordination Sequence:
#
# PCOD9139098 Si02
#       8
#     4   4   4   4   4   4   4   4
#     4  10  24  46  70 100 140 182 232 287 345 415
#     4  10  24  44  70  99 135 185 227 289 342 412
#     4  11  25  45  70 102 140 183 235 283 349 419
#     4  12  26  42  70 105 140 185 231 293 355 411
#     4  11  23  45  70  98 140 182 236 285 348 427
#     4  11  25  46  68 104 140 183 233 287 349 419
#     4  12  24  43  72 101 137 192 228 288 352 416
#     4  11  25  45  68 103 142 180 236 294 348 417
#
# _framework density 23.168925000000002
#
# number of rings (size 3 to 8) (size 9 to 14) (size 15 to 20)
#    0.000    1.000    2.500    3.000    5.250    2.000 
#    2.250    0.000    0.000    0.000    0.000    0.000 
#    0.000    0.000    0.000    0.000    0.000    0.000 
#
# Total GULP energy -89483.019732 kJ/mol
# GULP energy per Si atom -5592.688733 kJ/mol
# Density = 2.311619 g / cm^3
# Si number density = 23.168925 Si / 1000 Ang^3
#
#
#
# Elastic Constant Matrix: (Units=GPa)
#
#
# Indices 1 2 3 4 5 6 
#
# 1 108.6824 32.4604 31.0914 0.0000 29.2179 0.0000
# 2 32.4604 81.1776 2.5070 0.0000 7.8141 0.0000
# 3 31.0914 2.5070 37.9433 0.0000 17.9093 0.0000
# 4 0.0000 0.0000 0.0000 31.3495 0.0000 9.2453
# 5 29.2179 7.8141 17.9093 0.0000 34.9886 0.0000
# 6 0.0000 0.0000 0.0000 9.2453 0.0000 42.2713
#
#
#
# Elastic Compliance Matrix: (Units=1/GPa)
#
#
# Indices 1 2 3 4 5 6 
#
# 1 0.015105 -0.005096 -0.008734 0.000000 -0.007005 0.000000
# 2 -0.005096 0.014321 0.003600 0.000000 -0.000786 0.000000
# 3 -0.008734 0.003600 0.039835 0.000000 -0.013900 0.000000
# 4 0.000000 0.000000 0.000000 0.034098 0.000000 -0.007458
# 5 -0.007005 -0.000786 -0.013900 0.000000 0.041721 0.000000
# 6 0.000000 0.000000 0.000000 -0.007458 0.000000 0.025288
#
#
# Mechanical properties :
#
#
# Convention : Reuss Voigt Hill
#
# Bulk Modulus (GPa) = 20.49126 39.99124 30.24125
# Shear Modulus (GPa) = 24.14357 32.50484 28.32420
#
# Velocity S-wave (km/s) = 3.23161 3.74966 3.50023
# Velocity P-wave (km/s) = 4.77366 6.00373 5.42368
#
# Compressibility (1/GPa) = 0.04880129
#
# Stress axis : x y z
#
# Youngs Moduli (GPa) = 66.20325 69.82835 25.10337
#
# Poissons Ratio (x) = 0.35584 0.21926
# Poissons Ratio (y) = 0.33737 -0.09038
# Poissons Ratio (z) = 0.57824 -0.25141
#
# Static dielectric constant tensor:
#      x y z
#    x 1.914160 0.000000 -0.003850 
#    y 0.000000 1.938200 0.000000 
#    z -0.003850 0.000000 1.844950 
# 
# From -- ./inp_files/12701.got.cif
#   From: 2010.05.17/outbox.cif.g08.bks.cpg/sg9_7_cif.got.tgz:12701.got - 2010.06.03 20:04:27.
