data_PCOD9139054
_publ_section_title
;
Structure prediction by ZEFSAII (Michael W. Deem and Ramdas Pophale) SiO2 
 PCOD9139054
Probable space group: C C
;
_chemical_formula_sum "Si O2"
_cell_formula_units_Z 28
_cell_length_a 11.870624
_cell_length_b 10.879234
_cell_length_c 17.487432
_cell_angle_alpha 90.000000
_cell_angle_beta 32.504370
_cell_angle_gamma 90.000000
_cell_volume 1213.574437
_symmetry_space_group_name_H-M "C C"
_symmetry_group_IT_number 9
_symmetry_cell_setting 'monoclinic'
loop_
_space_group_symop_operation_xyz
x,y,z
x,-y,1/2+z
1/2+x,1/2+y,z
1/2+x,1/2-y,1/2+z
loop_
_atom_site_type_symbol
_atom_site_label
_atom_site_fract_x
_atom_site_fract_y
_atom_site_fract_z
Si Si1 0.877580 0.332319 0.500000
Si Si2 0.171932 0.986192 0.313365
Si Si3 0.871913 0.930948 0.608620
Si Si4 0.016224 0.317696 0.047752
Si Si5 0.104752 0.167860 0.483387
Si Si6 0.484655 0.344394 0.802971
Si Si7 0.920412 0.615149 0.431602
O O1 0.639436 0.290426 0.651928
O O2 0.968077 0.251038 0.380921
O O3 0.878065 0.471967 0.473414
O O4 0.008993 0.290486 0.500454
O O5 0.953785 0.937576 0.474525
O O6 0.225542 0.091173 0.346188
O O7 0.355509 0.888800 0.195022
O O8 0.110755 0.042151 0.267054
O O9 0.641940 0.885923 0.760178
O O10 0.022905 0.828340 0.559180
O O11 0.920049 0.069282 0.609689
O O12 0.249131 0.373002 0.913980
O O13 0.935188 0.327331 0.007062
O O14 0.250565 0.176956 0.473405
#
# Coordination Sequence:
#
# PCOD9139054 Si02
#       7
#     4   4   4   4   4   4   4
#     4  11  24  48  73 103 139 192 241 293 368 425
#     4   9  23  45  63 101 134 182 239 288 367 428
#     4  10  24  44  67  99 140 185 235 289 370 420
#     4  12  25  43  72 100 142 182 243 300 364 438
#     4   9  24  46  71 100 145 187 239 297 358 438
#     4  11  25  43  72  99 138 185 240 297 354 448
#     4  12  25  45  70 108 142 189 241 296 367 437
#
# _framework density 23.072337999999998
#
# number of rings (size 3 to 8) (size 9 to 14) (size 15 to 20)
#    0.857    0.571    1.429    2.571    8.000    0.000 
#   12.857    0.000    0.000    0.000    0.000    0.000 
#    0.000    0.000    0.000    0.000    0.000    0.000 
#
# Total GULP energy -78142.994859 kJ/mol
# GULP energy per Si atom -5581.642490 kJ/mol
# Density = 2.301982 g / cm^3
# Si number density = 23.072338 Si / 1000 Ang^3
#
#
#
# Elastic Constant Matrix: (Units=GPa)
#
#
# Indices 1 2 3 4 5 6 
#
# 1 128.6527 15.2818 9.8379 -0.0001 0.4601 -0.0003
# 2 15.2818 39.6322 11.5047 -0.0003 -0.7487 0.0009
# 3 9.8379 11.5047 118.1378 -0.0025 8.8735 0.0035
# 4 -0.0001 -0.0003 -0.0025 17.2429 0.0005 -38.7584
# 5 0.4601 -0.7487 8.8735 0.0005 24.9520 -0.0001
# 6 -0.0003 0.0009 0.0035 -38.7584 -0.0001 -62.7487
#
#
#
# Elastic Compliance Matrix: (Units=1/GPa)
#
#
# Indices 1 2 3 4 5 6 
#
# 1 0.008163 -0.003041 -0.000376 0.000000 -0.000108 0.000000
# 2 -0.003041 0.027171 -0.002526 0.000000 0.001770 0.000000
# 3 -0.000376 -0.002526 0.008987 0.000001 -0.003265 0.000000
# 4 0.000000 0.000000 0.000001 0.024282 -0.000001 -0.014998
# 5 -0.000108 0.001770 -0.003265 -0.000001 0.041293 0.000000
# 6 0.000000 0.000000 0.000000 -0.014998 0.000000 -0.006672
#
#
# Mechanical properties :
#
#
# Convention : Reuss Voigt Hill
#
# Bulk Modulus (GPa) = 30.82851 39.96352 35.39601
# Shear Modulus (GPa) = 39.70769 12.54247 26.12508
#
# Velocity S-wave (km/s) = 4.15300 2.33408 3.36863
# Velocity P-wave (km/s) = 6.03219 4.96211 5.52312
#
# Compressibility (1/GPa) = 0.03243751
#
# Stress axis : x y z
#
# Youngs Moduli (GPa) = 122.50175 36.80385 111.26984
#
# Poissons Ratio (x) = 0.11191 0.04179
# Poissons Ratio (y) = 0.37249 0.28104
# Poissons Ratio (z) = 0.04601 0.09296
#
# Static dielectric constant tensor:
#      x y z
#    x 1.878160 0.000000 0.004990 
#    y 0.000000 1.910310 0.000000 
#    z 0.004990 0.000000 1.853070 
# 
# From -- ./inp_files/30040.got.cif
#   From: 2010.05.17/outbox.cif.g08.bks.cpg/sg9_16_cif.got.tgz:30040.got - 2010.06.03 20:04:27.
